[VMEM] WARNING: physical memory size is smaller than virtual memory size.

*** ChampSim Multicore Out-of-Order Simulator ***
Warmup Instructions: 50000000
Simulation Instructions: 200000000
Number of CPUs: 1
Page size: 4096
Core 0: /local-ssd/ben/dpc4-traces/SPEC17/605.mcf_s-472B.champsimtrace.xz
Off-chip DRAM Size: 64 GiB Channels: 1 Width: 64-bit Data Rate: 4807 MT/s
Heartbeat CPU 0 instructions: 500002 cycles: 199490 heartbeat IPC: 2.506 cumulative IPC: 2.506 (Simulation time: 00 hr 00 min 03 sec)
Heartbeat CPU 0 instructions: 1000008 cycles: 398002 heartbeat IPC: 2.519 cumulative IPC: 2.513 (Simulation time: 00 hr 00 min 06 sec)
Heartbeat CPU 0 instructions: 1500009 cycles: 648233 heartbeat IPC: 1.998 cumulative IPC: 2.314 (Simulation time: 00 hr 00 min 09 sec)
Heartbeat CPU 0 instructions: 2000013 cycles: 902881 heartbeat IPC: 1.964 cumulative IPC: 2.215 (Simulation time: 00 hr 00 min 13 sec)
Heartbeat CPU 0 instructions: 2500019 cycles: 1108735 heartbeat IPC: 2.429 cumulative IPC: 2.255 (Simulation time: 00 hr 00 min 16 sec)
Heartbeat CPU 0 instructions: 3000025 cycles: 1311655 heartbeat IPC: 2.464 cumulative IPC: 2.287 (Simulation time: 00 hr 00 min 18 sec)
Heartbeat CPU 0 instructions: 3500025 cycles: 1526457 heartbeat IPC: 2.328 cumulative IPC: 2.293 (Simulation time: 00 hr 00 min 21 sec)
Heartbeat CPU 0 instructions: 4000027 cycles: 1718467 heartbeat IPC: 2.604 cumulative IPC: 2.328 (Simulation time: 00 hr 00 min 24 sec)
Heartbeat CPU 0 instructions: 4500031 cycles: 1879555 heartbeat IPC: 3.104 cumulative IPC: 2.394 (Simulation time: 00 hr 00 min 27 sec)
Heartbeat CPU 0 instructions: 5000037 cycles: 2077663 heartbeat IPC: 2.524 cumulative IPC: 2.407 (Simulation time: 00 hr 00 min 29 sec)
Heartbeat CPU 0 instructions: 5500044 cycles: 2278520 heartbeat IPC: 2.489 cumulative IPC: 2.414 (Simulation time: 00 hr 00 min 32 sec)
Heartbeat CPU 0 instructions: 6000048 cycles: 2474442 heartbeat IPC: 2.552 cumulative IPC: 2.425 (Simulation time: 00 hr 00 min 35 sec)
Heartbeat CPU 0 instructions: 6500053 cycles: 2674025 heartbeat IPC: 2.505 cumulative IPC: 2.431 (Simulation time: 00 hr 00 min 37 sec)
Heartbeat CPU 0 instructions: 7000056 cycles: 2842416 heartbeat IPC: 2.969 cumulative IPC: 2.463 (Simulation time: 00 hr 00 min 40 sec)
Heartbeat CPU 0 instructions: 7500059 cycles: 3023329 heartbeat IPC: 2.764 cumulative IPC: 2.481 (Simulation time: 00 hr 00 min 43 sec)
Heartbeat CPU 0 instructions: 8000061 cycles: 3210903 heartbeat IPC: 2.666 cumulative IPC: 2.492 (Simulation time: 00 hr 00 min 45 sec)
Heartbeat CPU 0 instructions: 8500067 cycles: 3404391 heartbeat IPC: 2.584 cumulative IPC: 2.497 (Simulation time: 00 hr 00 min 48 sec)
Heartbeat CPU 0 instructions: 9000073 cycles: 3584682 heartbeat IPC: 2.773 cumulative IPC: 2.511 (Simulation time: 00 hr 00 min 51 sec)
Heartbeat CPU 0 instructions: 9500076 cycles: 3744648 heartbeat IPC: 3.126 cumulative IPC: 2.537 (Simulation time: 00 hr 00 min 53 sec)
Heartbeat CPU 0 instructions: 10000079 cycles: 3941208 heartbeat IPC: 2.544 cumulative IPC: 2.537 (Simulation time: 00 hr 00 min 56 sec)
Heartbeat CPU 0 instructions: 10500081 cycles: 4140519 heartbeat IPC: 2.509 cumulative IPC: 2.536 (Simulation time: 00 hr 00 min 59 sec)
Heartbeat CPU 0 instructions: 11000084 cycles: 4335395 heartbeat IPC: 2.566 cumulative IPC: 2.537 (Simulation time: 00 hr 01 min 01 sec)
Heartbeat CPU 0 instructions: 11500089 cycles: 4490400 heartbeat IPC: 3.226 cumulative IPC: 2.561 (Simulation time: 00 hr 01 min 04 sec)
Heartbeat CPU 0 instructions: 12000089 cycles: 4646127 heartbeat IPC: 3.211 cumulative IPC: 2.583 (Simulation time: 00 hr 01 min 07 sec)
Heartbeat CPU 0 instructions: 12500096 cycles: 4846476 heartbeat IPC: 2.496 cumulative IPC: 2.579 (Simulation time: 00 hr 01 min 09 sec)
Heartbeat CPU 0 instructions: 13000100 cycles: 5045102 heartbeat IPC: 2.517 cumulative IPC: 2.577 (Simulation time: 00 hr 01 min 12 sec)
Heartbeat CPU 0 instructions: 13500105 cycles: 5242625 heartbeat IPC: 2.531 cumulative IPC: 2.575 (Simulation time: 00 hr 01 min 15 sec)
Heartbeat CPU 0 instructions: 14000106 cycles: 5398471 heartbeat IPC: 3.208 cumulative IPC: 2.593 (Simulation time: 00 hr 01 min 18 sec)
Heartbeat CPU 0 instructions: 14500111 cycles: 5573045 heartbeat IPC: 2.864 cumulative IPC: 2.602 (Simulation time: 00 hr 01 min 21 sec)
Heartbeat CPU 0 instructions: 15000117 cycles: 5791668 heartbeat IPC: 2.287 cumulative IPC: 2.59 (Simulation time: 00 hr 01 min 24 sec)
Heartbeat CPU 0 instructions: 15500123 cycles: 6008396 heartbeat IPC: 2.307 cumulative IPC: 2.58 (Simulation time: 00 hr 01 min 26 sec)
Heartbeat CPU 0 instructions: 16000125 cycles: 6221756 heartbeat IPC: 2.343 cumulative IPC: 2.572 (Simulation time: 00 hr 01 min 29 sec)
Heartbeat CPU 0 instructions: 16500129 cycles: 6401869 heartbeat IPC: 2.776 cumulative IPC: 2.577 (Simulation time: 00 hr 01 min 32 sec)
Heartbeat CPU 0 instructions: 17000129 cycles: 6561404 heartbeat IPC: 3.134 cumulative IPC: 2.591 (Simulation time: 00 hr 01 min 35 sec)
Heartbeat CPU 0 instructions: 17500136 cycles: 6730453 heartbeat IPC: 2.958 cumulative IPC: 2.6 (Simulation time: 00 hr 01 min 38 sec)
Heartbeat CPU 0 instructions: 18000141 cycles: 6900485 heartbeat IPC: 2.941 cumulative IPC: 2.609 (Simulation time: 00 hr 01 min 41 sec)
Heartbeat CPU 0 instructions: 18500144 cycles: 7059847 heartbeat IPC: 3.138 cumulative IPC: 2.62 (Simulation time: 00 hr 01 min 43 sec)
Heartbeat CPU 0 instructions: 19000148 cycles: 7226584 heartbeat IPC: 2.999 cumulative IPC: 2.629 (Simulation time: 00 hr 01 min 46 sec)
Heartbeat CPU 0 instructions: 19500151 cycles: 7422356 heartbeat IPC: 2.554 cumulative IPC: 2.627 (Simulation time: 00 hr 01 min 49 sec)
Heartbeat CPU 0 instructions: 20000154 cycles: 7624674 heartbeat IPC: 2.471 cumulative IPC: 2.623 (Simulation time: 00 hr 01 min 52 sec)
Heartbeat CPU 0 instructions: 20500161 cycles: 7841020 heartbeat IPC: 2.311 cumulative IPC: 2.614 (Simulation time: 00 hr 01 min 54 sec)
Heartbeat CPU 0 instructions: 21000168 cycles: 8058878 heartbeat IPC: 2.295 cumulative IPC: 2.606 (Simulation time: 00 hr 01 min 57 sec)
Heartbeat CPU 0 instructions: 21500171 cycles: 8266840 heartbeat IPC: 2.404 cumulative IPC: 2.601 (Simulation time: 00 hr 02 min 00 sec)
Heartbeat CPU 0 instructions: 22000177 cycles: 8430898 heartbeat IPC: 3.048 cumulative IPC: 2.609 (Simulation time: 00 hr 02 min 03 sec)
Heartbeat CPU 0 instructions: 22500183 cycles: 8593908 heartbeat IPC: 3.067 cumulative IPC: 2.618 (Simulation time: 00 hr 02 min 06 sec)
Heartbeat CPU 0 instructions: 23000188 cycles: 8732119 heartbeat IPC: 3.618 cumulative IPC: 2.634 (Simulation time: 00 hr 02 min 08 sec)
Heartbeat CPU 0 instructions: 23500188 cycles: 8896804 heartbeat IPC: 3.036 cumulative IPC: 2.641 (Simulation time: 00 hr 02 min 11 sec)
Heartbeat CPU 0 instructions: 24000188 cycles: 9046473 heartbeat IPC: 3.341 cumulative IPC: 2.653 (Simulation time: 00 hr 02 min 14 sec)
Heartbeat CPU 0 instructions: 24500189 cycles: 9199035 heartbeat IPC: 3.277 cumulative IPC: 2.663 (Simulation time: 00 hr 02 min 17 sec)
Heartbeat CPU 0 instructions: 25000195 cycles: 9358459 heartbeat IPC: 3.136 cumulative IPC: 2.671 (Simulation time: 00 hr 02 min 19 sec)
Heartbeat CPU 0 instructions: 25500198 cycles: 9521422 heartbeat IPC: 3.068 cumulative IPC: 2.678 (Simulation time: 00 hr 02 min 22 sec)
Heartbeat CPU 0 instructions: 26000203 cycles: 9679795 heartbeat IPC: 3.157 cumulative IPC: 2.686 (Simulation time: 00 hr 02 min 25 sec)
Heartbeat CPU 0 instructions: 26500208 cycles: 9839939 heartbeat IPC: 3.122 cumulative IPC: 2.693 (Simulation time: 00 hr 02 min 28 sec)
Heartbeat CPU 0 instructions: 27000212 cycles: 10003849 heartbeat IPC: 3.05 cumulative IPC: 2.699 (Simulation time: 00 hr 02 min 31 sec)
Heartbeat CPU 0 instructions: 27500215 cycles: 10203132 heartbeat IPC: 2.509 cumulative IPC: 2.695 (Simulation time: 00 hr 02 min 33 sec)
Heartbeat CPU 0 instructions: 28000215 cycles: 10396907 heartbeat IPC: 2.58 cumulative IPC: 2.693 (Simulation time: 00 hr 02 min 36 sec)
Heartbeat CPU 0 instructions: 28500221 cycles: 10592473 heartbeat IPC: 2.557 cumulative IPC: 2.691 (Simulation time: 00 hr 02 min 39 sec)
Heartbeat CPU 0 instructions: 29000222 cycles: 10791600 heartbeat IPC: 2.511 cumulative IPC: 2.687 (Simulation time: 00 hr 02 min 41 sec)
Heartbeat CPU 0 instructions: 29500225 cycles: 10985415 heartbeat IPC: 2.58 cumulative IPC: 2.685 (Simulation time: 00 hr 02 min 44 sec)
Heartbeat CPU 0 instructions: 30000226 cycles: 11146231 heartbeat IPC: 3.109 cumulative IPC: 2.692 (Simulation time: 00 hr 02 min 47 sec)
Heartbeat CPU 0 instructions: 30500229 cycles: 11336452 heartbeat IPC: 2.629 cumulative IPC: 2.69 (Simulation time: 00 hr 02 min 49 sec)
Heartbeat CPU 0 instructions: 31000235 cycles: 11538162 heartbeat IPC: 2.479 cumulative IPC: 2.687 (Simulation time: 00 hr 02 min 52 sec)
Heartbeat CPU 0 instructions: 31500238 cycles: 11738585 heartbeat IPC: 2.495 cumulative IPC: 2.683 (Simulation time: 00 hr 02 min 55 sec)
Heartbeat CPU 0 instructions: 32000243 cycles: 11933167 heartbeat IPC: 2.57 cumulative IPC: 2.682 (Simulation time: 00 hr 02 min 57 sec)
Heartbeat CPU 0 instructions: 32500248 cycles: 12121621 heartbeat IPC: 2.653 cumulative IPC: 2.681 (Simulation time: 00 hr 03 min 00 sec)
Heartbeat CPU 0 instructions: 33000248 cycles: 12299176 heartbeat IPC: 2.816 cumulative IPC: 2.683 (Simulation time: 00 hr 03 min 03 sec)
Heartbeat CPU 0 instructions: 33500252 cycles: 12516001 heartbeat IPC: 2.306 cumulative IPC: 2.677 (Simulation time: 00 hr 03 min 06 sec)
Heartbeat CPU 0 instructions: 34000256 cycles: 12726793 heartbeat IPC: 2.372 cumulative IPC: 2.672 (Simulation time: 00 hr 03 min 09 sec)
Heartbeat CPU 0 instructions: 34500262 cycles: 12952456 heartbeat IPC: 2.216 cumulative IPC: 2.664 (Simulation time: 00 hr 03 min 12 sec)
Heartbeat CPU 0 instructions: 35000269 cycles: 13149157 heartbeat IPC: 2.542 cumulative IPC: 2.662 (Simulation time: 00 hr 03 min 14 sec)
Heartbeat CPU 0 instructions: 35500270 cycles: 13326355 heartbeat IPC: 2.822 cumulative IPC: 2.664 (Simulation time: 00 hr 03 min 17 sec)
Heartbeat CPU 0 instructions: 36000273 cycles: 13496946 heartbeat IPC: 2.931 cumulative IPC: 2.667 (Simulation time: 00 hr 03 min 20 sec)
Heartbeat CPU 0 instructions: 36500276 cycles: 13689166 heartbeat IPC: 2.601 cumulative IPC: 2.666 (Simulation time: 00 hr 03 min 22 sec)
Heartbeat CPU 0 instructions: 37000277 cycles: 13879827 heartbeat IPC: 2.622 cumulative IPC: 2.666 (Simulation time: 00 hr 03 min 25 sec)
Heartbeat CPU 0 instructions: 37500283 cycles: 14074992 heartbeat IPC: 2.562 cumulative IPC: 2.664 (Simulation time: 00 hr 03 min 28 sec)
Heartbeat CPU 0 instructions: 38000287 cycles: 14232201 heartbeat IPC: 3.181 cumulative IPC: 2.67 (Simulation time: 00 hr 03 min 30 sec)
Heartbeat CPU 0 instructions: 38500289 cycles: 14380053 heartbeat IPC: 3.382 cumulative IPC: 2.677 (Simulation time: 00 hr 03 min 33 sec)
Heartbeat CPU 0 instructions: 39000290 cycles: 14567740 heartbeat IPC: 2.664 cumulative IPC: 2.677 (Simulation time: 00 hr 03 min 36 sec)
Heartbeat CPU 0 instructions: 39500296 cycles: 14762559 heartbeat IPC: 2.567 cumulative IPC: 2.676 (Simulation time: 00 hr 03 min 38 sec)
Heartbeat CPU 0 instructions: 40000303 cycles: 14997175 heartbeat IPC: 2.131 cumulative IPC: 2.667 (Simulation time: 00 hr 03 min 41 sec)
Heartbeat CPU 0 instructions: 40500309 cycles: 15221753 heartbeat IPC: 2.226 cumulative IPC: 2.661 (Simulation time: 00 hr 03 min 44 sec)
Heartbeat CPU 0 instructions: 41000314 cycles: 15420636 heartbeat IPC: 2.514 cumulative IPC: 2.659 (Simulation time: 00 hr 03 min 47 sec)
Heartbeat CPU 0 instructions: 41500316 cycles: 15588096 heartbeat IPC: 2.986 cumulative IPC: 2.662 (Simulation time: 00 hr 03 min 50 sec)
Heartbeat CPU 0 instructions: 42000318 cycles: 15769854 heartbeat IPC: 2.751 cumulative IPC: 2.663 (Simulation time: 00 hr 03 min 52 sec)
Heartbeat CPU 0 instructions: 42500320 cycles: 15965808 heartbeat IPC: 2.552 cumulative IPC: 2.662 (Simulation time: 00 hr 03 min 55 sec)
Heartbeat CPU 0 instructions: 43000326 cycles: 16162059 heartbeat IPC: 2.548 cumulative IPC: 2.661 (Simulation time: 00 hr 03 min 58 sec)
Heartbeat CPU 0 instructions: 43500333 cycles: 16336298 heartbeat IPC: 2.87 cumulative IPC: 2.663 (Simulation time: 00 hr 04 min 00 sec)
Heartbeat CPU 0 instructions: 44000339 cycles: 16503543 heartbeat IPC: 2.99 cumulative IPC: 2.666 (Simulation time: 00 hr 04 min 03 sec)
Heartbeat CPU 0 instructions: 44500341 cycles: 16696436 heartbeat IPC: 2.592 cumulative IPC: 2.665 (Simulation time: 00 hr 04 min 06 sec)
Heartbeat CPU 0 instructions: 45000343 cycles: 16892267 heartbeat IPC: 2.553 cumulative IPC: 2.664 (Simulation time: 00 hr 04 min 09 sec)
Heartbeat CPU 0 instructions: 45500346 cycles: 17088901 heartbeat IPC: 2.543 cumulative IPC: 2.663 (Simulation time: 00 hr 04 min 11 sec)
Heartbeat CPU 0 instructions: 46000346 cycles: 17255263 heartbeat IPC: 3.005 cumulative IPC: 2.666 (Simulation time: 00 hr 04 min 14 sec)
Heartbeat CPU 0 instructions: 46500352 cycles: 17448015 heartbeat IPC: 2.594 cumulative IPC: 2.665 (Simulation time: 00 hr 04 min 17 sec)
Heartbeat CPU 0 instructions: 47000356 cycles: 17645172 heartbeat IPC: 2.536 cumulative IPC: 2.664 (Simulation time: 00 hr 04 min 19 sec)
Heartbeat CPU 0 instructions: 47500362 cycles: 17839618 heartbeat IPC: 2.571 cumulative IPC: 2.663 (Simulation time: 00 hr 04 min 22 sec)
Heartbeat CPU 0 instructions: 48000362 cycles: 18033926 heartbeat IPC: 2.573 cumulative IPC: 2.662 (Simulation time: 00 hr 04 min 25 sec)
Heartbeat CPU 0 instructions: 48500366 cycles: 18222659 heartbeat IPC: 2.649 cumulative IPC: 2.662 (Simulation time: 00 hr 04 min 27 sec)
Heartbeat CPU 0 instructions: 49000371 cycles: 18374099 heartbeat IPC: 3.302 cumulative IPC: 2.667 (Simulation time: 00 hr 04 min 30 sec)
Heartbeat CPU 0 instructions: 49500375 cycles: 18541819 heartbeat IPC: 2.981 cumulative IPC: 2.67 (Simulation time: 00 hr 04 min 33 sec)
Warmup halting CPU 0 at instruction 50000003 cycle 18702482 for remainder of phase
Warmup finished CPU 0 instructions: 50000003 cycles: 18702482 cumulative IPC: 2.673 (Simulation time: 00 hr 04 min 36 sec)
Warmup complete CPU 0 instructions: 50000003 cycles: 18702482 cumulative IPC: 2.673 (Simulation time: 00 hr 04 min 36 sec)
Heartbeat CPU 0 instructions: 50000377 cycles: 18703032 heartbeat IPC: 3.101 cumulative IPC: 0.68 (Simulation time: 00 hr 04 min 36 sec)
Heartbeat CPU 0 instructions: 50500382 cycles: 19516823 heartbeat IPC: 0.6144 cumulative IPC: 0.6145 (Simulation time: 00 hr 04 min 43 sec)
Heartbeat CPU 0 instructions: 51000382 cycles: 20193764 heartbeat IPC: 0.7386 cumulative IPC: 0.6708 (Simulation time: 00 hr 04 min 49 sec)
Heartbeat CPU 0 instructions: 51500383 cycles: 20906588 heartbeat IPC: 0.7014 cumulative IPC: 0.6807 (Simulation time: 00 hr 04 min 55 sec)
Heartbeat CPU 0 instructions: 52000383 cycles: 21828585 heartbeat IPC: 0.5423 cumulative IPC: 0.6399 (Simulation time: 00 hr 05 min 03 sec)
Heartbeat CPU 0 instructions: 52500384 cycles: 22984906 heartbeat IPC: 0.4324 cumulative IPC: 0.5839 (Simulation time: 00 hr 05 min 12 sec)
Heartbeat CPU 0 instructions: 53000387 cycles: 24205303 heartbeat IPC: 0.4097 cumulative IPC: 0.5452 (Simulation time: 00 hr 05 min 23 sec)
Heartbeat CPU 0 instructions: 53500390 cycles: 24868367 heartbeat IPC: 0.7541 cumulative IPC: 0.5677 (Simulation time: 00 hr 05 min 29 sec)
Heartbeat CPU 0 instructions: 54000393 cycles: 25644835 heartbeat IPC: 0.6439 cumulative IPC: 0.5762 (Simulation time: 00 hr 05 min 36 sec)
Heartbeat CPU 0 instructions: 54500393 cycles: 26454530 heartbeat IPC: 0.6175 cumulative IPC: 0.5805 (Simulation time: 00 hr 05 min 43 sec)
Heartbeat CPU 0 instructions: 55000393 cycles: 27345859 heartbeat IPC: 0.561 cumulative IPC: 0.5785 (Simulation time: 00 hr 05 min 50 sec)
Heartbeat CPU 0 instructions: 55500393 cycles: 28638186 heartbeat IPC: 0.3869 cumulative IPC: 0.5536 (Simulation time: 00 hr 06 min 02 sec)
Heartbeat CPU 0 instructions: 56000400 cycles: 30226260 heartbeat IPC: 0.3149 cumulative IPC: 0.5207 (Simulation time: 00 hr 06 min 16 sec)
Heartbeat CPU 0 instructions: 56500402 cycles: 31829318 heartbeat IPC: 0.3119 cumulative IPC: 0.4952 (Simulation time: 00 hr 06 min 30 sec)
Heartbeat CPU 0 instructions: 57000403 cycles: 32868554 heartbeat IPC: 0.4811 cumulative IPC: 0.4942 (Simulation time: 00 hr 06 min 39 sec)
Heartbeat CPU 0 instructions: 57500404 cycles: 33580242 heartbeat IPC: 0.7026 cumulative IPC: 0.5041 (Simulation time: 00 hr 06 min 45 sec)
Heartbeat CPU 0 instructions: 58000405 cycles: 34496384 heartbeat IPC: 0.5458 cumulative IPC: 0.5066 (Simulation time: 00 hr 06 min 53 sec)
Heartbeat CPU 0 instructions: 58500412 cycles: 35805153 heartbeat IPC: 0.382 cumulative IPC: 0.497 (Simulation time: 00 hr 07 min 02 sec)
Heartbeat CPU 0 instructions: 59000413 cycles: 37269607 heartbeat IPC: 0.3414 cumulative IPC: 0.4847 (Simulation time: 00 hr 07 min 16 sec)
Heartbeat CPU 0 instructions: 59500416 cycles: 38902102 heartbeat IPC: 0.3063 cumulative IPC: 0.4703 (Simulation time: 00 hr 07 min 30 sec)
Heartbeat CPU 0 instructions: 60000416 cycles: 40154033 heartbeat IPC: 0.3994 cumulative IPC: 0.4662 (Simulation time: 00 hr 07 min 40 sec)
Heartbeat CPU 0 instructions: 60500417 cycles: 41229951 heartbeat IPC: 0.4647 cumulative IPC: 0.4661 (Simulation time: 00 hr 07 min 48 sec)
Heartbeat CPU 0 instructions: 61000420 cycles: 42185114 heartbeat IPC: 0.5235 cumulative IPC: 0.4684 (Simulation time: 00 hr 07 min 56 sec)
Heartbeat CPU 0 instructions: 61500425 cycles: 43607822 heartbeat IPC: 0.3514 cumulative IPC: 0.4618 (Simulation time: 00 hr 08 min 08 sec)
Heartbeat CPU 0 instructions: 62000431 cycles: 44634154 heartbeat IPC: 0.4872 cumulative IPC: 0.4628 (Simulation time: 00 hr 08 min 17 sec)
Heartbeat CPU 0 instructions: 62500431 cycles: 45394083 heartbeat IPC: 0.658 cumulative IPC: 0.4683 (Simulation time: 00 hr 08 min 23 sec)
Heartbeat CPU 0 instructions: 63000434 cycles: 46320092 heartbeat IPC: 0.54 cumulative IPC: 0.4707 (Simulation time: 00 hr 08 min 31 sec)
Heartbeat CPU 0 instructions: 63500436 cycles: 47726420 heartbeat IPC: 0.3555 cumulative IPC: 0.4651 (Simulation time: 00 hr 08 min 43 sec)
Heartbeat CPU 0 instructions: 64000438 cycles: 48811319 heartbeat IPC: 0.4609 cumulative IPC: 0.465 (Simulation time: 00 hr 08 min 52 sec)
Heartbeat CPU 0 instructions: 64500438 cycles: 49656781 heartbeat IPC: 0.5914 cumulative IPC: 0.4684 (Simulation time: 00 hr 08 min 59 sec)
Heartbeat CPU 0 instructions: 65000438 cycles: 50640622 heartbeat IPC: 0.5082 cumulative IPC: 0.4697 (Simulation time: 00 hr 09 min 06 sec)
Heartbeat CPU 0 instructions: 65500438 cycles: 51986287 heartbeat IPC: 0.3716 cumulative IPC: 0.4657 (Simulation time: 00 hr 09 min 18 sec)
Heartbeat CPU 0 instructions: 66000440 cycles: 52889253 heartbeat IPC: 0.5537 cumulative IPC: 0.468 (Simulation time: 00 hr 09 min 26 sec)
Heartbeat CPU 0 instructions: 66500444 cycles: 53609185 heartbeat IPC: 0.6945 cumulative IPC: 0.4727 (Simulation time: 00 hr 09 min 32 sec)
Heartbeat CPU 0 instructions: 67000446 cycles: 54417647 heartbeat IPC: 0.6185 cumulative IPC: 0.476 (Simulation time: 00 hr 09 min 40 sec)
Heartbeat CPU 0 instructions: 67500447 cycles: 55650911 heartbeat IPC: 0.4054 cumulative IPC: 0.4736 (Simulation time: 00 hr 09 min 52 sec)
Heartbeat CPU 0 instructions: 68000449 cycles: 57122695 heartbeat IPC: 0.3397 cumulative IPC: 0.4685 (Simulation time: 00 hr 10 min 06 sec)
Heartbeat CPU 0 instructions: 68500449 cycles: 58246736 heartbeat IPC: 0.4448 cumulative IPC: 0.4678 (Simulation time: 00 hr 10 min 18 sec)
Heartbeat CPU 0 instructions: 69000455 cycles: 58932721 heartbeat IPC: 0.7289 cumulative IPC: 0.4723 (Simulation time: 00 hr 10 min 25 sec)
Heartbeat CPU 0 instructions: 69500455 cycles: 59642349 heartbeat IPC: 0.7046 cumulative IPC: 0.4763 (Simulation time: 00 hr 10 min 32 sec)
Heartbeat CPU 0 instructions: 70000459 cycles: 60687013 heartbeat IPC: 0.4786 cumulative IPC: 0.4764 (Simulation time: 00 hr 10 min 42 sec)
Heartbeat CPU 0 instructions: 70500459 cycles: 62018560 heartbeat IPC: 0.3755 cumulative IPC: 0.4733 (Simulation time: 00 hr 10 min 54 sec)
Heartbeat CPU 0 instructions: 71000463 cycles: 63433942 heartbeat IPC: 0.3533 cumulative IPC: 0.4695 (Simulation time: 00 hr 11 min 08 sec)
Heartbeat CPU 0 instructions: 71500464 cycles: 64594252 heartbeat IPC: 0.4309 cumulative IPC: 0.4685 (Simulation time: 00 hr 11 min 20 sec)
Heartbeat CPU 0 instructions: 72000467 cycles: 65359321 heartbeat IPC: 0.6535 cumulative IPC: 0.4715 (Simulation time: 00 hr 11 min 27 sec)
Heartbeat CPU 0 instructions: 72500467 cycles: 66234570 heartbeat IPC: 0.5713 cumulative IPC: 0.4734 (Simulation time: 00 hr 11 min 35 sec)
Heartbeat CPU 0 instructions: 73000473 cycles: 67594558 heartbeat IPC: 0.3677 cumulative IPC: 0.4704 (Simulation time: 00 hr 11 min 48 sec)
Heartbeat CPU 0 instructions: 73500475 cycles: 69217837 heartbeat IPC: 0.308 cumulative IPC: 0.4652 (Simulation time: 00 hr 12 min 04 sec)
Heartbeat CPU 0 instructions: 74000475 cycles: 70832185 heartbeat IPC: 0.3097 cumulative IPC: 0.4604 (Simulation time: 00 hr 12 min 20 sec)
Heartbeat CPU 0 instructions: 74500481 cycles: 72031509 heartbeat IPC: 0.4169 cumulative IPC: 0.4594 (Simulation time: 00 hr 12 min 32 sec)
Heartbeat CPU 0 instructions: 75000481 cycles: 72858039 heartbeat IPC: 0.6049 cumulative IPC: 0.4616 (Simulation time: 00 hr 12 min 40 sec)
Heartbeat CPU 0 instructions: 75500486 cycles: 73729662 heartbeat IPC: 0.5736 cumulative IPC: 0.4634 (Simulation time: 00 hr 12 min 48 sec)
Heartbeat CPU 0 instructions: 76000487 cycles: 75021979 heartbeat IPC: 0.3869 cumulative IPC: 0.4617 (Simulation time: 00 hr 13 min 00 sec)
Heartbeat CPU 0 instructions: 76500492 cycles: 76644021 heartbeat IPC: 0.3083 cumulative IPC: 0.4574 (Simulation time: 00 hr 13 min 16 sec)
Heartbeat CPU 0 instructions: 77000492 cycles: 77940997 heartbeat IPC: 0.3855 cumulative IPC: 0.4558 (Simulation time: 00 hr 13 min 29 sec)
Heartbeat CPU 0 instructions: 77500494 cycles: 78696779 heartbeat IPC: 0.6616 cumulative IPC: 0.4584 (Simulation time: 00 hr 13 min 37 sec)
Heartbeat CPU 0 instructions: 78000496 cycles: 79531574 heartbeat IPC: 0.599 cumulative IPC: 0.4603 (Simulation time: 00 hr 13 min 45 sec)
Heartbeat CPU 0 instructions: 78500499 cycles: 80708549 heartbeat IPC: 0.4248 cumulative IPC: 0.4596 (Simulation time: 00 hr 13 min 55 sec)
Heartbeat CPU 0 instructions: 79000500 cycles: 82177991 heartbeat IPC: 0.3403 cumulative IPC: 0.4569 (Simulation time: 00 hr 14 min 10 sec)
Heartbeat CPU 0 instructions: 79500501 cycles: 83743245 heartbeat IPC: 0.3194 cumulative IPC: 0.4536 (Simulation time: 00 hr 14 min 26 sec)
Heartbeat CPU 0 instructions: 80000501 cycles: 85120417 heartbeat IPC: 0.3631 cumulative IPC: 0.4517 (Simulation time: 00 hr 14 min 40 sec)
Heartbeat CPU 0 instructions: 80500505 cycles: 85888403 heartbeat IPC: 0.6511 cumulative IPC: 0.454 (Simulation time: 00 hr 14 min 48 sec)
Heartbeat CPU 0 instructions: 81000505 cycles: 86601305 heartbeat IPC: 0.7014 cumulative IPC: 0.4566 (Simulation time: 00 hr 14 min 55 sec)
Heartbeat CPU 0 instructions: 81500511 cycles: 87337749 heartbeat IPC: 0.6789 cumulative IPC: 0.459 (Simulation time: 00 hr 15 min 02 sec)
Heartbeat CPU 0 instructions: 82000512 cycles: 88113235 heartbeat IPC: 0.6448 cumulative IPC: 0.461 (Simulation time: 00 hr 15 min 10 sec)
Heartbeat CPU 0 instructions: 82500514 cycles: 89270653 heartbeat IPC: 0.432 cumulative IPC: 0.4606 (Simulation time: 00 hr 15 min 21 sec)
Heartbeat CPU 0 instructions: 83000519 cycles: 90713932 heartbeat IPC: 0.3464 cumulative IPC: 0.4583 (Simulation time: 00 hr 15 min 37 sec)
Heartbeat CPU 0 instructions: 83500520 cycles: 91563181 heartbeat IPC: 0.5888 cumulative IPC: 0.4598 (Simulation time: 00 hr 15 min 46 sec)
Heartbeat CPU 0 instructions: 84000526 cycles: 92228174 heartbeat IPC: 0.7519 cumulative IPC: 0.4624 (Simulation time: 00 hr 15 min 52 sec)
Heartbeat CPU 0 instructions: 84500529 cycles: 93121693 heartbeat IPC: 0.5596 cumulative IPC: 0.4636 (Simulation time: 00 hr 16 min 01 sec)
Heartbeat CPU 0 instructions: 85000531 cycles: 94337239 heartbeat IPC: 0.4113 cumulative IPC: 0.4628 (Simulation time: 00 hr 16 min 12 sec)
Heartbeat CPU 0 instructions: 85500533 cycles: 95287390 heartbeat IPC: 0.5262 cumulative IPC: 0.4635 (Simulation time: 00 hr 16 min 22 sec)
Heartbeat CPU 0 instructions: 86000536 cycles: 95970569 heartbeat IPC: 0.7319 cumulative IPC: 0.4659 (Simulation time: 00 hr 16 min 29 sec)
Heartbeat CPU 0 instructions: 86500536 cycles: 96811844 heartbeat IPC: 0.5943 cumulative IPC: 0.4673 (Simulation time: 00 hr 16 min 37 sec)
Heartbeat CPU 0 instructions: 87000539 cycles: 98053466 heartbeat IPC: 0.4027 cumulative IPC: 0.4663 (Simulation time: 00 hr 16 min 48 sec)
Heartbeat CPU 0 instructions: 87500545 cycles: 99692831 heartbeat IPC: 0.305 cumulative IPC: 0.463 (Simulation time: 00 hr 17 min 04 sec)
Heartbeat CPU 0 instructions: 88000546 cycles: 101224642 heartbeat IPC: 0.3264 cumulative IPC: 0.4605 (Simulation time: 00 hr 17 min 20 sec)
Heartbeat CPU 0 instructions: 88500551 cycles: 102469602 heartbeat IPC: 0.4016 cumulative IPC: 0.4596 (Simulation time: 00 hr 17 min 31 sec)
Heartbeat CPU 0 instructions: 89000555 cycles: 103269229 heartbeat IPC: 0.6253 cumulative IPC: 0.4612 (Simulation time: 00 hr 17 min 39 sec)
Heartbeat CPU 0 instructions: 89500556 cycles: 104084634 heartbeat IPC: 0.6132 cumulative IPC: 0.4626 (Simulation time: 00 hr 17 min 46 sec)
Heartbeat CPU 0 instructions: 90000558 cycles: 105020892 heartbeat IPC: 0.534 cumulative IPC: 0.4634 (Simulation time: 00 hr 17 min 55 sec)
Heartbeat CPU 0 instructions: 90500564 cycles: 106318334 heartbeat IPC: 0.3854 cumulative IPC: 0.4623 (Simulation time: 00 hr 18 min 09 sec)
Heartbeat CPU 0 instructions: 91000570 cycles: 107096343 heartbeat IPC: 0.6427 cumulative IPC: 0.4638 (Simulation time: 00 hr 18 min 16 sec)
Heartbeat CPU 0 instructions: 91500576 cycles: 107799867 heartbeat IPC: 0.7107 cumulative IPC: 0.4658 (Simulation time: 00 hr 18 min 23 sec)
Heartbeat CPU 0 instructions: 92000576 cycles: 108616109 heartbeat IPC: 0.6126 cumulative IPC: 0.4671 (Simulation time: 00 hr 18 min 31 sec)
Heartbeat CPU 0 instructions: 92500578 cycles: 109824925 heartbeat IPC: 0.4136 cumulative IPC: 0.4664 (Simulation time: 00 hr 18 min 43 sec)
Heartbeat CPU 0 instructions: 93000579 cycles: 111377223 heartbeat IPC: 0.3221 cumulative IPC: 0.464 (Simulation time: 00 hr 18 min 58 sec)
Heartbeat CPU 0 instructions: 93500580 cycles: 112932959 heartbeat IPC: 0.3214 cumulative IPC: 0.4616 (Simulation time: 00 hr 19 min 14 sec)
Heartbeat CPU 0 instructions: 94000584 cycles: 114076350 heartbeat IPC: 0.4373 cumulative IPC: 0.4613 (Simulation time: 00 hr 19 min 25 sec)
Heartbeat CPU 0 instructions: 94500584 cycles: 114792257 heartbeat IPC: 0.6984 cumulative IPC: 0.4631 (Simulation time: 00 hr 19 min 33 sec)
Heartbeat CPU 0 instructions: 95000588 cycles: 115689261 heartbeat IPC: 0.5574 cumulative IPC: 0.464 (Simulation time: 00 hr 19 min 41 sec)
Heartbeat CPU 0 instructions: 95500591 cycles: 116884221 heartbeat IPC: 0.4184 cumulative IPC: 0.4634 (Simulation time: 00 hr 19 min 52 sec)
Heartbeat CPU 0 instructions: 96000592 cycles: 118357656 heartbeat IPC: 0.3393 cumulative IPC: 0.4616 (Simulation time: 00 hr 20 min 07 sec)
Heartbeat CPU 0 instructions: 96500592 cycles: 119953223 heartbeat IPC: 0.3134 cumulative IPC: 0.4593 (Simulation time: 00 hr 20 min 23 sec)
Heartbeat CPU 0 instructions: 97000596 cycles: 121366203 heartbeat IPC: 0.3539 cumulative IPC: 0.4578 (Simulation time: 00 hr 20 min 37 sec)
Heartbeat CPU 0 instructions: 97500599 cycles: 122434435 heartbeat IPC: 0.4681 cumulative IPC: 0.4579 (Simulation time: 00 hr 20 min 47 sec)
Heartbeat CPU 0 instructions: 98000601 cycles: 123529590 heartbeat IPC: 0.4566 cumulative IPC: 0.4579 (Simulation time: 00 hr 20 min 57 sec)
Heartbeat CPU 0 instructions: 98500601 cycles: 125019657 heartbeat IPC: 0.3356 cumulative IPC: 0.4562 (Simulation time: 00 hr 21 min 11 sec)
Heartbeat CPU 0 instructions: 99000606 cycles: 125938884 heartbeat IPC: 0.5439 cumulative IPC: 0.4569 (Simulation time: 00 hr 21 min 20 sec)
Heartbeat CPU 0 instructions: 99500608 cycles: 126979973 heartbeat IPC: 0.4803 cumulative IPC: 0.4572 (Simulation time: 00 hr 21 min 29 sec)
Heartbeat CPU 0 instructions: 100000608 cycles: 128338762 heartbeat IPC: 0.368 cumulative IPC: 0.4561 (Simulation time: 00 hr 21 min 44 sec)
Heartbeat CPU 0 instructions: 100500608 cycles: 129693822 heartbeat IPC: 0.369 cumulative IPC: 0.455 (Simulation time: 00 hr 21 min 56 sec)
Heartbeat CPU 0 instructions: 101000613 cycles: 131004893 heartbeat IPC: 0.3814 cumulative IPC: 0.4541 (Simulation time: 00 hr 22 min 07 sec)
Heartbeat CPU 0 instructions: 101500617 cycles: 132246130 heartbeat IPC: 0.4028 cumulative IPC: 0.4536 (Simulation time: 00 hr 22 min 19 sec)
Heartbeat CPU 0 instructions: 102000618 cycles: 133303632 heartbeat IPC: 0.4728 cumulative IPC: 0.4538 (Simulation time: 00 hr 22 min 28 sec)
Heartbeat CPU 0 instructions: 102500620 cycles: 134655083 heartbeat IPC: 0.37 cumulative IPC: 0.4528 (Simulation time: 00 hr 22 min 43 sec)
Heartbeat CPU 0 instructions: 103000625 cycles: 135896988 heartbeat IPC: 0.4026 cumulative IPC: 0.4522 (Simulation time: 00 hr 22 min 54 sec)
Heartbeat CPU 0 instructions: 103500625 cycles: 136825648 heartbeat IPC: 0.5384 cumulative IPC: 0.4529 (Simulation time: 00 hr 23 min 03 sec)
Heartbeat CPU 0 instructions: 104000626 cycles: 137704277 heartbeat IPC: 0.5691 cumulative IPC: 0.4538 (Simulation time: 00 hr 23 min 11 sec)
Heartbeat CPU 0 instructions: 104500632 cycles: 138851097 heartbeat IPC: 0.436 cumulative IPC: 0.4536 (Simulation time: 00 hr 23 min 21 sec)
Heartbeat CPU 0 instructions: 105000635 cycles: 140240898 heartbeat IPC: 0.3598 cumulative IPC: 0.4525 (Simulation time: 00 hr 23 min 36 sec)
Heartbeat CPU 0 instructions: 105500642 cycles: 141082989 heartbeat IPC: 0.5938 cumulative IPC: 0.4535 (Simulation time: 00 hr 23 min 44 sec)
Heartbeat CPU 0 instructions: 106000642 cycles: 141855819 heartbeat IPC: 0.647 cumulative IPC: 0.4547 (Simulation time: 00 hr 23 min 51 sec)
Heartbeat CPU 0 instructions: 106500647 cycles: 142685144 heartbeat IPC: 0.6029 cumulative IPC: 0.4557 (Simulation time: 00 hr 23 min 59 sec)
Heartbeat CPU 0 instructions: 107000648 cycles: 143504492 heartbeat IPC: 0.6102 cumulative IPC: 0.4567 (Simulation time: 00 hr 24 min 07 sec)
Heartbeat CPU 0 instructions: 107500651 cycles: 144470316 heartbeat IPC: 0.5177 cumulative IPC: 0.4572 (Simulation time: 00 hr 24 min 16 sec)
Heartbeat CPU 0 instructions: 108000652 cycles: 145854920 heartbeat IPC: 0.3611 cumulative IPC: 0.4562 (Simulation time: 00 hr 24 min 31 sec)
Heartbeat CPU 0 instructions: 108500652 cycles: 147352203 heartbeat IPC: 0.3339 cumulative IPC: 0.4547 (Simulation time: 00 hr 24 min 47 sec)
Heartbeat CPU 0 instructions: 109000654 cycles: 148158695 heartbeat IPC: 0.62 cumulative IPC: 0.4558 (Simulation time: 00 hr 24 min 55 sec)
Heartbeat CPU 0 instructions: 109500657 cycles: 149067516 heartbeat IPC: 0.5502 cumulative IPC: 0.4564 (Simulation time: 00 hr 25 min 03 sec)
Heartbeat CPU 0 instructions: 110000657 cycles: 150211790 heartbeat IPC: 0.437 cumulative IPC: 0.4562 (Simulation time: 00 hr 25 min 13 sec)
Heartbeat CPU 0 instructions: 110500661 cycles: 151484420 heartbeat IPC: 0.3929 cumulative IPC: 0.4556 (Simulation time: 00 hr 25 min 26 sec)
Heartbeat CPU 0 instructions: 111000663 cycles: 153032349 heartbeat IPC: 0.323 cumulative IPC: 0.4541 (Simulation time: 00 hr 25 min 41 sec)
Heartbeat CPU 0 instructions: 111500663 cycles: 154373060 heartbeat IPC: 0.3729 cumulative IPC: 0.4533 (Simulation time: 00 hr 25 min 54 sec)
Heartbeat CPU 0 instructions: 112000669 cycles: 155126641 heartbeat IPC: 0.6635 cumulative IPC: 0.4545 (Simulation time: 00 hr 26 min 02 sec)
Heartbeat CPU 0 instructions: 112500670 cycles: 155912081 heartbeat IPC: 0.6366 cumulative IPC: 0.4555 (Simulation time: 00 hr 26 min 09 sec)
Heartbeat CPU 0 instructions: 113000673 cycles: 156857016 heartbeat IPC: 0.5291 cumulative IPC: 0.456 (Simulation time: 00 hr 26 min 18 sec)
Heartbeat CPU 0 instructions: 113500673 cycles: 158213473 heartbeat IPC: 0.3686 cumulative IPC: 0.4552 (Simulation time: 00 hr 26 min 32 sec)
Heartbeat CPU 0 instructions: 114000673 cycles: 159190300 heartbeat IPC: 0.5119 cumulative IPC: 0.4556 (Simulation time: 00 hr 26 min 41 sec)
Heartbeat CPU 0 instructions: 114500675 cycles: 159965733 heartbeat IPC: 0.6448 cumulative IPC: 0.4566 (Simulation time: 00 hr 26 min 48 sec)
Heartbeat CPU 0 instructions: 115000675 cycles: 160833832 heartbeat IPC: 0.576 cumulative IPC: 0.4573 (Simulation time: 00 hr 26 min 57 sec)
Heartbeat CPU 0 instructions: 115500678 cycles: 162523844 heartbeat IPC: 0.2959 cumulative IPC: 0.4554 (Simulation time: 00 hr 27 min 11 sec)
Heartbeat CPU 0 instructions: 116000680 cycles: 164077835 heartbeat IPC: 0.3218 cumulative IPC: 0.454 (Simulation time: 00 hr 27 min 27 sec)
Heartbeat CPU 0 instructions: 116500683 cycles: 164833011 heartbeat IPC: 0.6621 cumulative IPC: 0.4551 (Simulation time: 00 hr 27 min 34 sec)
Heartbeat CPU 0 instructions: 117000690 cycles: 165685106 heartbeat IPC: 0.5868 cumulative IPC: 0.4558 (Simulation time: 00 hr 27 min 42 sec)
Heartbeat CPU 0 instructions: 117500690 cycles: 166768270 heartbeat IPC: 0.4616 cumulative IPC: 0.4559 (Simulation time: 00 hr 27 min 51 sec)
Heartbeat CPU 0 instructions: 118000695 cycles: 168167972 heartbeat IPC: 0.3572 cumulative IPC: 0.455 (Simulation time: 00 hr 28 min 06 sec)
Heartbeat CPU 0 instructions: 118500695 cycles: 169804484 heartbeat IPC: 0.3055 cumulative IPC: 0.4533 (Simulation time: 00 hr 28 min 23 sec)
Heartbeat CPU 0 instructions: 119000700 cycles: 171676596 heartbeat IPC: 0.2671 cumulative IPC: 0.4511 (Simulation time: 00 hr 28 min 38 sec)
Heartbeat CPU 0 instructions: 119500707 cycles: 172867142 heartbeat IPC: 0.42 cumulative IPC: 0.4508 (Simulation time: 00 hr 28 min 49 sec)
Heartbeat CPU 0 instructions: 120000714 cycles: 173803574 heartbeat IPC: 0.5339 cumulative IPC: 0.4513 (Simulation time: 00 hr 28 min 58 sec)
Heartbeat CPU 0 instructions: 120500717 cycles: 174680966 heartbeat IPC: 0.5699 cumulative IPC: 0.452 (Simulation time: 00 hr 29 min 06 sec)
Heartbeat CPU 0 instructions: 121000718 cycles: 175857499 heartbeat IPC: 0.425 cumulative IPC: 0.4518 (Simulation time: 00 hr 29 min 18 sec)
Heartbeat CPU 0 instructions: 121500720 cycles: 177399026 heartbeat IPC: 0.3244 cumulative IPC: 0.4505 (Simulation time: 00 hr 29 min 33 sec)
Heartbeat CPU 0 instructions: 122000722 cycles: 178707109 heartbeat IPC: 0.3822 cumulative IPC: 0.45 (Simulation time: 00 hr 29 min 47 sec)
Heartbeat CPU 0 instructions: 122500722 cycles: 179407447 heartbeat IPC: 0.7139 cumulative IPC: 0.4511 (Simulation time: 00 hr 29 min 54 sec)
Heartbeat CPU 0 instructions: 123000724 cycles: 180100882 heartbeat IPC: 0.7211 cumulative IPC: 0.4523 (Simulation time: 00 hr 30 min 01 sec)
Heartbeat CPU 0 instructions: 123500725 cycles: 180853980 heartbeat IPC: 0.6639 cumulative IPC: 0.4533 (Simulation time: 00 hr 30 min 09 sec)
Heartbeat CPU 0 instructions: 124000729 cycles: 181670179 heartbeat IPC: 0.6126 cumulative IPC: 0.4541 (Simulation time: 00 hr 30 min 17 sec)
Heartbeat CPU 0 instructions: 124500734 cycles: 183102380 heartbeat IPC: 0.3491 cumulative IPC: 0.4532 (Simulation time: 00 hr 30 min 31 sec)
Heartbeat CPU 0 instructions: 125000739 cycles: 184658169 heartbeat IPC: 0.3214 cumulative IPC: 0.4519 (Simulation time: 00 hr 30 min 47 sec)
Heartbeat CPU 0 instructions: 125500742 cycles: 186125360 heartbeat IPC: 0.3408 cumulative IPC: 0.451 (Simulation time: 00 hr 31 min 03 sec)
Heartbeat CPU 0 instructions: 126000742 cycles: 187323668 heartbeat IPC: 0.4173 cumulative IPC: 0.4507 (Simulation time: 00 hr 31 min 14 sec)
Heartbeat CPU 0 instructions: 126500742 cycles: 188394783 heartbeat IPC: 0.4668 cumulative IPC: 0.4508 (Simulation time: 00 hr 31 min 24 sec)
Heartbeat CPU 0 instructions: 127000744 cycles: 189510699 heartbeat IPC: 0.4481 cumulative IPC: 0.4508 (Simulation time: 00 hr 31 min 34 sec)
Heartbeat CPU 0 instructions: 127500745 cycles: 191103981 heartbeat IPC: 0.3138 cumulative IPC: 0.4495 (Simulation time: 00 hr 31 min 49 sec)
Heartbeat CPU 0 instructions: 128000745 cycles: 192407132 heartbeat IPC: 0.3837 cumulative IPC: 0.449 (Simulation time: 00 hr 32 min 00 sec)
Heartbeat CPU 0 instructions: 128500746 cycles: 193870559 heartbeat IPC: 0.3417 cumulative IPC: 0.4481 (Simulation time: 00 hr 32 min 16 sec)
Heartbeat CPU 0 instructions: 129000748 cycles: 195545375 heartbeat IPC: 0.2985 cumulative IPC: 0.4467 (Simulation time: 00 hr 32 min 32 sec)
Heartbeat CPU 0 instructions: 129500754 cycles: 196851860 heartbeat IPC: 0.3827 cumulative IPC: 0.4463 (Simulation time: 00 hr 32 min 45 sec)
Heartbeat CPU 0 instructions: 130000757 cycles: 197928348 heartbeat IPC: 0.4645 cumulative IPC: 0.4464 (Simulation time: 00 hr 32 min 55 sec)
Heartbeat CPU 0 instructions: 130500757 cycles: 199075286 heartbeat IPC: 0.4359 cumulative IPC: 0.4463 (Simulation time: 00 hr 33 min 05 sec)
Heartbeat CPU 0 instructions: 131000759 cycles: 200806768 heartbeat IPC: 0.2888 cumulative IPC: 0.4448 (Simulation time: 00 hr 33 min 20 sec)
Heartbeat CPU 0 instructions: 131500763 cycles: 202432887 heartbeat IPC: 0.3075 cumulative IPC: 0.4436 (Simulation time: 00 hr 33 min 37 sec)
Heartbeat CPU 0 instructions: 132000764 cycles: 203283408 heartbeat IPC: 0.5879 cumulative IPC: 0.4443 (Simulation time: 00 hr 33 min 45 sec)
Heartbeat CPU 0 instructions: 132500769 cycles: 204054496 heartbeat IPC: 0.6484 cumulative IPC: 0.4451 (Simulation time: 00 hr 33 min 53 sec)
Heartbeat CPU 0 instructions: 133000772 cycles: 204947085 heartbeat IPC: 0.5602 cumulative IPC: 0.4457 (Simulation time: 00 hr 34 min 01 sec)
Heartbeat CPU 0 instructions: 133500778 cycles: 206262687 heartbeat IPC: 0.3801 cumulative IPC: 0.4452 (Simulation time: 00 hr 34 min 14 sec)
Heartbeat CPU 0 instructions: 134000779 cycles: 207839448 heartbeat IPC: 0.3171 cumulative IPC: 0.4441 (Simulation time: 00 hr 34 min 30 sec)
Heartbeat CPU 0 instructions: 134500783 cycles: 209475711 heartbeat IPC: 0.3056 cumulative IPC: 0.4429 (Simulation time: 00 hr 34 min 46 sec)
Heartbeat CPU 0 instructions: 135000786 cycles: 210560626 heartbeat IPC: 0.4609 cumulative IPC: 0.443 (Simulation time: 00 hr 34 min 57 sec)
Heartbeat CPU 0 instructions: 135500788 cycles: 211247299 heartbeat IPC: 0.7282 cumulative IPC: 0.4441 (Simulation time: 00 hr 35 min 04 sec)
Heartbeat CPU 0 instructions: 136000789 cycles: 211973991 heartbeat IPC: 0.6881 cumulative IPC: 0.445 (Simulation time: 00 hr 35 min 12 sec)
Heartbeat CPU 0 instructions: 136500790 cycles: 212904629 heartbeat IPC: 0.5373 cumulative IPC: 0.4454 (Simulation time: 00 hr 35 min 20 sec)
Heartbeat CPU 0 instructions: 137000791 cycles: 214209867 heartbeat IPC: 0.3831 cumulative IPC: 0.445 (Simulation time: 00 hr 35 min 34 sec)
Heartbeat CPU 0 instructions: 137500794 cycles: 215804749 heartbeat IPC: 0.3135 cumulative IPC: 0.4439 (Simulation time: 00 hr 35 min 50 sec)
Heartbeat CPU 0 instructions: 138000800 cycles: 217407171 heartbeat IPC: 0.312 cumulative IPC: 0.4429 (Simulation time: 00 hr 36 min 06 sec)
Heartbeat CPU 0 instructions: 138500800 cycles: 218790365 heartbeat IPC: 0.3615 cumulative IPC: 0.4423 (Simulation time: 00 hr 36 min 18 sec)
Heartbeat CPU 0 instructions: 139000804 cycles: 219920100 heartbeat IPC: 0.4426 cumulative IPC: 0.4423 (Simulation time: 00 hr 36 min 29 sec)
Heartbeat CPU 0 instructions: 139500811 cycles: 220818589 heartbeat IPC: 0.5565 cumulative IPC: 0.4428 (Simulation time: 00 hr 36 min 37 sec)
Heartbeat CPU 0 instructions: 140000811 cycles: 222012587 heartbeat IPC: 0.4188 cumulative IPC: 0.4427 (Simulation time: 00 hr 36 min 48 sec)
Heartbeat CPU 0 instructions: 140500812 cycles: 223231140 heartbeat IPC: 0.4103 cumulative IPC: 0.4425 (Simulation time: 00 hr 37 min 01 sec)
Heartbeat CPU 0 instructions: 141000819 cycles: 223962265 heartbeat IPC: 0.6839 cumulative IPC: 0.4433 (Simulation time: 00 hr 37 min 08 sec)
Heartbeat CPU 0 instructions: 141500823 cycles: 224702303 heartbeat IPC: 0.6756 cumulative IPC: 0.4442 (Simulation time: 00 hr 37 min 15 sec)
Heartbeat CPU 0 instructions: 142000823 cycles: 225705647 heartbeat IPC: 0.4983 cumulative IPC: 0.4444 (Simulation time: 00 hr 37 min 24 sec)
Heartbeat CPU 0 instructions: 142500828 cycles: 227042664 heartbeat IPC: 0.374 cumulative IPC: 0.444 (Simulation time: 00 hr 37 min 38 sec)
Heartbeat CPU 0 instructions: 143000828 cycles: 228553802 heartbeat IPC: 0.3309 cumulative IPC: 0.4432 (Simulation time: 00 hr 37 min 54 sec)
Heartbeat CPU 0 instructions: 143500828 cycles: 230135686 heartbeat IPC: 0.3161 cumulative IPC: 0.4422 (Simulation time: 00 hr 38 min 10 sec)
Heartbeat CPU 0 instructions: 144000830 cycles: 230971311 heartbeat IPC: 0.5984 cumulative IPC: 0.4428 (Simulation time: 00 hr 38 min 18 sec)
Heartbeat CPU 0 instructions: 144500833 cycles: 231652056 heartbeat IPC: 0.7345 cumulative IPC: 0.4438 (Simulation time: 00 hr 38 min 25 sec)
Heartbeat CPU 0 instructions: 145000839 cycles: 232541155 heartbeat IPC: 0.5624 cumulative IPC: 0.4443 (Simulation time: 00 hr 38 min 33 sec)
Heartbeat CPU 0 instructions: 145500840 cycles: 233785984 heartbeat IPC: 0.4017 cumulative IPC: 0.444 (Simulation time: 00 hr 38 min 45 sec)
Heartbeat CPU 0 instructions: 146000841 cycles: 235254845 heartbeat IPC: 0.3404 cumulative IPC: 0.4433 (Simulation time: 00 hr 39 min 00 sec)
Heartbeat CPU 0 instructions: 146500841 cycles: 236345141 heartbeat IPC: 0.4586 cumulative IPC: 0.4434 (Simulation time: 00 hr 39 min 11 sec)
Heartbeat CPU 0 instructions: 147000843 cycles: 237302625 heartbeat IPC: 0.5222 cumulative IPC: 0.4437 (Simulation time: 00 hr 39 min 20 sec)
Heartbeat CPU 0 instructions: 147500844 cycles: 238769483 heartbeat IPC: 0.3409 cumulative IPC: 0.4431 (Simulation time: 00 hr 39 min 33 sec)
Heartbeat CPU 0 instructions: 148000845 cycles: 240079212 heartbeat IPC: 0.3818 cumulative IPC: 0.4427 (Simulation time: 00 hr 39 min 44 sec)
Heartbeat CPU 0 instructions: 148500849 cycles: 241586609 heartbeat IPC: 0.3317 cumulative IPC: 0.4419 (Simulation time: 00 hr 40 min 00 sec)
Heartbeat CPU 0 instructions: 149000849 cycles: 243159377 heartbeat IPC: 0.3179 cumulative IPC: 0.4411 (Simulation time: 00 hr 40 min 16 sec)
Heartbeat CPU 0 instructions: 149500851 cycles: 244328443 heartbeat IPC: 0.4277 cumulative IPC: 0.441 (Simulation time: 00 hr 40 min 27 sec)
Heartbeat CPU 0 instructions: 150000851 cycles: 245398407 heartbeat IPC: 0.4673 cumulative IPC: 0.4411 (Simulation time: 00 hr 40 min 36 sec)
Heartbeat CPU 0 instructions: 150500852 cycles: 246563887 heartbeat IPC: 0.429 cumulative IPC: 0.4411 (Simulation time: 00 hr 40 min 47 sec)
Heartbeat CPU 0 instructions: 151000854 cycles: 247585801 heartbeat IPC: 0.4893 cumulative IPC: 0.4413 (Simulation time: 00 hr 40 min 57 sec)
Heartbeat CPU 0 instructions: 151500860 cycles: 248771441 heartbeat IPC: 0.4217 cumulative IPC: 0.4412 (Simulation time: 00 hr 41 min 07 sec)
Heartbeat CPU 0 instructions: 152000867 cycles: 250268367 heartbeat IPC: 0.334 cumulative IPC: 0.4405 (Simulation time: 00 hr 41 min 23 sec)
Heartbeat CPU 0 instructions: 152500867 cycles: 251821425 heartbeat IPC: 0.3219 cumulative IPC: 0.4397 (Simulation time: 00 hr 41 min 39 sec)
Heartbeat CPU 0 instructions: 153000869 cycles: 252614577 heartbeat IPC: 0.6304 cumulative IPC: 0.4403 (Simulation time: 00 hr 41 min 47 sec)
Heartbeat CPU 0 instructions: 153500869 cycles: 253355613 heartbeat IPC: 0.6747 cumulative IPC: 0.4411 (Simulation time: 00 hr 41 min 54 sec)
Heartbeat CPU 0 instructions: 154000872 cycles: 254306696 heartbeat IPC: 0.5257 cumulative IPC: 0.4414 (Simulation time: 00 hr 42 min 03 sec)
Heartbeat CPU 0 instructions: 154500877 cycles: 255598268 heartbeat IPC: 0.3871 cumulative IPC: 0.4411 (Simulation time: 00 hr 42 min 15 sec)
Heartbeat CPU 0 instructions: 155000879 cycles: 257203281 heartbeat IPC: 0.3115 cumulative IPC: 0.4403 (Simulation time: 00 hr 42 min 31 sec)
Heartbeat CPU 0 instructions: 155500879 cycles: 258367182 heartbeat IPC: 0.4296 cumulative IPC: 0.4402 (Simulation time: 00 hr 42 min 43 sec)
Heartbeat CPU 0 instructions: 156000881 cycles: 259116319 heartbeat IPC: 0.6674 cumulative IPC: 0.4409 (Simulation time: 00 hr 42 min 50 sec)
Heartbeat CPU 0 instructions: 156500882 cycles: 259966707 heartbeat IPC: 0.588 cumulative IPC: 0.4414 (Simulation time: 00 hr 42 min 58 sec)
Heartbeat CPU 0 instructions: 157000882 cycles: 261236603 heartbeat IPC: 0.3937 cumulative IPC: 0.4412 (Simulation time: 00 hr 43 min 10 sec)
Heartbeat CPU 0 instructions: 157500883 cycles: 262414235 heartbeat IPC: 0.4246 cumulative IPC: 0.4411 (Simulation time: 00 hr 43 min 22 sec)
Heartbeat CPU 0 instructions: 158000890 cycles: 263401114 heartbeat IPC: 0.5067 cumulative IPC: 0.4414 (Simulation time: 00 hr 43 min 31 sec)
Heartbeat CPU 0 instructions: 158500897 cycles: 265024098 heartbeat IPC: 0.3081 cumulative IPC: 0.4405 (Simulation time: 00 hr 43 min 46 sec)
Heartbeat CPU 0 instructions: 159000897 cycles: 266745959 heartbeat IPC: 0.2904 cumulative IPC: 0.4394 (Simulation time: 00 hr 44 min 01 sec)
Heartbeat CPU 0 instructions: 159500900 cycles: 267930896 heartbeat IPC: 0.422 cumulative IPC: 0.4394 (Simulation time: 00 hr 44 min 12 sec)
Heartbeat CPU 0 instructions: 160000905 cycles: 269234837 heartbeat IPC: 0.3835 cumulative IPC: 0.4391 (Simulation time: 00 hr 44 min 26 sec)
Heartbeat CPU 0 instructions: 160500912 cycles: 270813077 heartbeat IPC: 0.3168 cumulative IPC: 0.4383 (Simulation time: 00 hr 44 min 42 sec)
Heartbeat CPU 0 instructions: 161000914 cycles: 272056121 heartbeat IPC: 0.4022 cumulative IPC: 0.4381 (Simulation time: 00 hr 44 min 54 sec)
Heartbeat CPU 0 instructions: 161500918 cycles: 272780729 heartbeat IPC: 0.69 cumulative IPC: 0.4388 (Simulation time: 00 hr 45 min 02 sec)
Heartbeat CPU 0 instructions: 162000925 cycles: 273547130 heartbeat IPC: 0.6524 cumulative IPC: 0.4395 (Simulation time: 00 hr 45 min 09 sec)
Heartbeat CPU 0 instructions: 162500925 cycles: 274449577 heartbeat IPC: 0.554 cumulative IPC: 0.4399 (Simulation time: 00 hr 45 min 18 sec)
Heartbeat CPU 0 instructions: 163000925 cycles: 275786266 heartbeat IPC: 0.3741 cumulative IPC: 0.4395 (Simulation time: 00 hr 45 min 31 sec)
Heartbeat CPU 0 instructions: 163500925 cycles: 276998483 heartbeat IPC: 0.4125 cumulative IPC: 0.4394 (Simulation time: 00 hr 45 min 42 sec)
Heartbeat CPU 0 instructions: 164000925 cycles: 278474882 heartbeat IPC: 0.3387 cumulative IPC: 0.4388 (Simulation time: 00 hr 45 min 55 sec)
Heartbeat CPU 0 instructions: 164500926 cycles: 279492186 heartbeat IPC: 0.4915 cumulative IPC: 0.4391 (Simulation time: 00 hr 46 min 05 sec)
Heartbeat CPU 0 instructions: 165000929 cycles: 280717979 heartbeat IPC: 0.4079 cumulative IPC: 0.4389 (Simulation time: 00 hr 46 min 16 sec)
Heartbeat CPU 0 instructions: 165500933 cycles: 282039942 heartbeat IPC: 0.3782 cumulative IPC: 0.4386 (Simulation time: 00 hr 46 min 30 sec)
Heartbeat CPU 0 instructions: 166000934 cycles: 282944859 heartbeat IPC: 0.5525 cumulative IPC: 0.439 (Simulation time: 00 hr 46 min 38 sec)
Heartbeat CPU 0 instructions: 166500935 cycles: 283877789 heartbeat IPC: 0.5359 cumulative IPC: 0.4393 (Simulation time: 00 hr 46 min 47 sec)
Heartbeat CPU 0 instructions: 167000940 cycles: 285154714 heartbeat IPC: 0.3916 cumulative IPC: 0.4391 (Simulation time: 00 hr 46 min 59 sec)
Heartbeat CPU 0 instructions: 167500942 cycles: 286592329 heartbeat IPC: 0.3478 cumulative IPC: 0.4386 (Simulation time: 00 hr 47 min 11 sec)
Heartbeat CPU 0 instructions: 168000947 cycles: 288128900 heartbeat IPC: 0.3254 cumulative IPC: 0.438 (Simulation time: 00 hr 47 min 27 sec)
Heartbeat CPU 0 instructions: 168500954 cycles: 289232519 heartbeat IPC: 0.4531 cumulative IPC: 0.438 (Simulation time: 00 hr 47 min 38 sec)
Heartbeat CPU 0 instructions: 169000960 cycles: 290052346 heartbeat IPC: 0.6099 cumulative IPC: 0.4386 (Simulation time: 00 hr 47 min 46 sec)
Heartbeat CPU 0 instructions: 169500960 cycles: 290961049 heartbeat IPC: 0.5502 cumulative IPC: 0.4389 (Simulation time: 00 hr 47 min 54 sec)
Heartbeat CPU 0 instructions: 170000960 cycles: 292396619 heartbeat IPC: 0.3483 cumulative IPC: 0.4384 (Simulation time: 00 hr 48 min 07 sec)
Heartbeat CPU 0 instructions: 170500960 cycles: 293924808 heartbeat IPC: 0.3272 cumulative IPC: 0.4378 (Simulation time: 00 hr 48 min 22 sec)
Heartbeat CPU 0 instructions: 171000961 cycles: 294710544 heartbeat IPC: 0.6363 cumulative IPC: 0.4384 (Simulation time: 00 hr 48 min 30 sec)
Heartbeat CPU 0 instructions: 171500961 cycles: 295517156 heartbeat IPC: 0.6199 cumulative IPC: 0.4389 (Simulation time: 00 hr 48 min 38 sec)
Heartbeat CPU 0 instructions: 172000963 cycles: 296610780 heartbeat IPC: 0.4572 cumulative IPC: 0.439 (Simulation time: 00 hr 48 min 47 sec)
Heartbeat CPU 0 instructions: 172500963 cycles: 297959219 heartbeat IPC: 0.3708 cumulative IPC: 0.4387 (Simulation time: 00 hr 49 min 02 sec)
Heartbeat CPU 0 instructions: 173000968 cycles: 298811977 heartbeat IPC: 0.5863 cumulative IPC: 0.4391 (Simulation time: 00 hr 49 min 09 sec)
Heartbeat CPU 0 instructions: 173500973 cycles: 299609636 heartbeat IPC: 0.6268 cumulative IPC: 0.4397 (Simulation time: 00 hr 49 min 17 sec)
Heartbeat CPU 0 instructions: 174000976 cycles: 300514994 heartbeat IPC: 0.5523 cumulative IPC: 0.44 (Simulation time: 00 hr 49 min 25 sec)
Heartbeat CPU 0 instructions: 174500978 cycles: 301862837 heartbeat IPC: 0.371 cumulative IPC: 0.4397 (Simulation time: 00 hr 49 min 39 sec)
Heartbeat CPU 0 instructions: 175000983 cycles: 302741250 heartbeat IPC: 0.5692 cumulative IPC: 0.4401 (Simulation time: 00 hr 49 min 48 sec)
Heartbeat CPU 0 instructions: 175500984 cycles: 303460602 heartbeat IPC: 0.6951 cumulative IPC: 0.4407 (Simulation time: 00 hr 49 min 55 sec)
Heartbeat CPU 0 instructions: 176000984 cycles: 304283116 heartbeat IPC: 0.6079 cumulative IPC: 0.4412 (Simulation time: 00 hr 50 min 03 sec)
Heartbeat CPU 0 instructions: 176500984 cycles: 305559328 heartbeat IPC: 0.3918 cumulative IPC: 0.441 (Simulation time: 00 hr 50 min 15 sec)
Heartbeat CPU 0 instructions: 177000991 cycles: 306655272 heartbeat IPC: 0.4562 cumulative IPC: 0.441 (Simulation time: 00 hr 50 min 26 sec)
Heartbeat CPU 0 instructions: 177500992 cycles: 307461864 heartbeat IPC: 0.6199 cumulative IPC: 0.4415 (Simulation time: 00 hr 50 min 34 sec)
Heartbeat CPU 0 instructions: 178000993 cycles: 308279806 heartbeat IPC: 0.6113 cumulative IPC: 0.442 (Simulation time: 00 hr 50 min 42 sec)
Heartbeat CPU 0 instructions: 178500994 cycles: 309321717 heartbeat IPC: 0.4799 cumulative IPC: 0.4422 (Simulation time: 00 hr 50 min 51 sec)
Heartbeat CPU 0 instructions: 179000999 cycles: 310605187 heartbeat IPC: 0.3896 cumulative IPC: 0.4419 (Simulation time: 00 hr 51 min 05 sec)
Heartbeat CPU 0 instructions: 179501000 cycles: 311365246 heartbeat IPC: 0.6578 cumulative IPC: 0.4425 (Simulation time: 00 hr 51 min 12 sec)
Heartbeat CPU 0 instructions: 180001000 cycles: 312073097 heartbeat IPC: 0.7064 cumulative IPC: 0.4431 (Simulation time: 00 hr 51 min 20 sec)
Heartbeat CPU 0 instructions: 180501001 cycles: 313179258 heartbeat IPC: 0.452 cumulative IPC: 0.4432 (Simulation time: 00 hr 51 min 29 sec)
Heartbeat CPU 0 instructions: 181001001 cycles: 314459412 heartbeat IPC: 0.3906 cumulative IPC: 0.4429 (Simulation time: 00 hr 51 min 42 sec)
Heartbeat CPU 0 instructions: 181501006 cycles: 315957532 heartbeat IPC: 0.3338 cumulative IPC: 0.4424 (Simulation time: 00 hr 51 min 58 sec)
Heartbeat CPU 0 instructions: 182001010 cycles: 317524915 heartbeat IPC: 0.319 cumulative IPC: 0.4417 (Simulation time: 00 hr 52 min 13 sec)
Heartbeat CPU 0 instructions: 182501011 cycles: 319127846 heartbeat IPC: 0.3119 cumulative IPC: 0.441 (Simulation time: 00 hr 52 min 29 sec)
Heartbeat CPU 0 instructions: 183001011 cycles: 320692272 heartbeat IPC: 0.3196 cumulative IPC: 0.4404 (Simulation time: 00 hr 52 min 45 sec)
Heartbeat CPU 0 instructions: 183501013 cycles: 321918811 heartbeat IPC: 0.4077 cumulative IPC: 0.4403 (Simulation time: 00 hr 52 min 58 sec)
Heartbeat CPU 0 instructions: 184001014 cycles: 322646952 heartbeat IPC: 0.6867 cumulative IPC: 0.4409 (Simulation time: 00 hr 53 min 05 sec)
Heartbeat CPU 0 instructions: 184501015 cycles: 323382765 heartbeat IPC: 0.6795 cumulative IPC: 0.4414 (Simulation time: 00 hr 53 min 12 sec)
Heartbeat CPU 0 instructions: 185001020 cycles: 324443267 heartbeat IPC: 0.4715 cumulative IPC: 0.4416 (Simulation time: 00 hr 53 min 22 sec)
Heartbeat CPU 0 instructions: 185501020 cycles: 326039641 heartbeat IPC: 0.3132 cumulative IPC: 0.4409 (Simulation time: 00 hr 53 min 38 sec)
Heartbeat CPU 0 instructions: 186001025 cycles: 327268934 heartbeat IPC: 0.4067 cumulative IPC: 0.4408 (Simulation time: 00 hr 53 min 49 sec)
Heartbeat CPU 0 instructions: 186501030 cycles: 328714256 heartbeat IPC: 0.3459 cumulative IPC: 0.4403 (Simulation time: 00 hr 54 min 02 sec)
Heartbeat CPU 0 instructions: 187001032 cycles: 329783663 heartbeat IPC: 0.4676 cumulative IPC: 0.4404 (Simulation time: 00 hr 54 min 12 sec)
Heartbeat CPU 0 instructions: 187501036 cycles: 330584823 heartbeat IPC: 0.6241 cumulative IPC: 0.4409 (Simulation time: 00 hr 54 min 20 sec)
Heartbeat CPU 0 instructions: 188001040 cycles: 331520868 heartbeat IPC: 0.5342 cumulative IPC: 0.4412 (Simulation time: 00 hr 54 min 28 sec)
Heartbeat CPU 0 instructions: 188501042 cycles: 332985386 heartbeat IPC: 0.3414 cumulative IPC: 0.4407 (Simulation time: 00 hr 54 min 44 sec)
Heartbeat CPU 0 instructions: 189001044 cycles: 334604692 heartbeat IPC: 0.3088 cumulative IPC: 0.44 (Simulation time: 00 hr 55 min 01 sec)
Heartbeat CPU 0 instructions: 189501047 cycles: 336134311 heartbeat IPC: 0.3269 cumulative IPC: 0.4395 (Simulation time: 00 hr 55 min 16 sec)
Heartbeat CPU 0 instructions: 190001051 cycles: 337710669 heartbeat IPC: 0.3172 cumulative IPC: 0.4389 (Simulation time: 00 hr 55 min 32 sec)
Heartbeat CPU 0 instructions: 190501052 cycles: 338588640 heartbeat IPC: 0.5695 cumulative IPC: 0.4392 (Simulation time: 00 hr 55 min 41 sec)
Heartbeat CPU 0 instructions: 191001058 cycles: 339235288 heartbeat IPC: 0.7732 cumulative IPC: 0.4399 (Simulation time: 00 hr 55 min 47 sec)
Heartbeat CPU 0 instructions: 191501058 cycles: 339973798 heartbeat IPC: 0.677 cumulative IPC: 0.4404 (Simulation time: 00 hr 55 min 55 sec)
Heartbeat CPU 0 instructions: 192001058 cycles: 341177663 heartbeat IPC: 0.4153 cumulative IPC: 0.4403 (Simulation time: 00 hr 56 min 06 sec)
Heartbeat CPU 0 instructions: 192501058 cycles: 342246351 heartbeat IPC: 0.4679 cumulative IPC: 0.4404 (Simulation time: 00 hr 56 min 17 sec)
Heartbeat CPU 0 instructions: 193001059 cycles: 343001873 heartbeat IPC: 0.6618 cumulative IPC: 0.441 (Simulation time: 00 hr 56 min 24 sec)
Heartbeat CPU 0 instructions: 193501059 cycles: 343814539 heartbeat IPC: 0.6153 cumulative IPC: 0.4414 (Simulation time: 00 hr 56 min 32 sec)
Heartbeat CPU 0 instructions: 194001064 cycles: 345324836 heartbeat IPC: 0.3311 cumulative IPC: 0.4409 (Simulation time: 00 hr 56 min 46 sec)
Heartbeat CPU 0 instructions: 194501065 cycles: 346962726 heartbeat IPC: 0.3053 cumulative IPC: 0.4402 (Simulation time: 00 hr 57 min 02 sec)
Heartbeat CPU 0 instructions: 195001065 cycles: 348549741 heartbeat IPC: 0.3151 cumulative IPC: 0.4396 (Simulation time: 00 hr 57 min 18 sec)
Heartbeat CPU 0 instructions: 195501067 cycles: 349387100 heartbeat IPC: 0.5971 cumulative IPC: 0.44 (Simulation time: 00 hr 57 min 26 sec)
Heartbeat CPU 0 instructions: 196001070 cycles: 350150397 heartbeat IPC: 0.6551 cumulative IPC: 0.4405 (Simulation time: 00 hr 57 min 34 sec)
Heartbeat CPU 0 instructions: 196501076 cycles: 350898716 heartbeat IPC: 0.6682 cumulative IPC: 0.441 (Simulation time: 00 hr 57 min 41 sec)
Heartbeat CPU 0 instructions: 197001076 cycles: 351690635 heartbeat IPC: 0.6314 cumulative IPC: 0.4415 (Simulation time: 00 hr 57 min 49 sec)
Heartbeat CPU 0 instructions: 197501079 cycles: 352894205 heartbeat IPC: 0.4154 cumulative IPC: 0.4414 (Simulation time: 00 hr 58 min 01 sec)
Heartbeat CPU 0 instructions: 198001079 cycles: 354429327 heartbeat IPC: 0.3257 cumulative IPC: 0.4408 (Simulation time: 00 hr 58 min 17 sec)
Heartbeat CPU 0 instructions: 198501079 cycles: 356032304 heartbeat IPC: 0.3119 cumulative IPC: 0.4402 (Simulation time: 00 hr 58 min 33 sec)
Heartbeat CPU 0 instructions: 199001079 cycles: 357167207 heartbeat IPC: 0.4406 cumulative IPC: 0.4402 (Simulation time: 00 hr 58 min 45 sec)
Heartbeat CPU 0 instructions: 199501082 cycles: 357952332 heartbeat IPC: 0.6368 cumulative IPC: 0.4407 (Simulation time: 00 hr 58 min 52 sec)
Heartbeat CPU 0 instructions: 200001082 cycles: 358781623 heartbeat IPC: 0.6029 cumulative IPC: 0.4411 (Simulation time: 00 hr 59 min 00 sec)
Heartbeat CPU 0 instructions: 200501087 cycles: 359956040 heartbeat IPC: 0.4257 cumulative IPC: 0.441 (Simulation time: 00 hr 59 min 11 sec)
Heartbeat CPU 0 instructions: 201001090 cycles: 361426326 heartbeat IPC: 0.3401 cumulative IPC: 0.4406 (Simulation time: 00 hr 59 min 26 sec)
Heartbeat CPU 0 instructions: 201501091 cycles: 362802288 heartbeat IPC: 0.3634 cumulative IPC: 0.4403 (Simulation time: 00 hr 59 min 40 sec)
Heartbeat CPU 0 instructions: 202001097 cycles: 363800555 heartbeat IPC: 0.5009 cumulative IPC: 0.4405 (Simulation time: 00 hr 59 min 50 sec)
Heartbeat CPU 0 instructions: 202501099 cycles: 364720102 heartbeat IPC: 0.5437 cumulative IPC: 0.4407 (Simulation time: 00 hr 59 min 58 sec)
Heartbeat CPU 0 instructions: 203001099 cycles: 366242846 heartbeat IPC: 0.3284 cumulative IPC: 0.4402 (Simulation time: 01 hr 00 min 12 sec)
Heartbeat CPU 0 instructions: 203501101 cycles: 367118942 heartbeat IPC: 0.5707 cumulative IPC: 0.4406 (Simulation time: 01 hr 00 min 20 sec)
Heartbeat CPU 0 instructions: 204001102 cycles: 368296193 heartbeat IPC: 0.4247 cumulative IPC: 0.4405 (Simulation time: 01 hr 00 min 32 sec)
Heartbeat CPU 0 instructions: 204501104 cycles: 369604870 heartbeat IPC: 0.3821 cumulative IPC: 0.4403 (Simulation time: 01 hr 00 min 45 sec)
Heartbeat CPU 0 instructions: 205001107 cycles: 370490719 heartbeat IPC: 0.5644 cumulative IPC: 0.4406 (Simulation time: 01 hr 00 min 53 sec)
Heartbeat CPU 0 instructions: 205501109 cycles: 371627878 heartbeat IPC: 0.4397 cumulative IPC: 0.4406 (Simulation time: 01 hr 01 min 04 sec)
Heartbeat CPU 0 instructions: 206001112 cycles: 372543080 heartbeat IPC: 0.5463 cumulative IPC: 0.4409 (Simulation time: 01 hr 01 min 12 sec)
Heartbeat CPU 0 instructions: 206501113 cycles: 373458668 heartbeat IPC: 0.5461 cumulative IPC: 0.4412 (Simulation time: 01 hr 01 min 21 sec)
Heartbeat CPU 0 instructions: 207001113 cycles: 374692848 heartbeat IPC: 0.4051 cumulative IPC: 0.441 (Simulation time: 01 hr 01 min 33 sec)
Heartbeat CPU 0 instructions: 207501118 cycles: 375935148 heartbeat IPC: 0.4025 cumulative IPC: 0.4409 (Simulation time: 01 hr 01 min 46 sec)
Heartbeat CPU 0 instructions: 208001125 cycles: 376713592 heartbeat IPC: 0.6423 cumulative IPC: 0.4413 (Simulation time: 01 hr 01 min 53 sec)
Heartbeat CPU 0 instructions: 208501128 cycles: 377480199 heartbeat IPC: 0.6522 cumulative IPC: 0.4418 (Simulation time: 01 hr 02 min 01 sec)
Heartbeat CPU 0 instructions: 209001128 cycles: 378850787 heartbeat IPC: 0.3648 cumulative IPC: 0.4415 (Simulation time: 01 hr 02 min 12 sec)
Heartbeat CPU 0 instructions: 209501130 cycles: 380361465 heartbeat IPC: 0.331 cumulative IPC: 0.441 (Simulation time: 01 hr 02 min 28 sec)
Heartbeat CPU 0 instructions: 210001132 cycles: 381629741 heartbeat IPC: 0.3942 cumulative IPC: 0.4409 (Simulation time: 01 hr 02 min 39 sec)
Heartbeat CPU 0 instructions: 210501134 cycles: 382608637 heartbeat IPC: 0.5108 cumulative IPC: 0.4411 (Simulation time: 01 hr 02 min 48 sec)
Heartbeat CPU 0 instructions: 211001135 cycles: 384046354 heartbeat IPC: 0.3478 cumulative IPC: 0.4407 (Simulation time: 01 hr 03 min 01 sec)
Heartbeat CPU 0 instructions: 211501137 cycles: 385243631 heartbeat IPC: 0.4176 cumulative IPC: 0.4406 (Simulation time: 01 hr 03 min 12 sec)
Heartbeat CPU 0 instructions: 212001137 cycles: 386738137 heartbeat IPC: 0.3346 cumulative IPC: 0.4402 (Simulation time: 01 hr 03 min 27 sec)
Heartbeat CPU 0 instructions: 212501138 cycles: 388377903 heartbeat IPC: 0.3049 cumulative IPC: 0.4396 (Simulation time: 01 hr 03 min 44 sec)
Heartbeat CPU 0 instructions: 213001139 cycles: 390051508 heartbeat IPC: 0.2988 cumulative IPC: 0.4389 (Simulation time: 01 hr 04 min 00 sec)
Heartbeat CPU 0 instructions: 213501139 cycles: 391493720 heartbeat IPC: 0.3467 cumulative IPC: 0.4386 (Simulation time: 01 hr 04 min 16 sec)
Heartbeat CPU 0 instructions: 214001140 cycles: 392972432 heartbeat IPC: 0.3381 cumulative IPC: 0.4382 (Simulation time: 01 hr 04 min 31 sec)
Heartbeat CPU 0 instructions: 214501141 cycles: 393816571 heartbeat IPC: 0.5923 cumulative IPC: 0.4385 (Simulation time: 01 hr 04 min 39 sec)
Heartbeat CPU 0 instructions: 215001145 cycles: 394572805 heartbeat IPC: 0.6612 cumulative IPC: 0.439 (Simulation time: 01 hr 04 min 46 sec)
Heartbeat CPU 0 instructions: 215501149 cycles: 395698295 heartbeat IPC: 0.4443 cumulative IPC: 0.439 (Simulation time: 01 hr 04 min 56 sec)
Heartbeat CPU 0 instructions: 216001151 cycles: 397160891 heartbeat IPC: 0.3419 cumulative IPC: 0.4386 (Simulation time: 01 hr 05 min 10 sec)
Heartbeat CPU 0 instructions: 216501154 cycles: 398323597 heartbeat IPC: 0.43 cumulative IPC: 0.4386 (Simulation time: 01 hr 05 min 21 sec)
Heartbeat CPU 0 instructions: 217001158 cycles: 399210371 heartbeat IPC: 0.5638 cumulative IPC: 0.4389 (Simulation time: 01 hr 05 min 30 sec)
Heartbeat CPU 0 instructions: 217501160 cycles: 400086167 heartbeat IPC: 0.5709 cumulative IPC: 0.4392 (Simulation time: 01 hr 05 min 38 sec)
Heartbeat CPU 0 instructions: 218001160 cycles: 401098498 heartbeat IPC: 0.4939 cumulative IPC: 0.4393 (Simulation time: 01 hr 05 min 47 sec)
Heartbeat CPU 0 instructions: 218501165 cycles: 402389680 heartbeat IPC: 0.3872 cumulative IPC: 0.4392 (Simulation time: 01 hr 06 min 01 sec)
Heartbeat CPU 0 instructions: 219001168 cycles: 403174157 heartbeat IPC: 0.6374 cumulative IPC: 0.4396 (Simulation time: 01 hr 06 min 08 sec)
Heartbeat CPU 0 instructions: 219501168 cycles: 403879752 heartbeat IPC: 0.7086 cumulative IPC: 0.4401 (Simulation time: 01 hr 06 min 15 sec)
Heartbeat CPU 0 instructions: 220001173 cycles: 404616659 heartbeat IPC: 0.6785 cumulative IPC: 0.4405 (Simulation time: 01 hr 06 min 23 sec)
Heartbeat CPU 0 instructions: 220501174 cycles: 405769513 heartbeat IPC: 0.4337 cumulative IPC: 0.4405 (Simulation time: 01 hr 06 min 34 sec)
Heartbeat CPU 0 instructions: 221001178 cycles: 407245349 heartbeat IPC: 0.3388 cumulative IPC: 0.4401 (Simulation time: 01 hr 06 min 49 sec)
Heartbeat CPU 0 instructions: 221501179 cycles: 408424387 heartbeat IPC: 0.4241 cumulative IPC: 0.4401 (Simulation time: 01 hr 07 min 01 sec)
Heartbeat CPU 0 instructions: 222001180 cycles: 409205618 heartbeat IPC: 0.64 cumulative IPC: 0.4405 (Simulation time: 01 hr 07 min 09 sec)
Heartbeat CPU 0 instructions: 222501181 cycles: 409994342 heartbeat IPC: 0.6339 cumulative IPC: 0.4409 (Simulation time: 01 hr 07 min 17 sec)
Heartbeat CPU 0 instructions: 223001183 cycles: 410731292 heartbeat IPC: 0.6785 cumulative IPC: 0.4413 (Simulation time: 01 hr 07 min 24 sec)
Heartbeat CPU 0 instructions: 223501187 cycles: 411542514 heartbeat IPC: 0.6164 cumulative IPC: 0.4417 (Simulation time: 01 hr 07 min 32 sec)
Heartbeat CPU 0 instructions: 224001189 cycles: 412751531 heartbeat IPC: 0.4136 cumulative IPC: 0.4416 (Simulation time: 01 hr 07 min 45 sec)
Heartbeat CPU 0 instructions: 224501190 cycles: 414294172 heartbeat IPC: 0.3241 cumulative IPC: 0.4411 (Simulation time: 01 hr 08 min 00 sec)
Heartbeat CPU 0 instructions: 225001196 cycles: 415203786 heartbeat IPC: 0.5497 cumulative IPC: 0.4414 (Simulation time: 01 hr 08 min 09 sec)
Heartbeat CPU 0 instructions: 225501199 cycles: 415887001 heartbeat IPC: 0.7318 cumulative IPC: 0.4419 (Simulation time: 01 hr 08 min 16 sec)
Heartbeat CPU 0 instructions: 226001205 cycles: 416662321 heartbeat IPC: 0.6449 cumulative IPC: 0.4423 (Simulation time: 01 hr 08 min 24 sec)
Heartbeat CPU 0 instructions: 226501205 cycles: 417820521 heartbeat IPC: 0.4317 cumulative IPC: 0.4422 (Simulation time: 01 hr 08 min 35 sec)
Heartbeat CPU 0 instructions: 227001209 cycles: 418970122 heartbeat IPC: 0.4349 cumulative IPC: 0.4422 (Simulation time: 01 hr 08 min 46 sec)
Heartbeat CPU 0 instructions: 227501211 cycles: 419881631 heartbeat IPC: 0.5485 cumulative IPC: 0.4424 (Simulation time: 01 hr 08 min 55 sec)
Heartbeat CPU 0 instructions: 228001215 cycles: 421391145 heartbeat IPC: 0.3312 cumulative IPC: 0.442 (Simulation time: 01 hr 09 min 09 sec)
Heartbeat CPU 0 instructions: 228501216 cycles: 422844787 heartbeat IPC: 0.344 cumulative IPC: 0.4417 (Simulation time: 01 hr 09 min 22 sec)
Heartbeat CPU 0 instructions: 229001217 cycles: 423937481 heartbeat IPC: 0.4576 cumulative IPC: 0.4417 (Simulation time: 01 hr 09 min 31 sec)
Heartbeat CPU 0 instructions: 229501219 cycles: 425316314 heartbeat IPC: 0.3626 cumulative IPC: 0.4415 (Simulation time: 01 hr 09 min 46 sec)
Heartbeat CPU 0 instructions: 230001219 cycles: 426912066 heartbeat IPC: 0.3133 cumulative IPC: 0.441 (Simulation time: 01 hr 10 min 02 sec)
Heartbeat CPU 0 instructions: 230501222 cycles: 428465283 heartbeat IPC: 0.3219 cumulative IPC: 0.4405 (Simulation time: 01 hr 10 min 18 sec)
Heartbeat CPU 0 instructions: 231001222 cycles: 430018839 heartbeat IPC: 0.3218 cumulative IPC: 0.4401 (Simulation time: 01 hr 10 min 34 sec)
Heartbeat CPU 0 instructions: 231501224 cycles: 431055010 heartbeat IPC: 0.4825 cumulative IPC: 0.4402 (Simulation time: 01 hr 10 min 44 sec)
Heartbeat CPU 0 instructions: 232001224 cycles: 431793993 heartbeat IPC: 0.6766 cumulative IPC: 0.4406 (Simulation time: 01 hr 10 min 51 sec)
Heartbeat CPU 0 instructions: 232501225 cycles: 432982863 heartbeat IPC: 0.4206 cumulative IPC: 0.4405 (Simulation time: 01 hr 11 min 02 sec)
Heartbeat CPU 0 instructions: 233001227 cycles: 434188205 heartbeat IPC: 0.4148 cumulative IPC: 0.4405 (Simulation time: 01 hr 11 min 13 sec)
Heartbeat CPU 0 instructions: 233501229 cycles: 435627529 heartbeat IPC: 0.3474 cumulative IPC: 0.4401 (Simulation time: 01 hr 11 min 26 sec)
Heartbeat CPU 0 instructions: 234001233 cycles: 437201683 heartbeat IPC: 0.3176 cumulative IPC: 0.4397 (Simulation time: 01 hr 11 min 42 sec)
Heartbeat CPU 0 instructions: 234501236 cycles: 438602907 heartbeat IPC: 0.3568 cumulative IPC: 0.4394 (Simulation time: 01 hr 11 min 54 sec)
Heartbeat CPU 0 instructions: 235001243 cycles: 439832180 heartbeat IPC: 0.4068 cumulative IPC: 0.4393 (Simulation time: 01 hr 12 min 05 sec)
Heartbeat CPU 0 instructions: 235501248 cycles: 440828894 heartbeat IPC: 0.5017 cumulative IPC: 0.4394 (Simulation time: 01 hr 12 min 14 sec)
Heartbeat CPU 0 instructions: 236001248 cycles: 442315287 heartbeat IPC: 0.3364 cumulative IPC: 0.4391 (Simulation time: 01 hr 12 min 30 sec)
Heartbeat CPU 0 instructions: 236501251 cycles: 443928308 heartbeat IPC: 0.31 cumulative IPC: 0.4386 (Simulation time: 01 hr 12 min 46 sec)
Heartbeat CPU 0 instructions: 237001252 cycles: 444894170 heartbeat IPC: 0.5177 cumulative IPC: 0.4388 (Simulation time: 01 hr 12 min 57 sec)
Heartbeat CPU 0 instructions: 237501253 cycles: 445662691 heartbeat IPC: 0.6506 cumulative IPC: 0.4392 (Simulation time: 01 hr 13 min 07 sec)
Heartbeat CPU 0 instructions: 238001254 cycles: 446430520 heartbeat IPC: 0.6512 cumulative IPC: 0.4395 (Simulation time: 01 hr 13 min 16 sec)
Heartbeat CPU 0 instructions: 238501256 cycles: 447198939 heartbeat IPC: 0.6507 cumulative IPC: 0.4399 (Simulation time: 01 hr 13 min 26 sec)
Heartbeat CPU 0 instructions: 239001256 cycles: 447973815 heartbeat IPC: 0.6453 cumulative IPC: 0.4403 (Simulation time: 01 hr 13 min 35 sec)
Heartbeat CPU 0 instructions: 239501256 cycles: 448747771 heartbeat IPC: 0.646 cumulative IPC: 0.4407 (Simulation time: 01 hr 13 min 44 sec)
Heartbeat CPU 0 instructions: 240001257 cycles: 449517512 heartbeat IPC: 0.6496 cumulative IPC: 0.441 (Simulation time: 01 hr 13 min 54 sec)
Heartbeat CPU 0 instructions: 240501258 cycles: 450288871 heartbeat IPC: 0.6482 cumulative IPC: 0.4414 (Simulation time: 01 hr 14 min 03 sec)
Heartbeat CPU 0 instructions: 241001261 cycles: 451069626 heartbeat IPC: 0.6404 cumulative IPC: 0.4418 (Simulation time: 01 hr 14 min 12 sec)
Heartbeat CPU 0 instructions: 241501262 cycles: 451839057 heartbeat IPC: 0.6498 cumulative IPC: 0.4421 (Simulation time: 01 hr 14 min 22 sec)
Heartbeat CPU 0 instructions: 242001264 cycles: 452610612 heartbeat IPC: 0.648 cumulative IPC: 0.4425 (Simulation time: 01 hr 14 min 31 sec)
Heartbeat CPU 0 instructions: 242501265 cycles: 453378507 heartbeat IPC: 0.6511 cumulative IPC: 0.4429 (Simulation time: 01 hr 14 min 41 sec)
Heartbeat CPU 0 instructions: 243001265 cycles: 454150956 heartbeat IPC: 0.6473 cumulative IPC: 0.4432 (Simulation time: 01 hr 14 min 50 sec)
Heartbeat CPU 0 instructions: 243501266 cycles: 454920785 heartbeat IPC: 0.6495 cumulative IPC: 0.4436 (Simulation time: 01 hr 14 min 59 sec)
Heartbeat CPU 0 instructions: 244001266 cycles: 455691414 heartbeat IPC: 0.6488 cumulative IPC: 0.444 (Simulation time: 01 hr 15 min 09 sec)
Heartbeat CPU 0 instructions: 244501268 cycles: 456462800 heartbeat IPC: 0.6482 cumulative IPC: 0.4443 (Simulation time: 01 hr 15 min 18 sec)
Heartbeat CPU 0 instructions: 245001271 cycles: 457236681 heartbeat IPC: 0.6461 cumulative IPC: 0.4447 (Simulation time: 01 hr 15 min 28 sec)
Heartbeat CPU 0 instructions: 245501274 cycles: 458003893 heartbeat IPC: 0.6517 cumulative IPC: 0.445 (Simulation time: 01 hr 15 min 37 sec)
Heartbeat CPU 0 instructions: 246001276 cycles: 458791215 heartbeat IPC: 0.6351 cumulative IPC: 0.4454 (Simulation time: 01 hr 15 min 46 sec)
Heartbeat CPU 0 instructions: 246501278 cycles: 459595175 heartbeat IPC: 0.6219 cumulative IPC: 0.4457 (Simulation time: 01 hr 15 min 56 sec)
Heartbeat CPU 0 instructions: 247001280 cycles: 460371670 heartbeat IPC: 0.6439 cumulative IPC: 0.446 (Simulation time: 01 hr 16 min 05 sec)
Heartbeat CPU 0 instructions: 247501280 cycles: 461145071 heartbeat IPC: 0.6465 cumulative IPC: 0.4464 (Simulation time: 01 hr 16 min 14 sec)
Heartbeat CPU 0 instructions: 248001281 cycles: 461917257 heartbeat IPC: 0.6475 cumulative IPC: 0.4467 (Simulation time: 01 hr 16 min 24 sec)
Heartbeat CPU 0 instructions: 248501281 cycles: 462685922 heartbeat IPC: 0.6505 cumulative IPC: 0.4471 (Simulation time: 01 hr 16 min 33 sec)
Heartbeat CPU 0 instructions: 249001282 cycles: 463509886 heartbeat IPC: 0.6068 cumulative IPC: 0.4474 (Simulation time: 01 hr 16 min 43 sec)
Heartbeat CPU 0 instructions: 249501284 cycles: 464283896 heartbeat IPC: 0.646 cumulative IPC: 0.4477 (Simulation time: 01 hr 16 min 52 sec)
Simulation finished CPU 0 instructions: 200000000 cycles: 446359146 cumulative IPC: 0.4481 (Simulation time: 01 hr 17 min 01 sec)
Simulation complete CPU 0 instructions: 200000000 cycles: 446359146 cumulative IPC: 0.4481 (Simulation time: 01 hr 17 min 01 sec)

ChampSim completed all CPUs

=== Simulation ===
CPU 0 runs /local-ssd/ben/dpc4-traces/SPEC17/605.mcf_s-472B.champsimtrace.xz

Region of Interest Statistics

CPU 0 cumulative IPC: 0.4481 instructions: 200000000 cycles: 446359146
CPU 0 Branch Prediction Accuracy: 98.77% MPKI: 1.582 Average ROB Occupancy at Mispredict: 225.4
Branch type MPKI
BRANCH_DIRECT_JUMP: 0
BRANCH_INDIRECT: 0
BRANCH_CONDITIONAL: 1.582
BRANCH_DIRECT_CALL: 5e-06
BRANCH_INDIRECT_CALL: 0
BRANCH_RETURN: 0

cpu0->cpu0_STLB TOTAL        ACCESS:    1308194 HIT:     974873 MISS:     333321 MSHR_MERGE:          0
cpu0->cpu0_STLB LOAD         ACCESS:    1308194 HIT:     974873 MISS:     333321 MSHR_MERGE:          0
cpu0->cpu0_STLB RFO          ACCESS:          0 HIT:          0 MISS:          0 MSHR_MERGE:          0
cpu0->cpu0_STLB PREFETCH     ACCESS:          0 HIT:          0 MISS:          0 MSHR_MERGE:          0
cpu0->cpu0_STLB WRITE        ACCESS:          0 HIT:          0 MISS:          0 MSHR_MERGE:          0
cpu0->cpu0_STLB TRANSLATION  ACCESS:          0 HIT:          0 MISS:          0 MSHR_MERGE:          0
cpu0->cpu0_STLB PREFETCH REQUESTED:          0 ISSUED:          0 USEFUL:          0 USELESS:          0
cpu0->cpu0_STLB AVERAGE MISS LATENCY: 114.2 cycles
cpu0->cpu0_L2C TOTAL        ACCESS:   12045261 HIT:    1362558 MISS:   10682703 MSHR_MERGE:          0
cpu0->cpu0_L2C LOAD         ACCESS:    7521337 HIT:     173602 MISS:    7347735 MSHR_MERGE:          0
cpu0->cpu0_L2C RFO          ACCESS:     424651 HIT:      20191 MISS:     404460 MSHR_MERGE:          0
cpu0->cpu0_L2C PREFETCH     ACCESS:    2990533 HIT:     125784 MISS:    2864749 MSHR_MERGE:          0
cpu0->cpu0_L2C WRITE        ACCESS:     987125 HIT:     985941 MISS:       1184 MSHR_MERGE:          0
cpu0->cpu0_L2C TRANSLATION  ACCESS:     121615 HIT:      57040 MISS:      64575 MSHR_MERGE:          0
cpu0->cpu0_L2C PREFETCH REQUESTED:          0 ISSUED:          0 USEFUL:          0 USELESS:          0
cpu0->cpu0_L2C AVERAGE MISS LATENCY: 161.2 cycles
cpu0->cpu0_L1I TOTAL        ACCESS:   32258957 HIT:   32258951 MISS:          6 MSHR_MERGE:          0
cpu0->cpu0_L1I LOAD         ACCESS:   32258957 HIT:   32258951 MISS:          6 MSHR_MERGE:          0
cpu0->cpu0_L1I RFO          ACCESS:          0 HIT:          0 MISS:          0 MSHR_MERGE:          0
cpu0->cpu0_L1I PREFETCH     ACCESS:          0 HIT:          0 MISS:          0 MSHR_MERGE:          0
cpu0->cpu0_L1I WRITE        ACCESS:          0 HIT:          0 MISS:          0 MSHR_MERGE:          0
cpu0->cpu0_L1I TRANSLATION  ACCESS:          0 HIT:          0 MISS:          0 MSHR_MERGE:          0
cpu0->cpu0_L1I PREFETCH REQUESTED:          0 ISSUED:          0 USEFUL:          0 USELESS:          0
cpu0->cpu0_L1I AVERAGE MISS LATENCY: 219.2 cycles
cpu0->cpu0_L1D TOTAL        ACCESS:  137823428 HIT:  119401168 MISS:   18422260 MSHR_MERGE:    7364102
cpu0->cpu0_L1D LOAD         ACCESS:   52413732 HIT:   42353823 MISS:   10059909 MSHR_MERGE:    2538563
cpu0->cpu0_L1D RFO          ACCESS:          0 HIT:          0 MISS:          0 MSHR_MERGE:          0
cpu0->cpu0_L1D PREFETCH     ACCESS:   44018694 HIT:   37598245 MISS:    6420449 MSHR_MERGE:    3429916
cpu0->cpu0_L1D WRITE        ACCESS:   40694930 HIT:   38874947 MISS:    1819983 MSHR_MERGE:    1395319
cpu0->cpu0_L1D TRANSLATION  ACCESS:     696072 HIT:     574153 MISS:     121919 MSHR_MERGE:        304
cpu0->cpu0_L1D PREFETCH REQUESTED:   89974770 ISSUED:   44018706 USEFUL:    2575153 USELESS:     415370
cpu0->cpu0_L1D AVERAGE MISS LATENCY: 161.3 cycles
cpu0->cpu0_ITLB TOTAL        ACCESS:   27637017 HIT:   27637017 MISS:          0 MSHR_MERGE:          0
cpu0->cpu0_ITLB LOAD         ACCESS:   27637017 HIT:   27637017 MISS:          0 MSHR_MERGE:          0
cpu0->cpu0_ITLB RFO          ACCESS:          0 HIT:          0 MISS:          0 MSHR_MERGE:          0
cpu0->cpu0_ITLB PREFETCH     ACCESS:          0 HIT:          0 MISS:          0 MSHR_MERGE:          0
cpu0->cpu0_ITLB WRITE        ACCESS:          0 HIT:          0 MISS:          0 MSHR_MERGE:          0
cpu0->cpu0_ITLB TRANSLATION  ACCESS:          0 HIT:          0 MISS:          0 MSHR_MERGE:          0
cpu0->cpu0_ITLB PREFETCH REQUESTED:          0 ISSUED:          0 USEFUL:          0 USELESS:          0
cpu0->cpu0_ITLB AVERAGE MISS LATENCY: - cycles
cpu0->cpu0_DTLB TOTAL        ACCESS:  116852574 HIT:  114775315 MISS:    2077259 MSHR_MERGE:     769065
cpu0->cpu0_DTLB LOAD         ACCESS:  116852574 HIT:  114775315 MISS:    2077259 MSHR_MERGE:     769065
cpu0->cpu0_DTLB RFO          ACCESS:          0 HIT:          0 MISS:          0 MSHR_MERGE:          0
cpu0->cpu0_DTLB PREFETCH     ACCESS:          0 HIT:          0 MISS:          0 MSHR_MERGE:          0
cpu0->cpu0_DTLB WRITE        ACCESS:          0 HIT:          0 MISS:          0 MSHR_MERGE:          0
cpu0->cpu0_DTLB TRANSLATION  ACCESS:          0 HIT:          0 MISS:          0 MSHR_MERGE:          0
cpu0->cpu0_DTLB PREFETCH REQUESTED:          0 ISSUED:          0 USEFUL:          0 USELESS:          0
cpu0->cpu0_DTLB AVERAGE MISS LATENCY: 34.35 cycles
cpu0->LLC TOTAL        ACCESS:   11526199 HIT:    4189257 MISS:    7336942 MSHR_MERGE:          0
cpu0->LLC LOAD         ACCESS:    7347735 HIT:    3237963 MISS:    4109772 MSHR_MERGE:          0
cpu0->LLC RFO          ACCESS:     404460 HIT:        425 MISS:     404035 MSHR_MERGE:          0
cpu0->LLC PREFETCH     ACCESS:    2864749 HIT:     827348 MISS:    2037401 MSHR_MERGE:          0
cpu0->LLC WRITE        ACCESS:     844680 HIT:     111675 MISS:     733005 MSHR_MERGE:          0
cpu0->LLC TRANSLATION  ACCESS:      64575 HIT:      11846 MISS:      52729 MSHR_MERGE:          0
cpu0->LLC PREFETCH REQUESTED:          0 ISSUED:          0 USEFUL:          0 USELESS:          0
cpu0->LLC AVERAGE MISS LATENCY: 206.8 cycles

DRAM Statistics

Channel 0 RQ ROW_BUFFER_HIT:     663875
  ROW_BUFFER_MISS:    5940053
  AVG DBUS CONGESTED CYCLE: 16.53
Channel 0 WQ ROW_BUFFER_HIT:     137509
  ROW_BUFFER_MISS:     709428
  FULL:         29
Channel 0 REFRESHES ISSUED:      37194
