[VMEM] WARNING: physical memory size is smaller than virtual memory size.

*** ChampSim Multicore Out-of-Order Simulator ***
Warmup Instructions: 50000000
Simulation Instructions: 200000000
Number of CPUs: 1
Page size: 4096
Core 0: /local-ssd/ben/dpc4-traces/SPEC17/649.fotonik3d_s-1176B.champsimtrace.xz
Off-chip DRAM Size: 64 GiB Channels: 1 Width: 64-bit Data Rate: 4807 MT/s
Heartbeat CPU 0 instructions: 500004 cycles: 109188 heartbeat IPC: 4.579 cumulative IPC: 4.579 (Simulation time: 00 hr 00 min 02 sec)
Heartbeat CPU 0 instructions: 1000010 cycles: 212744 heartbeat IPC: 4.828 cumulative IPC: 4.701 (Simulation time: 00 hr 00 min 03 sec)
Heartbeat CPU 0 instructions: 1500013 cycles: 315709 heartbeat IPC: 4.856 cumulative IPC: 4.751 (Simulation time: 00 hr 00 min 05 sec)
Heartbeat CPU 0 instructions: 2000014 cycles: 418937 heartbeat IPC: 4.844 cumulative IPC: 4.774 (Simulation time: 00 hr 00 min 06 sec)
Heartbeat CPU 0 instructions: 2500016 cycles: 521969 heartbeat IPC: 4.853 cumulative IPC: 4.79 (Simulation time: 00 hr 00 min 08 sec)
Heartbeat CPU 0 instructions: 3000016 cycles: 625141 heartbeat IPC: 4.846 cumulative IPC: 4.799 (Simulation time: 00 hr 00 min 09 sec)
Heartbeat CPU 0 instructions: 3500021 cycles: 728053 heartbeat IPC: 4.859 cumulative IPC: 4.807 (Simulation time: 00 hr 00 min 10 sec)
Heartbeat CPU 0 instructions: 4000026 cycles: 831593 heartbeat IPC: 4.829 cumulative IPC: 4.81 (Simulation time: 00 hr 00 min 12 sec)
Heartbeat CPU 0 instructions: 4500028 cycles: 934666 heartbeat IPC: 4.851 cumulative IPC: 4.815 (Simulation time: 00 hr 00 min 13 sec)
Heartbeat CPU 0 instructions: 5000035 cycles: 1037842 heartbeat IPC: 4.846 cumulative IPC: 4.818 (Simulation time: 00 hr 00 min 15 sec)
Heartbeat CPU 0 instructions: 5500040 cycles: 1140933 heartbeat IPC: 4.85 cumulative IPC: 4.821 (Simulation time: 00 hr 00 min 16 sec)
Heartbeat CPU 0 instructions: 6000043 cycles: 1244489 heartbeat IPC: 4.828 cumulative IPC: 4.821 (Simulation time: 00 hr 00 min 18 sec)
Heartbeat CPU 0 instructions: 6500048 cycles: 1347774 heartbeat IPC: 4.841 cumulative IPC: 4.823 (Simulation time: 00 hr 00 min 19 sec)
Heartbeat CPU 0 instructions: 7000053 cycles: 1450943 heartbeat IPC: 4.846 cumulative IPC: 4.824 (Simulation time: 00 hr 00 min 20 sec)
Heartbeat CPU 0 instructions: 7500054 cycles: 1554244 heartbeat IPC: 4.84 cumulative IPC: 4.826 (Simulation time: 00 hr 00 min 22 sec)
Heartbeat CPU 0 instructions: 8000061 cycles: 1657404 heartbeat IPC: 4.847 cumulative IPC: 4.827 (Simulation time: 00 hr 00 min 23 sec)
Heartbeat CPU 0 instructions: 8500064 cycles: 1760461 heartbeat IPC: 4.852 cumulative IPC: 4.828 (Simulation time: 00 hr 00 min 25 sec)
Heartbeat CPU 0 instructions: 9000068 cycles: 1863462 heartbeat IPC: 4.854 cumulative IPC: 4.83 (Simulation time: 00 hr 00 min 26 sec)
Heartbeat CPU 0 instructions: 9500071 cycles: 1966696 heartbeat IPC: 4.843 cumulative IPC: 4.83 (Simulation time: 00 hr 00 min 27 sec)
Heartbeat CPU 0 instructions: 10000071 cycles: 2069649 heartbeat IPC: 4.857 cumulative IPC: 4.832 (Simulation time: 00 hr 00 min 29 sec)
Heartbeat CPU 0 instructions: 10500072 cycles: 2172738 heartbeat IPC: 4.85 cumulative IPC: 4.833 (Simulation time: 00 hr 00 min 30 sec)
Heartbeat CPU 0 instructions: 11000076 cycles: 2275728 heartbeat IPC: 4.855 cumulative IPC: 4.834 (Simulation time: 00 hr 00 min 32 sec)
Heartbeat CPU 0 instructions: 11500077 cycles: 2379042 heartbeat IPC: 4.84 cumulative IPC: 4.834 (Simulation time: 00 hr 00 min 33 sec)
Heartbeat CPU 0 instructions: 12000083 cycles: 2482752 heartbeat IPC: 4.821 cumulative IPC: 4.833 (Simulation time: 00 hr 00 min 35 sec)
Heartbeat CPU 0 instructions: 12500084 cycles: 2585908 heartbeat IPC: 4.847 cumulative IPC: 4.834 (Simulation time: 00 hr 00 min 36 sec)
Heartbeat CPU 0 instructions: 13000084 cycles: 2689241 heartbeat IPC: 4.839 cumulative IPC: 4.834 (Simulation time: 00 hr 00 min 37 sec)
Heartbeat CPU 0 instructions: 13500085 cycles: 2793230 heartbeat IPC: 4.808 cumulative IPC: 4.833 (Simulation time: 00 hr 00 min 39 sec)
Heartbeat CPU 0 instructions: 14000092 cycles: 2896644 heartbeat IPC: 4.835 cumulative IPC: 4.833 (Simulation time: 00 hr 00 min 40 sec)
Heartbeat CPU 0 instructions: 14500098 cycles: 2999927 heartbeat IPC: 4.841 cumulative IPC: 4.833 (Simulation time: 00 hr 00 min 42 sec)
Heartbeat CPU 0 instructions: 15000098 cycles: 3102984 heartbeat IPC: 4.852 cumulative IPC: 4.834 (Simulation time: 00 hr 00 min 43 sec)
Heartbeat CPU 0 instructions: 15500105 cycles: 3206179 heartbeat IPC: 4.845 cumulative IPC: 4.834 (Simulation time: 00 hr 00 min 45 sec)
Heartbeat CPU 0 instructions: 16000109 cycles: 3309659 heartbeat IPC: 4.832 cumulative IPC: 4.834 (Simulation time: 00 hr 00 min 46 sec)
Heartbeat CPU 0 instructions: 16500112 cycles: 3412786 heartbeat IPC: 4.848 cumulative IPC: 4.835 (Simulation time: 00 hr 00 min 47 sec)
Heartbeat CPU 0 instructions: 17000119 cycles: 3516429 heartbeat IPC: 4.824 cumulative IPC: 4.834 (Simulation time: 00 hr 00 min 49 sec)
Heartbeat CPU 0 instructions: 17500119 cycles: 3619867 heartbeat IPC: 4.834 cumulative IPC: 4.834 (Simulation time: 00 hr 00 min 50 sec)
Heartbeat CPU 0 instructions: 18000119 cycles: 3722746 heartbeat IPC: 4.86 cumulative IPC: 4.835 (Simulation time: 00 hr 00 min 52 sec)
Heartbeat CPU 0 instructions: 18500123 cycles: 3826195 heartbeat IPC: 4.833 cumulative IPC: 4.835 (Simulation time: 00 hr 00 min 53 sec)
Heartbeat CPU 0 instructions: 19000123 cycles: 3929421 heartbeat IPC: 4.844 cumulative IPC: 4.835 (Simulation time: 00 hr 00 min 54 sec)
Heartbeat CPU 0 instructions: 19500126 cycles: 4033147 heartbeat IPC: 4.82 cumulative IPC: 4.835 (Simulation time: 00 hr 00 min 56 sec)
Heartbeat CPU 0 instructions: 20000133 cycles: 4136848 heartbeat IPC: 4.822 cumulative IPC: 4.835 (Simulation time: 00 hr 00 min 57 sec)
Heartbeat CPU 0 instructions: 20500138 cycles: 4240551 heartbeat IPC: 4.822 cumulative IPC: 4.834 (Simulation time: 00 hr 00 min 59 sec)
Heartbeat CPU 0 instructions: 21000139 cycles: 4344327 heartbeat IPC: 4.818 cumulative IPC: 4.834 (Simulation time: 00 hr 01 min 00 sec)
Heartbeat CPU 0 instructions: 21500139 cycles: 4447408 heartbeat IPC: 4.851 cumulative IPC: 4.834 (Simulation time: 00 hr 01 min 02 sec)
Heartbeat CPU 0 instructions: 22000139 cycles: 4550823 heartbeat IPC: 4.835 cumulative IPC: 4.834 (Simulation time: 00 hr 01 min 03 sec)
Heartbeat CPU 0 instructions: 22500145 cycles: 4653745 heartbeat IPC: 4.858 cumulative IPC: 4.835 (Simulation time: 00 hr 01 min 04 sec)
Heartbeat CPU 0 instructions: 23000150 cycles: 4757223 heartbeat IPC: 4.832 cumulative IPC: 4.835 (Simulation time: 00 hr 01 min 06 sec)
Heartbeat CPU 0 instructions: 23500157 cycles: 4860756 heartbeat IPC: 4.829 cumulative IPC: 4.835 (Simulation time: 00 hr 01 min 07 sec)
Heartbeat CPU 0 instructions: 24000157 cycles: 4963817 heartbeat IPC: 4.851 cumulative IPC: 4.835 (Simulation time: 00 hr 01 min 09 sec)
Heartbeat CPU 0 instructions: 24500158 cycles: 5066061 heartbeat IPC: 4.89 cumulative IPC: 4.836 (Simulation time: 00 hr 01 min 10 sec)
Heartbeat CPU 0 instructions: 25000160 cycles: 5169239 heartbeat IPC: 4.846 cumulative IPC: 4.836 (Simulation time: 00 hr 01 min 12 sec)
Heartbeat CPU 0 instructions: 25500160 cycles: 5272097 heartbeat IPC: 4.861 cumulative IPC: 4.837 (Simulation time: 00 hr 01 min 13 sec)
Heartbeat CPU 0 instructions: 26000166 cycles: 5376060 heartbeat IPC: 4.809 cumulative IPC: 4.836 (Simulation time: 00 hr 01 min 14 sec)
Heartbeat CPU 0 instructions: 26500170 cycles: 5479336 heartbeat IPC: 4.841 cumulative IPC: 4.836 (Simulation time: 00 hr 01 min 16 sec)
Heartbeat CPU 0 instructions: 27000173 cycles: 5582723 heartbeat IPC: 4.836 cumulative IPC: 4.836 (Simulation time: 00 hr 01 min 17 sec)
Heartbeat CPU 0 instructions: 27500174 cycles: 5685742 heartbeat IPC: 4.853 cumulative IPC: 4.837 (Simulation time: 00 hr 01 min 19 sec)
Heartbeat CPU 0 instructions: 28000175 cycles: 5789549 heartbeat IPC: 4.817 cumulative IPC: 4.836 (Simulation time: 00 hr 01 min 20 sec)
Heartbeat CPU 0 instructions: 28500182 cycles: 5892782 heartbeat IPC: 4.843 cumulative IPC: 4.836 (Simulation time: 00 hr 01 min 22 sec)
Heartbeat CPU 0 instructions: 29000185 cycles: 5996068 heartbeat IPC: 4.841 cumulative IPC: 4.837 (Simulation time: 00 hr 01 min 23 sec)
Heartbeat CPU 0 instructions: 29500192 cycles: 6099664 heartbeat IPC: 4.827 cumulative IPC: 4.836 (Simulation time: 00 hr 01 min 24 sec)
Heartbeat CPU 0 instructions: 30000193 cycles: 6202945 heartbeat IPC: 4.841 cumulative IPC: 4.836 (Simulation time: 00 hr 01 min 26 sec)
Heartbeat CPU 0 instructions: 30500195 cycles: 6305968 heartbeat IPC: 4.853 cumulative IPC: 4.837 (Simulation time: 00 hr 01 min 27 sec)
Heartbeat CPU 0 instructions: 31000195 cycles: 6408788 heartbeat IPC: 4.863 cumulative IPC: 4.837 (Simulation time: 00 hr 01 min 29 sec)
Heartbeat CPU 0 instructions: 31500195 cycles: 6512158 heartbeat IPC: 4.837 cumulative IPC: 4.837 (Simulation time: 00 hr 01 min 30 sec)
Heartbeat CPU 0 instructions: 32000202 cycles: 6615249 heartbeat IPC: 4.85 cumulative IPC: 4.837 (Simulation time: 00 hr 01 min 32 sec)
Heartbeat CPU 0 instructions: 32500209 cycles: 6718891 heartbeat IPC: 4.824 cumulative IPC: 4.837 (Simulation time: 00 hr 01 min 33 sec)
Heartbeat CPU 0 instructions: 33000213 cycles: 6822279 heartbeat IPC: 4.836 cumulative IPC: 4.837 (Simulation time: 00 hr 01 min 34 sec)
Heartbeat CPU 0 instructions: 33500215 cycles: 6926012 heartbeat IPC: 4.82 cumulative IPC: 4.837 (Simulation time: 00 hr 01 min 36 sec)
Heartbeat CPU 0 instructions: 34000219 cycles: 7029037 heartbeat IPC: 4.853 cumulative IPC: 4.837 (Simulation time: 00 hr 01 min 37 sec)
Heartbeat CPU 0 instructions: 34500219 cycles: 7132743 heartbeat IPC: 4.821 cumulative IPC: 4.837 (Simulation time: 00 hr 01 min 39 sec)
Heartbeat CPU 0 instructions: 35000219 cycles: 7236593 heartbeat IPC: 4.815 cumulative IPC: 4.837 (Simulation time: 00 hr 01 min 40 sec)
Heartbeat CPU 0 instructions: 35500223 cycles: 7339335 heartbeat IPC: 4.867 cumulative IPC: 4.837 (Simulation time: 00 hr 01 min 42 sec)
Heartbeat CPU 0 instructions: 36000224 cycles: 7442966 heartbeat IPC: 4.825 cumulative IPC: 4.837 (Simulation time: 00 hr 01 min 43 sec)
Heartbeat CPU 0 instructions: 36500231 cycles: 7545871 heartbeat IPC: 4.859 cumulative IPC: 4.837 (Simulation time: 00 hr 01 min 44 sec)
Heartbeat CPU 0 instructions: 37000234 cycles: 7649314 heartbeat IPC: 4.834 cumulative IPC: 4.837 (Simulation time: 00 hr 01 min 46 sec)
Heartbeat CPU 0 instructions: 37500236 cycles: 7752527 heartbeat IPC: 4.844 cumulative IPC: 4.837 (Simulation time: 00 hr 01 min 47 sec)
Heartbeat CPU 0 instructions: 38000236 cycles: 7855407 heartbeat IPC: 4.86 cumulative IPC: 4.837 (Simulation time: 00 hr 01 min 49 sec)
Heartbeat CPU 0 instructions: 38500242 cycles: 7958309 heartbeat IPC: 4.859 cumulative IPC: 4.838 (Simulation time: 00 hr 01 min 50 sec)
Heartbeat CPU 0 instructions: 39000243 cycles: 8061363 heartbeat IPC: 4.852 cumulative IPC: 4.838 (Simulation time: 00 hr 01 min 52 sec)
Heartbeat CPU 0 instructions: 39500249 cycles: 8164841 heartbeat IPC: 4.832 cumulative IPC: 4.838 (Simulation time: 00 hr 01 min 53 sec)
Heartbeat CPU 0 instructions: 40000249 cycles: 8268166 heartbeat IPC: 4.839 cumulative IPC: 4.838 (Simulation time: 00 hr 01 min 54 sec)
Heartbeat CPU 0 instructions: 40500249 cycles: 8371476 heartbeat IPC: 4.84 cumulative IPC: 4.838 (Simulation time: 00 hr 01 min 56 sec)
Heartbeat CPU 0 instructions: 41000249 cycles: 8474771 heartbeat IPC: 4.841 cumulative IPC: 4.838 (Simulation time: 00 hr 01 min 57 sec)
Heartbeat CPU 0 instructions: 41500249 cycles: 8578013 heartbeat IPC: 4.843 cumulative IPC: 4.838 (Simulation time: 00 hr 01 min 59 sec)
Heartbeat CPU 0 instructions: 42000253 cycles: 8681166 heartbeat IPC: 4.847 cumulative IPC: 4.838 (Simulation time: 00 hr 02 min 00 sec)
Heartbeat CPU 0 instructions: 42500253 cycles: 8784780 heartbeat IPC: 4.826 cumulative IPC: 4.838 (Simulation time: 00 hr 02 min 02 sec)
Heartbeat CPU 0 instructions: 43000254 cycles: 8887919 heartbeat IPC: 4.848 cumulative IPC: 4.838 (Simulation time: 00 hr 02 min 03 sec)
Heartbeat CPU 0 instructions: 43500256 cycles: 8990923 heartbeat IPC: 4.854 cumulative IPC: 4.838 (Simulation time: 00 hr 02 min 05 sec)
Heartbeat CPU 0 instructions: 44000260 cycles: 9094543 heartbeat IPC: 4.825 cumulative IPC: 4.838 (Simulation time: 00 hr 02 min 06 sec)
Heartbeat CPU 0 instructions: 44500264 cycles: 9197356 heartbeat IPC: 4.863 cumulative IPC: 4.838 (Simulation time: 00 hr 02 min 07 sec)
Heartbeat CPU 0 instructions: 45000266 cycles: 9300294 heartbeat IPC: 4.857 cumulative IPC: 4.839 (Simulation time: 00 hr 02 min 09 sec)
Heartbeat CPU 0 instructions: 45500268 cycles: 9403703 heartbeat IPC: 4.835 cumulative IPC: 4.839 (Simulation time: 00 hr 02 min 10 sec)
Heartbeat CPU 0 instructions: 46000274 cycles: 9507177 heartbeat IPC: 4.832 cumulative IPC: 4.838 (Simulation time: 00 hr 02 min 12 sec)
Heartbeat CPU 0 instructions: 46500275 cycles: 9609766 heartbeat IPC: 4.874 cumulative IPC: 4.839 (Simulation time: 00 hr 02 min 13 sec)
Heartbeat CPU 0 instructions: 47000275 cycles: 9713030 heartbeat IPC: 4.842 cumulative IPC: 4.839 (Simulation time: 00 hr 02 min 15 sec)
Heartbeat CPU 0 instructions: 47500276 cycles: 9816554 heartbeat IPC: 4.83 cumulative IPC: 4.839 (Simulation time: 00 hr 02 min 16 sec)
Heartbeat CPU 0 instructions: 48000283 cycles: 9919470 heartbeat IPC: 4.858 cumulative IPC: 4.839 (Simulation time: 00 hr 02 min 17 sec)
Heartbeat CPU 0 instructions: 48500289 cycles: 10022558 heartbeat IPC: 4.85 cumulative IPC: 4.839 (Simulation time: 00 hr 02 min 19 sec)
Heartbeat CPU 0 instructions: 49000293 cycles: 10125589 heartbeat IPC: 4.853 cumulative IPC: 4.839 (Simulation time: 00 hr 02 min 20 sec)
Heartbeat CPU 0 instructions: 49500295 cycles: 10228821 heartbeat IPC: 4.843 cumulative IPC: 4.839 (Simulation time: 00 hr 02 min 22 sec)
Warmup halting CPU 0 at instruction 50000002 cycle 10332240 for remainder of phase
Warmup finished CPU 0 instructions: 50000002 cycles: 10332240 cumulative IPC: 4.839 (Simulation time: 00 hr 02 min 23 sec)
Warmup complete CPU 0 instructions: 50000002 cycles: 10332240 cumulative IPC: 4.839 (Simulation time: 00 hr 02 min 23 sec)
Heartbeat CPU 0 instructions: 50000302 cycles: 10332316 heartbeat IPC: 4.831 cumulative IPC: 3.947 (Simulation time: 00 hr 02 min 23 sec)
Heartbeat CPU 0 instructions: 50500302 cycles: 10744817 heartbeat IPC: 1.212 cumulative IPC: 1.213 (Simulation time: 00 hr 02 min 28 sec)
Heartbeat CPU 0 instructions: 51000309 cycles: 11172716 heartbeat IPC: 1.169 cumulative IPC: 1.19 (Simulation time: 00 hr 02 min 33 sec)
Heartbeat CPU 0 instructions: 51500316 cycles: 11607413 heartbeat IPC: 1.15 cumulative IPC: 1.177 (Simulation time: 00 hr 02 min 39 sec)
Heartbeat CPU 0 instructions: 52000317 cycles: 12038816 heartbeat IPC: 1.159 cumulative IPC: 1.172 (Simulation time: 00 hr 02 min 44 sec)
Heartbeat CPU 0 instructions: 52500318 cycles: 12476155 heartbeat IPC: 1.143 cumulative IPC: 1.166 (Simulation time: 00 hr 02 min 49 sec)
Heartbeat CPU 0 instructions: 53000325 cycles: 12906425 heartbeat IPC: 1.162 cumulative IPC: 1.166 (Simulation time: 00 hr 02 min 54 sec)
Heartbeat CPU 0 instructions: 53500325 cycles: 13340675 heartbeat IPC: 1.151 cumulative IPC: 1.164 (Simulation time: 00 hr 03 min 00 sec)
Heartbeat CPU 0 instructions: 54000325 cycles: 13774327 heartbeat IPC: 1.153 cumulative IPC: 1.162 (Simulation time: 00 hr 03 min 05 sec)
Heartbeat CPU 0 instructions: 54500325 cycles: 14191071 heartbeat IPC: 1.2 cumulative IPC: 1.166 (Simulation time: 00 hr 03 min 10 sec)
Heartbeat CPU 0 instructions: 55000325 cycles: 14624230 heartbeat IPC: 1.154 cumulative IPC: 1.165 (Simulation time: 00 hr 03 min 15 sec)
Heartbeat CPU 0 instructions: 55500327 cycles: 15034854 heartbeat IPC: 1.218 cumulative IPC: 1.17 (Simulation time: 00 hr 03 min 20 sec)
Heartbeat CPU 0 instructions: 56000330 cycles: 15479336 heartbeat IPC: 1.125 cumulative IPC: 1.166 (Simulation time: 00 hr 03 min 26 sec)
Heartbeat CPU 0 instructions: 56500337 cycles: 15911735 heartbeat IPC: 1.156 cumulative IPC: 1.165 (Simulation time: 00 hr 03 min 31 sec)
Heartbeat CPU 0 instructions: 57000344 cycles: 16341252 heartbeat IPC: 1.164 cumulative IPC: 1.165 (Simulation time: 00 hr 03 min 36 sec)
Heartbeat CPU 0 instructions: 57500351 cycles: 16769185 heartbeat IPC: 1.168 cumulative IPC: 1.165 (Simulation time: 00 hr 03 min 41 sec)
Heartbeat CPU 0 instructions: 58000353 cycles: 17205299 heartbeat IPC: 1.146 cumulative IPC: 1.164 (Simulation time: 00 hr 03 min 47 sec)
Heartbeat CPU 0 instructions: 58500353 cycles: 17626989 heartbeat IPC: 1.186 cumulative IPC: 1.165 (Simulation time: 00 hr 03 min 52 sec)
Heartbeat CPU 0 instructions: 59000353 cycles: 18058503 heartbeat IPC: 1.159 cumulative IPC: 1.165 (Simulation time: 00 hr 03 min 57 sec)
Heartbeat CPU 0 instructions: 59500360 cycles: 18479042 heartbeat IPC: 1.189 cumulative IPC: 1.166 (Simulation time: 00 hr 04 min 02 sec)
Heartbeat CPU 0 instructions: 60000360 cycles: 18907549 heartbeat IPC: 1.167 cumulative IPC: 1.166 (Simulation time: 00 hr 04 min 07 sec)
Heartbeat CPU 0 instructions: 60500364 cycles: 19337293 heartbeat IPC: 1.163 cumulative IPC: 1.166 (Simulation time: 00 hr 04 min 12 sec)
Heartbeat CPU 0 instructions: 61000365 cycles: 19747248 heartbeat IPC: 1.22 cumulative IPC: 1.168 (Simulation time: 00 hr 04 min 17 sec)
Heartbeat CPU 0 instructions: 61500371 cycles: 20167628 heartbeat IPC: 1.189 cumulative IPC: 1.169 (Simulation time: 00 hr 04 min 23 sec)
Heartbeat CPU 0 instructions: 62000371 cycles: 20596911 heartbeat IPC: 1.165 cumulative IPC: 1.169 (Simulation time: 00 hr 04 min 28 sec)
Heartbeat CPU 0 instructions: 62500378 cycles: 21036903 heartbeat IPC: 1.136 cumulative IPC: 1.168 (Simulation time: 00 hr 04 min 33 sec)
Heartbeat CPU 0 instructions: 63000381 cycles: 21469005 heartbeat IPC: 1.157 cumulative IPC: 1.167 (Simulation time: 00 hr 04 min 38 sec)
Heartbeat CPU 0 instructions: 63500381 cycles: 21901560 heartbeat IPC: 1.156 cumulative IPC: 1.167 (Simulation time: 00 hr 04 min 43 sec)
Heartbeat CPU 0 instructions: 64000388 cycles: 22340257 heartbeat IPC: 1.14 cumulative IPC: 1.166 (Simulation time: 00 hr 04 min 49 sec)
Heartbeat CPU 0 instructions: 64500389 cycles: 22767970 heartbeat IPC: 1.169 cumulative IPC: 1.166 (Simulation time: 00 hr 04 min 54 sec)
Heartbeat CPU 0 instructions: 65000396 cycles: 23197605 heartbeat IPC: 1.164 cumulative IPC: 1.166 (Simulation time: 00 hr 04 min 59 sec)
Heartbeat CPU 0 instructions: 65500400 cycles: 23613100 heartbeat IPC: 1.203 cumulative IPC: 1.167 (Simulation time: 00 hr 05 min 04 sec)
Heartbeat CPU 0 instructions: 66000407 cycles: 24047729 heartbeat IPC: 1.15 cumulative IPC: 1.167 (Simulation time: 00 hr 05 min 09 sec)
Heartbeat CPU 0 instructions: 66500414 cycles: 24477625 heartbeat IPC: 1.163 cumulative IPC: 1.166 (Simulation time: 00 hr 05 min 15 sec)
Heartbeat CPU 0 instructions: 67000416 cycles: 24924167 heartbeat IPC: 1.12 cumulative IPC: 1.165 (Simulation time: 00 hr 05 min 20 sec)
Heartbeat CPU 0 instructions: 67500421 cycles: 25352570 heartbeat IPC: 1.167 cumulative IPC: 1.165 (Simulation time: 00 hr 05 min 25 sec)
Heartbeat CPU 0 instructions: 68000423 cycles: 25783962 heartbeat IPC: 1.159 cumulative IPC: 1.165 (Simulation time: 00 hr 05 min 31 sec)
Heartbeat CPU 0 instructions: 68500424 cycles: 26232190 heartbeat IPC: 1.116 cumulative IPC: 1.164 (Simulation time: 00 hr 05 min 36 sec)
Heartbeat CPU 0 instructions: 69000429 cycles: 26645948 heartbeat IPC: 1.208 cumulative IPC: 1.165 (Simulation time: 00 hr 05 min 41 sec)
Heartbeat CPU 0 instructions: 69500430 cycles: 27066409 heartbeat IPC: 1.189 cumulative IPC: 1.165 (Simulation time: 00 hr 05 min 46 sec)
Heartbeat CPU 0 instructions: 70000431 cycles: 27489275 heartbeat IPC: 1.182 cumulative IPC: 1.166 (Simulation time: 00 hr 05 min 51 sec)
Heartbeat CPU 0 instructions: 70500438 cycles: 27928207 heartbeat IPC: 1.139 cumulative IPC: 1.165 (Simulation time: 00 hr 05 min 57 sec)
Heartbeat CPU 0 instructions: 71000441 cycles: 28353554 heartbeat IPC: 1.176 cumulative IPC: 1.165 (Simulation time: 00 hr 06 min 02 sec)
Heartbeat CPU 0 instructions: 71500444 cycles: 28781038 heartbeat IPC: 1.17 cumulative IPC: 1.165 (Simulation time: 00 hr 06 min 07 sec)
Heartbeat CPU 0 instructions: 72000451 cycles: 29203218 heartbeat IPC: 1.184 cumulative IPC: 1.166 (Simulation time: 00 hr 06 min 12 sec)
Heartbeat CPU 0 instructions: 72500458 cycles: 29626981 heartbeat IPC: 1.18 cumulative IPC: 1.166 (Simulation time: 00 hr 06 min 17 sec)
Heartbeat CPU 0 instructions: 73000465 cycles: 30058677 heartbeat IPC: 1.158 cumulative IPC: 1.166 (Simulation time: 00 hr 06 min 22 sec)
Heartbeat CPU 0 instructions: 73500472 cycles: 30497465 heartbeat IPC: 1.14 cumulative IPC: 1.165 (Simulation time: 00 hr 06 min 28 sec)
Heartbeat CPU 0 instructions: 74000473 cycles: 30918312 heartbeat IPC: 1.188 cumulative IPC: 1.166 (Simulation time: 00 hr 06 min 33 sec)
Heartbeat CPU 0 instructions: 74500475 cycles: 31347204 heartbeat IPC: 1.166 cumulative IPC: 1.166 (Simulation time: 00 hr 06 min 38 sec)
Heartbeat CPU 0 instructions: 75000481 cycles: 31779322 heartbeat IPC: 1.157 cumulative IPC: 1.166 (Simulation time: 00 hr 06 min 43 sec)
Heartbeat CPU 0 instructions: 75500483 cycles: 32201003 heartbeat IPC: 1.186 cumulative IPC: 1.166 (Simulation time: 00 hr 06 min 48 sec)
Heartbeat CPU 0 instructions: 76000488 cycles: 32624021 heartbeat IPC: 1.182 cumulative IPC: 1.166 (Simulation time: 00 hr 06 min 54 sec)
Heartbeat CPU 0 instructions: 76500494 cycles: 33047722 heartbeat IPC: 1.18 cumulative IPC: 1.167 (Simulation time: 00 hr 06 min 59 sec)
Heartbeat CPU 0 instructions: 77000494 cycles: 33485840 heartbeat IPC: 1.141 cumulative IPC: 1.166 (Simulation time: 00 hr 07 min 04 sec)
Heartbeat CPU 0 instructions: 77500495 cycles: 33909768 heartbeat IPC: 1.179 cumulative IPC: 1.166 (Simulation time: 00 hr 07 min 09 sec)
Heartbeat CPU 0 instructions: 78000501 cycles: 34344395 heartbeat IPC: 1.15 cumulative IPC: 1.166 (Simulation time: 00 hr 07 min 14 sec)
Heartbeat CPU 0 instructions: 78500507 cycles: 34781565 heartbeat IPC: 1.144 cumulative IPC: 1.166 (Simulation time: 00 hr 07 min 20 sec)
Heartbeat CPU 0 instructions: 79000509 cycles: 35205804 heartbeat IPC: 1.179 cumulative IPC: 1.166 (Simulation time: 00 hr 07 min 25 sec)
Heartbeat CPU 0 instructions: 79500510 cycles: 35648057 heartbeat IPC: 1.131 cumulative IPC: 1.165 (Simulation time: 00 hr 07 min 30 sec)
Heartbeat CPU 0 instructions: 80000517 cycles: 36073203 heartbeat IPC: 1.176 cumulative IPC: 1.165 (Simulation time: 00 hr 07 min 35 sec)
Heartbeat CPU 0 instructions: 80500518 cycles: 36510582 heartbeat IPC: 1.143 cumulative IPC: 1.165 (Simulation time: 00 hr 07 min 41 sec)
Heartbeat CPU 0 instructions: 81000523 cycles: 36929269 heartbeat IPC: 1.194 cumulative IPC: 1.166 (Simulation time: 00 hr 07 min 46 sec)
Heartbeat CPU 0 instructions: 81500528 cycles: 37354206 heartbeat IPC: 1.177 cumulative IPC: 1.166 (Simulation time: 00 hr 07 min 51 sec)
Heartbeat CPU 0 instructions: 82000535 cycles: 37775401 heartbeat IPC: 1.187 cumulative IPC: 1.166 (Simulation time: 00 hr 07 min 56 sec)
Heartbeat CPU 0 instructions: 82500538 cycles: 38204683 heartbeat IPC: 1.165 cumulative IPC: 1.166 (Simulation time: 00 hr 08 min 01 sec)
Heartbeat CPU 0 instructions: 83000545 cycles: 38636531 heartbeat IPC: 1.158 cumulative IPC: 1.166 (Simulation time: 00 hr 08 min 07 sec)
Heartbeat CPU 0 instructions: 83500546 cycles: 39061815 heartbeat IPC: 1.176 cumulative IPC: 1.166 (Simulation time: 00 hr 08 min 12 sec)
Heartbeat CPU 0 instructions: 84000546 cycles: 39482623 heartbeat IPC: 1.188 cumulative IPC: 1.166 (Simulation time: 00 hr 08 min 17 sec)
Heartbeat CPU 0 instructions: 84500553 cycles: 39905889 heartbeat IPC: 1.181 cumulative IPC: 1.167 (Simulation time: 00 hr 08 min 22 sec)
Heartbeat CPU 0 instructions: 85000560 cycles: 40338458 heartbeat IPC: 1.156 cumulative IPC: 1.166 (Simulation time: 00 hr 08 min 27 sec)
Heartbeat CPU 0 instructions: 85500567 cycles: 40774546 heartbeat IPC: 1.147 cumulative IPC: 1.166 (Simulation time: 00 hr 08 min 33 sec)
Heartbeat CPU 0 instructions: 86000568 cycles: 41194943 heartbeat IPC: 1.189 cumulative IPC: 1.166 (Simulation time: 00 hr 08 min 38 sec)
Heartbeat CPU 0 instructions: 86500569 cycles: 41615374 heartbeat IPC: 1.189 cumulative IPC: 1.167 (Simulation time: 00 hr 08 min 43 sec)
Heartbeat CPU 0 instructions: 87000570 cycles: 42050258 heartbeat IPC: 1.15 cumulative IPC: 1.167 (Simulation time: 00 hr 08 min 48 sec)
Heartbeat CPU 0 instructions: 87500571 cycles: 42479952 heartbeat IPC: 1.164 cumulative IPC: 1.167 (Simulation time: 00 hr 08 min 53 sec)
Heartbeat CPU 0 instructions: 88000572 cycles: 42909675 heartbeat IPC: 1.164 cumulative IPC: 1.166 (Simulation time: 00 hr 08 min 59 sec)
Heartbeat CPU 0 instructions: 88500579 cycles: 43329729 heartbeat IPC: 1.19 cumulative IPC: 1.167 (Simulation time: 00 hr 09 min 04 sec)
Heartbeat CPU 0 instructions: 89000581 cycles: 43745245 heartbeat IPC: 1.203 cumulative IPC: 1.167 (Simulation time: 00 hr 09 min 09 sec)
Heartbeat CPU 0 instructions: 89500588 cycles: 44176303 heartbeat IPC: 1.16 cumulative IPC: 1.167 (Simulation time: 00 hr 09 min 14 sec)
Heartbeat CPU 0 instructions: 90000595 cycles: 44616641 heartbeat IPC: 1.136 cumulative IPC: 1.167 (Simulation time: 00 hr 09 min 19 sec)
Heartbeat CPU 0 instructions: 90500601 cycles: 45054853 heartbeat IPC: 1.141 cumulative IPC: 1.166 (Simulation time: 00 hr 09 min 25 sec)
Heartbeat CPU 0 instructions: 91000603 cycles: 45478717 heartbeat IPC: 1.18 cumulative IPC: 1.167 (Simulation time: 00 hr 09 min 30 sec)
Heartbeat CPU 0 instructions: 91500603 cycles: 45918221 heartbeat IPC: 1.138 cumulative IPC: 1.166 (Simulation time: 00 hr 09 min 35 sec)
Heartbeat CPU 0 instructions: 92000607 cycles: 46350750 heartbeat IPC: 1.156 cumulative IPC: 1.166 (Simulation time: 00 hr 09 min 41 sec)
Heartbeat CPU 0 instructions: 92500607 cycles: 46789708 heartbeat IPC: 1.139 cumulative IPC: 1.166 (Simulation time: 00 hr 09 min 47 sec)
Heartbeat CPU 0 instructions: 93000614 cycles: 47200886 heartbeat IPC: 1.216 cumulative IPC: 1.166 (Simulation time: 00 hr 09 min 53 sec)
Heartbeat CPU 0 instructions: 93500621 cycles: 47628477 heartbeat IPC: 1.169 cumulative IPC: 1.166 (Simulation time: 00 hr 09 min 59 sec)
Heartbeat CPU 0 instructions: 94000623 cycles: 48073180 heartbeat IPC: 1.124 cumulative IPC: 1.166 (Simulation time: 00 hr 10 min 05 sec)
Heartbeat CPU 0 instructions: 94500623 cycles: 48491740 heartbeat IPC: 1.195 cumulative IPC: 1.166 (Simulation time: 00 hr 10 min 11 sec)
Heartbeat CPU 0 instructions: 95000624 cycles: 48919666 heartbeat IPC: 1.168 cumulative IPC: 1.166 (Simulation time: 00 hr 10 min 17 sec)
Heartbeat CPU 0 instructions: 95500629 cycles: 49342112 heartbeat IPC: 1.184 cumulative IPC: 1.166 (Simulation time: 00 hr 10 min 23 sec)
Heartbeat CPU 0 instructions: 96000630 cycles: 49769180 heartbeat IPC: 1.171 cumulative IPC: 1.166 (Simulation time: 00 hr 10 min 29 sec)
Heartbeat CPU 0 instructions: 96500637 cycles: 50194648 heartbeat IPC: 1.175 cumulative IPC: 1.167 (Simulation time: 00 hr 10 min 35 sec)
Heartbeat CPU 0 instructions: 97000638 cycles: 50622965 heartbeat IPC: 1.167 cumulative IPC: 1.167 (Simulation time: 00 hr 10 min 41 sec)
Heartbeat CPU 0 instructions: 97500642 cycles: 51044273 heartbeat IPC: 1.187 cumulative IPC: 1.167 (Simulation time: 00 hr 10 min 46 sec)
Heartbeat CPU 0 instructions: 98000648 cycles: 51468960 heartbeat IPC: 1.177 cumulative IPC: 1.167 (Simulation time: 00 hr 10 min 52 sec)
Heartbeat CPU 0 instructions: 98500651 cycles: 51890781 heartbeat IPC: 1.185 cumulative IPC: 1.167 (Simulation time: 00 hr 10 min 58 sec)
Heartbeat CPU 0 instructions: 99000656 cycles: 52321435 heartbeat IPC: 1.161 cumulative IPC: 1.167 (Simulation time: 00 hr 11 min 04 sec)
Heartbeat CPU 0 instructions: 99500659 cycles: 52738158 heartbeat IPC: 1.2 cumulative IPC: 1.167 (Simulation time: 00 hr 11 min 10 sec)
Heartbeat CPU 0 instructions: 100000659 cycles: 53174181 heartbeat IPC: 1.147 cumulative IPC: 1.167 (Simulation time: 00 hr 11 min 16 sec)
Heartbeat CPU 0 instructions: 100500664 cycles: 53616467 heartbeat IPC: 1.131 cumulative IPC: 1.167 (Simulation time: 00 hr 11 min 22 sec)
Heartbeat CPU 0 instructions: 101000667 cycles: 54037061 heartbeat IPC: 1.189 cumulative IPC: 1.167 (Simulation time: 00 hr 11 min 28 sec)
Heartbeat CPU 0 instructions: 101500672 cycles: 54473323 heartbeat IPC: 1.146 cumulative IPC: 1.167 (Simulation time: 00 hr 11 min 34 sec)
Heartbeat CPU 0 instructions: 102000673 cycles: 54910179 heartbeat IPC: 1.145 cumulative IPC: 1.167 (Simulation time: 00 hr 11 min 40 sec)
Heartbeat CPU 0 instructions: 102500676 cycles: 55341129 heartbeat IPC: 1.16 cumulative IPC: 1.166 (Simulation time: 00 hr 11 min 46 sec)
Heartbeat CPU 0 instructions: 103000683 cycles: 55757730 heartbeat IPC: 1.2 cumulative IPC: 1.167 (Simulation time: 00 hr 11 min 52 sec)
Heartbeat CPU 0 instructions: 103500686 cycles: 56178737 heartbeat IPC: 1.188 cumulative IPC: 1.167 (Simulation time: 00 hr 11 min 58 sec)
Heartbeat CPU 0 instructions: 104000691 cycles: 56604197 heartbeat IPC: 1.175 cumulative IPC: 1.167 (Simulation time: 00 hr 12 min 04 sec)
Heartbeat CPU 0 instructions: 104500694 cycles: 57041398 heartbeat IPC: 1.144 cumulative IPC: 1.167 (Simulation time: 00 hr 12 min 10 sec)
Heartbeat CPU 0 instructions: 105000694 cycles: 57458243 heartbeat IPC: 1.199 cumulative IPC: 1.167 (Simulation time: 00 hr 12 min 16 sec)
Heartbeat CPU 0 instructions: 105500701 cycles: 57883535 heartbeat IPC: 1.176 cumulative IPC: 1.167 (Simulation time: 00 hr 12 min 22 sec)
Heartbeat CPU 0 instructions: 106000708 cycles: 58321851 heartbeat IPC: 1.141 cumulative IPC: 1.167 (Simulation time: 00 hr 12 min 28 sec)
Heartbeat CPU 0 instructions: 106500708 cycles: 58746326 heartbeat IPC: 1.178 cumulative IPC: 1.167 (Simulation time: 00 hr 12 min 34 sec)
Heartbeat CPU 0 instructions: 107000708 cycles: 59186397 heartbeat IPC: 1.136 cumulative IPC: 1.167 (Simulation time: 00 hr 12 min 40 sec)
Heartbeat CPU 0 instructions: 107500709 cycles: 59611177 heartbeat IPC: 1.177 cumulative IPC: 1.167 (Simulation time: 00 hr 12 min 46 sec)
Heartbeat CPU 0 instructions: 108000712 cycles: 60031068 heartbeat IPC: 1.191 cumulative IPC: 1.167 (Simulation time: 00 hr 12 min 51 sec)
Heartbeat CPU 0 instructions: 108500713 cycles: 60446056 heartbeat IPC: 1.205 cumulative IPC: 1.167 (Simulation time: 00 hr 12 min 57 sec)
Heartbeat CPU 0 instructions: 109000718 cycles: 60867755 heartbeat IPC: 1.186 cumulative IPC: 1.168 (Simulation time: 00 hr 13 min 03 sec)
Heartbeat CPU 0 instructions: 109500721 cycles: 61297231 heartbeat IPC: 1.164 cumulative IPC: 1.167 (Simulation time: 00 hr 13 min 09 sec)
Heartbeat CPU 0 instructions: 110000726 cycles: 61726004 heartbeat IPC: 1.166 cumulative IPC: 1.167 (Simulation time: 00 hr 13 min 15 sec)
Heartbeat CPU 0 instructions: 110500728 cycles: 62149287 heartbeat IPC: 1.181 cumulative IPC: 1.168 (Simulation time: 00 hr 13 min 21 sec)
Heartbeat CPU 0 instructions: 111000735 cycles: 62561818 heartbeat IPC: 1.212 cumulative IPC: 1.168 (Simulation time: 00 hr 13 min 27 sec)
Heartbeat CPU 0 instructions: 111500736 cycles: 62990799 heartbeat IPC: 1.166 cumulative IPC: 1.168 (Simulation time: 00 hr 13 min 33 sec)
Heartbeat CPU 0 instructions: 112000737 cycles: 63425621 heartbeat IPC: 1.15 cumulative IPC: 1.168 (Simulation time: 00 hr 13 min 39 sec)
Heartbeat CPU 0 instructions: 112500742 cycles: 63841314 heartbeat IPC: 1.203 cumulative IPC: 1.168 (Simulation time: 00 hr 13 min 45 sec)
Heartbeat CPU 0 instructions: 113000746 cycles: 64290426 heartbeat IPC: 1.113 cumulative IPC: 1.168 (Simulation time: 00 hr 13 min 51 sec)
Heartbeat CPU 0 instructions: 113500748 cycles: 64709402 heartbeat IPC: 1.193 cumulative IPC: 1.168 (Simulation time: 00 hr 13 min 57 sec)
Heartbeat CPU 0 instructions: 114000755 cycles: 65136028 heartbeat IPC: 1.172 cumulative IPC: 1.168 (Simulation time: 00 hr 14 min 03 sec)
Heartbeat CPU 0 instructions: 114500762 cycles: 65556808 heartbeat IPC: 1.188 cumulative IPC: 1.168 (Simulation time: 00 hr 14 min 08 sec)
Heartbeat CPU 0 instructions: 115000763 cycles: 65988824 heartbeat IPC: 1.157 cumulative IPC: 1.168 (Simulation time: 00 hr 14 min 14 sec)
Heartbeat CPU 0 instructions: 115500769 cycles: 66427988 heartbeat IPC: 1.139 cumulative IPC: 1.168 (Simulation time: 00 hr 14 min 21 sec)
Heartbeat CPU 0 instructions: 116000770 cycles: 66846596 heartbeat IPC: 1.194 cumulative IPC: 1.168 (Simulation time: 00 hr 14 min 26 sec)
Heartbeat CPU 0 instructions: 116500772 cycles: 67257030 heartbeat IPC: 1.218 cumulative IPC: 1.168 (Simulation time: 00 hr 14 min 32 sec)
Heartbeat CPU 0 instructions: 117000778 cycles: 67682534 heartbeat IPC: 1.175 cumulative IPC: 1.168 (Simulation time: 00 hr 14 min 38 sec)
Heartbeat CPU 0 instructions: 117500785 cycles: 68097757 heartbeat IPC: 1.204 cumulative IPC: 1.169 (Simulation time: 00 hr 14 min 44 sec)
Heartbeat CPU 0 instructions: 118000788 cycles: 68514732 heartbeat IPC: 1.199 cumulative IPC: 1.169 (Simulation time: 00 hr 14 min 50 sec)
Heartbeat CPU 0 instructions: 118500791 cycles: 68961148 heartbeat IPC: 1.12 cumulative IPC: 1.168 (Simulation time: 00 hr 14 min 56 sec)
Heartbeat CPU 0 instructions: 119000798 cycles: 69383011 heartbeat IPC: 1.185 cumulative IPC: 1.168 (Simulation time: 00 hr 15 min 02 sec)
Heartbeat CPU 0 instructions: 119500805 cycles: 69820447 heartbeat IPC: 1.143 cumulative IPC: 1.168 (Simulation time: 00 hr 15 min 08 sec)
Heartbeat CPU 0 instructions: 120000806 cycles: 70255267 heartbeat IPC: 1.15 cumulative IPC: 1.168 (Simulation time: 00 hr 15 min 14 sec)
Heartbeat CPU 0 instructions: 120500813 cycles: 70686022 heartbeat IPC: 1.161 cumulative IPC: 1.168 (Simulation time: 00 hr 15 min 20 sec)
Heartbeat CPU 0 instructions: 121000815 cycles: 71098685 heartbeat IPC: 1.212 cumulative IPC: 1.168 (Simulation time: 00 hr 15 min 26 sec)
Heartbeat CPU 0 instructions: 121500821 cycles: 71532293 heartbeat IPC: 1.153 cumulative IPC: 1.168 (Simulation time: 00 hr 15 min 32 sec)
Heartbeat CPU 0 instructions: 122000821 cycles: 71964858 heartbeat IPC: 1.156 cumulative IPC: 1.168 (Simulation time: 00 hr 15 min 38 sec)
Heartbeat CPU 0 instructions: 122500821 cycles: 72395397 heartbeat IPC: 1.161 cumulative IPC: 1.168 (Simulation time: 00 hr 15 min 44 sec)
Heartbeat CPU 0 instructions: 123000823 cycles: 72824053 heartbeat IPC: 1.166 cumulative IPC: 1.168 (Simulation time: 00 hr 15 min 49 sec)
Heartbeat CPU 0 instructions: 123500824 cycles: 73258721 heartbeat IPC: 1.15 cumulative IPC: 1.168 (Simulation time: 00 hr 15 min 56 sec)
Heartbeat CPU 0 instructions: 124000825 cycles: 73676647 heartbeat IPC: 1.196 cumulative IPC: 1.168 (Simulation time: 00 hr 16 min 01 sec)
Heartbeat CPU 0 instructions: 124500825 cycles: 74114074 heartbeat IPC: 1.143 cumulative IPC: 1.168 (Simulation time: 00 hr 16 min 07 sec)
Heartbeat CPU 0 instructions: 125000827 cycles: 74532874 heartbeat IPC: 1.194 cumulative IPC: 1.168 (Simulation time: 00 hr 16 min 13 sec)
Heartbeat CPU 0 instructions: 125500834 cycles: 74963830 heartbeat IPC: 1.16 cumulative IPC: 1.168 (Simulation time: 00 hr 16 min 19 sec)
Heartbeat CPU 0 instructions: 126000834 cycles: 75402337 heartbeat IPC: 1.14 cumulative IPC: 1.168 (Simulation time: 00 hr 16 min 25 sec)
Heartbeat CPU 0 instructions: 126500839 cycles: 75838316 heartbeat IPC: 1.147 cumulative IPC: 1.168 (Simulation time: 00 hr 16 min 31 sec)
Heartbeat CPU 0 instructions: 127000841 cycles: 76264835 heartbeat IPC: 1.172 cumulative IPC: 1.168 (Simulation time: 00 hr 16 min 37 sec)
Heartbeat CPU 0 instructions: 127500841 cycles: 76702889 heartbeat IPC: 1.141 cumulative IPC: 1.168 (Simulation time: 00 hr 16 min 43 sec)
Heartbeat CPU 0 instructions: 128000842 cycles: 77143540 heartbeat IPC: 1.135 cumulative IPC: 1.167 (Simulation time: 00 hr 16 min 49 sec)
Heartbeat CPU 0 instructions: 128500848 cycles: 77571702 heartbeat IPC: 1.168 cumulative IPC: 1.167 (Simulation time: 00 hr 16 min 55 sec)
Heartbeat CPU 0 instructions: 129000854 cycles: 78003985 heartbeat IPC: 1.157 cumulative IPC: 1.167 (Simulation time: 00 hr 17 min 01 sec)
Heartbeat CPU 0 instructions: 129500859 cycles: 78432462 heartbeat IPC: 1.167 cumulative IPC: 1.167 (Simulation time: 00 hr 17 min 07 sec)
Heartbeat CPU 0 instructions: 130000860 cycles: 78847861 heartbeat IPC: 1.204 cumulative IPC: 1.168 (Simulation time: 00 hr 17 min 13 sec)
Heartbeat CPU 0 instructions: 130500867 cycles: 79281065 heartbeat IPC: 1.154 cumulative IPC: 1.168 (Simulation time: 00 hr 17 min 19 sec)
Heartbeat CPU 0 instructions: 131000869 cycles: 79715142 heartbeat IPC: 1.152 cumulative IPC: 1.167 (Simulation time: 00 hr 17 min 25 sec)
Heartbeat CPU 0 instructions: 131500874 cycles: 80151808 heartbeat IPC: 1.145 cumulative IPC: 1.167 (Simulation time: 00 hr 17 min 31 sec)
Heartbeat CPU 0 instructions: 132000876 cycles: 80593650 heartbeat IPC: 1.132 cumulative IPC: 1.167 (Simulation time: 00 hr 17 min 37 sec)
Heartbeat CPU 0 instructions: 132500882 cycles: 81028498 heartbeat IPC: 1.15 cumulative IPC: 1.167 (Simulation time: 00 hr 17 min 43 sec)
Heartbeat CPU 0 instructions: 133000885 cycles: 81452179 heartbeat IPC: 1.18 cumulative IPC: 1.167 (Simulation time: 00 hr 17 min 49 sec)
Heartbeat CPU 0 instructions: 133500890 cycles: 81879545 heartbeat IPC: 1.17 cumulative IPC: 1.167 (Simulation time: 00 hr 17 min 55 sec)
Heartbeat CPU 0 instructions: 134000897 cycles: 82309751 heartbeat IPC: 1.162 cumulative IPC: 1.167 (Simulation time: 00 hr 18 min 01 sec)
Heartbeat CPU 0 instructions: 134500904 cycles: 82749607 heartbeat IPC: 1.137 cumulative IPC: 1.167 (Simulation time: 00 hr 18 min 07 sec)
Heartbeat CPU 0 instructions: 135000911 cycles: 83182184 heartbeat IPC: 1.156 cumulative IPC: 1.167 (Simulation time: 00 hr 18 min 13 sec)
Heartbeat CPU 0 instructions: 135500911 cycles: 83618099 heartbeat IPC: 1.147 cumulative IPC: 1.167 (Simulation time: 00 hr 18 min 19 sec)
Heartbeat CPU 0 instructions: 136000911 cycles: 84034644 heartbeat IPC: 1.2 cumulative IPC: 1.167 (Simulation time: 00 hr 18 min 25 sec)
Heartbeat CPU 0 instructions: 136500911 cycles: 84468440 heartbeat IPC: 1.153 cumulative IPC: 1.167 (Simulation time: 00 hr 18 min 31 sec)
Heartbeat CPU 0 instructions: 137000912 cycles: 84900320 heartbeat IPC: 1.158 cumulative IPC: 1.167 (Simulation time: 00 hr 18 min 37 sec)
Heartbeat CPU 0 instructions: 137500912 cycles: 85315287 heartbeat IPC: 1.205 cumulative IPC: 1.167 (Simulation time: 00 hr 18 min 43 sec)
Heartbeat CPU 0 instructions: 138000912 cycles: 85754334 heartbeat IPC: 1.139 cumulative IPC: 1.167 (Simulation time: 00 hr 18 min 49 sec)
Heartbeat CPU 0 instructions: 138500917 cycles: 86174447 heartbeat IPC: 1.19 cumulative IPC: 1.167 (Simulation time: 00 hr 18 min 55 sec)
Heartbeat CPU 0 instructions: 139000918 cycles: 86592428 heartbeat IPC: 1.196 cumulative IPC: 1.167 (Simulation time: 00 hr 19 min 00 sec)
Heartbeat CPU 0 instructions: 139500921 cycles: 87028672 heartbeat IPC: 1.146 cumulative IPC: 1.167 (Simulation time: 00 hr 19 min 06 sec)
Heartbeat CPU 0 instructions: 140000924 cycles: 87457944 heartbeat IPC: 1.165 cumulative IPC: 1.167 (Simulation time: 00 hr 19 min 12 sec)
Heartbeat CPU 0 instructions: 140500931 cycles: 87879963 heartbeat IPC: 1.185 cumulative IPC: 1.167 (Simulation time: 00 hr 19 min 18 sec)
Heartbeat CPU 0 instructions: 141000938 cycles: 88312695 heartbeat IPC: 1.155 cumulative IPC: 1.167 (Simulation time: 00 hr 19 min 24 sec)
Heartbeat CPU 0 instructions: 141500939 cycles: 88738814 heartbeat IPC: 1.173 cumulative IPC: 1.167 (Simulation time: 00 hr 19 min 30 sec)
Heartbeat CPU 0 instructions: 142000945 cycles: 89169081 heartbeat IPC: 1.162 cumulative IPC: 1.167 (Simulation time: 00 hr 19 min 36 sec)
Heartbeat CPU 0 instructions: 142500952 cycles: 89612278 heartbeat IPC: 1.128 cumulative IPC: 1.167 (Simulation time: 00 hr 19 min 42 sec)
Heartbeat CPU 0 instructions: 143000953 cycles: 90045359 heartbeat IPC: 1.155 cumulative IPC: 1.167 (Simulation time: 00 hr 19 min 48 sec)
Heartbeat CPU 0 instructions: 143500960 cycles: 90461790 heartbeat IPC: 1.201 cumulative IPC: 1.167 (Simulation time: 00 hr 19 min 54 sec)
Heartbeat CPU 0 instructions: 144000963 cycles: 90890392 heartbeat IPC: 1.167 cumulative IPC: 1.167 (Simulation time: 00 hr 20 min 00 sec)
Heartbeat CPU 0 instructions: 144500964 cycles: 91327605 heartbeat IPC: 1.144 cumulative IPC: 1.167 (Simulation time: 00 hr 20 min 06 sec)
Heartbeat CPU 0 instructions: 145000965 cycles: 91754819 heartbeat IPC: 1.17 cumulative IPC: 1.167 (Simulation time: 00 hr 20 min 12 sec)
Heartbeat CPU 0 instructions: 145500965 cycles: 92191475 heartbeat IPC: 1.145 cumulative IPC: 1.167 (Simulation time: 00 hr 20 min 18 sec)
Heartbeat CPU 0 instructions: 146000967 cycles: 92630681 heartbeat IPC: 1.138 cumulative IPC: 1.166 (Simulation time: 00 hr 20 min 24 sec)
Heartbeat CPU 0 instructions: 146500974 cycles: 93058544 heartbeat IPC: 1.169 cumulative IPC: 1.167 (Simulation time: 00 hr 20 min 30 sec)
Heartbeat CPU 0 instructions: 147000980 cycles: 93495380 heartbeat IPC: 1.145 cumulative IPC: 1.166 (Simulation time: 00 hr 20 min 36 sec)
Heartbeat CPU 0 instructions: 147500981 cycles: 93918127 heartbeat IPC: 1.183 cumulative IPC: 1.166 (Simulation time: 00 hr 20 min 42 sec)
Heartbeat CPU 0 instructions: 148000981 cycles: 94343297 heartbeat IPC: 1.176 cumulative IPC: 1.167 (Simulation time: 00 hr 20 min 48 sec)
Heartbeat CPU 0 instructions: 148500981 cycles: 94773863 heartbeat IPC: 1.161 cumulative IPC: 1.166 (Simulation time: 00 hr 20 min 54 sec)
Heartbeat CPU 0 instructions: 149000988 cycles: 95210855 heartbeat IPC: 1.144 cumulative IPC: 1.166 (Simulation time: 00 hr 21 min 00 sec)
Heartbeat CPU 0 instructions: 149500995 cycles: 95629909 heartbeat IPC: 1.193 cumulative IPC: 1.167 (Simulation time: 00 hr 21 min 06 sec)
Heartbeat CPU 0 instructions: 150001002 cycles: 96055545 heartbeat IPC: 1.175 cumulative IPC: 1.167 (Simulation time: 00 hr 21 min 12 sec)
Heartbeat CPU 0 instructions: 150501008 cycles: 96480709 heartbeat IPC: 1.176 cumulative IPC: 1.167 (Simulation time: 00 hr 21 min 17 sec)
Heartbeat CPU 0 instructions: 151001010 cycles: 96908190 heartbeat IPC: 1.17 cumulative IPC: 1.167 (Simulation time: 00 hr 21 min 23 sec)
Heartbeat CPU 0 instructions: 151501010 cycles: 97326168 heartbeat IPC: 1.196 cumulative IPC: 1.167 (Simulation time: 00 hr 21 min 29 sec)
Heartbeat CPU 0 instructions: 152001016 cycles: 97751346 heartbeat IPC: 1.176 cumulative IPC: 1.167 (Simulation time: 00 hr 21 min 35 sec)
Heartbeat CPU 0 instructions: 152501016 cycles: 98172806 heartbeat IPC: 1.186 cumulative IPC: 1.167 (Simulation time: 00 hr 21 min 41 sec)
Heartbeat CPU 0 instructions: 153001023 cycles: 98601346 heartbeat IPC: 1.167 cumulative IPC: 1.167 (Simulation time: 00 hr 21 min 47 sec)
Heartbeat CPU 0 instructions: 153501024 cycles: 99025546 heartbeat IPC: 1.179 cumulative IPC: 1.167 (Simulation time: 00 hr 21 min 53 sec)
Heartbeat CPU 0 instructions: 154001031 cycles: 99453301 heartbeat IPC: 1.169 cumulative IPC: 1.167 (Simulation time: 00 hr 21 min 59 sec)
Heartbeat CPU 0 instructions: 154501032 cycles: 99885646 heartbeat IPC: 1.156 cumulative IPC: 1.167 (Simulation time: 00 hr 22 min 05 sec)
Heartbeat CPU 0 instructions: 155001035 cycles: 100320226 heartbeat IPC: 1.151 cumulative IPC: 1.167 (Simulation time: 00 hr 22 min 11 sec)
Heartbeat CPU 0 instructions: 155501036 cycles: 100753866 heartbeat IPC: 1.153 cumulative IPC: 1.167 (Simulation time: 00 hr 22 min 17 sec)
Heartbeat CPU 0 instructions: 156001043 cycles: 101175433 heartbeat IPC: 1.186 cumulative IPC: 1.167 (Simulation time: 00 hr 22 min 22 sec)
Heartbeat CPU 0 instructions: 156501044 cycles: 101604622 heartbeat IPC: 1.165 cumulative IPC: 1.167 (Simulation time: 00 hr 22 min 28 sec)
Heartbeat CPU 0 instructions: 157001045 cycles: 102016624 heartbeat IPC: 1.214 cumulative IPC: 1.167 (Simulation time: 00 hr 22 min 34 sec)
Heartbeat CPU 0 instructions: 157501051 cycles: 102436379 heartbeat IPC: 1.191 cumulative IPC: 1.167 (Simulation time: 00 hr 22 min 40 sec)
Heartbeat CPU 0 instructions: 158001052 cycles: 102884305 heartbeat IPC: 1.116 cumulative IPC: 1.167 (Simulation time: 00 hr 22 min 46 sec)
Heartbeat CPU 0 instructions: 158501059 cycles: 103320511 heartbeat IPC: 1.146 cumulative IPC: 1.167 (Simulation time: 00 hr 22 min 52 sec)
Heartbeat CPU 0 instructions: 159001059 cycles: 103764448 heartbeat IPC: 1.126 cumulative IPC: 1.167 (Simulation time: 00 hr 22 min 58 sec)
Heartbeat CPU 0 instructions: 159501059 cycles: 104197959 heartbeat IPC: 1.153 cumulative IPC: 1.167 (Simulation time: 00 hr 23 min 04 sec)
Heartbeat CPU 0 instructions: 160001063 cycles: 104637504 heartbeat IPC: 1.138 cumulative IPC: 1.166 (Simulation time: 00 hr 23 min 11 sec)
Heartbeat CPU 0 instructions: 160501069 cycles: 105057789 heartbeat IPC: 1.19 cumulative IPC: 1.167 (Simulation time: 00 hr 23 min 16 sec)
Heartbeat CPU 0 instructions: 161001069 cycles: 105496186 heartbeat IPC: 1.141 cumulative IPC: 1.166 (Simulation time: 00 hr 23 min 22 sec)
Heartbeat CPU 0 instructions: 161501071 cycles: 105933728 heartbeat IPC: 1.143 cumulative IPC: 1.166 (Simulation time: 00 hr 23 min 29 sec)
Heartbeat CPU 0 instructions: 162001077 cycles: 106349177 heartbeat IPC: 1.204 cumulative IPC: 1.166 (Simulation time: 00 hr 23 min 34 sec)
Heartbeat CPU 0 instructions: 162501078 cycles: 106771011 heartbeat IPC: 1.185 cumulative IPC: 1.167 (Simulation time: 00 hr 23 min 40 sec)
Heartbeat CPU 0 instructions: 163001085 cycles: 107206433 heartbeat IPC: 1.148 cumulative IPC: 1.166 (Simulation time: 00 hr 23 min 46 sec)
Heartbeat CPU 0 instructions: 163501086 cycles: 107629902 heartbeat IPC: 1.181 cumulative IPC: 1.167 (Simulation time: 00 hr 23 min 52 sec)
Heartbeat CPU 0 instructions: 164001086 cycles: 108057225 heartbeat IPC: 1.17 cumulative IPC: 1.167 (Simulation time: 00 hr 23 min 58 sec)
Heartbeat CPU 0 instructions: 164501092 cycles: 108496429 heartbeat IPC: 1.138 cumulative IPC: 1.166 (Simulation time: 00 hr 24 min 04 sec)
Heartbeat CPU 0 instructions: 165001093 cycles: 108916174 heartbeat IPC: 1.191 cumulative IPC: 1.167 (Simulation time: 00 hr 24 min 10 sec)
Heartbeat CPU 0 instructions: 165501096 cycles: 109344546 heartbeat IPC: 1.167 cumulative IPC: 1.167 (Simulation time: 00 hr 24 min 16 sec)
Heartbeat CPU 0 instructions: 166001096 cycles: 109777175 heartbeat IPC: 1.156 cumulative IPC: 1.166 (Simulation time: 00 hr 24 min 22 sec)
Heartbeat CPU 0 instructions: 166501097 cycles: 110205650 heartbeat IPC: 1.167 cumulative IPC: 1.166 (Simulation time: 00 hr 24 min 28 sec)
Heartbeat CPU 0 instructions: 167001099 cycles: 110633780 heartbeat IPC: 1.168 cumulative IPC: 1.166 (Simulation time: 00 hr 24 min 34 sec)
Heartbeat CPU 0 instructions: 167501106 cycles: 111078089 heartbeat IPC: 1.125 cumulative IPC: 1.166 (Simulation time: 00 hr 24 min 40 sec)
Heartbeat CPU 0 instructions: 168001112 cycles: 111502638 heartbeat IPC: 1.178 cumulative IPC: 1.166 (Simulation time: 00 hr 24 min 46 sec)
Heartbeat CPU 0 instructions: 168501113 cycles: 111922482 heartbeat IPC: 1.191 cumulative IPC: 1.166 (Simulation time: 00 hr 24 min 52 sec)
Heartbeat CPU 0 instructions: 169001114 cycles: 112346613 heartbeat IPC: 1.179 cumulative IPC: 1.167 (Simulation time: 00 hr 24 min 58 sec)
Heartbeat CPU 0 instructions: 169501114 cycles: 112774090 heartbeat IPC: 1.17 cumulative IPC: 1.167 (Simulation time: 00 hr 25 min 04 sec)
Heartbeat CPU 0 instructions: 170001114 cycles: 113205906 heartbeat IPC: 1.158 cumulative IPC: 1.166 (Simulation time: 00 hr 25 min 10 sec)
Heartbeat CPU 0 instructions: 170501117 cycles: 113649371 heartbeat IPC: 1.127 cumulative IPC: 1.166 (Simulation time: 00 hr 25 min 16 sec)
Heartbeat CPU 0 instructions: 171001118 cycles: 114070992 heartbeat IPC: 1.186 cumulative IPC: 1.166 (Simulation time: 00 hr 25 min 22 sec)
Heartbeat CPU 0 instructions: 171501125 cycles: 114491372 heartbeat IPC: 1.189 cumulative IPC: 1.166 (Simulation time: 00 hr 25 min 27 sec)
Heartbeat CPU 0 instructions: 172001126 cycles: 114924485 heartbeat IPC: 1.154 cumulative IPC: 1.166 (Simulation time: 00 hr 25 min 34 sec)
Heartbeat CPU 0 instructions: 172501131 cycles: 115361790 heartbeat IPC: 1.143 cumulative IPC: 1.166 (Simulation time: 00 hr 25 min 40 sec)
Heartbeat CPU 0 instructions: 173001134 cycles: 115777753 heartbeat IPC: 1.202 cumulative IPC: 1.166 (Simulation time: 00 hr 25 min 45 sec)
Heartbeat CPU 0 instructions: 173501138 cycles: 116210412 heartbeat IPC: 1.156 cumulative IPC: 1.166 (Simulation time: 00 hr 25 min 51 sec)
Heartbeat CPU 0 instructions: 174001139 cycles: 116639874 heartbeat IPC: 1.164 cumulative IPC: 1.166 (Simulation time: 00 hr 25 min 57 sec)
Heartbeat CPU 0 instructions: 174501140 cycles: 117069210 heartbeat IPC: 1.165 cumulative IPC: 1.166 (Simulation time: 00 hr 26 min 03 sec)
Heartbeat CPU 0 instructions: 175001141 cycles: 117486426 heartbeat IPC: 1.198 cumulative IPC: 1.167 (Simulation time: 00 hr 26 min 09 sec)
Heartbeat CPU 0 instructions: 175501148 cycles: 117925300 heartbeat IPC: 1.139 cumulative IPC: 1.166 (Simulation time: 00 hr 26 min 15 sec)
Heartbeat CPU 0 instructions: 176001151 cycles: 118355692 heartbeat IPC: 1.162 cumulative IPC: 1.166 (Simulation time: 00 hr 26 min 21 sec)
Heartbeat CPU 0 instructions: 176501152 cycles: 118782004 heartbeat IPC: 1.173 cumulative IPC: 1.166 (Simulation time: 00 hr 26 min 27 sec)
Heartbeat CPU 0 instructions: 177001159 cycles: 119206319 heartbeat IPC: 1.178 cumulative IPC: 1.166 (Simulation time: 00 hr 26 min 33 sec)
Heartbeat CPU 0 instructions: 177501160 cycles: 119633142 heartbeat IPC: 1.171 cumulative IPC: 1.167 (Simulation time: 00 hr 26 min 39 sec)
Heartbeat CPU 0 instructions: 178001167 cycles: 120060183 heartbeat IPC: 1.171 cumulative IPC: 1.167 (Simulation time: 00 hr 26 min 45 sec)
Heartbeat CPU 0 instructions: 178501167 cycles: 120489262 heartbeat IPC: 1.165 cumulative IPC: 1.167 (Simulation time: 00 hr 26 min 51 sec)
Heartbeat CPU 0 instructions: 179001174 cycles: 120925149 heartbeat IPC: 1.147 cumulative IPC: 1.166 (Simulation time: 00 hr 26 min 57 sec)
Heartbeat CPU 0 instructions: 179501181 cycles: 121353495 heartbeat IPC: 1.167 cumulative IPC: 1.166 (Simulation time: 00 hr 27 min 03 sec)
Heartbeat CPU 0 instructions: 180001184 cycles: 121789196 heartbeat IPC: 1.148 cumulative IPC: 1.166 (Simulation time: 00 hr 27 min 09 sec)
Heartbeat CPU 0 instructions: 180501188 cycles: 122227634 heartbeat IPC: 1.14 cumulative IPC: 1.166 (Simulation time: 00 hr 27 min 15 sec)
Heartbeat CPU 0 instructions: 181001194 cycles: 122669963 heartbeat IPC: 1.13 cumulative IPC: 1.166 (Simulation time: 00 hr 27 min 21 sec)
Heartbeat CPU 0 instructions: 181501195 cycles: 123083426 heartbeat IPC: 1.209 cumulative IPC: 1.166 (Simulation time: 00 hr 27 min 26 sec)
Heartbeat CPU 0 instructions: 182001196 cycles: 123504255 heartbeat IPC: 1.188 cumulative IPC: 1.166 (Simulation time: 00 hr 27 min 32 sec)
Heartbeat CPU 0 instructions: 182501201 cycles: 123942876 heartbeat IPC: 1.14 cumulative IPC: 1.166 (Simulation time: 00 hr 27 min 38 sec)
Heartbeat CPU 0 instructions: 183001204 cycles: 124369496 heartbeat IPC: 1.172 cumulative IPC: 1.166 (Simulation time: 00 hr 27 min 44 sec)
Heartbeat CPU 0 instructions: 183501211 cycles: 124793690 heartbeat IPC: 1.179 cumulative IPC: 1.166 (Simulation time: 00 hr 27 min 50 sec)
Heartbeat CPU 0 instructions: 184001218 cycles: 125235414 heartbeat IPC: 1.132 cumulative IPC: 1.166 (Simulation time: 00 hr 27 min 56 sec)
Heartbeat CPU 0 instructions: 184501220 cycles: 125678842 heartbeat IPC: 1.128 cumulative IPC: 1.166 (Simulation time: 00 hr 28 min 02 sec)
Heartbeat CPU 0 instructions: 185001227 cycles: 126103885 heartbeat IPC: 1.176 cumulative IPC: 1.166 (Simulation time: 00 hr 28 min 08 sec)
Heartbeat CPU 0 instructions: 185501234 cycles: 126525378 heartbeat IPC: 1.186 cumulative IPC: 1.166 (Simulation time: 00 hr 28 min 14 sec)
Heartbeat CPU 0 instructions: 186001235 cycles: 126944059 heartbeat IPC: 1.194 cumulative IPC: 1.166 (Simulation time: 00 hr 28 min 20 sec)
Heartbeat CPU 0 instructions: 186501236 cycles: 127380483 heartbeat IPC: 1.146 cumulative IPC: 1.166 (Simulation time: 00 hr 28 min 26 sec)
Heartbeat CPU 0 instructions: 187001239 cycles: 127796138 heartbeat IPC: 1.203 cumulative IPC: 1.166 (Simulation time: 00 hr 28 min 32 sec)
Heartbeat CPU 0 instructions: 187501246 cycles: 128224599 heartbeat IPC: 1.167 cumulative IPC: 1.166 (Simulation time: 00 hr 28 min 38 sec)
Heartbeat CPU 0 instructions: 188001247 cycles: 128656759 heartbeat IPC: 1.157 cumulative IPC: 1.166 (Simulation time: 00 hr 28 min 44 sec)
Heartbeat CPU 0 instructions: 188501252 cycles: 129082197 heartbeat IPC: 1.175 cumulative IPC: 1.166 (Simulation time: 00 hr 28 min 49 sec)
Heartbeat CPU 0 instructions: 189001254 cycles: 129521359 heartbeat IPC: 1.139 cumulative IPC: 1.166 (Simulation time: 00 hr 28 min 55 sec)
Heartbeat CPU 0 instructions: 189501255 cycles: 129957546 heartbeat IPC: 1.146 cumulative IPC: 1.166 (Simulation time: 00 hr 29 min 02 sec)
Heartbeat CPU 0 instructions: 190001262 cycles: 130378223 heartbeat IPC: 1.189 cumulative IPC: 1.166 (Simulation time: 00 hr 29 min 07 sec)
Heartbeat CPU 0 instructions: 190501263 cycles: 130807440 heartbeat IPC: 1.165 cumulative IPC: 1.166 (Simulation time: 00 hr 29 min 13 sec)
Heartbeat CPU 0 instructions: 191001268 cycles: 131236660 heartbeat IPC: 1.165 cumulative IPC: 1.166 (Simulation time: 00 hr 29 min 19 sec)
Heartbeat CPU 0 instructions: 191501275 cycles: 131655766 heartbeat IPC: 1.193 cumulative IPC: 1.166 (Simulation time: 00 hr 29 min 25 sec)
Heartbeat CPU 0 instructions: 192001280 cycles: 132087388 heartbeat IPC: 1.158 cumulative IPC: 1.166 (Simulation time: 00 hr 29 min 31 sec)
Heartbeat CPU 0 instructions: 192501281 cycles: 132497046 heartbeat IPC: 1.221 cumulative IPC: 1.166 (Simulation time: 00 hr 29 min 37 sec)
Heartbeat CPU 0 instructions: 193001288 cycles: 132940479 heartbeat IPC: 1.128 cumulative IPC: 1.166 (Simulation time: 00 hr 29 min 43 sec)
Heartbeat CPU 0 instructions: 193501289 cycles: 133366728 heartbeat IPC: 1.173 cumulative IPC: 1.166 (Simulation time: 00 hr 29 min 49 sec)
Heartbeat CPU 0 instructions: 194001296 cycles: 133805044 heartbeat IPC: 1.141 cumulative IPC: 1.166 (Simulation time: 00 hr 29 min 55 sec)
Heartbeat CPU 0 instructions: 194501296 cycles: 134230247 heartbeat IPC: 1.176 cumulative IPC: 1.166 (Simulation time: 00 hr 30 min 01 sec)
Heartbeat CPU 0 instructions: 195001297 cycles: 134660197 heartbeat IPC: 1.163 cumulative IPC: 1.166 (Simulation time: 00 hr 30 min 06 sec)
Heartbeat CPU 0 instructions: 195501304 cycles: 135103537 heartbeat IPC: 1.128 cumulative IPC: 1.166 (Simulation time: 00 hr 30 min 13 sec)
Heartbeat CPU 0 instructions: 196001305 cycles: 135535819 heartbeat IPC: 1.157 cumulative IPC: 1.166 (Simulation time: 00 hr 30 min 19 sec)
Heartbeat CPU 0 instructions: 196501312 cycles: 135962830 heartbeat IPC: 1.171 cumulative IPC: 1.166 (Simulation time: 00 hr 30 min 24 sec)
Heartbeat CPU 0 instructions: 197001316 cycles: 136393008 heartbeat IPC: 1.162 cumulative IPC: 1.166 (Simulation time: 00 hr 30 min 30 sec)
Heartbeat CPU 0 instructions: 197501318 cycles: 136820908 heartbeat IPC: 1.169 cumulative IPC: 1.166 (Simulation time: 00 hr 30 min 36 sec)
Heartbeat CPU 0 instructions: 198001323 cycles: 137255786 heartbeat IPC: 1.15 cumulative IPC: 1.166 (Simulation time: 00 hr 30 min 42 sec)
Heartbeat CPU 0 instructions: 198501324 cycles: 137688567 heartbeat IPC: 1.155 cumulative IPC: 1.166 (Simulation time: 00 hr 30 min 48 sec)
Heartbeat CPU 0 instructions: 199001331 cycles: 138125654 heartbeat IPC: 1.144 cumulative IPC: 1.166 (Simulation time: 00 hr 30 min 54 sec)
Heartbeat CPU 0 instructions: 199501332 cycles: 138543352 heartbeat IPC: 1.197 cumulative IPC: 1.166 (Simulation time: 00 hr 31 min 00 sec)
Heartbeat CPU 0 instructions: 200001339 cycles: 138960598 heartbeat IPC: 1.198 cumulative IPC: 1.166 (Simulation time: 00 hr 31 min 06 sec)
Heartbeat CPU 0 instructions: 200501341 cycles: 139376286 heartbeat IPC: 1.203 cumulative IPC: 1.166 (Simulation time: 00 hr 31 min 12 sec)
Heartbeat CPU 0 instructions: 201001341 cycles: 139790388 heartbeat IPC: 1.207 cumulative IPC: 1.166 (Simulation time: 00 hr 31 min 18 sec)
Heartbeat CPU 0 instructions: 201501347 cycles: 140209937 heartbeat IPC: 1.192 cumulative IPC: 1.166 (Simulation time: 00 hr 31 min 24 sec)
Heartbeat CPU 0 instructions: 202001350 cycles: 140657850 heartbeat IPC: 1.116 cumulative IPC: 1.166 (Simulation time: 00 hr 31 min 30 sec)
Heartbeat CPU 0 instructions: 202501353 cycles: 141107704 heartbeat IPC: 1.111 cumulative IPC: 1.166 (Simulation time: 00 hr 31 min 36 sec)
Heartbeat CPU 0 instructions: 203001353 cycles: 141530673 heartbeat IPC: 1.182 cumulative IPC: 1.166 (Simulation time: 00 hr 31 min 42 sec)
Heartbeat CPU 0 instructions: 203501359 cycles: 141966466 heartbeat IPC: 1.147 cumulative IPC: 1.166 (Simulation time: 00 hr 31 min 48 sec)
Heartbeat CPU 0 instructions: 204001366 cycles: 142398978 heartbeat IPC: 1.156 cumulative IPC: 1.166 (Simulation time: 00 hr 31 min 54 sec)
Heartbeat CPU 0 instructions: 204501367 cycles: 142836058 heartbeat IPC: 1.144 cumulative IPC: 1.166 (Simulation time: 00 hr 32 min 00 sec)
Heartbeat CPU 0 instructions: 205001367 cycles: 143274841 heartbeat IPC: 1.14 cumulative IPC: 1.166 (Simulation time: 00 hr 32 min 06 sec)
Heartbeat CPU 0 instructions: 205501374 cycles: 143701195 heartbeat IPC: 1.173 cumulative IPC: 1.166 (Simulation time: 00 hr 32 min 12 sec)
Heartbeat CPU 0 instructions: 206001375 cycles: 144118627 heartbeat IPC: 1.198 cumulative IPC: 1.166 (Simulation time: 00 hr 32 min 18 sec)
Heartbeat CPU 0 instructions: 206501376 cycles: 144547956 heartbeat IPC: 1.165 cumulative IPC: 1.166 (Simulation time: 00 hr 32 min 24 sec)
Heartbeat CPU 0 instructions: 207001376 cycles: 144972225 heartbeat IPC: 1.178 cumulative IPC: 1.166 (Simulation time: 00 hr 32 min 30 sec)
Heartbeat CPU 0 instructions: 207501380 cycles: 145404626 heartbeat IPC: 1.156 cumulative IPC: 1.166 (Simulation time: 00 hr 32 min 35 sec)
Heartbeat CPU 0 instructions: 208001387 cycles: 145838706 heartbeat IPC: 1.152 cumulative IPC: 1.166 (Simulation time: 00 hr 32 min 41 sec)
Heartbeat CPU 0 instructions: 208501388 cycles: 146255475 heartbeat IPC: 1.2 cumulative IPC: 1.166 (Simulation time: 00 hr 32 min 47 sec)
Heartbeat CPU 0 instructions: 209001393 cycles: 146671651 heartbeat IPC: 1.201 cumulative IPC: 1.166 (Simulation time: 00 hr 32 min 53 sec)
Heartbeat CPU 0 instructions: 209501394 cycles: 147085413 heartbeat IPC: 1.208 cumulative IPC: 1.166 (Simulation time: 00 hr 32 min 59 sec)
Heartbeat CPU 0 instructions: 210001399 cycles: 147513364 heartbeat IPC: 1.168 cumulative IPC: 1.166 (Simulation time: 00 hr 33 min 05 sec)
Heartbeat CPU 0 instructions: 210501401 cycles: 147936704 heartbeat IPC: 1.181 cumulative IPC: 1.166 (Simulation time: 00 hr 33 min 11 sec)
Heartbeat CPU 0 instructions: 211001402 cycles: 148353578 heartbeat IPC: 1.199 cumulative IPC: 1.166 (Simulation time: 00 hr 33 min 16 sec)
Heartbeat CPU 0 instructions: 211501403 cycles: 148769969 heartbeat IPC: 1.201 cumulative IPC: 1.167 (Simulation time: 00 hr 33 min 22 sec)
Heartbeat CPU 0 instructions: 212001408 cycles: 149197840 heartbeat IPC: 1.169 cumulative IPC: 1.167 (Simulation time: 00 hr 33 min 28 sec)
Heartbeat CPU 0 instructions: 212501413 cycles: 149612656 heartbeat IPC: 1.205 cumulative IPC: 1.167 (Simulation time: 00 hr 33 min 34 sec)
Heartbeat CPU 0 instructions: 213001414 cycles: 150040438 heartbeat IPC: 1.169 cumulative IPC: 1.167 (Simulation time: 00 hr 33 min 40 sec)
Heartbeat CPU 0 instructions: 213501421 cycles: 150474594 heartbeat IPC: 1.152 cumulative IPC: 1.167 (Simulation time: 00 hr 33 min 46 sec)
Heartbeat CPU 0 instructions: 214001422 cycles: 150894137 heartbeat IPC: 1.192 cumulative IPC: 1.167 (Simulation time: 00 hr 33 min 52 sec)
Heartbeat CPU 0 instructions: 214501423 cycles: 151327498 heartbeat IPC: 1.154 cumulative IPC: 1.167 (Simulation time: 00 hr 33 min 58 sec)
Heartbeat CPU 0 instructions: 215001428 cycles: 151753443 heartbeat IPC: 1.174 cumulative IPC: 1.167 (Simulation time: 00 hr 34 min 04 sec)
Heartbeat CPU 0 instructions: 215501428 cycles: 152169459 heartbeat IPC: 1.202 cumulative IPC: 1.167 (Simulation time: 00 hr 34 min 09 sec)
Heartbeat CPU 0 instructions: 216001435 cycles: 152594775 heartbeat IPC: 1.176 cumulative IPC: 1.167 (Simulation time: 00 hr 34 min 15 sec)
Heartbeat CPU 0 instructions: 216501436 cycles: 153023578 heartbeat IPC: 1.166 cumulative IPC: 1.167 (Simulation time: 00 hr 34 min 21 sec)
Heartbeat CPU 0 instructions: 217001443 cycles: 153448560 heartbeat IPC: 1.177 cumulative IPC: 1.167 (Simulation time: 00 hr 34 min 27 sec)
Heartbeat CPU 0 instructions: 217501446 cycles: 153883035 heartbeat IPC: 1.151 cumulative IPC: 1.167 (Simulation time: 00 hr 34 min 33 sec)
Heartbeat CPU 0 instructions: 218001449 cycles: 154315088 heartbeat IPC: 1.157 cumulative IPC: 1.167 (Simulation time: 00 hr 34 min 39 sec)
Heartbeat CPU 0 instructions: 218501450 cycles: 154759314 heartbeat IPC: 1.126 cumulative IPC: 1.167 (Simulation time: 00 hr 34 min 45 sec)
Heartbeat CPU 0 instructions: 219001455 cycles: 155177333 heartbeat IPC: 1.196 cumulative IPC: 1.167 (Simulation time: 00 hr 34 min 51 sec)
Heartbeat CPU 0 instructions: 219501458 cycles: 155616983 heartbeat IPC: 1.137 cumulative IPC: 1.167 (Simulation time: 00 hr 34 min 57 sec)
Heartbeat CPU 0 instructions: 220001463 cycles: 156048233 heartbeat IPC: 1.159 cumulative IPC: 1.167 (Simulation time: 00 hr 35 min 03 sec)
Heartbeat CPU 0 instructions: 220501463 cycles: 156479528 heartbeat IPC: 1.159 cumulative IPC: 1.167 (Simulation time: 00 hr 35 min 09 sec)
Heartbeat CPU 0 instructions: 221001470 cycles: 156913398 heartbeat IPC: 1.152 cumulative IPC: 1.167 (Simulation time: 00 hr 35 min 15 sec)
Heartbeat CPU 0 instructions: 221501472 cycles: 157338787 heartbeat IPC: 1.175 cumulative IPC: 1.167 (Simulation time: 00 hr 35 min 21 sec)
Heartbeat CPU 0 instructions: 222001478 cycles: 157764631 heartbeat IPC: 1.174 cumulative IPC: 1.167 (Simulation time: 00 hr 35 min 27 sec)
Heartbeat CPU 0 instructions: 222501481 cycles: 158194078 heartbeat IPC: 1.164 cumulative IPC: 1.167 (Simulation time: 00 hr 35 min 33 sec)
Heartbeat CPU 0 instructions: 223001485 cycles: 158623080 heartbeat IPC: 1.166 cumulative IPC: 1.167 (Simulation time: 00 hr 35 min 39 sec)
Heartbeat CPU 0 instructions: 223501485 cycles: 159045790 heartbeat IPC: 1.183 cumulative IPC: 1.167 (Simulation time: 00 hr 35 min 45 sec)
Heartbeat CPU 0 instructions: 224001491 cycles: 159463432 heartbeat IPC: 1.197 cumulative IPC: 1.167 (Simulation time: 00 hr 35 min 50 sec)
Heartbeat CPU 0 instructions: 224501493 cycles: 159887788 heartbeat IPC: 1.178 cumulative IPC: 1.167 (Simulation time: 00 hr 35 min 56 sec)
Heartbeat CPU 0 instructions: 225001498 cycles: 160312032 heartbeat IPC: 1.179 cumulative IPC: 1.167 (Simulation time: 00 hr 36 min 02 sec)
Heartbeat CPU 0 instructions: 225501501 cycles: 160755630 heartbeat IPC: 1.127 cumulative IPC: 1.167 (Simulation time: 00 hr 36 min 08 sec)
Heartbeat CPU 0 instructions: 226001507 cycles: 161179359 heartbeat IPC: 1.18 cumulative IPC: 1.167 (Simulation time: 00 hr 36 min 14 sec)
Heartbeat CPU 0 instructions: 226501507 cycles: 161614351 heartbeat IPC: 1.149 cumulative IPC: 1.167 (Simulation time: 00 hr 36 min 20 sec)
Heartbeat CPU 0 instructions: 227001507 cycles: 162041024 heartbeat IPC: 1.172 cumulative IPC: 1.167 (Simulation time: 00 hr 36 min 26 sec)
Heartbeat CPU 0 instructions: 227501508 cycles: 162463125 heartbeat IPC: 1.185 cumulative IPC: 1.167 (Simulation time: 00 hr 36 min 32 sec)
Heartbeat CPU 0 instructions: 228001513 cycles: 162883081 heartbeat IPC: 1.191 cumulative IPC: 1.167 (Simulation time: 00 hr 36 min 38 sec)
Heartbeat CPU 0 instructions: 228501520 cycles: 163323344 heartbeat IPC: 1.136 cumulative IPC: 1.167 (Simulation time: 00 hr 36 min 44 sec)
Heartbeat CPU 0 instructions: 229001527 cycles: 163743488 heartbeat IPC: 1.19 cumulative IPC: 1.167 (Simulation time: 00 hr 36 min 50 sec)
Heartbeat CPU 0 instructions: 229501528 cycles: 164170494 heartbeat IPC: 1.171 cumulative IPC: 1.167 (Simulation time: 00 hr 36 min 56 sec)
Heartbeat CPU 0 instructions: 230001535 cycles: 164612636 heartbeat IPC: 1.131 cumulative IPC: 1.167 (Simulation time: 00 hr 37 min 02 sec)
Heartbeat CPU 0 instructions: 230501542 cycles: 165040318 heartbeat IPC: 1.169 cumulative IPC: 1.167 (Simulation time: 00 hr 37 min 08 sec)
Heartbeat CPU 0 instructions: 231001544 cycles: 165469490 heartbeat IPC: 1.165 cumulative IPC: 1.167 (Simulation time: 00 hr 37 min 14 sec)
Heartbeat CPU 0 instructions: 231501551 cycles: 165898398 heartbeat IPC: 1.166 cumulative IPC: 1.167 (Simulation time: 00 hr 37 min 20 sec)
Heartbeat CPU 0 instructions: 232001552 cycles: 166328125 heartbeat IPC: 1.164 cumulative IPC: 1.167 (Simulation time: 00 hr 37 min 25 sec)
Heartbeat CPU 0 instructions: 232501555 cycles: 166741662 heartbeat IPC: 1.209 cumulative IPC: 1.167 (Simulation time: 00 hr 37 min 31 sec)
Heartbeat CPU 0 instructions: 233001556 cycles: 167187686 heartbeat IPC: 1.121 cumulative IPC: 1.167 (Simulation time: 00 hr 37 min 37 sec)
Heartbeat CPU 0 instructions: 233501563 cycles: 167609644 heartbeat IPC: 1.185 cumulative IPC: 1.167 (Simulation time: 00 hr 37 min 43 sec)
Heartbeat CPU 0 instructions: 234001570 cycles: 168029435 heartbeat IPC: 1.191 cumulative IPC: 1.167 (Simulation time: 00 hr 37 min 49 sec)
Heartbeat CPU 0 instructions: 234501571 cycles: 168470961 heartbeat IPC: 1.132 cumulative IPC: 1.167 (Simulation time: 00 hr 37 min 55 sec)
Heartbeat CPU 0 instructions: 235001578 cycles: 168914354 heartbeat IPC: 1.128 cumulative IPC: 1.167 (Simulation time: 00 hr 38 min 01 sec)
Heartbeat CPU 0 instructions: 235501578 cycles: 169333120 heartbeat IPC: 1.194 cumulative IPC: 1.167 (Simulation time: 00 hr 38 min 07 sec)
Heartbeat CPU 0 instructions: 236001579 cycles: 169769361 heartbeat IPC: 1.146 cumulative IPC: 1.167 (Simulation time: 00 hr 38 min 13 sec)
Heartbeat CPU 0 instructions: 236501586 cycles: 170217769 heartbeat IPC: 1.115 cumulative IPC: 1.166 (Simulation time: 00 hr 38 min 19 sec)
Heartbeat CPU 0 instructions: 237001587 cycles: 170664495 heartbeat IPC: 1.119 cumulative IPC: 1.166 (Simulation time: 00 hr 38 min 25 sec)
Heartbeat CPU 0 instructions: 237501587 cycles: 171092933 heartbeat IPC: 1.167 cumulative IPC: 1.166 (Simulation time: 00 hr 38 min 31 sec)
Heartbeat CPU 0 instructions: 238001587 cycles: 171507491 heartbeat IPC: 1.206 cumulative IPC: 1.166 (Simulation time: 00 hr 38 min 37 sec)
Heartbeat CPU 0 instructions: 238501593 cycles: 171949353 heartbeat IPC: 1.132 cumulative IPC: 1.166 (Simulation time: 00 hr 38 min 43 sec)
Heartbeat CPU 0 instructions: 239001596 cycles: 172372929 heartbeat IPC: 1.18 cumulative IPC: 1.166 (Simulation time: 00 hr 38 min 49 sec)
Heartbeat CPU 0 instructions: 239501597 cycles: 172794213 heartbeat IPC: 1.187 cumulative IPC: 1.166 (Simulation time: 00 hr 38 min 55 sec)
Heartbeat CPU 0 instructions: 240001597 cycles: 173234270 heartbeat IPC: 1.136 cumulative IPC: 1.166 (Simulation time: 00 hr 39 min 01 sec)
Heartbeat CPU 0 instructions: 240501598 cycles: 173656692 heartbeat IPC: 1.184 cumulative IPC: 1.166 (Simulation time: 00 hr 39 min 07 sec)
Heartbeat CPU 0 instructions: 241001603 cycles: 174079748 heartbeat IPC: 1.182 cumulative IPC: 1.166 (Simulation time: 00 hr 39 min 13 sec)
Heartbeat CPU 0 instructions: 241501603 cycles: 174499953 heartbeat IPC: 1.19 cumulative IPC: 1.166 (Simulation time: 00 hr 39 min 19 sec)
Heartbeat CPU 0 instructions: 242001604 cycles: 174929511 heartbeat IPC: 1.164 cumulative IPC: 1.166 (Simulation time: 00 hr 39 min 25 sec)
Heartbeat CPU 0 instructions: 242501605 cycles: 175355125 heartbeat IPC: 1.175 cumulative IPC: 1.167 (Simulation time: 00 hr 39 min 31 sec)
Heartbeat CPU 0 instructions: 243001612 cycles: 175791884 heartbeat IPC: 1.145 cumulative IPC: 1.166 (Simulation time: 00 hr 39 min 37 sec)
Heartbeat CPU 0 instructions: 243501612 cycles: 176221773 heartbeat IPC: 1.163 cumulative IPC: 1.166 (Simulation time: 00 hr 39 min 43 sec)
Heartbeat CPU 0 instructions: 244001616 cycles: 176660432 heartbeat IPC: 1.14 cumulative IPC: 1.166 (Simulation time: 00 hr 39 min 49 sec)
Heartbeat CPU 0 instructions: 244501616 cycles: 177069458 heartbeat IPC: 1.222 cumulative IPC: 1.167 (Simulation time: 00 hr 39 min 54 sec)
Heartbeat CPU 0 instructions: 245001622 cycles: 177501875 heartbeat IPC: 1.156 cumulative IPC: 1.166 (Simulation time: 00 hr 40 min 00 sec)
Heartbeat CPU 0 instructions: 245501625 cycles: 177927896 heartbeat IPC: 1.174 cumulative IPC: 1.167 (Simulation time: 00 hr 40 min 06 sec)
Heartbeat CPU 0 instructions: 246001632 cycles: 178357962 heartbeat IPC: 1.163 cumulative IPC: 1.166 (Simulation time: 00 hr 40 min 12 sec)
Heartbeat CPU 0 instructions: 246501637 cycles: 178791070 heartbeat IPC: 1.154 cumulative IPC: 1.166 (Simulation time: 00 hr 40 min 18 sec)
Heartbeat CPU 0 instructions: 247001641 cycles: 179222988 heartbeat IPC: 1.158 cumulative IPC: 1.166 (Simulation time: 00 hr 40 min 24 sec)
Heartbeat CPU 0 instructions: 247501647 cycles: 179631806 heartbeat IPC: 1.223 cumulative IPC: 1.167 (Simulation time: 00 hr 40 min 30 sec)
Heartbeat CPU 0 instructions: 248001647 cycles: 180050751 heartbeat IPC: 1.193 cumulative IPC: 1.167 (Simulation time: 00 hr 40 min 36 sec)
Heartbeat CPU 0 instructions: 248501648 cycles: 180490413 heartbeat IPC: 1.137 cumulative IPC: 1.167 (Simulation time: 00 hr 40 min 42 sec)
Heartbeat CPU 0 instructions: 249001648 cycles: 180918436 heartbeat IPC: 1.168 cumulative IPC: 1.167 (Simulation time: 00 hr 40 min 48 sec)
Heartbeat CPU 0 instructions: 249501651 cycles: 181338856 heartbeat IPC: 1.189 cumulative IPC: 1.167 (Simulation time: 00 hr 40 min 53 sec)
Simulation finished CPU 0 instructions: 200000004 cycles: 171421144 cumulative IPC: 1.167 (Simulation time: 00 hr 40 min 59 sec)
Simulation complete CPU 0 instructions: 200000004 cycles: 171421144 cumulative IPC: 1.167 (Simulation time: 00 hr 40 min 59 sec)

ChampSim completed all CPUs

=== Simulation ===
CPU 0 runs /local-ssd/ben/dpc4-traces/SPEC17/649.fotonik3d_s-1176B.champsimtrace.xz

Region of Interest Statistics

CPU 0 cumulative IPC: 1.167 instructions: 200000004 cycles: 171421144
CPU 0 Branch Prediction Accuracy: 99.98% MPKI: 0.00438 Average ROB Occupancy at Mispredict: 559.9
Branch type MPKI
BRANCH_DIRECT_JUMP: 0
BRANCH_INDIRECT: 0
BRANCH_CONDITIONAL: 0.00438
BRANCH_DIRECT_CALL: 0
BRANCH_INDIRECT_CALL: 0
BRANCH_RETURN: 0

cpu0->cpu0_STLB TOTAL        ACCESS:      47039 HIT:      19594 MISS:      27445 MSHR_MERGE:          0
cpu0->cpu0_STLB LOAD         ACCESS:      47039 HIT:      19594 MISS:      27445 MSHR_MERGE:          0
cpu0->cpu0_STLB RFO          ACCESS:          0 HIT:          0 MISS:          0 MSHR_MERGE:          0
cpu0->cpu0_STLB PREFETCH     ACCESS:          0 HIT:          0 MISS:          0 MSHR_MERGE:          0
cpu0->cpu0_STLB WRITE        ACCESS:          0 HIT:          0 MISS:          0 MSHR_MERGE:          0
cpu0->cpu0_STLB TRANSLATION  ACCESS:          0 HIT:          0 MISS:          0 MSHR_MERGE:          0
cpu0->cpu0_STLB PREFETCH REQUESTED:          0 ISSUED:          0 USEFUL:          0 USELESS:          0
cpu0->cpu0_STLB AVERAGE MISS LATENCY: 248.9 cycles
cpu0->cpu0_L2C TOTAL        ACCESS:    4410735 HIT:    2653277 MISS:    1757458 MSHR_MERGE:          0
cpu0->cpu0_L2C LOAD         ACCESS:     595273 HIT:     192650 MISS:     402623 MSHR_MERGE:          0
cpu0->cpu0_L2C RFO          ACCESS:       3066 HIT:       3066 MISS:          0 MSHR_MERGE:          0
cpu0->cpu0_L2C PREFETCH     ACCESS:    2051087 HIT:     699814 MISS:    1351273 MSHR_MERGE:          0
cpu0->cpu0_L2C WRITE        ACCESS:    1756981 HIT:    1756981 MISS:          0 MSHR_MERGE:          0
cpu0->cpu0_L2C TRANSLATION  ACCESS:       4328 HIT:        766 MISS:       3562 MSHR_MERGE:          0
cpu0->cpu0_L2C PREFETCH REQUESTED:          0 ISSUED:          0 USEFUL:          0 USELESS:          0
cpu0->cpu0_L2C AVERAGE MISS LATENCY: 267.5 cycles
cpu0->cpu0_L1I TOTAL        ACCESS:   30405728 HIT:   30405728 MISS:          0 MSHR_MERGE:          0
cpu0->cpu0_L1I LOAD         ACCESS:   30405728 HIT:   30405728 MISS:          0 MSHR_MERGE:          0
cpu0->cpu0_L1I RFO          ACCESS:          0 HIT:          0 MISS:          0 MSHR_MERGE:          0
cpu0->cpu0_L1I PREFETCH     ACCESS:          0 HIT:          0 MISS:          0 MSHR_MERGE:          0
cpu0->cpu0_L1I WRITE        ACCESS:          0 HIT:          0 MISS:          0 MSHR_MERGE:          0
cpu0->cpu0_L1I TRANSLATION  ACCESS:          0 HIT:          0 MISS:          0 MSHR_MERGE:          0
cpu0->cpu0_L1I PREFETCH REQUESTED:          0 ISSUED:          0 USEFUL:          0 USELESS:          0
cpu0->cpu0_L1I AVERAGE MISS LATENCY: - cycles
cpu0->cpu0_L1D TOTAL        ACCESS:   50122294 HIT:   41074806 MISS:    9047488 MSHR_MERGE:    6393734
cpu0->cpu0_L1D LOAD         ACCESS:   31487027 HIT:   26186745 MISS:    5300282 MSHR_MERGE:    4705009
cpu0->cpu0_L1D RFO          ACCESS:          0 HIT:          0 MISS:          0 MSHR_MERGE:          0
cpu0->cpu0_L1D PREFETCH     ACCESS:    4539187 HIT:     806111 MISS:    3733076 MSHR_MERGE:    1681989
cpu0->cpu0_L1D WRITE        ACCESS:   14041096 HIT:   14031294 MISS:       9802 MSHR_MERGE:       6736
cpu0->cpu0_L1D TRANSLATION  ACCESS:      54984 HIT:      50656 MISS:       4328 MSHR_MERGE:          0
cpu0->cpu0_L1D PREFETCH REQUESTED:    4648529 ISSUED:    4539185 USEFUL:    2048413 USELESS:       2687
cpu0->cpu0_L1D AVERAGE MISS LATENCY: 186 cycles
cpu0->cpu0_ITLB TOTAL        ACCESS:   24874911 HIT:   24874911 MISS:          0 MSHR_MERGE:          0
cpu0->cpu0_ITLB LOAD         ACCESS:   24874911 HIT:   24874911 MISS:          0 MSHR_MERGE:          0
cpu0->cpu0_ITLB RFO          ACCESS:          0 HIT:          0 MISS:          0 MSHR_MERGE:          0
cpu0->cpu0_ITLB PREFETCH     ACCESS:          0 HIT:          0 MISS:          0 MSHR_MERGE:          0
cpu0->cpu0_ITLB WRITE        ACCESS:          0 HIT:          0 MISS:          0 MSHR_MERGE:          0
cpu0->cpu0_ITLB TRANSLATION  ACCESS:          0 HIT:          0 MISS:          0 MSHR_MERGE:          0
cpu0->cpu0_ITLB PREFETCH REQUESTED:          0 ISSUED:          0 USEFUL:          0 USELESS:          0
cpu0->cpu0_ITLB AVERAGE MISS LATENCY: - cycles
cpu0->cpu0_DTLB TOTAL        ACCESS:   43828077 HIT:   43611029 MISS:     217048 MSHR_MERGE:     170009
cpu0->cpu0_DTLB LOAD         ACCESS:   43828077 HIT:   43611029 MISS:     217048 MSHR_MERGE:     170009
cpu0->cpu0_DTLB RFO          ACCESS:          0 HIT:          0 MISS:          0 MSHR_MERGE:          0
cpu0->cpu0_DTLB PREFETCH     ACCESS:          0 HIT:          0 MISS:          0 MSHR_MERGE:          0
cpu0->cpu0_DTLB WRITE        ACCESS:          0 HIT:          0 MISS:          0 MSHR_MERGE:          0
cpu0->cpu0_DTLB TRANSLATION  ACCESS:          0 HIT:          0 MISS:          0 MSHR_MERGE:          0
cpu0->cpu0_DTLB PREFETCH REQUESTED:          0 ISSUED:          0 USEFUL:          0 USELESS:          0
cpu0->cpu0_DTLB AVERAGE MISS LATENCY: 150.8 cycles
cpu0->LLC TOTAL        ACCESS:    3510477 HIT:     185707 MISS:    3324770 MSHR_MERGE:          0
cpu0->LLC LOAD         ACCESS:     402623 HIT:          3 MISS:     402620 MSHR_MERGE:          0
cpu0->LLC RFO          ACCESS:          0 HIT:          0 MISS:          0 MSHR_MERGE:          0
cpu0->LLC PREFETCH     ACCESS:    1351273 HIT:          0 MISS:    1351273 MSHR_MERGE:          0
cpu0->LLC WRITE        ACCESS:    1753019 HIT:     185704 MISS:    1567315 MSHR_MERGE:          0
cpu0->LLC TRANSLATION  ACCESS:       3562 HIT:          0 MISS:       3562 MSHR_MERGE:          0
cpu0->LLC PREFETCH REQUESTED:          0 ISSUED:          0 USEFUL:          0 USELESS:          0
cpu0->LLC AVERAGE MISS LATENCY: 63.84 cycles

DRAM Statistics

Channel 0 RQ ROW_BUFFER_HIT:      49077
  ROW_BUFFER_MISS:    1708377
  AVG DBUS CONGESTED CYCLE: 16.48
Channel 0 WQ ROW_BUFFER_HIT:     580750
  ROW_BUFFER_MISS:    1167616
  FULL:       7036
Channel 0 REFRESHES ISSUED:      14285
