[VMEM] WARNING: physical memory size is smaller than virtual memory size.
Berti Gaze Initialized with Sets: 64 Ways: 12

*** ChampSim Multicore Out-of-Order Simulator ***
Warmup Instructions: 50000000
Simulation Instructions: 200000000
Number of CPUs: 1
Page size: 4096
Core 0: /local-ssd/ben/dpc4-traces/Graph/GMS/gms.maximal_clique_enum_bron_kerbosch.soc-pokec-relationships.slice-3852.champsimtrace.gz
Off-chip DRAM Size: 64 GiB Channels: 1 Width: 64-bit Data Rate: 4807 MT/s
Heartbeat CPU 0 instructions: 500006 cycles: 116386 heartbeat IPC: 4.296 cumulative IPC: 4.296 (Simulation time: 00 hr 00 min 01 sec)
Heartbeat CPU 0 instructions: 1000006 cycles: 230821 heartbeat IPC: 4.369 cumulative IPC: 4.332 (Simulation time: 00 hr 00 min 03 sec)
Heartbeat CPU 0 instructions: 1500011 cycles: 345331 heartbeat IPC: 4.366 cumulative IPC: 4.344 (Simulation time: 00 hr 00 min 04 sec)
Heartbeat CPU 0 instructions: 2000017 cycles: 460045 heartbeat IPC: 4.359 cumulative IPC: 4.347 (Simulation time: 00 hr 00 min 05 sec)
Heartbeat CPU 0 instructions: 2500017 cycles: 574677 heartbeat IPC: 4.362 cumulative IPC: 4.35 (Simulation time: 00 hr 00 min 06 sec)
Heartbeat CPU 0 instructions: 3000024 cycles: 689128 heartbeat IPC: 4.369 cumulative IPC: 4.353 (Simulation time: 00 hr 00 min 07 sec)
Heartbeat CPU 0 instructions: 3500028 cycles: 803637 heartbeat IPC: 4.367 cumulative IPC: 4.355 (Simulation time: 00 hr 00 min 08 sec)
Heartbeat CPU 0 instructions: 4000028 cycles: 918640 heartbeat IPC: 4.348 cumulative IPC: 4.354 (Simulation time: 00 hr 00 min 10 sec)
Heartbeat CPU 0 instructions: 4500031 cycles: 1033151 heartbeat IPC: 4.366 cumulative IPC: 4.356 (Simulation time: 00 hr 00 min 11 sec)
Heartbeat CPU 0 instructions: 5000031 cycles: 1147729 heartbeat IPC: 4.364 cumulative IPC: 4.356 (Simulation time: 00 hr 00 min 12 sec)
Heartbeat CPU 0 instructions: 5500033 cycles: 1262241 heartbeat IPC: 4.366 cumulative IPC: 4.357 (Simulation time: 00 hr 00 min 13 sec)
Heartbeat CPU 0 instructions: 6000039 cycles: 1376755 heartbeat IPC: 4.366 cumulative IPC: 4.358 (Simulation time: 00 hr 00 min 15 sec)
Heartbeat CPU 0 instructions: 6500046 cycles: 1489764 heartbeat IPC: 4.424 cumulative IPC: 4.363 (Simulation time: 00 hr 00 min 16 sec)
Heartbeat CPU 0 instructions: 7000050 cycles: 1600876 heartbeat IPC: 4.5 cumulative IPC: 4.373 (Simulation time: 00 hr 00 min 17 sec)
Heartbeat CPU 0 instructions: 7500053 cycles: 1711988 heartbeat IPC: 4.5 cumulative IPC: 4.381 (Simulation time: 00 hr 00 min 18 sec)
Heartbeat CPU 0 instructions: 8000058 cycles: 1823100 heartbeat IPC: 4.5 cumulative IPC: 4.388 (Simulation time: 00 hr 00 min 19 sec)
Heartbeat CPU 0 instructions: 8500062 cycles: 1934212 heartbeat IPC: 4.5 cumulative IPC: 4.395 (Simulation time: 00 hr 00 min 21 sec)
Heartbeat CPU 0 instructions: 9000066 cycles: 2045339 heartbeat IPC: 4.499 cumulative IPC: 4.4 (Simulation time: 00 hr 00 min 22 sec)
Heartbeat CPU 0 instructions: 9500071 cycles: 2156450 heartbeat IPC: 4.5 cumulative IPC: 4.405 (Simulation time: 00 hr 00 min 23 sec)
Heartbeat CPU 0 instructions: 10000076 cycles: 2267561 heartbeat IPC: 4.5 cumulative IPC: 4.41 (Simulation time: 00 hr 00 min 24 sec)
Heartbeat CPU 0 instructions: 10500082 cycles: 2378671 heartbeat IPC: 4.5 cumulative IPC: 4.414 (Simulation time: 00 hr 00 min 25 sec)
Heartbeat CPU 0 instructions: 11000089 cycles: 2489780 heartbeat IPC: 4.5 cumulative IPC: 4.418 (Simulation time: 00 hr 00 min 26 sec)
Heartbeat CPU 0 instructions: 11500096 cycles: 2600889 heartbeat IPC: 4.5 cumulative IPC: 4.422 (Simulation time: 00 hr 00 min 27 sec)
Heartbeat CPU 0 instructions: 12000100 cycles: 2712001 heartbeat IPC: 4.5 cumulative IPC: 4.425 (Simulation time: 00 hr 00 min 29 sec)
Heartbeat CPU 0 instructions: 12500104 cycles: 2823113 heartbeat IPC: 4.5 cumulative IPC: 4.428 (Simulation time: 00 hr 00 min 30 sec)
Heartbeat CPU 0 instructions: 13000108 cycles: 2934225 heartbeat IPC: 4.5 cumulative IPC: 4.431 (Simulation time: 00 hr 00 min 31 sec)
Heartbeat CPU 0 instructions: 13500112 cycles: 3045337 heartbeat IPC: 4.5 cumulative IPC: 4.433 (Simulation time: 00 hr 00 min 32 sec)
Heartbeat CPU 0 instructions: 14000116 cycles: 3156449 heartbeat IPC: 4.5 cumulative IPC: 4.435 (Simulation time: 00 hr 00 min 33 sec)
Heartbeat CPU 0 instructions: 14500121 cycles: 3267560 heartbeat IPC: 4.5 cumulative IPC: 4.438 (Simulation time: 00 hr 00 min 34 sec)
Heartbeat CPU 0 instructions: 15000125 cycles: 3378672 heartbeat IPC: 4.5 cumulative IPC: 4.44 (Simulation time: 00 hr 00 min 36 sec)
Heartbeat CPU 0 instructions: 15500129 cycles: 3491735 heartbeat IPC: 4.422 cumulative IPC: 4.439 (Simulation time: 00 hr 00 min 37 sec)
Heartbeat CPU 0 instructions: 16000133 cycles: 3606249 heartbeat IPC: 4.366 cumulative IPC: 4.437 (Simulation time: 00 hr 00 min 38 sec)
Heartbeat CPU 0 instructions: 16500138 cycles: 3720763 heartbeat IPC: 4.366 cumulative IPC: 4.435 (Simulation time: 00 hr 00 min 39 sec)
Heartbeat CPU 0 instructions: 17000142 cycles: 3835337 heartbeat IPC: 4.364 cumulative IPC: 4.433 (Simulation time: 00 hr 00 min 41 sec)
Heartbeat CPU 0 instructions: 17500146 cycles: 3949843 heartbeat IPC: 4.367 cumulative IPC: 4.431 (Simulation time: 00 hr 00 min 42 sec)
Heartbeat CPU 0 instructions: 18000149 cycles: 4063953 heartbeat IPC: 4.382 cumulative IPC: 4.429 (Simulation time: 00 hr 00 min 43 sec)
Heartbeat CPU 0 instructions: 18500154 cycles: 4175064 heartbeat IPC: 4.5 cumulative IPC: 4.431 (Simulation time: 00 hr 00 min 44 sec)
Heartbeat CPU 0 instructions: 19000160 cycles: 4286175 heartbeat IPC: 4.5 cumulative IPC: 4.433 (Simulation time: 00 hr 00 min 45 sec)
Heartbeat CPU 0 instructions: 19500165 cycles: 4397285 heartbeat IPC: 4.5 cumulative IPC: 4.435 (Simulation time: 00 hr 00 min 47 sec)
Heartbeat CPU 0 instructions: 20000169 cycles: 4508397 heartbeat IPC: 4.5 cumulative IPC: 4.436 (Simulation time: 00 hr 00 min 48 sec)
Heartbeat CPU 0 instructions: 20500172 cycles: 4619534 heartbeat IPC: 4.499 cumulative IPC: 4.438 (Simulation time: 00 hr 00 min 49 sec)
Heartbeat CPU 0 instructions: 21000178 cycles: 4730643 heartbeat IPC: 4.5 cumulative IPC: 4.439 (Simulation time: 00 hr 00 min 50 sec)
Heartbeat CPU 0 instructions: 21500183 cycles: 4841754 heartbeat IPC: 4.5 cumulative IPC: 4.441 (Simulation time: 00 hr 00 min 51 sec)
Heartbeat CPU 0 instructions: 22000187 cycles: 4952866 heartbeat IPC: 4.5 cumulative IPC: 4.442 (Simulation time: 00 hr 00 min 52 sec)
Heartbeat CPU 0 instructions: 22500192 cycles: 5063978 heartbeat IPC: 4.5 cumulative IPC: 4.443 (Simulation time: 00 hr 00 min 53 sec)
Heartbeat CPU 0 instructions: 23000196 cycles: 5175089 heartbeat IPC: 4.5 cumulative IPC: 4.444 (Simulation time: 00 hr 00 min 55 sec)
Heartbeat CPU 0 instructions: 23500202 cycles: 5286224 heartbeat IPC: 4.499 cumulative IPC: 4.446 (Simulation time: 00 hr 00 min 56 sec)
Heartbeat CPU 0 instructions: 24000207 cycles: 5397336 heartbeat IPC: 4.5 cumulative IPC: 4.447 (Simulation time: 00 hr 00 min 57 sec)
Heartbeat CPU 0 instructions: 24500214 cycles: 5508445 heartbeat IPC: 4.5 cumulative IPC: 4.448 (Simulation time: 00 hr 00 min 58 sec)
Heartbeat CPU 0 instructions: 25000219 cycles: 5619556 heartbeat IPC: 4.5 cumulative IPC: 4.449 (Simulation time: 00 hr 00 min 59 sec)
Heartbeat CPU 0 instructions: 25500224 cycles: 5730666 heartbeat IPC: 4.5 cumulative IPC: 4.45 (Simulation time: 00 hr 01 min 00 sec)
Heartbeat CPU 0 instructions: 26000229 cycles: 5841778 heartbeat IPC: 4.5 cumulative IPC: 4.451 (Simulation time: 00 hr 01 min 02 sec)
Heartbeat CPU 0 instructions: 26500234 cycles: 5952889 heartbeat IPC: 4.5 cumulative IPC: 4.452 (Simulation time: 00 hr 01 min 03 sec)
Heartbeat CPU 0 instructions: 27000239 cycles: 6064000 heartbeat IPC: 4.5 cumulative IPC: 4.453 (Simulation time: 00 hr 01 min 04 sec)
Heartbeat CPU 0 instructions: 27500243 cycles: 6175111 heartbeat IPC: 4.5 cumulative IPC: 4.453 (Simulation time: 00 hr 01 min 05 sec)
Heartbeat CPU 0 instructions: 28000248 cycles: 6286223 heartbeat IPC: 4.5 cumulative IPC: 4.454 (Simulation time: 00 hr 01 min 06 sec)
Heartbeat CPU 0 instructions: 28500252 cycles: 6397335 heartbeat IPC: 4.5 cumulative IPC: 4.455 (Simulation time: 00 hr 01 min 07 sec)
Heartbeat CPU 0 instructions: 29000252 cycles: 6508470 heartbeat IPC: 4.499 cumulative IPC: 4.456 (Simulation time: 00 hr 01 min 09 sec)
Heartbeat CPU 0 instructions: 29500256 cycles: 6619580 heartbeat IPC: 4.5 cumulative IPC: 4.457 (Simulation time: 00 hr 01 min 10 sec)
Heartbeat CPU 0 instructions: 30000262 cycles: 6730690 heartbeat IPC: 4.5 cumulative IPC: 4.457 (Simulation time: 00 hr 01 min 11 sec)
Heartbeat CPU 0 instructions: 30500267 cycles: 6841801 heartbeat IPC: 4.5 cumulative IPC: 4.458 (Simulation time: 00 hr 01 min 12 sec)
Heartbeat CPU 0 instructions: 31000273 cycles: 6952911 heartbeat IPC: 4.5 cumulative IPC: 4.459 (Simulation time: 00 hr 01 min 13 sec)
Heartbeat CPU 0 instructions: 31500277 cycles: 7064023 heartbeat IPC: 4.5 cumulative IPC: 4.459 (Simulation time: 00 hr 01 min 14 sec)
Heartbeat CPU 0 instructions: 32000281 cycles: 7175135 heartbeat IPC: 4.5 cumulative IPC: 4.46 (Simulation time: 00 hr 01 min 15 sec)
Heartbeat CPU 0 instructions: 32500286 cycles: 7286246 heartbeat IPC: 4.5 cumulative IPC: 4.46 (Simulation time: 00 hr 01 min 17 sec)
Heartbeat CPU 0 instructions: 33000290 cycles: 7397358 heartbeat IPC: 4.5 cumulative IPC: 4.461 (Simulation time: 00 hr 01 min 18 sec)
Heartbeat CPU 0 instructions: 33500294 cycles: 7508470 heartbeat IPC: 4.5 cumulative IPC: 4.462 (Simulation time: 00 hr 01 min 19 sec)
Heartbeat CPU 0 instructions: 34000299 cycles: 7619581 heartbeat IPC: 4.5 cumulative IPC: 4.462 (Simulation time: 00 hr 01 min 20 sec)
Heartbeat CPU 0 instructions: 34500300 cycles: 7730704 heartbeat IPC: 4.5 cumulative IPC: 4.463 (Simulation time: 00 hr 01 min 21 sec)
Heartbeat CPU 0 instructions: 35000300 cycles: 7841813 heartbeat IPC: 4.5 cumulative IPC: 4.463 (Simulation time: 00 hr 01 min 22 sec)
Heartbeat CPU 0 instructions: 35500302 cycles: 7952923 heartbeat IPC: 4.5 cumulative IPC: 4.464 (Simulation time: 00 hr 01 min 23 sec)
Heartbeat CPU 0 instructions: 36000306 cycles: 8064035 heartbeat IPC: 4.5 cumulative IPC: 4.464 (Simulation time: 00 hr 01 min 25 sec)
Heartbeat CPU 0 instructions: 36500311 cycles: 8175146 heartbeat IPC: 4.5 cumulative IPC: 4.465 (Simulation time: 00 hr 01 min 26 sec)
Heartbeat CPU 0 instructions: 37000317 cycles: 8286256 heartbeat IPC: 4.5 cumulative IPC: 4.465 (Simulation time: 00 hr 01 min 27 sec)
Heartbeat CPU 0 instructions: 37500322 cycles: 8397367 heartbeat IPC: 4.5 cumulative IPC: 4.466 (Simulation time: 00 hr 01 min 28 sec)
Heartbeat CPU 0 instructions: 38000322 cycles: 8508472 heartbeat IPC: 4.5 cumulative IPC: 4.466 (Simulation time: 00 hr 01 min 29 sec)
Heartbeat CPU 0 instructions: 38500327 cycles: 8619583 heartbeat IPC: 4.5 cumulative IPC: 4.467 (Simulation time: 00 hr 01 min 30 sec)
Heartbeat CPU 0 instructions: 39000333 cycles: 8730693 heartbeat IPC: 4.5 cumulative IPC: 4.467 (Simulation time: 00 hr 01 min 32 sec)
Heartbeat CPU 0 instructions: 39500336 cycles: 8841805 heartbeat IPC: 4.5 cumulative IPC: 4.467 (Simulation time: 00 hr 01 min 33 sec)
Heartbeat CPU 0 instructions: 40000341 cycles: 8952917 heartbeat IPC: 4.5 cumulative IPC: 4.468 (Simulation time: 00 hr 01 min 34 sec)
Heartbeat CPU 0 instructions: 40500345 cycles: 9064029 heartbeat IPC: 4.5 cumulative IPC: 4.468 (Simulation time: 00 hr 01 min 35 sec)
Heartbeat CPU 0 instructions: 41000349 cycles: 9175141 heartbeat IPC: 4.5 cumulative IPC: 4.469 (Simulation time: 00 hr 01 min 36 sec)
Heartbeat CPU 0 instructions: 41500352 cycles: 9286253 heartbeat IPC: 4.5 cumulative IPC: 4.469 (Simulation time: 00 hr 01 min 37 sec)
Heartbeat CPU 0 instructions: 42000357 cycles: 9397365 heartbeat IPC: 4.5 cumulative IPC: 4.469 (Simulation time: 00 hr 01 min 38 sec)
Heartbeat CPU 0 instructions: 42500361 cycles: 9508477 heartbeat IPC: 4.5 cumulative IPC: 4.47 (Simulation time: 00 hr 01 min 40 sec)
Heartbeat CPU 0 instructions: 43000361 cycles: 9619655 heartbeat IPC: 4.497 cumulative IPC: 4.47 (Simulation time: 00 hr 01 min 41 sec)
Heartbeat CPU 0 instructions: 43500365 cycles: 9730767 heartbeat IPC: 4.5 cumulative IPC: 4.47 (Simulation time: 00 hr 01 min 42 sec)
Heartbeat CPU 0 instructions: 44000368 cycles: 9841879 heartbeat IPC: 4.5 cumulative IPC: 4.471 (Simulation time: 00 hr 01 min 43 sec)
Heartbeat CPU 0 instructions: 44500368 cycles: 9952987 heartbeat IPC: 4.5 cumulative IPC: 4.471 (Simulation time: 00 hr 01 min 44 sec)
Heartbeat CPU 0 instructions: 45000373 cycles: 10064096 heartbeat IPC: 4.5 cumulative IPC: 4.471 (Simulation time: 00 hr 01 min 45 sec)
Heartbeat CPU 0 instructions: 45500377 cycles: 10175208 heartbeat IPC: 4.5 cumulative IPC: 4.472 (Simulation time: 00 hr 01 min 47 sec)
Heartbeat CPU 0 instructions: 46000381 cycles: 10286321 heartbeat IPC: 4.5 cumulative IPC: 4.472 (Simulation time: 00 hr 01 min 48 sec)
Heartbeat CPU 0 instructions: 46500385 cycles: 10397432 heartbeat IPC: 4.5 cumulative IPC: 4.472 (Simulation time: 00 hr 01 min 49 sec)
Heartbeat CPU 0 instructions: 47000389 cycles: 10508544 heartbeat IPC: 4.5 cumulative IPC: 4.473 (Simulation time: 00 hr 01 min 50 sec)
Heartbeat CPU 0 instructions: 47500394 cycles: 10619655 heartbeat IPC: 4.5 cumulative IPC: 4.473 (Simulation time: 00 hr 01 min 51 sec)
Heartbeat CPU 0 instructions: 48000399 cycles: 10730767 heartbeat IPC: 4.5 cumulative IPC: 4.473 (Simulation time: 00 hr 01 min 52 sec)
Heartbeat CPU 0 instructions: 48500403 cycles: 10841905 heartbeat IPC: 4.499 cumulative IPC: 4.473 (Simulation time: 00 hr 01 min 53 sec)
Heartbeat CPU 0 instructions: 49000410 cycles: 10953015 heartbeat IPC: 4.5 cumulative IPC: 4.474 (Simulation time: 00 hr 01 min 55 sec)
Heartbeat CPU 0 instructions: 49500413 cycles: 11064138 heartbeat IPC: 4.5 cumulative IPC: 4.474 (Simulation time: 00 hr 01 min 56 sec)
Warmup finished CPU 0 instructions: 50000002 cycles: 11175163 cumulative IPC: 4.474 (Simulation time: 00 hr 01 min 57 sec)
Warmup complete CPU 0 instructions: 50000002 cycles: 11175163 cumulative IPC: 4.474 (Simulation time: 00 hr 01 min 57 sec)
Heartbeat CPU 0 instructions: 50000414 cycles: 11175339 heartbeat IPC: 4.496 cumulative IPC: 2.341 (Simulation time: 00 hr 01 min 57 sec)
Heartbeat CPU 0 instructions: 50500416 cycles: 11397591 heartbeat IPC: 2.25 cumulative IPC: 2.25 (Simulation time: 00 hr 02 min 00 sec)
Heartbeat CPU 0 instructions: 51000417 cycles: 11620743 heartbeat IPC: 2.241 cumulative IPC: 2.245 (Simulation time: 00 hr 02 min 03 sec)
Heartbeat CPU 0 instructions: 51500419 cycles: 11846195 heartbeat IPC: 2.218 cumulative IPC: 2.236 (Simulation time: 00 hr 02 min 06 sec)
Heartbeat CPU 0 instructions: 52000419 cycles: 12071902 heartbeat IPC: 2.215 cumulative IPC: 2.231 (Simulation time: 00 hr 02 min 09 sec)
Heartbeat CPU 0 instructions: 52500421 cycles: 12298840 heartbeat IPC: 2.203 cumulative IPC: 2.225 (Simulation time: 00 hr 02 min 11 sec)
Heartbeat CPU 0 instructions: 53000422 cycles: 12522390 heartbeat IPC: 2.237 cumulative IPC: 2.227 (Simulation time: 00 hr 02 min 14 sec)
Heartbeat CPU 0 instructions: 53500422 cycles: 12744689 heartbeat IPC: 2.249 cumulative IPC: 2.23 (Simulation time: 00 hr 02 min 17 sec)
Heartbeat CPU 0 instructions: 54000422 cycles: 12967030 heartbeat IPC: 2.249 cumulative IPC: 2.233 (Simulation time: 00 hr 02 min 20 sec)
Heartbeat CPU 0 instructions: 54500423 cycles: 13189331 heartbeat IPC: 2.249 cumulative IPC: 2.234 (Simulation time: 00 hr 02 min 23 sec)
Heartbeat CPU 0 instructions: 55000424 cycles: 13411796 heartbeat IPC: 2.248 cumulative IPC: 2.236 (Simulation time: 00 hr 02 min 26 sec)
Heartbeat CPU 0 instructions: 55500424 cycles: 13634514 heartbeat IPC: 2.245 cumulative IPC: 2.237 (Simulation time: 00 hr 02 min 29 sec)
Heartbeat CPU 0 instructions: 56000426 cycles: 13856981 heartbeat IPC: 2.248 cumulative IPC: 2.237 (Simulation time: 00 hr 02 min 32 sec)
Heartbeat CPU 0 instructions: 56500426 cycles: 14081164 heartbeat IPC: 2.23 cumulative IPC: 2.237 (Simulation time: 00 hr 02 min 34 sec)
Heartbeat CPU 0 instructions: 57000426 cycles: 14303973 heartbeat IPC: 2.244 cumulative IPC: 2.237 (Simulation time: 00 hr 02 min 37 sec)
Heartbeat CPU 0 instructions: 57500426 cycles: 14526521 heartbeat IPC: 2.247 cumulative IPC: 2.238 (Simulation time: 00 hr 02 min 40 sec)
Heartbeat CPU 0 instructions: 58000426 cycles: 14749457 heartbeat IPC: 2.243 cumulative IPC: 2.238 (Simulation time: 00 hr 02 min 43 sec)
Heartbeat CPU 0 instructions: 58500427 cycles: 14977535 heartbeat IPC: 2.192 cumulative IPC: 2.236 (Simulation time: 00 hr 02 min 46 sec)
Heartbeat CPU 0 instructions: 59000427 cycles: 15207000 heartbeat IPC: 2.179 cumulative IPC: 2.232 (Simulation time: 00 hr 02 min 49 sec)
Heartbeat CPU 0 instructions: 59500428 cycles: 15436229 heartbeat IPC: 2.181 cumulative IPC: 2.23 (Simulation time: 00 hr 02 min 52 sec)
Heartbeat CPU 0 instructions: 60000430 cycles: 15658740 heartbeat IPC: 2.247 cumulative IPC: 2.23 (Simulation time: 00 hr 02 min 55 sec)
Heartbeat CPU 0 instructions: 60500430 cycles: 15882538 heartbeat IPC: 2.234 cumulative IPC: 2.231 (Simulation time: 00 hr 02 min 58 sec)
Heartbeat CPU 0 instructions: 61000431 cycles: 16107534 heartbeat IPC: 2.222 cumulative IPC: 2.23 (Simulation time: 00 hr 03 min 01 sec)
Heartbeat CPU 0 instructions: 61500432 cycles: 16333310 heartbeat IPC: 2.215 cumulative IPC: 2.23 (Simulation time: 00 hr 03 min 04 sec)
Heartbeat CPU 0 instructions: 62000432 cycles: 16559184 heartbeat IPC: 2.214 cumulative IPC: 2.229 (Simulation time: 00 hr 03 min 07 sec)
Heartbeat CPU 0 instructions: 62500433 cycles: 16785512 heartbeat IPC: 2.209 cumulative IPC: 2.228 (Simulation time: 00 hr 03 min 10 sec)
Heartbeat CPU 0 instructions: 63000435 cycles: 17008584 heartbeat IPC: 2.241 cumulative IPC: 2.229 (Simulation time: 00 hr 03 min 12 sec)
Heartbeat CPU 0 instructions: 63500436 cycles: 17233041 heartbeat IPC: 2.228 cumulative IPC: 2.229 (Simulation time: 00 hr 03 min 15 sec)
Heartbeat CPU 0 instructions: 64000437 cycles: 17456612 heartbeat IPC: 2.236 cumulative IPC: 2.229 (Simulation time: 00 hr 03 min 18 sec)
Heartbeat CPU 0 instructions: 64500437 cycles: 17681262 heartbeat IPC: 2.226 cumulative IPC: 2.229 (Simulation time: 00 hr 03 min 21 sec)
Heartbeat CPU 0 instructions: 65000437 cycles: 17907363 heartbeat IPC: 2.211 cumulative IPC: 2.228 (Simulation time: 00 hr 03 min 24 sec)
Heartbeat CPU 0 instructions: 65500437 cycles: 18135707 heartbeat IPC: 2.19 cumulative IPC: 2.227 (Simulation time: 00 hr 03 min 27 sec)
Heartbeat CPU 0 instructions: 66000438 cycles: 18364353 heartbeat IPC: 2.187 cumulative IPC: 2.226 (Simulation time: 00 hr 03 min 30 sec)
Heartbeat CPU 0 instructions: 66500440 cycles: 18592042 heartbeat IPC: 2.196 cumulative IPC: 2.225 (Simulation time: 00 hr 03 min 33 sec)
Heartbeat CPU 0 instructions: 67000440 cycles: 18821949 heartbeat IPC: 2.175 cumulative IPC: 2.223 (Simulation time: 00 hr 03 min 36 sec)
Heartbeat CPU 0 instructions: 67500441 cycles: 19052800 heartbeat IPC: 2.166 cumulative IPC: 2.222 (Simulation time: 00 hr 03 min 39 sec)
Heartbeat CPU 0 instructions: 68000441 cycles: 19276019 heartbeat IPC: 2.24 cumulative IPC: 2.222 (Simulation time: 00 hr 03 min 42 sec)
Heartbeat CPU 0 instructions: 68500442 cycles: 19499868 heartbeat IPC: 2.234 cumulative IPC: 2.222 (Simulation time: 00 hr 03 min 45 sec)
Heartbeat CPU 0 instructions: 69000442 cycles: 19723543 heartbeat IPC: 2.235 cumulative IPC: 2.223 (Simulation time: 00 hr 03 min 48 sec)
Heartbeat CPU 0 instructions: 69500444 cycles: 19950068 heartbeat IPC: 2.207 cumulative IPC: 2.222 (Simulation time: 00 hr 03 min 51 sec)
Heartbeat CPU 0 instructions: 70000444 cycles: 20177358 heartbeat IPC: 2.2 cumulative IPC: 2.222 (Simulation time: 00 hr 03 min 54 sec)
Heartbeat CPU 0 instructions: 70500444 cycles: 20405554 heartbeat IPC: 2.191 cumulative IPC: 2.221 (Simulation time: 00 hr 03 min 56 sec)
Heartbeat CPU 0 instructions: 71000445 cycles: 20630237 heartbeat IPC: 2.225 cumulative IPC: 2.221 (Simulation time: 00 hr 03 min 59 sec)
Heartbeat CPU 0 instructions: 71500445 cycles: 20853703 heartbeat IPC: 2.237 cumulative IPC: 2.221 (Simulation time: 00 hr 04 min 02 sec)
Heartbeat CPU 0 instructions: 72000445 cycles: 21079668 heartbeat IPC: 2.213 cumulative IPC: 2.221 (Simulation time: 00 hr 04 min 05 sec)
Heartbeat CPU 0 instructions: 72500445 cycles: 21304881 heartbeat IPC: 2.22 cumulative IPC: 2.221 (Simulation time: 00 hr 04 min 08 sec)
Heartbeat CPU 0 instructions: 73000446 cycles: 21532298 heartbeat IPC: 2.199 cumulative IPC: 2.221 (Simulation time: 00 hr 04 min 11 sec)
Heartbeat CPU 0 instructions: 73500447 cycles: 21761381 heartbeat IPC: 2.183 cumulative IPC: 2.22 (Simulation time: 00 hr 04 min 14 sec)
Heartbeat CPU 0 instructions: 74000448 cycles: 21991569 heartbeat IPC: 2.172 cumulative IPC: 2.219 (Simulation time: 00 hr 04 min 17 sec)
Heartbeat CPU 0 instructions: 74500450 cycles: 22220565 heartbeat IPC: 2.183 cumulative IPC: 2.218 (Simulation time: 00 hr 04 min 20 sec)
Heartbeat CPU 0 instructions: 75000451 cycles: 22450743 heartbeat IPC: 2.172 cumulative IPC: 2.217 (Simulation time: 00 hr 04 min 23 sec)
Heartbeat CPU 0 instructions: 75500452 cycles: 22679903 heartbeat IPC: 2.182 cumulative IPC: 2.217 (Simulation time: 00 hr 04 min 26 sec)
Heartbeat CPU 0 instructions: 76000452 cycles: 22910419 heartbeat IPC: 2.169 cumulative IPC: 2.216 (Simulation time: 00 hr 04 min 29 sec)
Heartbeat CPU 0 instructions: 76500452 cycles: 23142106 heartbeat IPC: 2.158 cumulative IPC: 2.214 (Simulation time: 00 hr 04 min 32 sec)
Heartbeat CPU 0 instructions: 77000452 cycles: 23367228 heartbeat IPC: 2.221 cumulative IPC: 2.215 (Simulation time: 00 hr 04 min 35 sec)
Heartbeat CPU 0 instructions: 77500453 cycles: 23592282 heartbeat IPC: 2.222 cumulative IPC: 2.215 (Simulation time: 00 hr 04 min 38 sec)
Heartbeat CPU 0 instructions: 78000454 cycles: 23817455 heartbeat IPC: 2.221 cumulative IPC: 2.215 (Simulation time: 00 hr 04 min 41 sec)
Heartbeat CPU 0 instructions: 78500455 cycles: 24042633 heartbeat IPC: 2.22 cumulative IPC: 2.215 (Simulation time: 00 hr 04 min 44 sec)
Heartbeat CPU 0 instructions: 79000455 cycles: 24270718 heartbeat IPC: 2.192 cumulative IPC: 2.215 (Simulation time: 00 hr 04 min 47 sec)
Heartbeat CPU 0 instructions: 79500456 cycles: 24499166 heartbeat IPC: 2.189 cumulative IPC: 2.214 (Simulation time: 00 hr 04 min 50 sec)
Heartbeat CPU 0 instructions: 80000458 cycles: 24726552 heartbeat IPC: 2.199 cumulative IPC: 2.214 (Simulation time: 00 hr 04 min 53 sec)
Heartbeat CPU 0 instructions: 80500459 cycles: 24951611 heartbeat IPC: 2.222 cumulative IPC: 2.214 (Simulation time: 00 hr 04 min 55 sec)
Heartbeat CPU 0 instructions: 81000459 cycles: 25178260 heartbeat IPC: 2.206 cumulative IPC: 2.214 (Simulation time: 00 hr 04 min 58 sec)
Heartbeat CPU 0 instructions: 81500461 cycles: 25403587 heartbeat IPC: 2.219 cumulative IPC: 2.214 (Simulation time: 00 hr 05 min 01 sec)
Heartbeat CPU 0 instructions: 82000461 cycles: 25632191 heartbeat IPC: 2.187 cumulative IPC: 2.213 (Simulation time: 00 hr 05 min 04 sec)
Heartbeat CPU 0 instructions: 82500462 cycles: 25857830 heartbeat IPC: 2.216 cumulative IPC: 2.214 (Simulation time: 00 hr 05 min 07 sec)
Heartbeat CPU 0 instructions: 83000464 cycles: 26082679 heartbeat IPC: 2.224 cumulative IPC: 2.214 (Simulation time: 00 hr 05 min 10 sec)
Heartbeat CPU 0 instructions: 83500465 cycles: 26306911 heartbeat IPC: 2.23 cumulative IPC: 2.214 (Simulation time: 00 hr 05 min 13 sec)
Heartbeat CPU 0 instructions: 84000467 cycles: 26532420 heartbeat IPC: 2.217 cumulative IPC: 2.214 (Simulation time: 00 hr 05 min 16 sec)
Heartbeat CPU 0 instructions: 84500467 cycles: 26757583 heartbeat IPC: 2.221 cumulative IPC: 2.214 (Simulation time: 00 hr 05 min 19 sec)
Heartbeat CPU 0 instructions: 85000467 cycles: 26984569 heartbeat IPC: 2.203 cumulative IPC: 2.214 (Simulation time: 00 hr 05 min 22 sec)
Heartbeat CPU 0 instructions: 85500468 cycles: 27208601 heartbeat IPC: 2.232 cumulative IPC: 2.214 (Simulation time: 00 hr 05 min 25 sec)
Heartbeat CPU 0 instructions: 86000469 cycles: 27431984 heartbeat IPC: 2.238 cumulative IPC: 2.214 (Simulation time: 00 hr 05 min 28 sec)
Heartbeat CPU 0 instructions: 86500471 cycles: 27654831 heartbeat IPC: 2.244 cumulative IPC: 2.215 (Simulation time: 00 hr 05 min 31 sec)
Heartbeat CPU 0 instructions: 87000472 cycles: 27880193 heartbeat IPC: 2.219 cumulative IPC: 2.215 (Simulation time: 00 hr 05 min 34 sec)
Heartbeat CPU 0 instructions: 87500473 cycles: 28104871 heartbeat IPC: 2.225 cumulative IPC: 2.215 (Simulation time: 00 hr 05 min 36 sec)
Heartbeat CPU 0 instructions: 88000473 cycles: 28330618 heartbeat IPC: 2.215 cumulative IPC: 2.215 (Simulation time: 00 hr 05 min 39 sec)
Heartbeat CPU 0 instructions: 88500473 cycles: 28561052 heartbeat IPC: 2.17 cumulative IPC: 2.214 (Simulation time: 00 hr 05 min 42 sec)
Heartbeat CPU 0 instructions: 89000475 cycles: 28790847 heartbeat IPC: 2.176 cumulative IPC: 2.214 (Simulation time: 00 hr 05 min 45 sec)
Heartbeat CPU 0 instructions: 89500477 cycles: 29022544 heartbeat IPC: 2.158 cumulative IPC: 2.213 (Simulation time: 00 hr 05 min 48 sec)
Heartbeat CPU 0 instructions: 90000479 cycles: 29245944 heartbeat IPC: 2.238 cumulative IPC: 2.214 (Simulation time: 00 hr 05 min 51 sec)
Heartbeat CPU 0 instructions: 90500481 cycles: 29470297 heartbeat IPC: 2.229 cumulative IPC: 2.214 (Simulation time: 00 hr 05 min 54 sec)
Heartbeat CPU 0 instructions: 91000481 cycles: 29694958 heartbeat IPC: 2.226 cumulative IPC: 2.214 (Simulation time: 00 hr 05 min 57 sec)
Heartbeat CPU 0 instructions: 91500481 cycles: 29922348 heartbeat IPC: 2.199 cumulative IPC: 2.214 (Simulation time: 00 hr 06 min 00 sec)
Heartbeat CPU 0 instructions: 92000481 cycles: 30151265 heartbeat IPC: 2.184 cumulative IPC: 2.213 (Simulation time: 00 hr 06 min 03 sec)
Heartbeat CPU 0 instructions: 92500483 cycles: 30375940 heartbeat IPC: 2.225 cumulative IPC: 2.213 (Simulation time: 00 hr 06 min 06 sec)
Heartbeat CPU 0 instructions: 93000484 cycles: 30598207 heartbeat IPC: 2.25 cumulative IPC: 2.214 (Simulation time: 00 hr 06 min 09 sec)
Heartbeat CPU 0 instructions: 93500485 cycles: 30820444 heartbeat IPC: 2.25 cumulative IPC: 2.214 (Simulation time: 00 hr 06 min 12 sec)
Heartbeat CPU 0 instructions: 94000486 cycles: 31042667 heartbeat IPC: 2.25 cumulative IPC: 2.215 (Simulation time: 00 hr 06 min 14 sec)
Heartbeat CPU 0 instructions: 94500486 cycles: 31264924 heartbeat IPC: 2.25 cumulative IPC: 2.215 (Simulation time: 00 hr 06 min 17 sec)
Heartbeat CPU 0 instructions: 95000487 cycles: 31487704 heartbeat IPC: 2.244 cumulative IPC: 2.215 (Simulation time: 00 hr 06 min 20 sec)
Heartbeat CPU 0 instructions: 95500489 cycles: 31714369 heartbeat IPC: 2.206 cumulative IPC: 2.215 (Simulation time: 00 hr 06 min 23 sec)
Heartbeat CPU 0 instructions: 96000489 cycles: 31940484 heartbeat IPC: 2.211 cumulative IPC: 2.215 (Simulation time: 00 hr 06 min 26 sec)
Heartbeat CPU 0 instructions: 96500489 cycles: 32164458 heartbeat IPC: 2.232 cumulative IPC: 2.215 (Simulation time: 00 hr 06 min 29 sec)
Heartbeat CPU 0 instructions: 97000490 cycles: 32390942 heartbeat IPC: 2.208 cumulative IPC: 2.215 (Simulation time: 00 hr 06 min 32 sec)
Heartbeat CPU 0 instructions: 97500490 cycles: 32616677 heartbeat IPC: 2.215 cumulative IPC: 2.215 (Simulation time: 00 hr 06 min 35 sec)
Heartbeat CPU 0 instructions: 98000490 cycles: 32839809 heartbeat IPC: 2.241 cumulative IPC: 2.216 (Simulation time: 00 hr 06 min 38 sec)
Heartbeat CPU 0 instructions: 98500491 cycles: 33064606 heartbeat IPC: 2.224 cumulative IPC: 2.216 (Simulation time: 00 hr 06 min 41 sec)
Heartbeat CPU 0 instructions: 99000491 cycles: 33288646 heartbeat IPC: 2.232 cumulative IPC: 2.216 (Simulation time: 00 hr 06 min 44 sec)
Heartbeat CPU 0 instructions: 99500492 cycles: 33514154 heartbeat IPC: 2.217 cumulative IPC: 2.216 (Simulation time: 00 hr 06 min 46 sec)
Heartbeat CPU 0 instructions: 100000492 cycles: 33740204 heartbeat IPC: 2.212 cumulative IPC: 2.216 (Simulation time: 00 hr 06 min 49 sec)
Heartbeat CPU 0 instructions: 100500494 cycles: 33966830 heartbeat IPC: 2.206 cumulative IPC: 2.216 (Simulation time: 00 hr 06 min 52 sec)
Heartbeat CPU 0 instructions: 101000496 cycles: 34191035 heartbeat IPC: 2.23 cumulative IPC: 2.216 (Simulation time: 00 hr 06 min 55 sec)
Heartbeat CPU 0 instructions: 101500497 cycles: 34415399 heartbeat IPC: 2.229 cumulative IPC: 2.216 (Simulation time: 00 hr 06 min 58 sec)
Heartbeat CPU 0 instructions: 102000499 cycles: 34639908 heartbeat IPC: 2.227 cumulative IPC: 2.216 (Simulation time: 00 hr 07 min 01 sec)
Heartbeat CPU 0 instructions: 102500499 cycles: 34863583 heartbeat IPC: 2.235 cumulative IPC: 2.216 (Simulation time: 00 hr 07 min 04 sec)
Heartbeat CPU 0 instructions: 103000500 cycles: 35090079 heartbeat IPC: 2.208 cumulative IPC: 2.216 (Simulation time: 00 hr 07 min 07 sec)
Heartbeat CPU 0 instructions: 103500502 cycles: 35317272 heartbeat IPC: 2.201 cumulative IPC: 2.216 (Simulation time: 00 hr 07 min 10 sec)
Heartbeat CPU 0 instructions: 104000504 cycles: 35546359 heartbeat IPC: 2.183 cumulative IPC: 2.216 (Simulation time: 00 hr 07 min 13 sec)
Heartbeat CPU 0 instructions: 104500505 cycles: 35776092 heartbeat IPC: 2.176 cumulative IPC: 2.215 (Simulation time: 00 hr 07 min 16 sec)
Heartbeat CPU 0 instructions: 105000507 cycles: 36006069 heartbeat IPC: 2.174 cumulative IPC: 2.215 (Simulation time: 00 hr 07 min 19 sec)
Heartbeat CPU 0 instructions: 105500509 cycles: 36235650 heartbeat IPC: 2.178 cumulative IPC: 2.215 (Simulation time: 00 hr 07 min 22 sec)
Heartbeat CPU 0 instructions: 106000510 cycles: 36465858 heartbeat IPC: 2.172 cumulative IPC: 2.214 (Simulation time: 00 hr 07 min 25 sec)
Heartbeat CPU 0 instructions: 106500510 cycles: 36695773 heartbeat IPC: 2.175 cumulative IPC: 2.214 (Simulation time: 00 hr 07 min 28 sec)
Heartbeat CPU 0 instructions: 107000510 cycles: 36920614 heartbeat IPC: 2.224 cumulative IPC: 2.214 (Simulation time: 00 hr 07 min 31 sec)
Heartbeat CPU 0 instructions: 107500512 cycles: 37145769 heartbeat IPC: 2.221 cumulative IPC: 2.214 (Simulation time: 00 hr 07 min 34 sec)
Heartbeat CPU 0 instructions: 108000513 cycles: 37371274 heartbeat IPC: 2.217 cumulative IPC: 2.214 (Simulation time: 00 hr 07 min 36 sec)
Heartbeat CPU 0 instructions: 108500513 cycles: 37596505 heartbeat IPC: 2.22 cumulative IPC: 2.214 (Simulation time: 00 hr 07 min 39 sec)
Heartbeat CPU 0 instructions: 109000513 cycles: 37823455 heartbeat IPC: 2.203 cumulative IPC: 2.214 (Simulation time: 00 hr 07 min 42 sec)
Heartbeat CPU 0 instructions: 109500513 cycles: 38052418 heartbeat IPC: 2.184 cumulative IPC: 2.214 (Simulation time: 00 hr 07 min 45 sec)
Heartbeat CPU 0 instructions: 110000513 cycles: 38277328 heartbeat IPC: 2.223 cumulative IPC: 2.214 (Simulation time: 00 hr 07 min 48 sec)
Heartbeat CPU 0 instructions: 110500515 cycles: 38499551 heartbeat IPC: 2.25 cumulative IPC: 2.214 (Simulation time: 00 hr 07 min 51 sec)
Heartbeat CPU 0 instructions: 111000515 cycles: 38721865 heartbeat IPC: 2.249 cumulative IPC: 2.214 (Simulation time: 00 hr 07 min 54 sec)
Heartbeat CPU 0 instructions: 111500517 cycles: 38944378 heartbeat IPC: 2.247 cumulative IPC: 2.215 (Simulation time: 00 hr 07 min 57 sec)
Heartbeat CPU 0 instructions: 112000517 cycles: 39166659 heartbeat IPC: 2.249 cumulative IPC: 2.215 (Simulation time: 00 hr 08 min 00 sec)
Heartbeat CPU 0 instructions: 112500518 cycles: 39388925 heartbeat IPC: 2.25 cumulative IPC: 2.215 (Simulation time: 00 hr 08 min 03 sec)
Heartbeat CPU 0 instructions: 113000519 cycles: 39611182 heartbeat IPC: 2.25 cumulative IPC: 2.216 (Simulation time: 00 hr 08 min 05 sec)
Heartbeat CPU 0 instructions: 113500519 cycles: 39833638 heartbeat IPC: 2.248 cumulative IPC: 2.216 (Simulation time: 00 hr 08 min 08 sec)
Heartbeat CPU 0 instructions: 114000519 cycles: 40056320 heartbeat IPC: 2.245 cumulative IPC: 2.216 (Simulation time: 00 hr 08 min 11 sec)
Heartbeat CPU 0 instructions: 114500521 cycles: 40280102 heartbeat IPC: 2.234 cumulative IPC: 2.216 (Simulation time: 00 hr 08 min 14 sec)
Heartbeat CPU 0 instructions: 115000521 cycles: 40505587 heartbeat IPC: 2.217 cumulative IPC: 2.216 (Simulation time: 00 hr 08 min 17 sec)
Heartbeat CPU 0 instructions: 115500521 cycles: 40732384 heartbeat IPC: 2.205 cumulative IPC: 2.216 (Simulation time: 00 hr 08 min 20 sec)
Heartbeat CPU 0 instructions: 116000521 cycles: 40959359 heartbeat IPC: 2.203 cumulative IPC: 2.216 (Simulation time: 00 hr 08 min 23 sec)
Heartbeat CPU 0 instructions: 116500521 cycles: 41182818 heartbeat IPC: 2.238 cumulative IPC: 2.216 (Simulation time: 00 hr 08 min 26 sec)
Heartbeat CPU 0 instructions: 117000523 cycles: 41406435 heartbeat IPC: 2.236 cumulative IPC: 2.216 (Simulation time: 00 hr 08 min 29 sec)
Heartbeat CPU 0 instructions: 117500524 cycles: 41630023 heartbeat IPC: 2.236 cumulative IPC: 2.216 (Simulation time: 00 hr 08 min 32 sec)
Heartbeat CPU 0 instructions: 118000524 cycles: 41854026 heartbeat IPC: 2.232 cumulative IPC: 2.217 (Simulation time: 00 hr 08 min 34 sec)
Heartbeat CPU 0 instructions: 118500525 cycles: 42080110 heartbeat IPC: 2.212 cumulative IPC: 2.216 (Simulation time: 00 hr 08 min 37 sec)
Heartbeat CPU 0 instructions: 119000525 cycles: 42305605 heartbeat IPC: 2.217 cumulative IPC: 2.216 (Simulation time: 00 hr 08 min 40 sec)
Heartbeat CPU 0 instructions: 119500526 cycles: 42531010 heartbeat IPC: 2.218 cumulative IPC: 2.217 (Simulation time: 00 hr 08 min 43 sec)
Heartbeat CPU 0 instructions: 120000528 cycles: 42755363 heartbeat IPC: 2.229 cumulative IPC: 2.217 (Simulation time: 00 hr 08 min 46 sec)
Heartbeat CPU 0 instructions: 120500529 cycles: 42979905 heartbeat IPC: 2.227 cumulative IPC: 2.217 (Simulation time: 00 hr 08 min 49 sec)
Heartbeat CPU 0 instructions: 121000530 cycles: 43205446 heartbeat IPC: 2.217 cumulative IPC: 2.217 (Simulation time: 00 hr 08 min 52 sec)
Heartbeat CPU 0 instructions: 121500530 cycles: 43431570 heartbeat IPC: 2.211 cumulative IPC: 2.217 (Simulation time: 00 hr 08 min 55 sec)
Heartbeat CPU 0 instructions: 122000530 cycles: 43660016 heartbeat IPC: 2.189 cumulative IPC: 2.216 (Simulation time: 00 hr 08 min 58 sec)
Heartbeat CPU 0 instructions: 122500531 cycles: 43889744 heartbeat IPC: 2.176 cumulative IPC: 2.216 (Simulation time: 00 hr 09 min 01 sec)
Heartbeat CPU 0 instructions: 123000532 cycles: 44121486 heartbeat IPC: 2.158 cumulative IPC: 2.216 (Simulation time: 00 hr 09 min 04 sec)
Heartbeat CPU 0 instructions: 123500532 cycles: 44352031 heartbeat IPC: 2.169 cumulative IPC: 2.215 (Simulation time: 00 hr 09 min 07 sec)
Heartbeat CPU 0 instructions: 124000533 cycles: 44580135 heartbeat IPC: 2.192 cumulative IPC: 2.215 (Simulation time: 00 hr 09 min 10 sec)
Heartbeat CPU 0 instructions: 124500533 cycles: 44804330 heartbeat IPC: 2.23 cumulative IPC: 2.215 (Simulation time: 00 hr 09 min 13 sec)
Heartbeat CPU 0 instructions: 125000535 cycles: 45030668 heartbeat IPC: 2.209 cumulative IPC: 2.215 (Simulation time: 00 hr 09 min 16 sec)
Heartbeat CPU 0 instructions: 125500536 cycles: 45254993 heartbeat IPC: 2.229 cumulative IPC: 2.215 (Simulation time: 00 hr 09 min 19 sec)
Heartbeat CPU 0 instructions: 126000538 cycles: 45481258 heartbeat IPC: 2.21 cumulative IPC: 2.215 (Simulation time: 00 hr 09 min 21 sec)
Heartbeat CPU 0 instructions: 126500538 cycles: 45708926 heartbeat IPC: 2.196 cumulative IPC: 2.215 (Simulation time: 00 hr 09 min 24 sec)
Heartbeat CPU 0 instructions: 127000538 cycles: 45937922 heartbeat IPC: 2.183 cumulative IPC: 2.215 (Simulation time: 00 hr 09 min 27 sec)
Heartbeat CPU 0 instructions: 127500538 cycles: 46164272 heartbeat IPC: 2.209 cumulative IPC: 2.215 (Simulation time: 00 hr 09 min 30 sec)
Heartbeat CPU 0 instructions: 128000538 cycles: 46389229 heartbeat IPC: 2.223 cumulative IPC: 2.215 (Simulation time: 00 hr 09 min 33 sec)
Heartbeat CPU 0 instructions: 128500538 cycles: 46616453 heartbeat IPC: 2.2 cumulative IPC: 2.215 (Simulation time: 00 hr 09 min 36 sec)
Heartbeat CPU 0 instructions: 129000539 cycles: 46842403 heartbeat IPC: 2.213 cumulative IPC: 2.215 (Simulation time: 00 hr 09 min 39 sec)
Heartbeat CPU 0 instructions: 129500541 cycles: 47070979 heartbeat IPC: 2.187 cumulative IPC: 2.215 (Simulation time: 00 hr 09 min 42 sec)
Heartbeat CPU 0 instructions: 130000543 cycles: 47296787 heartbeat IPC: 2.214 cumulative IPC: 2.215 (Simulation time: 00 hr 09 min 45 sec)
Heartbeat CPU 0 instructions: 130500545 cycles: 47522407 heartbeat IPC: 2.216 cumulative IPC: 2.215 (Simulation time: 00 hr 09 min 48 sec)
Heartbeat CPU 0 instructions: 131000546 cycles: 47747551 heartbeat IPC: 2.221 cumulative IPC: 2.215 (Simulation time: 00 hr 09 min 51 sec)
Heartbeat CPU 0 instructions: 131500548 cycles: 47972498 heartbeat IPC: 2.223 cumulative IPC: 2.215 (Simulation time: 00 hr 09 min 54 sec)
Heartbeat CPU 0 instructions: 132000550 cycles: 48197031 heartbeat IPC: 2.227 cumulative IPC: 2.215 (Simulation time: 00 hr 09 min 57 sec)
Heartbeat CPU 0 instructions: 132500551 cycles: 48424272 heartbeat IPC: 2.2 cumulative IPC: 2.215 (Simulation time: 00 hr 10 min 00 sec)
Heartbeat CPU 0 instructions: 133000551 cycles: 48648755 heartbeat IPC: 2.227 cumulative IPC: 2.215 (Simulation time: 00 hr 10 min 03 sec)
Heartbeat CPU 0 instructions: 133500551 cycles: 48874227 heartbeat IPC: 2.218 cumulative IPC: 2.215 (Simulation time: 00 hr 10 min 05 sec)
Heartbeat CPU 0 instructions: 134000551 cycles: 49099345 heartbeat IPC: 2.221 cumulative IPC: 2.215 (Simulation time: 00 hr 10 min 08 sec)
Heartbeat CPU 0 instructions: 134500551 cycles: 49322890 heartbeat IPC: 2.237 cumulative IPC: 2.215 (Simulation time: 00 hr 10 min 11 sec)
Heartbeat CPU 0 instructions: 135000553 cycles: 49547147 heartbeat IPC: 2.23 cumulative IPC: 2.215 (Simulation time: 00 hr 10 min 14 sec)
Heartbeat CPU 0 instructions: 135500554 cycles: 49772805 heartbeat IPC: 2.216 cumulative IPC: 2.215 (Simulation time: 00 hr 10 min 17 sec)
Heartbeat CPU 0 instructions: 136000555 cycles: 50002067 heartbeat IPC: 2.181 cumulative IPC: 2.215 (Simulation time: 00 hr 10 min 20 sec)
Heartbeat CPU 0 instructions: 136500555 cycles: 50232454 heartbeat IPC: 2.17 cumulative IPC: 2.215 (Simulation time: 00 hr 10 min 23 sec)
Heartbeat CPU 0 instructions: 137000555 cycles: 50460655 heartbeat IPC: 2.191 cumulative IPC: 2.215 (Simulation time: 00 hr 10 min 26 sec)
Heartbeat CPU 0 instructions: 137500556 cycles: 50690712 heartbeat IPC: 2.173 cumulative IPC: 2.214 (Simulation time: 00 hr 10 min 29 sec)
Heartbeat CPU 0 instructions: 138000556 cycles: 50921512 heartbeat IPC: 2.166 cumulative IPC: 2.214 (Simulation time: 00 hr 10 min 32 sec)
Heartbeat CPU 0 instructions: 138500558 cycles: 51145140 heartbeat IPC: 2.236 cumulative IPC: 2.214 (Simulation time: 00 hr 10 min 35 sec)
Heartbeat CPU 0 instructions: 139000559 cycles: 51371585 heartbeat IPC: 2.208 cumulative IPC: 2.214 (Simulation time: 00 hr 10 min 38 sec)
Heartbeat CPU 0 instructions: 139500559 cycles: 51595300 heartbeat IPC: 2.235 cumulative IPC: 2.214 (Simulation time: 00 hr 10 min 41 sec)
Heartbeat CPU 0 instructions: 140000560 cycles: 51820293 heartbeat IPC: 2.222 cumulative IPC: 2.214 (Simulation time: 00 hr 10 min 44 sec)
Heartbeat CPU 0 instructions: 140500562 cycles: 52048759 heartbeat IPC: 2.189 cumulative IPC: 2.214 (Simulation time: 00 hr 10 min 47 sec)
Heartbeat CPU 0 instructions: 141000562 cycles: 52277849 heartbeat IPC: 2.183 cumulative IPC: 2.214 (Simulation time: 00 hr 10 min 49 sec)
Heartbeat CPU 0 instructions: 141500564 cycles: 52503885 heartbeat IPC: 2.212 cumulative IPC: 2.214 (Simulation time: 00 hr 10 min 52 sec)
Heartbeat CPU 0 instructions: 142000564 cycles: 52730126 heartbeat IPC: 2.21 cumulative IPC: 2.214 (Simulation time: 00 hr 10 min 55 sec)
Heartbeat CPU 0 instructions: 142500565 cycles: 52957323 heartbeat IPC: 2.201 cumulative IPC: 2.214 (Simulation time: 00 hr 10 min 58 sec)
Heartbeat CPU 0 instructions: 143000565 cycles: 53182567 heartbeat IPC: 2.22 cumulative IPC: 2.214 (Simulation time: 00 hr 11 min 01 sec)
Heartbeat CPU 0 instructions: 143500566 cycles: 53411011 heartbeat IPC: 2.189 cumulative IPC: 2.214 (Simulation time: 00 hr 11 min 04 sec)
Heartbeat CPU 0 instructions: 144000567 cycles: 53638048 heartbeat IPC: 2.202 cumulative IPC: 2.214 (Simulation time: 00 hr 11 min 07 sec)
Heartbeat CPU 0 instructions: 144500568 cycles: 53867904 heartbeat IPC: 2.175 cumulative IPC: 2.214 (Simulation time: 00 hr 11 min 10 sec)
Heartbeat CPU 0 instructions: 145000568 cycles: 54098359 heartbeat IPC: 2.17 cumulative IPC: 2.213 (Simulation time: 00 hr 11 min 13 sec)
Heartbeat CPU 0 instructions: 145500568 cycles: 54327910 heartbeat IPC: 2.178 cumulative IPC: 2.213 (Simulation time: 00 hr 11 min 16 sec)
Heartbeat CPU 0 instructions: 146000570 cycles: 54558036 heartbeat IPC: 2.173 cumulative IPC: 2.213 (Simulation time: 00 hr 11 min 19 sec)
Heartbeat CPU 0 instructions: 146500570 cycles: 54787987 heartbeat IPC: 2.174 cumulative IPC: 2.213 (Simulation time: 00 hr 11 min 22 sec)
Heartbeat CPU 0 instructions: 147000571 cycles: 55020966 heartbeat IPC: 2.146 cumulative IPC: 2.212 (Simulation time: 00 hr 11 min 25 sec)
Heartbeat CPU 0 instructions: 147500571 cycles: 55246152 heartbeat IPC: 2.22 cumulative IPC: 2.212 (Simulation time: 00 hr 11 min 28 sec)
Heartbeat CPU 0 instructions: 148000572 cycles: 55471841 heartbeat IPC: 2.215 cumulative IPC: 2.212 (Simulation time: 00 hr 11 min 31 sec)
Heartbeat CPU 0 instructions: 148500574 cycles: 55696467 heartbeat IPC: 2.226 cumulative IPC: 2.212 (Simulation time: 00 hr 11 min 34 sec)
Heartbeat CPU 0 instructions: 149000574 cycles: 55921576 heartbeat IPC: 2.221 cumulative IPC: 2.212 (Simulation time: 00 hr 11 min 37 sec)
Heartbeat CPU 0 instructions: 149500575 cycles: 56149133 heartbeat IPC: 2.197 cumulative IPC: 2.212 (Simulation time: 00 hr 11 min 39 sec)
Heartbeat CPU 0 instructions: 150000577 cycles: 56378567 heartbeat IPC: 2.179 cumulative IPC: 2.212 (Simulation time: 00 hr 11 min 42 sec)
Heartbeat CPU 0 instructions: 150500578 cycles: 56605306 heartbeat IPC: 2.205 cumulative IPC: 2.212 (Simulation time: 00 hr 11 min 45 sec)
Heartbeat CPU 0 instructions: 151000579 cycles: 56830925 heartbeat IPC: 2.216 cumulative IPC: 2.212 (Simulation time: 00 hr 11 min 48 sec)
Heartbeat CPU 0 instructions: 151500579 cycles: 57057103 heartbeat IPC: 2.211 cumulative IPC: 2.212 (Simulation time: 00 hr 11 min 51 sec)
Heartbeat CPU 0 instructions: 152000579 cycles: 57283906 heartbeat IPC: 2.205 cumulative IPC: 2.212 (Simulation time: 00 hr 11 min 54 sec)
Heartbeat CPU 0 instructions: 152500581 cycles: 57510872 heartbeat IPC: 2.203 cumulative IPC: 2.212 (Simulation time: 00 hr 11 min 57 sec)
Heartbeat CPU 0 instructions: 153000581 cycles: 57739129 heartbeat IPC: 2.191 cumulative IPC: 2.212 (Simulation time: 00 hr 12 min 00 sec)
Heartbeat CPU 0 instructions: 153500582 cycles: 57968839 heartbeat IPC: 2.177 cumulative IPC: 2.212 (Simulation time: 00 hr 12 min 03 sec)
Heartbeat CPU 0 instructions: 154000584 cycles: 58198182 heartbeat IPC: 2.18 cumulative IPC: 2.212 (Simulation time: 00 hr 12 min 06 sec)
Heartbeat CPU 0 instructions: 154500584 cycles: 58429651 heartbeat IPC: 2.16 cumulative IPC: 2.211 (Simulation time: 00 hr 12 min 09 sec)
Heartbeat CPU 0 instructions: 155000584 cycles: 58653925 heartbeat IPC: 2.229 cumulative IPC: 2.212 (Simulation time: 00 hr 12 min 12 sec)
Heartbeat CPU 0 instructions: 155500585 cycles: 58879756 heartbeat IPC: 2.214 cumulative IPC: 2.212 (Simulation time: 00 hr 12 min 15 sec)
Heartbeat CPU 0 instructions: 156000587 cycles: 59105056 heartbeat IPC: 2.219 cumulative IPC: 2.212 (Simulation time: 00 hr 12 min 18 sec)
Heartbeat CPU 0 instructions: 156500589 cycles: 59330866 heartbeat IPC: 2.214 cumulative IPC: 2.212 (Simulation time: 00 hr 12 min 21 sec)
Heartbeat CPU 0 instructions: 157000590 cycles: 59559224 heartbeat IPC: 2.19 cumulative IPC: 2.211 (Simulation time: 00 hr 12 min 24 sec)
Heartbeat CPU 0 instructions: 157500591 cycles: 59787134 heartbeat IPC: 2.194 cumulative IPC: 2.211 (Simulation time: 00 hr 12 min 26 sec)
Heartbeat CPU 0 instructions: 158000591 cycles: 60013307 heartbeat IPC: 2.211 cumulative IPC: 2.211 (Simulation time: 00 hr 12 min 29 sec)
Heartbeat CPU 0 instructions: 158500591 cycles: 60239250 heartbeat IPC: 2.213 cumulative IPC: 2.211 (Simulation time: 00 hr 12 min 32 sec)
Heartbeat CPU 0 instructions: 159000593 cycles: 60463651 heartbeat IPC: 2.228 cumulative IPC: 2.211 (Simulation time: 00 hr 12 min 35 sec)
Heartbeat CPU 0 instructions: 159500593 cycles: 60688879 heartbeat IPC: 2.22 cumulative IPC: 2.212 (Simulation time: 00 hr 12 min 38 sec)
Heartbeat CPU 0 instructions: 160000593 cycles: 60914528 heartbeat IPC: 2.216 cumulative IPC: 2.212 (Simulation time: 00 hr 12 min 41 sec)
Heartbeat CPU 0 instructions: 160500593 cycles: 61142837 heartbeat IPC: 2.19 cumulative IPC: 2.211 (Simulation time: 00 hr 12 min 44 sec)
Heartbeat CPU 0 instructions: 161000594 cycles: 61371604 heartbeat IPC: 2.186 cumulative IPC: 2.211 (Simulation time: 00 hr 12 min 47 sec)
Heartbeat CPU 0 instructions: 161500594 cycles: 61600444 heartbeat IPC: 2.185 cumulative IPC: 2.211 (Simulation time: 00 hr 12 min 50 sec)
Heartbeat CPU 0 instructions: 162000594 cycles: 61825178 heartbeat IPC: 2.225 cumulative IPC: 2.211 (Simulation time: 00 hr 12 min 53 sec)
Heartbeat CPU 0 instructions: 162500596 cycles: 62051568 heartbeat IPC: 2.209 cumulative IPC: 2.211 (Simulation time: 00 hr 12 min 56 sec)
Heartbeat CPU 0 instructions: 163000597 cycles: 62277088 heartbeat IPC: 2.217 cumulative IPC: 2.211 (Simulation time: 00 hr 12 min 59 sec)
Heartbeat CPU 0 instructions: 163500599 cycles: 62503682 heartbeat IPC: 2.207 cumulative IPC: 2.211 (Simulation time: 00 hr 13 min 02 sec)
Heartbeat CPU 0 instructions: 164000600 cycles: 62729168 heartbeat IPC: 2.217 cumulative IPC: 2.211 (Simulation time: 00 hr 13 min 05 sec)
Heartbeat CPU 0 instructions: 164500602 cycles: 62956557 heartbeat IPC: 2.199 cumulative IPC: 2.211 (Simulation time: 00 hr 13 min 08 sec)
Heartbeat CPU 0 instructions: 165000602 cycles: 63180159 heartbeat IPC: 2.236 cumulative IPC: 2.211 (Simulation time: 00 hr 13 min 10 sec)
Heartbeat CPU 0 instructions: 165500603 cycles: 63404982 heartbeat IPC: 2.224 cumulative IPC: 2.211 (Simulation time: 00 hr 13 min 13 sec)
Heartbeat CPU 0 instructions: 166000605 cycles: 63630260 heartbeat IPC: 2.219 cumulative IPC: 2.211 (Simulation time: 00 hr 13 min 16 sec)
Heartbeat CPU 0 instructions: 166500605 cycles: 63853363 heartbeat IPC: 2.241 cumulative IPC: 2.212 (Simulation time: 00 hr 13 min 19 sec)
Heartbeat CPU 0 instructions: 167000605 cycles: 64076248 heartbeat IPC: 2.243 cumulative IPC: 2.212 (Simulation time: 00 hr 13 min 22 sec)
Heartbeat CPU 0 instructions: 167500605 cycles: 64299180 heartbeat IPC: 2.243 cumulative IPC: 2.212 (Simulation time: 00 hr 13 min 25 sec)
Heartbeat CPU 0 instructions: 168000606 cycles: 64523610 heartbeat IPC: 2.228 cumulative IPC: 2.212 (Simulation time: 00 hr 13 min 28 sec)
Heartbeat CPU 0 instructions: 168500607 cycles: 64747463 heartbeat IPC: 2.234 cumulative IPC: 2.212 (Simulation time: 00 hr 13 min 31 sec)
Heartbeat CPU 0 instructions: 169000609 cycles: 64971324 heartbeat IPC: 2.234 cumulative IPC: 2.212 (Simulation time: 00 hr 13 min 33 sec)
Heartbeat CPU 0 instructions: 169500610 cycles: 65194609 heartbeat IPC: 2.239 cumulative IPC: 2.212 (Simulation time: 00 hr 13 min 36 sec)
Heartbeat CPU 0 instructions: 170000611 cycles: 65417224 heartbeat IPC: 2.246 cumulative IPC: 2.212 (Simulation time: 00 hr 13 min 39 sec)
Heartbeat CPU 0 instructions: 170500611 cycles: 65642223 heartbeat IPC: 2.222 cumulative IPC: 2.212 (Simulation time: 00 hr 13 min 42 sec)
Heartbeat CPU 0 instructions: 171000612 cycles: 65867759 heartbeat IPC: 2.217 cumulative IPC: 2.212 (Simulation time: 00 hr 13 min 45 sec)
Heartbeat CPU 0 instructions: 171500612 cycles: 66095049 heartbeat IPC: 2.2 cumulative IPC: 2.212 (Simulation time: 00 hr 13 min 48 sec)
Heartbeat CPU 0 instructions: 172000612 cycles: 66323302 heartbeat IPC: 2.191 cumulative IPC: 2.212 (Simulation time: 00 hr 13 min 51 sec)
Heartbeat CPU 0 instructions: 172500614 cycles: 66552462 heartbeat IPC: 2.182 cumulative IPC: 2.212 (Simulation time: 00 hr 13 min 54 sec)
Heartbeat CPU 0 instructions: 173000614 cycles: 66781472 heartbeat IPC: 2.183 cumulative IPC: 2.212 (Simulation time: 00 hr 13 min 57 sec)
Heartbeat CPU 0 instructions: 173500615 cycles: 67012641 heartbeat IPC: 2.163 cumulative IPC: 2.212 (Simulation time: 00 hr 14 min 00 sec)
Heartbeat CPU 0 instructions: 174000617 cycles: 67243979 heartbeat IPC: 2.161 cumulative IPC: 2.212 (Simulation time: 00 hr 14 min 03 sec)
Heartbeat CPU 0 instructions: 174500618 cycles: 67474923 heartbeat IPC: 2.165 cumulative IPC: 2.211 (Simulation time: 00 hr 14 min 06 sec)
Heartbeat CPU 0 instructions: 175000618 cycles: 67702594 heartbeat IPC: 2.196 cumulative IPC: 2.211 (Simulation time: 00 hr 14 min 09 sec)
Heartbeat CPU 0 instructions: 175500618 cycles: 67928916 heartbeat IPC: 2.209 cumulative IPC: 2.211 (Simulation time: 00 hr 14 min 12 sec)
Heartbeat CPU 0 instructions: 176000618 cycles: 68154122 heartbeat IPC: 2.22 cumulative IPC: 2.211 (Simulation time: 00 hr 14 min 15 sec)
Heartbeat CPU 0 instructions: 176500618 cycles: 68378790 heartbeat IPC: 2.226 cumulative IPC: 2.211 (Simulation time: 00 hr 14 min 17 sec)
Heartbeat CPU 0 instructions: 177000619 cycles: 68604587 heartbeat IPC: 2.214 cumulative IPC: 2.211 (Simulation time: 00 hr 14 min 20 sec)
Heartbeat CPU 0 instructions: 177500620 cycles: 68833499 heartbeat IPC: 2.184 cumulative IPC: 2.211 (Simulation time: 00 hr 14 min 23 sec)
Heartbeat CPU 0 instructions: 178000622 cycles: 69062244 heartbeat IPC: 2.186 cumulative IPC: 2.211 (Simulation time: 00 hr 14 min 26 sec)
Heartbeat CPU 0 instructions: 178500624 cycles: 69288613 heartbeat IPC: 2.209 cumulative IPC: 2.211 (Simulation time: 00 hr 14 min 29 sec)
Heartbeat CPU 0 instructions: 179000624 cycles: 69515794 heartbeat IPC: 2.201 cumulative IPC: 2.211 (Simulation time: 00 hr 14 min 32 sec)
Heartbeat CPU 0 instructions: 179500624 cycles: 69742685 heartbeat IPC: 2.204 cumulative IPC: 2.211 (Simulation time: 00 hr 14 min 35 sec)
Heartbeat CPU 0 instructions: 180000625 cycles: 69969019 heartbeat IPC: 2.209 cumulative IPC: 2.211 (Simulation time: 00 hr 14 min 38 sec)
Heartbeat CPU 0 instructions: 180500627 cycles: 70196526 heartbeat IPC: 2.198 cumulative IPC: 2.211 (Simulation time: 00 hr 14 min 41 sec)
Heartbeat CPU 0 instructions: 181000628 cycles: 70425293 heartbeat IPC: 2.186 cumulative IPC: 2.211 (Simulation time: 00 hr 14 min 44 sec)
Heartbeat CPU 0 instructions: 181500630 cycles: 70653667 heartbeat IPC: 2.189 cumulative IPC: 2.211 (Simulation time: 00 hr 14 min 47 sec)
Heartbeat CPU 0 instructions: 182000631 cycles: 70877737 heartbeat IPC: 2.231 cumulative IPC: 2.211 (Simulation time: 00 hr 14 min 50 sec)
Heartbeat CPU 0 instructions: 182500631 cycles: 71102426 heartbeat IPC: 2.225 cumulative IPC: 2.211 (Simulation time: 00 hr 14 min 52 sec)
Heartbeat CPU 0 instructions: 183000631 cycles: 71327393 heartbeat IPC: 2.223 cumulative IPC: 2.211 (Simulation time: 00 hr 14 min 55 sec)
Heartbeat CPU 0 instructions: 183500631 cycles: 71553656 heartbeat IPC: 2.21 cumulative IPC: 2.211 (Simulation time: 00 hr 14 min 58 sec)
Heartbeat CPU 0 instructions: 184000631 cycles: 71781115 heartbeat IPC: 2.198 cumulative IPC: 2.211 (Simulation time: 00 hr 15 min 01 sec)
Heartbeat CPU 0 instructions: 184500631 cycles: 72007059 heartbeat IPC: 2.213 cumulative IPC: 2.211 (Simulation time: 00 hr 15 min 04 sec)
Heartbeat CPU 0 instructions: 185000631 cycles: 72231543 heartbeat IPC: 2.227 cumulative IPC: 2.211 (Simulation time: 00 hr 15 min 07 sec)
Heartbeat CPU 0 instructions: 185500631 cycles: 72457255 heartbeat IPC: 2.215 cumulative IPC: 2.211 (Simulation time: 00 hr 15 min 10 sec)
Heartbeat CPU 0 instructions: 186000631 cycles: 72682366 heartbeat IPC: 2.221 cumulative IPC: 2.211 (Simulation time: 00 hr 15 min 13 sec)
Heartbeat CPU 0 instructions: 186500633 cycles: 72908106 heartbeat IPC: 2.215 cumulative IPC: 2.211 (Simulation time: 00 hr 15 min 16 sec)
Heartbeat CPU 0 instructions: 187000633 cycles: 73136014 heartbeat IPC: 2.194 cumulative IPC: 2.211 (Simulation time: 00 hr 15 min 19 sec)
Heartbeat CPU 0 instructions: 187500634 cycles: 73364100 heartbeat IPC: 2.192 cumulative IPC: 2.211 (Simulation time: 00 hr 15 min 22 sec)
Heartbeat CPU 0 instructions: 188000636 cycles: 73593346 heartbeat IPC: 2.181 cumulative IPC: 2.211 (Simulation time: 00 hr 15 min 25 sec)
Heartbeat CPU 0 instructions: 188500636 cycles: 73823588 heartbeat IPC: 2.172 cumulative IPC: 2.211 (Simulation time: 00 hr 15 min 28 sec)
Heartbeat CPU 0 instructions: 189000636 cycles: 74049635 heartbeat IPC: 2.212 cumulative IPC: 2.211 (Simulation time: 00 hr 15 min 31 sec)
Heartbeat CPU 0 instructions: 189500637 cycles: 74274761 heartbeat IPC: 2.221 cumulative IPC: 2.211 (Simulation time: 00 hr 15 min 33 sec)
Heartbeat CPU 0 instructions: 190000639 cycles: 74500316 heartbeat IPC: 2.217 cumulative IPC: 2.211 (Simulation time: 00 hr 15 min 36 sec)
Heartbeat CPU 0 instructions: 190500641 cycles: 74724952 heartbeat IPC: 2.226 cumulative IPC: 2.211 (Simulation time: 00 hr 15 min 39 sec)
Heartbeat CPU 0 instructions: 191000641 cycles: 74950440 heartbeat IPC: 2.217 cumulative IPC: 2.211 (Simulation time: 00 hr 15 min 42 sec)
Heartbeat CPU 0 instructions: 191500641 cycles: 75179343 heartbeat IPC: 2.184 cumulative IPC: 2.211 (Simulation time: 00 hr 15 min 45 sec)
Heartbeat CPU 0 instructions: 192000642 cycles: 75404433 heartbeat IPC: 2.221 cumulative IPC: 2.211 (Simulation time: 00 hr 15 min 48 sec)
Heartbeat CPU 0 instructions: 192500644 cycles: 75630568 heartbeat IPC: 2.211 cumulative IPC: 2.211 (Simulation time: 00 hr 15 min 51 sec)
Heartbeat CPU 0 instructions: 193000645 cycles: 75856146 heartbeat IPC: 2.217 cumulative IPC: 2.211 (Simulation time: 00 hr 15 min 54 sec)
Heartbeat CPU 0 instructions: 193500646 cycles: 76081556 heartbeat IPC: 2.218 cumulative IPC: 2.211 (Simulation time: 00 hr 15 min 57 sec)
Heartbeat CPU 0 instructions: 194000648 cycles: 76308686 heartbeat IPC: 2.201 cumulative IPC: 2.211 (Simulation time: 00 hr 16 min 00 sec)
Heartbeat CPU 0 instructions: 194500648 cycles: 76535166 heartbeat IPC: 2.208 cumulative IPC: 2.211 (Simulation time: 00 hr 16 min 03 sec)
Heartbeat CPU 0 instructions: 195000649 cycles: 76762971 heartbeat IPC: 2.195 cumulative IPC: 2.211 (Simulation time: 00 hr 16 min 06 sec)
Heartbeat CPU 0 instructions: 195500651 cycles: 76991819 heartbeat IPC: 2.185 cumulative IPC: 2.211 (Simulation time: 00 hr 16 min 09 sec)
Heartbeat CPU 0 instructions: 196000652 cycles: 77218950 heartbeat IPC: 2.201 cumulative IPC: 2.211 (Simulation time: 00 hr 16 min 11 sec)
Heartbeat CPU 0 instructions: 196500652 cycles: 77442176 heartbeat IPC: 2.24 cumulative IPC: 2.211 (Simulation time: 00 hr 16 min 14 sec)
Heartbeat CPU 0 instructions: 197000653 cycles: 77668259 heartbeat IPC: 2.212 cumulative IPC: 2.211 (Simulation time: 00 hr 16 min 17 sec)
Heartbeat CPU 0 instructions: 197500654 cycles: 77893736 heartbeat IPC: 2.218 cumulative IPC: 2.211 (Simulation time: 00 hr 16 min 20 sec)
Heartbeat CPU 0 instructions: 198000655 cycles: 78119736 heartbeat IPC: 2.212 cumulative IPC: 2.211 (Simulation time: 00 hr 16 min 23 sec)
Heartbeat CPU 0 instructions: 198500656 cycles: 78348704 heartbeat IPC: 2.184 cumulative IPC: 2.211 (Simulation time: 00 hr 16 min 26 sec)
Heartbeat CPU 0 instructions: 199000656 cycles: 78575411 heartbeat IPC: 2.205 cumulative IPC: 2.211 (Simulation time: 00 hr 16 min 29 sec)
Heartbeat CPU 0 instructions: 199500656 cycles: 78800016 heartbeat IPC: 2.226 cumulative IPC: 2.211 (Simulation time: 00 hr 16 min 32 sec)
Heartbeat CPU 0 instructions: 200000657 cycles: 79025787 heartbeat IPC: 2.215 cumulative IPC: 2.211 (Simulation time: 00 hr 16 min 35 sec)
Heartbeat CPU 0 instructions: 200500659 cycles: 79250502 heartbeat IPC: 2.225 cumulative IPC: 2.211 (Simulation time: 00 hr 16 min 38 sec)
Heartbeat CPU 0 instructions: 201000660 cycles: 79477029 heartbeat IPC: 2.207 cumulative IPC: 2.211 (Simulation time: 00 hr 16 min 41 sec)
Heartbeat CPU 0 instructions: 201500661 cycles: 79703893 heartbeat IPC: 2.204 cumulative IPC: 2.211 (Simulation time: 00 hr 16 min 44 sec)
Heartbeat CPU 0 instructions: 202000662 cycles: 79931277 heartbeat IPC: 2.199 cumulative IPC: 2.211 (Simulation time: 00 hr 16 min 47 sec)
Heartbeat CPU 0 instructions: 202500662 cycles: 80160531 heartbeat IPC: 2.181 cumulative IPC: 2.211 (Simulation time: 00 hr 16 min 50 sec)
Heartbeat CPU 0 instructions: 203000662 cycles: 80391165 heartbeat IPC: 2.168 cumulative IPC: 2.21 (Simulation time: 00 hr 16 min 53 sec)
Heartbeat CPU 0 instructions: 203500662 cycles: 80616501 heartbeat IPC: 2.219 cumulative IPC: 2.211 (Simulation time: 00 hr 16 min 56 sec)
Heartbeat CPU 0 instructions: 204000663 cycles: 80841192 heartbeat IPC: 2.225 cumulative IPC: 2.211 (Simulation time: 00 hr 16 min 59 sec)
Heartbeat CPU 0 instructions: 204500664 cycles: 81066762 heartbeat IPC: 2.217 cumulative IPC: 2.211 (Simulation time: 00 hr 17 min 01 sec)
Heartbeat CPU 0 instructions: 205000665 cycles: 81292300 heartbeat IPC: 2.217 cumulative IPC: 2.211 (Simulation time: 00 hr 17 min 04 sec)
Heartbeat CPU 0 instructions: 205500666 cycles: 81518929 heartbeat IPC: 2.206 cumulative IPC: 2.211 (Simulation time: 00 hr 17 min 07 sec)
Heartbeat CPU 0 instructions: 206000668 cycles: 81747020 heartbeat IPC: 2.192 cumulative IPC: 2.211 (Simulation time: 00 hr 17 min 10 sec)
Heartbeat CPU 0 instructions: 206500669 cycles: 81973210 heartbeat IPC: 2.211 cumulative IPC: 2.211 (Simulation time: 00 hr 17 min 13 sec)
Heartbeat CPU 0 instructions: 207000670 cycles: 82199010 heartbeat IPC: 2.214 cumulative IPC: 2.211 (Simulation time: 00 hr 17 min 16 sec)
Heartbeat CPU 0 instructions: 207500672 cycles: 82423967 heartbeat IPC: 2.223 cumulative IPC: 2.211 (Simulation time: 00 hr 17 min 19 sec)
Heartbeat CPU 0 instructions: 208000672 cycles: 82649211 heartbeat IPC: 2.22 cumulative IPC: 2.211 (Simulation time: 00 hr 17 min 22 sec)
Heartbeat CPU 0 instructions: 208500674 cycles: 82874981 heartbeat IPC: 2.215 cumulative IPC: 2.211 (Simulation time: 00 hr 17 min 25 sec)
Heartbeat CPU 0 instructions: 209000676 cycles: 83098406 heartbeat IPC: 2.238 cumulative IPC: 2.211 (Simulation time: 00 hr 17 min 28 sec)
Heartbeat CPU 0 instructions: 209500676 cycles: 83322938 heartbeat IPC: 2.227 cumulative IPC: 2.211 (Simulation time: 00 hr 17 min 31 sec)
Heartbeat CPU 0 instructions: 210000678 cycles: 83548003 heartbeat IPC: 2.222 cumulative IPC: 2.211 (Simulation time: 00 hr 17 min 34 sec)
Heartbeat CPU 0 instructions: 210500678 cycles: 83771629 heartbeat IPC: 2.236 cumulative IPC: 2.211 (Simulation time: 00 hr 17 min 37 sec)
Heartbeat CPU 0 instructions: 211000678 cycles: 83997657 heartbeat IPC: 2.212 cumulative IPC: 2.211 (Simulation time: 00 hr 17 min 39 sec)
Heartbeat CPU 0 instructions: 211500679 cycles: 84223756 heartbeat IPC: 2.211 cumulative IPC: 2.211 (Simulation time: 00 hr 17 min 42 sec)
Heartbeat CPU 0 instructions: 212000681 cycles: 84447302 heartbeat IPC: 2.237 cumulative IPC: 2.211 (Simulation time: 00 hr 17 min 45 sec)
Heartbeat CPU 0 instructions: 212500682 cycles: 84671593 heartbeat IPC: 2.229 cumulative IPC: 2.211 (Simulation time: 00 hr 17 min 48 sec)
Heartbeat CPU 0 instructions: 213000683 cycles: 84896164 heartbeat IPC: 2.226 cumulative IPC: 2.211 (Simulation time: 00 hr 17 min 51 sec)
Heartbeat CPU 0 instructions: 213500685 cycles: 85120041 heartbeat IPC: 2.233 cumulative IPC: 2.211 (Simulation time: 00 hr 17 min 54 sec)
Heartbeat CPU 0 instructions: 214000686 cycles: 85346414 heartbeat IPC: 2.209 cumulative IPC: 2.211 (Simulation time: 00 hr 17 min 57 sec)
Heartbeat CPU 0 instructions: 214500687 cycles: 85573739 heartbeat IPC: 2.199 cumulative IPC: 2.211 (Simulation time: 00 hr 18 min 00 sec)
Heartbeat CPU 0 instructions: 215000689 cycles: 85802609 heartbeat IPC: 2.185 cumulative IPC: 2.211 (Simulation time: 00 hr 18 min 03 sec)
Heartbeat CPU 0 instructions: 215500690 cycles: 86033684 heartbeat IPC: 2.164 cumulative IPC: 2.211 (Simulation time: 00 hr 18 min 06 sec)
Heartbeat CPU 0 instructions: 216000691 cycles: 86262943 heartbeat IPC: 2.181 cumulative IPC: 2.211 (Simulation time: 00 hr 18 min 09 sec)
Heartbeat CPU 0 instructions: 216500693 cycles: 86495276 heartbeat IPC: 2.152 cumulative IPC: 2.211 (Simulation time: 00 hr 18 min 12 sec)
Heartbeat CPU 0 instructions: 217000695 cycles: 86720276 heartbeat IPC: 2.222 cumulative IPC: 2.211 (Simulation time: 00 hr 18 min 15 sec)
Heartbeat CPU 0 instructions: 217500695 cycles: 86946363 heartbeat IPC: 2.212 cumulative IPC: 2.211 (Simulation time: 00 hr 18 min 18 sec)
Heartbeat CPU 0 instructions: 218000697 cycles: 87171499 heartbeat IPC: 2.221 cumulative IPC: 2.211 (Simulation time: 00 hr 18 min 20 sec)
Heartbeat CPU 0 instructions: 218500697 cycles: 87398553 heartbeat IPC: 2.202 cumulative IPC: 2.211 (Simulation time: 00 hr 18 min 23 sec)
Heartbeat CPU 0 instructions: 219000697 cycles: 87624744 heartbeat IPC: 2.211 cumulative IPC: 2.211 (Simulation time: 00 hr 18 min 26 sec)
Heartbeat CPU 0 instructions: 219500697 cycles: 87854059 heartbeat IPC: 2.18 cumulative IPC: 2.211 (Simulation time: 00 hr 18 min 29 sec)
Heartbeat CPU 0 instructions: 220000698 cycles: 88080031 heartbeat IPC: 2.213 cumulative IPC: 2.211 (Simulation time: 00 hr 18 min 32 sec)
Heartbeat CPU 0 instructions: 220500699 cycles: 88306044 heartbeat IPC: 2.212 cumulative IPC: 2.211 (Simulation time: 00 hr 18 min 35 sec)
Heartbeat CPU 0 instructions: 221000701 cycles: 88532480 heartbeat IPC: 2.208 cumulative IPC: 2.211 (Simulation time: 00 hr 18 min 38 sec)
Heartbeat CPU 0 instructions: 221500702 cycles: 88758549 heartbeat IPC: 2.212 cumulative IPC: 2.211 (Simulation time: 00 hr 18 min 41 sec)
Heartbeat CPU 0 instructions: 222000703 cycles: 88985451 heartbeat IPC: 2.204 cumulative IPC: 2.211 (Simulation time: 00 hr 18 min 44 sec)
Heartbeat CPU 0 instructions: 222500703 cycles: 89212181 heartbeat IPC: 2.205 cumulative IPC: 2.21 (Simulation time: 00 hr 18 min 47 sec)
Heartbeat CPU 0 instructions: 223000705 cycles: 89439343 heartbeat IPC: 2.201 cumulative IPC: 2.21 (Simulation time: 00 hr 18 min 49 sec)
Heartbeat CPU 0 instructions: 223500706 cycles: 89670517 heartbeat IPC: 2.163 cumulative IPC: 2.21 (Simulation time: 00 hr 18 min 52 sec)
Heartbeat CPU 0 instructions: 224000706 cycles: 89901490 heartbeat IPC: 2.165 cumulative IPC: 2.21 (Simulation time: 00 hr 18 min 55 sec)
Heartbeat CPU 0 instructions: 224500706 cycles: 90133598 heartbeat IPC: 2.154 cumulative IPC: 2.21 (Simulation time: 00 hr 18 min 58 sec)
Heartbeat CPU 0 instructions: 225000706 cycles: 90362667 heartbeat IPC: 2.183 cumulative IPC: 2.21 (Simulation time: 00 hr 19 min 01 sec)
Heartbeat CPU 0 instructions: 225500706 cycles: 90595283 heartbeat IPC: 2.149 cumulative IPC: 2.21 (Simulation time: 00 hr 19 min 04 sec)
Heartbeat CPU 0 instructions: 226000708 cycles: 90819609 heartbeat IPC: 2.229 cumulative IPC: 2.21 (Simulation time: 00 hr 19 min 07 sec)
Heartbeat CPU 0 instructions: 226500708 cycles: 91044958 heartbeat IPC: 2.219 cumulative IPC: 2.21 (Simulation time: 00 hr 19 min 10 sec)
Heartbeat CPU 0 instructions: 227000709 cycles: 91270932 heartbeat IPC: 2.213 cumulative IPC: 2.21 (Simulation time: 00 hr 19 min 13 sec)
Heartbeat CPU 0 instructions: 227500709 cycles: 91496713 heartbeat IPC: 2.215 cumulative IPC: 2.21 (Simulation time: 00 hr 19 min 16 sec)
Heartbeat CPU 0 instructions: 228000710 cycles: 91724707 heartbeat IPC: 2.193 cumulative IPC: 2.21 (Simulation time: 00 hr 19 min 19 sec)
Heartbeat CPU 0 instructions: 228500710 cycles: 91955680 heartbeat IPC: 2.165 cumulative IPC: 2.21 (Simulation time: 00 hr 19 min 22 sec)
Heartbeat CPU 0 instructions: 229000711 cycles: 92182878 heartbeat IPC: 2.201 cumulative IPC: 2.21 (Simulation time: 00 hr 19 min 25 sec)
Heartbeat CPU 0 instructions: 229500712 cycles: 92409422 heartbeat IPC: 2.207 cumulative IPC: 2.21 (Simulation time: 00 hr 19 min 27 sec)
Heartbeat CPU 0 instructions: 230000712 cycles: 92631845 heartbeat IPC: 2.248 cumulative IPC: 2.21 (Simulation time: 00 hr 19 min 30 sec)
Heartbeat CPU 0 instructions: 230500713 cycles: 92854613 heartbeat IPC: 2.244 cumulative IPC: 2.21 (Simulation time: 00 hr 19 min 33 sec)
Heartbeat CPU 0 instructions: 231000713 cycles: 93077230 heartbeat IPC: 2.246 cumulative IPC: 2.21 (Simulation time: 00 hr 19 min 36 sec)
Heartbeat CPU 0 instructions: 231500713 cycles: 93300777 heartbeat IPC: 2.237 cumulative IPC: 2.21 (Simulation time: 00 hr 19 min 39 sec)
Heartbeat CPU 0 instructions: 232000714 cycles: 93525715 heartbeat IPC: 2.223 cumulative IPC: 2.21 (Simulation time: 00 hr 19 min 42 sec)
Heartbeat CPU 0 instructions: 232500715 cycles: 93748807 heartbeat IPC: 2.241 cumulative IPC: 2.21 (Simulation time: 00 hr 19 min 44 sec)
Heartbeat CPU 0 instructions: 233000717 cycles: 93971264 heartbeat IPC: 2.248 cumulative IPC: 2.21 (Simulation time: 00 hr 19 min 47 sec)
Heartbeat CPU 0 instructions: 233500717 cycles: 94194426 heartbeat IPC: 2.241 cumulative IPC: 2.21 (Simulation time: 00 hr 19 min 50 sec)
Heartbeat CPU 0 instructions: 234000717 cycles: 94418915 heartbeat IPC: 2.227 cumulative IPC: 2.21 (Simulation time: 00 hr 19 min 53 sec)
Heartbeat CPU 0 instructions: 234500718 cycles: 94642071 heartbeat IPC: 2.241 cumulative IPC: 2.21 (Simulation time: 00 hr 19 min 56 sec)
Heartbeat CPU 0 instructions: 235000719 cycles: 94865277 heartbeat IPC: 2.24 cumulative IPC: 2.211 (Simulation time: 00 hr 19 min 59 sec)
Heartbeat CPU 0 instructions: 235500719 cycles: 95090300 heartbeat IPC: 2.222 cumulative IPC: 2.211 (Simulation time: 00 hr 20 min 02 sec)
Heartbeat CPU 0 instructions: 236000719 cycles: 95315845 heartbeat IPC: 2.217 cumulative IPC: 2.211 (Simulation time: 00 hr 20 min 04 sec)
Heartbeat CPU 0 instructions: 236500721 cycles: 95540133 heartbeat IPC: 2.229 cumulative IPC: 2.211 (Simulation time: 00 hr 20 min 07 sec)
Heartbeat CPU 0 instructions: 237000722 cycles: 95762988 heartbeat IPC: 2.244 cumulative IPC: 2.211 (Simulation time: 00 hr 20 min 10 sec)
Heartbeat CPU 0 instructions: 237500724 cycles: 95985994 heartbeat IPC: 2.242 cumulative IPC: 2.211 (Simulation time: 00 hr 20 min 13 sec)
Heartbeat CPU 0 instructions: 238000725 cycles: 96210757 heartbeat IPC: 2.225 cumulative IPC: 2.211 (Simulation time: 00 hr 20 min 16 sec)
Heartbeat CPU 0 instructions: 238500725 cycles: 96435881 heartbeat IPC: 2.221 cumulative IPC: 2.211 (Simulation time: 00 hr 20 min 19 sec)
Heartbeat CPU 0 instructions: 239000725 cycles: 96664385 heartbeat IPC: 2.188 cumulative IPC: 2.211 (Simulation time: 00 hr 20 min 22 sec)
Heartbeat CPU 0 instructions: 239500725 cycles: 96892324 heartbeat IPC: 2.194 cumulative IPC: 2.211 (Simulation time: 00 hr 20 min 24 sec)
Heartbeat CPU 0 instructions: 240000727 cycles: 97121192 heartbeat IPC: 2.185 cumulative IPC: 2.211 (Simulation time: 00 hr 20 min 27 sec)
Heartbeat CPU 0 instructions: 240500728 cycles: 97351609 heartbeat IPC: 2.17 cumulative IPC: 2.211 (Simulation time: 00 hr 20 min 30 sec)
Heartbeat CPU 0 instructions: 241000730 cycles: 97582481 heartbeat IPC: 2.166 cumulative IPC: 2.21 (Simulation time: 00 hr 20 min 33 sec)
Heartbeat CPU 0 instructions: 241500730 cycles: 97812754 heartbeat IPC: 2.171 cumulative IPC: 2.21 (Simulation time: 00 hr 20 min 36 sec)
Heartbeat CPU 0 instructions: 242000731 cycles: 98043392 heartbeat IPC: 2.168 cumulative IPC: 2.21 (Simulation time: 00 hr 20 min 39 sec)
Heartbeat CPU 0 instructions: 242500733 cycles: 98274478 heartbeat IPC: 2.164 cumulative IPC: 2.21 (Simulation time: 00 hr 20 min 42 sec)
Heartbeat CPU 0 instructions: 243000734 cycles: 98500345 heartbeat IPC: 2.214 cumulative IPC: 2.21 (Simulation time: 00 hr 20 min 45 sec)
Heartbeat CPU 0 instructions: 243500734 cycles: 98726440 heartbeat IPC: 2.211 cumulative IPC: 2.21 (Simulation time: 00 hr 20 min 48 sec)
Heartbeat CPU 0 instructions: 244000735 cycles: 98951416 heartbeat IPC: 2.222 cumulative IPC: 2.21 (Simulation time: 00 hr 20 min 50 sec)
Heartbeat CPU 0 instructions: 244500735 cycles: 99177197 heartbeat IPC: 2.215 cumulative IPC: 2.21 (Simulation time: 00 hr 20 min 53 sec)
Heartbeat CPU 0 instructions: 245000736 cycles: 99403365 heartbeat IPC: 2.211 cumulative IPC: 2.21 (Simulation time: 00 hr 20 min 56 sec)
Heartbeat CPU 0 instructions: 245500736 cycles: 99634119 heartbeat IPC: 2.167 cumulative IPC: 2.21 (Simulation time: 00 hr 20 min 59 sec)
Heartbeat CPU 0 instructions: 246000736 cycles: 99861788 heartbeat IPC: 2.196 cumulative IPC: 2.21 (Simulation time: 00 hr 21 min 02 sec)
Heartbeat CPU 0 instructions: 246500736 cycles: 100088709 heartbeat IPC: 2.203 cumulative IPC: 2.21 (Simulation time: 00 hr 21 min 05 sec)
Heartbeat CPU 0 instructions: 247000736 cycles: 100313604 heartbeat IPC: 2.223 cumulative IPC: 2.21 (Simulation time: 00 hr 21 min 08 sec)
Heartbeat CPU 0 instructions: 247500736 cycles: 100540573 heartbeat IPC: 2.203 cumulative IPC: 2.21 (Simulation time: 00 hr 21 min 11 sec)
Heartbeat CPU 0 instructions: 248000737 cycles: 100769074 heartbeat IPC: 2.188 cumulative IPC: 2.21 (Simulation time: 00 hr 21 min 13 sec)
Heartbeat CPU 0 instructions: 248500739 cycles: 100996517 heartbeat IPC: 2.198 cumulative IPC: 2.21 (Simulation time: 00 hr 21 min 16 sec)
Heartbeat CPU 0 instructions: 249000739 cycles: 101225464 heartbeat IPC: 2.184 cumulative IPC: 2.21 (Simulation time: 00 hr 21 min 19 sec)
Heartbeat CPU 0 instructions: 249500740 cycles: 101456419 heartbeat IPC: 2.165 cumulative IPC: 2.21 (Simulation time: 00 hr 21 min 22 sec)
Simulation finished CPU 0 instructions: 200000002 cycles: 90512329 cumulative IPC: 2.21 (Simulation time: 00 hr 21 min 25 sec)
Simulation complete CPU 0 instructions: 200000002 cycles: 90512329 cumulative IPC: 2.21 (Simulation time: 00 hr 21 min 25 sec)

ChampSim completed all CPUs

=== Simulation ===
CPU 0 runs /local-ssd/ben/dpc4-traces/Graph/GMS/gms.maximal_clique_enum_bron_kerbosch.soc-pokec-relationships.slice-3852.champsimtrace.gz

Region of Interest Statistics

CPU 0 cumulative IPC: 2.21 instructions: 200000002 cycles: 90512329
CPU 0 Branch Prediction Accuracy: 100% MPKI: 0.002385 Average ROB Occupancy at Mispredict: 510.4
Branch type MPKI
BRANCH_DIRECT_JUMP: 0
BRANCH_INDIRECT: 0
BRANCH_CONDITIONAL: 0.002385
BRANCH_DIRECT_CALL: 0
BRANCH_INDIRECT_CALL: 0
BRANCH_RETURN: 0

cpu0->cpu0_STLB TOTAL        ACCESS:      21866 HIT:      21865 MISS:          1 MSHR_MERGE:          0
cpu0->cpu0_STLB LOAD         ACCESS:      21866 HIT:      21865 MISS:          1 MSHR_MERGE:          0
cpu0->cpu0_STLB RFO          ACCESS:          0 HIT:          0 MISS:          0 MSHR_MERGE:          0
cpu0->cpu0_STLB PREFETCH     ACCESS:          0 HIT:          0 MISS:          0 MSHR_MERGE:          0
cpu0->cpu0_STLB WRITE        ACCESS:          0 HIT:          0 MISS:          0 MSHR_MERGE:          0
cpu0->cpu0_STLB TRANSLATION  ACCESS:          0 HIT:          0 MISS:          0 MSHR_MERGE:          0
cpu0->cpu0_STLB PREFETCH REQUESTED:          0 ISSUED:          0 USEFUL:          0 USELESS:          0
cpu0->cpu0_STLB AVERAGE MISS LATENCY: 388 cycles
cpu0->cpu0_L2C TOTAL        ACCESS:    8530152 HIT:    7287795 MISS:    1242357 MSHR_MERGE:      57501
cpu0->cpu0_L2C LOAD         ACCESS:    1389085 HIT:    1356614 MISS:      32471 MSHR_MERGE:      13664
cpu0->cpu0_L2C RFO          ACCESS:          0 HIT:          0 MISS:          0 MSHR_MERGE:          0
cpu0->cpu0_L2C PREFETCH     ACCESS:    7141006 HIT:    5931121 MISS:    1209885 MSHR_MERGE:      43837
cpu0->cpu0_L2C WRITE        ACCESS:         60 HIT:         60 MISS:          0 MSHR_MERGE:          0
cpu0->cpu0_L2C TRANSLATION  ACCESS:          1 HIT:          0 MISS:          1 MSHR_MERGE:          0
cpu0->cpu0_L2C PREFETCH REQUESTED:    7141006 ISSUED:    7141006 USEFUL:    1165808 USELESS:        246
cpu0->cpu0_L2C AVERAGE MISS LATENCY: 120.8 cycles
cpu0->cpu0_L1I TOTAL        ACCESS:   44338364 HIT:   44338364 MISS:          0 MSHR_MERGE:          0
cpu0->cpu0_L1I LOAD         ACCESS:   44338364 HIT:   44338364 MISS:          0 MSHR_MERGE:          0
cpu0->cpu0_L1I RFO          ACCESS:          0 HIT:          0 MISS:          0 MSHR_MERGE:          0
cpu0->cpu0_L1I PREFETCH     ACCESS:          0 HIT:          0 MISS:          0 MSHR_MERGE:          0
cpu0->cpu0_L1I WRITE        ACCESS:          0 HIT:          0 MISS:          0 MSHR_MERGE:          0
cpu0->cpu0_L1I TRANSLATION  ACCESS:          0 HIT:          0 MISS:          0 MSHR_MERGE:          0
cpu0->cpu0_L1I PREFETCH REQUESTED:          0 ISSUED:          0 USEFUL:          0 USELESS:          0
cpu0->cpu0_L1I AVERAGE MISS LATENCY: - cycles
cpu0->cpu0_L1D TOTAL        ACCESS:   44441438 HIT:   39982764 MISS:    4458674 MSHR_MERGE:    3069588
cpu0->cpu0_L1D LOAD         ACCESS:   44441376 HIT:   39982703 MISS:    4458673 MSHR_MERGE:    3069588
cpu0->cpu0_L1D RFO          ACCESS:          0 HIT:          0 MISS:          0 MSHR_MERGE:          0
cpu0->cpu0_L1D PREFETCH     ACCESS:          0 HIT:          0 MISS:          0 MSHR_MERGE:          0
cpu0->cpu0_L1D WRITE        ACCESS:         60 HIT:         60 MISS:          0 MSHR_MERGE:          0
cpu0->cpu0_L1D TRANSLATION  ACCESS:          2 HIT:          1 MISS:          1 MSHR_MERGE:          0
cpu0->cpu0_L1D PREFETCH REQUESTED:          0 ISSUED:          0 USEFUL:          0 USELESS:          0
cpu0->cpu0_L1D AVERAGE MISS LATENCY: 10.85 cycles
cpu0->cpu0_ITLB TOTAL        ACCESS:   44338364 HIT:   44338364 MISS:          0 MSHR_MERGE:          0
cpu0->cpu0_ITLB LOAD         ACCESS:   44338364 HIT:   44338364 MISS:          0 MSHR_MERGE:          0
cpu0->cpu0_ITLB RFO          ACCESS:          0 HIT:          0 MISS:          0 MSHR_MERGE:          0
cpu0->cpu0_ITLB PREFETCH     ACCESS:          0 HIT:          0 MISS:          0 MSHR_MERGE:          0
cpu0->cpu0_ITLB WRITE        ACCESS:          0 HIT:          0 MISS:          0 MSHR_MERGE:          0
cpu0->cpu0_ITLB TRANSLATION  ACCESS:          0 HIT:          0 MISS:          0 MSHR_MERGE:          0
cpu0->cpu0_ITLB PREFETCH REQUESTED:          0 ISSUED:          0 USEFUL:          0 USELESS:          0
cpu0->cpu0_ITLB AVERAGE MISS LATENCY: - cycles
cpu0->cpu0_DTLB TOTAL        ACCESS:   44441412 HIT:   44397683 MISS:      43729 MSHR_MERGE:      21863
cpu0->cpu0_DTLB LOAD         ACCESS:   44441412 HIT:   44397683 MISS:      43729 MSHR_MERGE:      21863
cpu0->cpu0_DTLB RFO          ACCESS:          0 HIT:          0 MISS:          0 MSHR_MERGE:          0
cpu0->cpu0_DTLB PREFETCH     ACCESS:          0 HIT:          0 MISS:          0 MSHR_MERGE:          0
cpu0->cpu0_DTLB WRITE        ACCESS:          0 HIT:          0 MISS:          0 MSHR_MERGE:          0
cpu0->cpu0_DTLB TRANSLATION  ACCESS:          0 HIT:          0 MISS:          0 MSHR_MERGE:          0
cpu0->cpu0_DTLB PREFETCH REQUESTED:          0 ISSUED:          0 USEFUL:          0 USELESS:          0
cpu0->cpu0_DTLB AVERAGE MISS LATENCY: 5.018 cycles
cpu0->LLC TOTAL        ACCESS:    2331079 HIT:    1714272 MISS:     616807 MSHR_MERGE:      35271
cpu0->LLC LOAD         ACCESS:      18807 HIT:      14565 MISS:       4242 MSHR_MERGE:         15
cpu0->LLC RFO          ACCESS:          0 HIT:          0 MISS:          0 MSHR_MERGE:          0
cpu0->LLC PREFETCH     ACCESS:    2312225 HIT:    1699686 MISS:     612539 MSHR_MERGE:      35256
cpu0->LLC WRITE        ACCESS:         46 HIT:         21 MISS:         25 MSHR_MERGE:          0
cpu0->LLC TRANSLATION  ACCESS:          1 HIT:          0 MISS:          1 MSHR_MERGE:          0
cpu0->LLC PREFETCH REQUESTED:    1146315 ISSUED:    1146177 USEFUL:     535364 USELESS:      28278
cpu0->LLC AVERAGE MISS LATENCY: 225.2 cycles

DRAM Statistics

Channel 0 RQ ROW_BUFFER_HIT:     229562
  ROW_BUFFER_MISS:     351949
  AVG DBUS CONGESTED CYCLE: 3.993
Channel 0 WQ ROW_BUFFER_HIT:          0
  ROW_BUFFER_MISS:         29
  FULL:          0
Channel 0 REFRESHES ISSUED:       7542
BERTI Stats...
