[VMEM] WARNING: physical memory size is smaller than virtual memory size.
Berti Gaze Initialized with Sets: 64 Ways: 12

*** ChampSim Multicore Out-of-Order Simulator ***
Warmup Instructions: 50000000
Simulation Instructions: 200000000
Number of CPUs: 1
Page size: 4096
Core 0: /local-ssd/ben/dpc4-traces/Graph/Ligra/ligra_PageRankDelta.com-lj.ungraph.gcc_6.3.0_O3.drop_24000M.length_250M.champsimtrace.xz
Off-chip DRAM Size: 64 GiB Channels: 1 Width: 64-bit Data Rate: 4807 MT/s
Heartbeat CPU 0 instructions: 500003 cycles: 147480 heartbeat IPC: 3.39 cumulative IPC: 3.39 (Simulation time: 00 hr 00 min 02 sec)
Heartbeat CPU 0 instructions: 1000004 cycles: 293292 heartbeat IPC: 3.429 cumulative IPC: 3.41 (Simulation time: 00 hr 00 min 04 sec)
Heartbeat CPU 0 instructions: 1500011 cycles: 439669 heartbeat IPC: 3.416 cumulative IPC: 3.412 (Simulation time: 00 hr 00 min 05 sec)
Heartbeat CPU 0 instructions: 2000016 cycles: 585982 heartbeat IPC: 3.417 cumulative IPC: 3.413 (Simulation time: 00 hr 00 min 07 sec)
Heartbeat CPU 0 instructions: 2500019 cycles: 717193 heartbeat IPC: 3.811 cumulative IPC: 3.486 (Simulation time: 00 hr 00 min 08 sec)
Heartbeat CPU 0 instructions: 3000019 cycles: 819452 heartbeat IPC: 4.89 cumulative IPC: 3.661 (Simulation time: 00 hr 00 min 09 sec)
Heartbeat CPU 0 instructions: 3500021 cycles: 921804 heartbeat IPC: 4.885 cumulative IPC: 3.797 (Simulation time: 00 hr 00 min 11 sec)
Heartbeat CPU 0 instructions: 4000023 cycles: 1024063 heartbeat IPC: 4.89 cumulative IPC: 3.906 (Simulation time: 00 hr 00 min 12 sec)
Heartbeat CPU 0 instructions: 4500023 cycles: 1126321 heartbeat IPC: 4.89 cumulative IPC: 3.995 (Simulation time: 00 hr 00 min 13 sec)
Heartbeat CPU 0 instructions: 5000025 cycles: 1228673 heartbeat IPC: 4.885 cumulative IPC: 4.069 (Simulation time: 00 hr 00 min 14 sec)
Heartbeat CPU 0 instructions: 5500027 cycles: 1330932 heartbeat IPC: 4.89 cumulative IPC: 4.132 (Simulation time: 00 hr 00 min 16 sec)
Heartbeat CPU 0 instructions: 6000027 cycles: 1433284 heartbeat IPC: 4.885 cumulative IPC: 4.186 (Simulation time: 00 hr 00 min 17 sec)
Heartbeat CPU 0 instructions: 6500029 cycles: 1535543 heartbeat IPC: 4.89 cumulative IPC: 4.233 (Simulation time: 00 hr 00 min 18 sec)
Heartbeat CPU 0 instructions: 7000029 cycles: 1637801 heartbeat IPC: 4.89 cumulative IPC: 4.274 (Simulation time: 00 hr 00 min 19 sec)
Heartbeat CPU 0 instructions: 7500031 cycles: 1740153 heartbeat IPC: 4.885 cumulative IPC: 4.31 (Simulation time: 00 hr 00 min 20 sec)
Heartbeat CPU 0 instructions: 8000033 cycles: 1842412 heartbeat IPC: 4.89 cumulative IPC: 4.342 (Simulation time: 00 hr 00 min 22 sec)
Heartbeat CPU 0 instructions: 8500033 cycles: 1944764 heartbeat IPC: 4.885 cumulative IPC: 4.371 (Simulation time: 00 hr 00 min 23 sec)
Heartbeat CPU 0 instructions: 9000035 cycles: 2047023 heartbeat IPC: 4.89 cumulative IPC: 4.397 (Simulation time: 00 hr 00 min 24 sec)
Heartbeat CPU 0 instructions: 9500035 cycles: 2149281 heartbeat IPC: 4.89 cumulative IPC: 4.42 (Simulation time: 00 hr 00 min 25 sec)
Heartbeat CPU 0 instructions: 10000037 cycles: 2251637 heartbeat IPC: 4.885 cumulative IPC: 4.441 (Simulation time: 00 hr 00 min 27 sec)
Heartbeat CPU 0 instructions: 10500039 cycles: 2353895 heartbeat IPC: 4.89 cumulative IPC: 4.461 (Simulation time: 00 hr 00 min 28 sec)
Heartbeat CPU 0 instructions: 11000039 cycles: 2456481 heartbeat IPC: 4.874 cumulative IPC: 4.478 (Simulation time: 00 hr 00 min 29 sec)
Heartbeat CPU 0 instructions: 11500041 cycles: 2558709 heartbeat IPC: 4.891 cumulative IPC: 4.494 (Simulation time: 00 hr 00 min 30 sec)
Heartbeat CPU 0 instructions: 12000041 cycles: 2660968 heartbeat IPC: 4.89 cumulative IPC: 4.51 (Simulation time: 00 hr 00 min 32 sec)
Heartbeat CPU 0 instructions: 12500043 cycles: 2763320 heartbeat IPC: 4.885 cumulative IPC: 4.524 (Simulation time: 00 hr 00 min 33 sec)
Heartbeat CPU 0 instructions: 13000049 cycles: 2865579 heartbeat IPC: 4.89 cumulative IPC: 4.537 (Simulation time: 00 hr 00 min 34 sec)
Heartbeat CPU 0 instructions: 13500051 cycles: 2968018 heartbeat IPC: 4.881 cumulative IPC: 4.549 (Simulation time: 00 hr 00 min 35 sec)
Heartbeat CPU 0 instructions: 14000052 cycles: 3070190 heartbeat IPC: 4.894 cumulative IPC: 4.56 (Simulation time: 00 hr 00 min 36 sec)
Heartbeat CPU 0 instructions: 14500052 cycles: 3172449 heartbeat IPC: 4.89 cumulative IPC: 4.571 (Simulation time: 00 hr 00 min 38 sec)
Heartbeat CPU 0 instructions: 15000054 cycles: 3274801 heartbeat IPC: 4.885 cumulative IPC: 4.58 (Simulation time: 00 hr 00 min 39 sec)
Heartbeat CPU 0 instructions: 15500056 cycles: 3377060 heartbeat IPC: 4.89 cumulative IPC: 4.59 (Simulation time: 00 hr 00 min 40 sec)
Heartbeat CPU 0 instructions: 16000056 cycles: 3479318 heartbeat IPC: 4.89 cumulative IPC: 4.599 (Simulation time: 00 hr 00 min 41 sec)
Heartbeat CPU 0 instructions: 16500058 cycles: 3581670 heartbeat IPC: 4.885 cumulative IPC: 4.607 (Simulation time: 00 hr 00 min 43 sec)
Heartbeat CPU 0 instructions: 17000063 cycles: 3683930 heartbeat IPC: 4.89 cumulative IPC: 4.615 (Simulation time: 00 hr 00 min 44 sec)
Heartbeat CPU 0 instructions: 17500065 cycles: 3786282 heartbeat IPC: 4.885 cumulative IPC: 4.622 (Simulation time: 00 hr 00 min 45 sec)
Heartbeat CPU 0 instructions: 18000067 cycles: 3888541 heartbeat IPC: 4.89 cumulative IPC: 4.629 (Simulation time: 00 hr 00 min 46 sec)
Heartbeat CPU 0 instructions: 18500067 cycles: 3990799 heartbeat IPC: 4.89 cumulative IPC: 4.636 (Simulation time: 00 hr 00 min 47 sec)
Heartbeat CPU 0 instructions: 19000069 cycles: 4093151 heartbeat IPC: 4.885 cumulative IPC: 4.642 (Simulation time: 00 hr 00 min 49 sec)
Heartbeat CPU 0 instructions: 19500071 cycles: 4195410 heartbeat IPC: 4.89 cumulative IPC: 4.648 (Simulation time: 00 hr 00 min 50 sec)
Heartbeat CPU 0 instructions: 20000071 cycles: 4297765 heartbeat IPC: 4.885 cumulative IPC: 4.654 (Simulation time: 00 hr 00 min 51 sec)
Heartbeat CPU 0 instructions: 20500077 cycles: 4400025 heartbeat IPC: 4.89 cumulative IPC: 4.659 (Simulation time: 00 hr 00 min 52 sec)
Heartbeat CPU 0 instructions: 21000078 cycles: 4502284 heartbeat IPC: 4.89 cumulative IPC: 4.664 (Simulation time: 00 hr 00 min 54 sec)
Heartbeat CPU 0 instructions: 21500080 cycles: 4604837 heartbeat IPC: 4.876 cumulative IPC: 4.669 (Simulation time: 00 hr 00 min 55 sec)
Heartbeat CPU 0 instructions: 22000082 cycles: 4707096 heartbeat IPC: 4.89 cumulative IPC: 4.674 (Simulation time: 00 hr 00 min 56 sec)
Heartbeat CPU 0 instructions: 22500082 cycles: 4809448 heartbeat IPC: 4.885 cumulative IPC: 4.678 (Simulation time: 00 hr 00 min 57 sec)
Heartbeat CPU 0 instructions: 23000082 cycles: 4942766 heartbeat IPC: 3.75 cumulative IPC: 4.653 (Simulation time: 00 hr 00 min 59 sec)
Heartbeat CPU 0 instructions: 23500086 cycles: 5056945 heartbeat IPC: 4.379 cumulative IPC: 4.647 (Simulation time: 00 hr 01 min 00 sec)
Heartbeat CPU 0 instructions: 24000088 cycles: 5169462 heartbeat IPC: 4.444 cumulative IPC: 4.643 (Simulation time: 00 hr 01 min 01 sec)
Heartbeat CPU 0 instructions: 24500089 cycles: 5283762 heartbeat IPC: 4.374 cumulative IPC: 4.637 (Simulation time: 00 hr 01 min 02 sec)
Heartbeat CPU 0 instructions: 25000090 cycles: 5396789 heartbeat IPC: 4.424 cumulative IPC: 4.632 (Simulation time: 00 hr 01 min 04 sec)
Heartbeat CPU 0 instructions: 25500097 cycles: 5509122 heartbeat IPC: 4.451 cumulative IPC: 4.629 (Simulation time: 00 hr 01 min 05 sec)
Heartbeat CPU 0 instructions: 26000103 cycles: 5620016 heartbeat IPC: 4.509 cumulative IPC: 4.626 (Simulation time: 00 hr 01 min 06 sec)
Heartbeat CPU 0 instructions: 26500110 cycles: 5731148 heartbeat IPC: 4.499 cumulative IPC: 4.624 (Simulation time: 00 hr 01 min 07 sec)
Heartbeat CPU 0 instructions: 27000111 cycles: 5842586 heartbeat IPC: 4.487 cumulative IPC: 4.621 (Simulation time: 00 hr 01 min 09 sec)
Heartbeat CPU 0 instructions: 27500116 cycles: 5954653 heartbeat IPC: 4.462 cumulative IPC: 4.618 (Simulation time: 00 hr 01 min 10 sec)
Heartbeat CPU 0 instructions: 28000119 cycles: 6066280 heartbeat IPC: 4.479 cumulative IPC: 4.616 (Simulation time: 00 hr 01 min 11 sec)
Heartbeat CPU 0 instructions: 28500119 cycles: 6178178 heartbeat IPC: 4.468 cumulative IPC: 4.613 (Simulation time: 00 hr 01 min 12 sec)
Heartbeat CPU 0 instructions: 29000122 cycles: 6289835 heartbeat IPC: 4.478 cumulative IPC: 4.611 (Simulation time: 00 hr 01 min 14 sec)
Heartbeat CPU 0 instructions: 29500125 cycles: 6401793 heartbeat IPC: 4.466 cumulative IPC: 4.608 (Simulation time: 00 hr 01 min 15 sec)
Heartbeat CPU 0 instructions: 30000130 cycles: 6513847 heartbeat IPC: 4.462 cumulative IPC: 4.606 (Simulation time: 00 hr 01 min 16 sec)
Heartbeat CPU 0 instructions: 30500135 cycles: 6626018 heartbeat IPC: 4.458 cumulative IPC: 4.603 (Simulation time: 00 hr 01 min 18 sec)
Heartbeat CPU 0 instructions: 31000139 cycles: 6738310 heartbeat IPC: 4.453 cumulative IPC: 4.601 (Simulation time: 00 hr 01 min 19 sec)
Heartbeat CPU 0 instructions: 31500145 cycles: 6850900 heartbeat IPC: 4.441 cumulative IPC: 4.598 (Simulation time: 00 hr 01 min 20 sec)
Heartbeat CPU 0 instructions: 32000145 cycles: 6963222 heartbeat IPC: 4.451 cumulative IPC: 4.596 (Simulation time: 00 hr 01 min 21 sec)
Heartbeat CPU 0 instructions: 32500148 cycles: 7075499 heartbeat IPC: 4.453 cumulative IPC: 4.593 (Simulation time: 00 hr 01 min 23 sec)
Heartbeat CPU 0 instructions: 33000150 cycles: 7187903 heartbeat IPC: 4.448 cumulative IPC: 4.591 (Simulation time: 00 hr 01 min 24 sec)
Heartbeat CPU 0 instructions: 33500151 cycles: 7300338 heartbeat IPC: 4.447 cumulative IPC: 4.589 (Simulation time: 00 hr 01 min 25 sec)
Heartbeat CPU 0 instructions: 34000156 cycles: 7412452 heartbeat IPC: 4.46 cumulative IPC: 4.587 (Simulation time: 00 hr 01 min 26 sec)
Heartbeat CPU 0 instructions: 34500159 cycles: 7524554 heartbeat IPC: 4.46 cumulative IPC: 4.585 (Simulation time: 00 hr 01 min 28 sec)
Heartbeat CPU 0 instructions: 35000159 cycles: 7636503 heartbeat IPC: 4.466 cumulative IPC: 4.583 (Simulation time: 00 hr 01 min 29 sec)
Heartbeat CPU 0 instructions: 35500162 cycles: 7748690 heartbeat IPC: 4.457 cumulative IPC: 4.581 (Simulation time: 00 hr 01 min 30 sec)
Heartbeat CPU 0 instructions: 36000162 cycles: 7861110 heartbeat IPC: 4.448 cumulative IPC: 4.58 (Simulation time: 00 hr 01 min 31 sec)
Heartbeat CPU 0 instructions: 36500162 cycles: 7973314 heartbeat IPC: 4.456 cumulative IPC: 4.578 (Simulation time: 00 hr 01 min 33 sec)
Heartbeat CPU 0 instructions: 37000162 cycles: 8085516 heartbeat IPC: 4.456 cumulative IPC: 4.576 (Simulation time: 00 hr 01 min 34 sec)
Heartbeat CPU 0 instructions: 37500168 cycles: 8197630 heartbeat IPC: 4.46 cumulative IPC: 4.575 (Simulation time: 00 hr 01 min 35 sec)
Heartbeat CPU 0 instructions: 38000174 cycles: 8309890 heartbeat IPC: 4.454 cumulative IPC: 4.573 (Simulation time: 00 hr 01 min 36 sec)
Heartbeat CPU 0 instructions: 38500174 cycles: 8422226 heartbeat IPC: 4.451 cumulative IPC: 4.571 (Simulation time: 00 hr 01 min 38 sec)
Heartbeat CPU 0 instructions: 39000180 cycles: 8534307 heartbeat IPC: 4.461 cumulative IPC: 4.57 (Simulation time: 00 hr 01 min 39 sec)
Heartbeat CPU 0 instructions: 39500180 cycles: 8646406 heartbeat IPC: 4.46 cumulative IPC: 4.568 (Simulation time: 00 hr 01 min 40 sec)
Heartbeat CPU 0 instructions: 40000182 cycles: 8758432 heartbeat IPC: 4.463 cumulative IPC: 4.567 (Simulation time: 00 hr 01 min 42 sec)
Heartbeat CPU 0 instructions: 40500189 cycles: 8870588 heartbeat IPC: 4.458 cumulative IPC: 4.566 (Simulation time: 00 hr 01 min 43 sec)
Heartbeat CPU 0 instructions: 41000194 cycles: 8982620 heartbeat IPC: 4.463 cumulative IPC: 4.564 (Simulation time: 00 hr 01 min 44 sec)
Heartbeat CPU 0 instructions: 41500200 cycles: 9094676 heartbeat IPC: 4.462 cumulative IPC: 4.563 (Simulation time: 00 hr 01 min 45 sec)
Heartbeat CPU 0 instructions: 42000200 cycles: 9206783 heartbeat IPC: 4.46 cumulative IPC: 4.562 (Simulation time: 00 hr 01 min 47 sec)
Heartbeat CPU 0 instructions: 42500200 cycles: 9318783 heartbeat IPC: 4.464 cumulative IPC: 4.561 (Simulation time: 00 hr 01 min 48 sec)
Heartbeat CPU 0 instructions: 43000200 cycles: 9431123 heartbeat IPC: 4.451 cumulative IPC: 4.559 (Simulation time: 00 hr 01 min 49 sec)
Heartbeat CPU 0 instructions: 43500203 cycles: 9542826 heartbeat IPC: 4.476 cumulative IPC: 4.558 (Simulation time: 00 hr 01 min 50 sec)
Heartbeat CPU 0 instructions: 44000209 cycles: 9654630 heartbeat IPC: 4.472 cumulative IPC: 4.557 (Simulation time: 00 hr 01 min 52 sec)
Heartbeat CPU 0 instructions: 44500212 cycles: 9766278 heartbeat IPC: 4.478 cumulative IPC: 4.557 (Simulation time: 00 hr 01 min 53 sec)
Heartbeat CPU 0 instructions: 45000218 cycles: 9877979 heartbeat IPC: 4.476 cumulative IPC: 4.556 (Simulation time: 00 hr 01 min 54 sec)
Heartbeat CPU 0 instructions: 45500221 cycles: 9989717 heartbeat IPC: 4.475 cumulative IPC: 4.555 (Simulation time: 00 hr 01 min 55 sec)
Heartbeat CPU 0 instructions: 46000227 cycles: 10101181 heartbeat IPC: 4.486 cumulative IPC: 4.554 (Simulation time: 00 hr 01 min 57 sec)
Heartbeat CPU 0 instructions: 46500233 cycles: 10212982 heartbeat IPC: 4.472 cumulative IPC: 4.553 (Simulation time: 00 hr 01 min 58 sec)
Heartbeat CPU 0 instructions: 47000239 cycles: 10324501 heartbeat IPC: 4.484 cumulative IPC: 4.552 (Simulation time: 00 hr 01 min 59 sec)
Heartbeat CPU 0 instructions: 47500242 cycles: 10436778 heartbeat IPC: 4.453 cumulative IPC: 4.551 (Simulation time: 00 hr 02 min 00 sec)
Heartbeat CPU 0 instructions: 48000244 cycles: 10548407 heartbeat IPC: 4.479 cumulative IPC: 4.55 (Simulation time: 00 hr 02 min 02 sec)
Heartbeat CPU 0 instructions: 48500251 cycles: 10659911 heartbeat IPC: 4.484 cumulative IPC: 4.55 (Simulation time: 00 hr 02 min 03 sec)
Heartbeat CPU 0 instructions: 49000257 cycles: 10771443 heartbeat IPC: 4.483 cumulative IPC: 4.549 (Simulation time: 00 hr 02 min 04 sec)
Heartbeat CPU 0 instructions: 49500260 cycles: 10883038 heartbeat IPC: 4.481 cumulative IPC: 4.548 (Simulation time: 00 hr 02 min 05 sec)
Warmup finished CPU 0 instructions: 50000003 cycles: 10994721 cumulative IPC: 4.548 (Simulation time: 00 hr 02 min 07 sec)
Warmup complete CPU 0 instructions: 50000003 cycles: 10994721 cumulative IPC: 4.548 (Simulation time: 00 hr 02 min 07 sec)
Heartbeat CPU 0 instructions: 50000260 cycles: 10994829 heartbeat IPC: 4.473 cumulative IPC: 2.38 (Simulation time: 00 hr 02 min 07 sec)
Heartbeat CPU 0 instructions: 50500260 cycles: 11219034 heartbeat IPC: 2.23 cumulative IPC: 2.23 (Simulation time: 00 hr 02 min 09 sec)
Heartbeat CPU 0 instructions: 51000260 cycles: 11446037 heartbeat IPC: 2.203 cumulative IPC: 2.216 (Simulation time: 00 hr 02 min 11 sec)
Heartbeat CPU 0 instructions: 51500261 cycles: 11675807 heartbeat IPC: 2.176 cumulative IPC: 2.203 (Simulation time: 00 hr 02 min 13 sec)
Heartbeat CPU 0 instructions: 52000261 cycles: 11904449 heartbeat IPC: 2.187 cumulative IPC: 2.199 (Simulation time: 00 hr 02 min 16 sec)
Heartbeat CPU 0 instructions: 52500261 cycles: 12131137 heartbeat IPC: 2.206 cumulative IPC: 2.2 (Simulation time: 00 hr 02 min 18 sec)
Heartbeat CPU 0 instructions: 53000261 cycles: 12359237 heartbeat IPC: 2.192 cumulative IPC: 2.199 (Simulation time: 00 hr 02 min 20 sec)
Heartbeat CPU 0 instructions: 53500261 cycles: 12593345 heartbeat IPC: 2.136 cumulative IPC: 2.19 (Simulation time: 00 hr 02 min 23 sec)
Heartbeat CPU 0 instructions: 54000264 cycles: 12827732 heartbeat IPC: 2.133 cumulative IPC: 2.182 (Simulation time: 00 hr 02 min 25 sec)
Heartbeat CPU 0 instructions: 54500270 cycles: 13060158 heartbeat IPC: 2.151 cumulative IPC: 2.179 (Simulation time: 00 hr 02 min 28 sec)
Heartbeat CPU 0 instructions: 55000276 cycles: 13303081 heartbeat IPC: 2.058 cumulative IPC: 2.166 (Simulation time: 00 hr 02 min 30 sec)
Heartbeat CPU 0 instructions: 55500276 cycles: 13559751 heartbeat IPC: 1.948 cumulative IPC: 2.144 (Simulation time: 00 hr 02 min 32 sec)
Heartbeat CPU 0 instructions: 56000276 cycles: 13832148 heartbeat IPC: 1.836 cumulative IPC: 2.115 (Simulation time: 00 hr 02 min 35 sec)
Heartbeat CPU 0 instructions: 56500277 cycles: 14133279 heartbeat IPC: 1.66 cumulative IPC: 2.071 (Simulation time: 00 hr 02 min 38 sec)
Heartbeat CPU 0 instructions: 57000279 cycles: 14496205 heartbeat IPC: 1.378 cumulative IPC: 1.999 (Simulation time: 00 hr 02 min 41 sec)
Heartbeat CPU 0 instructions: 57500279 cycles: 15155719 heartbeat IPC: 0.7581 cumulative IPC: 1.803 (Simulation time: 00 hr 02 min 47 sec)
Heartbeat CPU 0 instructions: 58000283 cycles: 16180622 heartbeat IPC: 0.4879 cumulative IPC: 1.543 (Simulation time: 00 hr 03 min 00 sec)
Heartbeat CPU 0 instructions: 58500283 cycles: 16903248 heartbeat IPC: 0.6919 cumulative IPC: 1.439 (Simulation time: 00 hr 03 min 09 sec)
Heartbeat CPU 0 instructions: 59000283 cycles: 17568282 heartbeat IPC: 0.7518 cumulative IPC: 1.369 (Simulation time: 00 hr 03 min 18 sec)
Heartbeat CPU 0 instructions: 59500286 cycles: 18264574 heartbeat IPC: 0.7181 cumulative IPC: 1.307 (Simulation time: 00 hr 03 min 27 sec)
Heartbeat CPU 0 instructions: 60000289 cycles: 19036412 heartbeat IPC: 0.6478 cumulative IPC: 1.244 (Simulation time: 00 hr 03 min 37 sec)
Heartbeat CPU 0 instructions: 60500290 cycles: 19734026 heartbeat IPC: 0.7167 cumulative IPC: 1.202 (Simulation time: 00 hr 03 min 45 sec)
Heartbeat CPU 0 instructions: 61000290 cycles: 20595100 heartbeat IPC: 0.5807 cumulative IPC: 1.146 (Simulation time: 00 hr 03 min 56 sec)
Heartbeat CPU 0 instructions: 61500294 cycles: 21435766 heartbeat IPC: 0.5948 cumulative IPC: 1.101 (Simulation time: 00 hr 04 min 07 sec)
Heartbeat CPU 0 instructions: 62000297 cycles: 22163257 heartbeat IPC: 0.6873 cumulative IPC: 1.074 (Simulation time: 00 hr 04 min 16 sec)
Heartbeat CPU 0 instructions: 62500301 cycles: 22872027 heartbeat IPC: 0.7055 cumulative IPC: 1.052 (Simulation time: 00 hr 04 min 25 sec)
Heartbeat CPU 0 instructions: 63000305 cycles: 23568174 heartbeat IPC: 0.7182 cumulative IPC: 1.034 (Simulation time: 00 hr 04 min 34 sec)
Heartbeat CPU 0 instructions: 63500309 cycles: 24288302 heartbeat IPC: 0.6943 cumulative IPC: 1.016 (Simulation time: 00 hr 04 min 43 sec)
Heartbeat CPU 0 instructions: 64000314 cycles: 24976841 heartbeat IPC: 0.7262 cumulative IPC: 1.001 (Simulation time: 00 hr 04 min 52 sec)
Heartbeat CPU 0 instructions: 64500315 cycles: 25664702 heartbeat IPC: 0.7269 cumulative IPC: 0.9884 (Simulation time: 00 hr 05 min 01 sec)
Heartbeat CPU 0 instructions: 65000322 cycles: 26363888 heartbeat IPC: 0.7151 cumulative IPC: 0.976 (Simulation time: 00 hr 05 min 10 sec)
Heartbeat CPU 0 instructions: 65500326 cycles: 27037314 heartbeat IPC: 0.7425 cumulative IPC: 0.9662 (Simulation time: 00 hr 05 min 19 sec)
Heartbeat CPU 0 instructions: 66000326 cycles: 27762694 heartbeat IPC: 0.6893 cumulative IPC: 0.9542 (Simulation time: 00 hr 05 min 28 sec)
Heartbeat CPU 0 instructions: 66500326 cycles: 28471388 heartbeat IPC: 0.7055 cumulative IPC: 0.9441 (Simulation time: 00 hr 05 min 37 sec)
Heartbeat CPU 0 instructions: 67000329 cycles: 29159727 heartbeat IPC: 0.7264 cumulative IPC: 0.9359 (Simulation time: 00 hr 05 min 46 sec)
Heartbeat CPU 0 instructions: 67500329 cycles: 29850173 heartbeat IPC: 0.7242 cumulative IPC: 0.9281 (Simulation time: 00 hr 05 min 54 sec)
Heartbeat CPU 0 instructions: 68000329 cycles: 30573617 heartbeat IPC: 0.6911 cumulative IPC: 0.9194 (Simulation time: 00 hr 06 min 04 sec)
Heartbeat CPU 0 instructions: 68500332 cycles: 31269969 heartbeat IPC: 0.718 cumulative IPC: 0.9125 (Simulation time: 00 hr 06 min 13 sec)
Heartbeat CPU 0 instructions: 69000336 cycles: 31965402 heartbeat IPC: 0.719 cumulative IPC: 0.906 (Simulation time: 00 hr 06 min 21 sec)
Heartbeat CPU 0 instructions: 69500341 cycles: 32659413 heartbeat IPC: 0.7205 cumulative IPC: 0.9001 (Simulation time: 00 hr 06 min 30 sec)
Heartbeat CPU 0 instructions: 70000344 cycles: 33359230 heartbeat IPC: 0.7145 cumulative IPC: 0.8943 (Simulation time: 00 hr 06 min 39 sec)
Heartbeat CPU 0 instructions: 70500349 cycles: 34048962 heartbeat IPC: 0.7249 cumulative IPC: 0.8892 (Simulation time: 00 hr 06 min 48 sec)
Heartbeat CPU 0 instructions: 71000350 cycles: 34744215 heartbeat IPC: 0.7192 cumulative IPC: 0.8842 (Simulation time: 00 hr 06 min 57 sec)
Heartbeat CPU 0 instructions: 71500357 cycles: 35433340 heartbeat IPC: 0.7256 cumulative IPC: 0.8798 (Simulation time: 00 hr 07 min 06 sec)
Heartbeat CPU 0 instructions: 72000361 cycles: 36119686 heartbeat IPC: 0.7285 cumulative IPC: 0.8756 (Simulation time: 00 hr 07 min 15 sec)
Heartbeat CPU 0 instructions: 72500365 cycles: 36813319 heartbeat IPC: 0.7208 cumulative IPC: 0.8715 (Simulation time: 00 hr 07 min 24 sec)
Heartbeat CPU 0 instructions: 73000369 cycles: 37501796 heartbeat IPC: 0.7262 cumulative IPC: 0.8677 (Simulation time: 00 hr 07 min 32 sec)
Heartbeat CPU 0 instructions: 73500372 cycles: 38207074 heartbeat IPC: 0.7089 cumulative IPC: 0.8636 (Simulation time: 00 hr 07 min 41 sec)
Heartbeat CPU 0 instructions: 74000377 cycles: 38908892 heartbeat IPC: 0.7124 cumulative IPC: 0.8598 (Simulation time: 00 hr 07 min 50 sec)
Heartbeat CPU 0 instructions: 74500380 cycles: 39607509 heartbeat IPC: 0.7157 cumulative IPC: 0.8563 (Simulation time: 00 hr 07 min 59 sec)
Heartbeat CPU 0 instructions: 75000385 cycles: 40282737 heartbeat IPC: 0.7405 cumulative IPC: 0.8536 (Simulation time: 00 hr 08 min 08 sec)
Heartbeat CPU 0 instructions: 75500389 cycles: 40984548 heartbeat IPC: 0.7124 cumulative IPC: 0.8503 (Simulation time: 00 hr 08 min 17 sec)
Heartbeat CPU 0 instructions: 76000393 cycles: 41669528 heartbeat IPC: 0.73 cumulative IPC: 0.8476 (Simulation time: 00 hr 08 min 26 sec)
Heartbeat CPU 0 instructions: 76500396 cycles: 42365633 heartbeat IPC: 0.7183 cumulative IPC: 0.8447 (Simulation time: 00 hr 08 min 35 sec)
Heartbeat CPU 0 instructions: 77000401 cycles: 43066121 heartbeat IPC: 0.7138 cumulative IPC: 0.8419 (Simulation time: 00 hr 08 min 44 sec)
Heartbeat CPU 0 instructions: 77500405 cycles: 43766283 heartbeat IPC: 0.7141 cumulative IPC: 0.8392 (Simulation time: 00 hr 08 min 53 sec)
Heartbeat CPU 0 instructions: 78000409 cycles: 44461268 heartbeat IPC: 0.7194 cumulative IPC: 0.8367 (Simulation time: 00 hr 09 min 02 sec)
Heartbeat CPU 0 instructions: 78500413 cycles: 45172254 heartbeat IPC: 0.7033 cumulative IPC: 0.8339 (Simulation time: 00 hr 09 min 11 sec)
Heartbeat CPU 0 instructions: 79000417 cycles: 45866026 heartbeat IPC: 0.7207 cumulative IPC: 0.8316 (Simulation time: 00 hr 09 min 20 sec)
Heartbeat CPU 0 instructions: 79500421 cycles: 46573996 heartbeat IPC: 0.7063 cumulative IPC: 0.8291 (Simulation time: 00 hr 09 min 29 sec)
Heartbeat CPU 0 instructions: 80000425 cycles: 47261914 heartbeat IPC: 0.7268 cumulative IPC: 0.8272 (Simulation time: 00 hr 09 min 38 sec)
Heartbeat CPU 0 instructions: 80500429 cycles: 47961330 heartbeat IPC: 0.7149 cumulative IPC: 0.8251 (Simulation time: 00 hr 09 min 47 sec)
Heartbeat CPU 0 instructions: 81000433 cycles: 48653542 heartbeat IPC: 0.7223 cumulative IPC: 0.8232 (Simulation time: 00 hr 09 min 55 sec)
Heartbeat CPU 0 instructions: 81500437 cycles: 49346548 heartbeat IPC: 0.7215 cumulative IPC: 0.8214 (Simulation time: 00 hr 10 min 04 sec)
Heartbeat CPU 0 instructions: 82000441 cycles: 50058885 heartbeat IPC: 0.7019 cumulative IPC: 0.8192 (Simulation time: 00 hr 10 min 13 sec)
Heartbeat CPU 0 instructions: 82500445 cycles: 50749543 heartbeat IPC: 0.724 cumulative IPC: 0.8175 (Simulation time: 00 hr 10 min 22 sec)
Heartbeat CPU 0 instructions: 83000449 cycles: 51442026 heartbeat IPC: 0.722 cumulative IPC: 0.8159 (Simulation time: 00 hr 10 min 31 sec)
Heartbeat CPU 0 instructions: 83500453 cycles: 52147444 heartbeat IPC: 0.7088 cumulative IPC: 0.8141 (Simulation time: 00 hr 10 min 40 sec)
Heartbeat CPU 0 instructions: 84000457 cycles: 52837274 heartbeat IPC: 0.7248 cumulative IPC: 0.8126 (Simulation time: 00 hr 10 min 49 sec)
Heartbeat CPU 0 instructions: 84500460 cycles: 53538954 heartbeat IPC: 0.7126 cumulative IPC: 0.8109 (Simulation time: 00 hr 10 min 58 sec)
Heartbeat CPU 0 instructions: 85000465 cycles: 54240260 heartbeat IPC: 0.713 cumulative IPC: 0.8093 (Simulation time: 00 hr 11 min 07 sec)
Heartbeat CPU 0 instructions: 85500468 cycles: 54936482 heartbeat IPC: 0.7182 cumulative IPC: 0.8079 (Simulation time: 00 hr 11 min 16 sec)
Heartbeat CPU 0 instructions: 86000472 cycles: 55636965 heartbeat IPC: 0.7138 cumulative IPC: 0.8064 (Simulation time: 00 hr 11 min 25 sec)
Heartbeat CPU 0 instructions: 86500477 cycles: 56334767 heartbeat IPC: 0.7165 cumulative IPC: 0.805 (Simulation time: 00 hr 11 min 34 sec)
Heartbeat CPU 0 instructions: 87000480 cycles: 57031353 heartbeat IPC: 0.7178 cumulative IPC: 0.8037 (Simulation time: 00 hr 11 min 43 sec)
Heartbeat CPU 0 instructions: 87500483 cycles: 57731456 heartbeat IPC: 0.7142 cumulative IPC: 0.8024 (Simulation time: 00 hr 11 min 52 sec)
Heartbeat CPU 0 instructions: 88000489 cycles: 58425841 heartbeat IPC: 0.7201 cumulative IPC: 0.8012 (Simulation time: 00 hr 12 min 01 sec)
Heartbeat CPU 0 instructions: 88500492 cycles: 59126088 heartbeat IPC: 0.714 cumulative IPC: 0.7999 (Simulation time: 00 hr 12 min 10 sec)
Heartbeat CPU 0 instructions: 89000497 cycles: 59820097 heartbeat IPC: 0.7205 cumulative IPC: 0.7988 (Simulation time: 00 hr 12 min 19 sec)
Heartbeat CPU 0 instructions: 89500501 cycles: 60510716 heartbeat IPC: 0.724 cumulative IPC: 0.7977 (Simulation time: 00 hr 12 min 28 sec)
Heartbeat CPU 0 instructions: 90000504 cycles: 61218737 heartbeat IPC: 0.7062 cumulative IPC: 0.7964 (Simulation time: 00 hr 12 min 37 sec)
Heartbeat CPU 0 instructions: 90500508 cycles: 61912082 heartbeat IPC: 0.7211 cumulative IPC: 0.7954 (Simulation time: 00 hr 12 min 46 sec)
Heartbeat CPU 0 instructions: 91000513 cycles: 62611654 heartbeat IPC: 0.7147 cumulative IPC: 0.7943 (Simulation time: 00 hr 12 min 55 sec)
Heartbeat CPU 0 instructions: 91500516 cycles: 63309697 heartbeat IPC: 0.7163 cumulative IPC: 0.7933 (Simulation time: 00 hr 13 min 04 sec)
Heartbeat CPU 0 instructions: 92000520 cycles: 64007038 heartbeat IPC: 0.717 cumulative IPC: 0.7923 (Simulation time: 00 hr 13 min 13 sec)
Heartbeat CPU 0 instructions: 92500525 cycles: 64716817 heartbeat IPC: 0.7045 cumulative IPC: 0.7911 (Simulation time: 00 hr 13 min 22 sec)
Heartbeat CPU 0 instructions: 93000528 cycles: 65415455 heartbeat IPC: 0.7157 cumulative IPC: 0.7901 (Simulation time: 00 hr 13 min 31 sec)
Heartbeat CPU 0 instructions: 93500533 cycles: 66119191 heartbeat IPC: 0.7105 cumulative IPC: 0.7891 (Simulation time: 00 hr 13 min 40 sec)
Heartbeat CPU 0 instructions: 94000537 cycles: 66818918 heartbeat IPC: 0.7146 cumulative IPC: 0.7882 (Simulation time: 00 hr 13 min 49 sec)
Heartbeat CPU 0 instructions: 94500541 cycles: 67510867 heartbeat IPC: 0.7226 cumulative IPC: 0.7874 (Simulation time: 00 hr 13 min 58 sec)
Heartbeat CPU 0 instructions: 95000545 cycles: 68224004 heartbeat IPC: 0.7011 cumulative IPC: 0.7863 (Simulation time: 00 hr 14 min 07 sec)
Heartbeat CPU 0 instructions: 95500548 cycles: 68929185 heartbeat IPC: 0.709 cumulative IPC: 0.7854 (Simulation time: 00 hr 14 min 16 sec)
Heartbeat CPU 0 instructions: 96000552 cycles: 69631596 heartbeat IPC: 0.7118 cumulative IPC: 0.7845 (Simulation time: 00 hr 14 min 25 sec)
Heartbeat CPU 0 instructions: 96500555 cycles: 70328099 heartbeat IPC: 0.7179 cumulative IPC: 0.7837 (Simulation time: 00 hr 14 min 34 sec)
Heartbeat CPU 0 instructions: 97000560 cycles: 71023329 heartbeat IPC: 0.7192 cumulative IPC: 0.783 (Simulation time: 00 hr 14 min 43 sec)
Heartbeat CPU 0 instructions: 97500562 cycles: 71737384 heartbeat IPC: 0.7002 cumulative IPC: 0.782 (Simulation time: 00 hr 14 min 52 sec)
Heartbeat CPU 0 instructions: 98000566 cycles: 72438159 heartbeat IPC: 0.7135 cumulative IPC: 0.7812 (Simulation time: 00 hr 15 min 01 sec)
Heartbeat CPU 0 instructions: 98500572 cycles: 73147394 heartbeat IPC: 0.705 cumulative IPC: 0.7803 (Simulation time: 00 hr 15 min 10 sec)
Heartbeat CPU 0 instructions: 99000574 cycles: 73843861 heartbeat IPC: 0.7179 cumulative IPC: 0.7797 (Simulation time: 00 hr 15 min 19 sec)
Heartbeat CPU 0 instructions: 99500581 cycles: 74545815 heartbeat IPC: 0.7123 cumulative IPC: 0.7789 (Simulation time: 00 hr 15 min 28 sec)
Heartbeat CPU 0 instructions: 100000585 cycles: 75265203 heartbeat IPC: 0.695 cumulative IPC: 0.778 (Simulation time: 00 hr 15 min 38 sec)
Heartbeat CPU 0 instructions: 100500588 cycles: 75965028 heartbeat IPC: 0.7145 cumulative IPC: 0.7773 (Simulation time: 00 hr 15 min 47 sec)
Heartbeat CPU 0 instructions: 101000593 cycles: 76668722 heartbeat IPC: 0.7105 cumulative IPC: 0.7766 (Simulation time: 00 hr 15 min 56 sec)
Heartbeat CPU 0 instructions: 101500597 cycles: 77370869 heartbeat IPC: 0.7121 cumulative IPC: 0.7759 (Simulation time: 00 hr 16 min 05 sec)
Heartbeat CPU 0 instructions: 102000601 cycles: 78063317 heartbeat IPC: 0.7221 cumulative IPC: 0.7753 (Simulation time: 00 hr 16 min 13 sec)
Heartbeat CPU 0 instructions: 102500604 cycles: 78765199 heartbeat IPC: 0.7124 cumulative IPC: 0.7747 (Simulation time: 00 hr 16 min 22 sec)
Heartbeat CPU 0 instructions: 103000608 cycles: 79471690 heartbeat IPC: 0.7077 cumulative IPC: 0.774 (Simulation time: 00 hr 16 min 31 sec)
Heartbeat CPU 0 instructions: 103500613 cycles: 80168655 heartbeat IPC: 0.7174 cumulative IPC: 0.7734 (Simulation time: 00 hr 16 min 40 sec)
Heartbeat CPU 0 instructions: 104000617 cycles: 80875743 heartbeat IPC: 0.7071 cumulative IPC: 0.7728 (Simulation time: 00 hr 16 min 49 sec)
Heartbeat CPU 0 instructions: 104500621 cycles: 81585331 heartbeat IPC: 0.7046 cumulative IPC: 0.7721 (Simulation time: 00 hr 16 min 59 sec)
Heartbeat CPU 0 instructions: 105000625 cycles: 82279731 heartbeat IPC: 0.7201 cumulative IPC: 0.7716 (Simulation time: 00 hr 17 min 08 sec)
Heartbeat CPU 0 instructions: 105500627 cycles: 82984078 heartbeat IPC: 0.7099 cumulative IPC: 0.771 (Simulation time: 00 hr 17 min 17 sec)
Heartbeat CPU 0 instructions: 106000633 cycles: 83704697 heartbeat IPC: 0.6939 cumulative IPC: 0.7702 (Simulation time: 00 hr 17 min 26 sec)
Heartbeat CPU 0 instructions: 106500637 cycles: 84392502 heartbeat IPC: 0.727 cumulative IPC: 0.7698 (Simulation time: 00 hr 17 min 35 sec)
Heartbeat CPU 0 instructions: 107000641 cycles: 85094071 heartbeat IPC: 0.7127 cumulative IPC: 0.7692 (Simulation time: 00 hr 17 min 44 sec)
Heartbeat CPU 0 instructions: 107500645 cycles: 85805213 heartbeat IPC: 0.7031 cumulative IPC: 0.7686 (Simulation time: 00 hr 17 min 53 sec)
Heartbeat CPU 0 instructions: 108000648 cycles: 86510415 heartbeat IPC: 0.709 cumulative IPC: 0.7681 (Simulation time: 00 hr 18 min 02 sec)
Heartbeat CPU 0 instructions: 108500653 cycles: 87207979 heartbeat IPC: 0.7168 cumulative IPC: 0.7676 (Simulation time: 00 hr 18 min 11 sec)
Heartbeat CPU 0 instructions: 109000656 cycles: 87915362 heartbeat IPC: 0.7068 cumulative IPC: 0.767 (Simulation time: 00 hr 18 min 20 sec)
Heartbeat CPU 0 instructions: 109500661 cycles: 88607727 heartbeat IPC: 0.7222 cumulative IPC: 0.7666 (Simulation time: 00 hr 18 min 28 sec)
Heartbeat CPU 0 instructions: 110000664 cycles: 89320200 heartbeat IPC: 0.7018 cumulative IPC: 0.766 (Simulation time: 00 hr 18 min 37 sec)
Heartbeat CPU 0 instructions: 110500669 cycles: 90013735 heartbeat IPC: 0.721 cumulative IPC: 0.7656 (Simulation time: 00 hr 18 min 46 sec)
Heartbeat CPU 0 instructions: 111000672 cycles: 90717836 heartbeat IPC: 0.7101 cumulative IPC: 0.7652 (Simulation time: 00 hr 18 min 55 sec)
Heartbeat CPU 0 instructions: 111500677 cycles: 91406353 heartbeat IPC: 0.7262 cumulative IPC: 0.7648 (Simulation time: 00 hr 19 min 04 sec)
Heartbeat CPU 0 instructions: 112000681 cycles: 92116255 heartbeat IPC: 0.7043 cumulative IPC: 0.7643 (Simulation time: 00 hr 19 min 13 sec)
Heartbeat CPU 0 instructions: 112500685 cycles: 92823491 heartbeat IPC: 0.707 cumulative IPC: 0.7638 (Simulation time: 00 hr 19 min 22 sec)
Heartbeat CPU 0 instructions: 113000688 cycles: 93531551 heartbeat IPC: 0.7062 cumulative IPC: 0.7633 (Simulation time: 00 hr 19 min 31 sec)
Heartbeat CPU 0 instructions: 113500693 cycles: 94247660 heartbeat IPC: 0.6982 cumulative IPC: 0.7627 (Simulation time: 00 hr 19 min 40 sec)
Heartbeat CPU 0 instructions: 114000697 cycles: 94947832 heartbeat IPC: 0.7141 cumulative IPC: 0.7623 (Simulation time: 00 hr 19 min 49 sec)
Heartbeat CPU 0 instructions: 114500701 cycles: 95674875 heartbeat IPC: 0.6877 cumulative IPC: 0.7617 (Simulation time: 00 hr 19 min 58 sec)
Heartbeat CPU 0 instructions: 115000704 cycles: 96389213 heartbeat IPC: 0.7 cumulative IPC: 0.7612 (Simulation time: 00 hr 20 min 07 sec)
Heartbeat CPU 0 instructions: 115500708 cycles: 97124435 heartbeat IPC: 0.6801 cumulative IPC: 0.7605 (Simulation time: 00 hr 20 min 16 sec)
Heartbeat CPU 0 instructions: 116000712 cycles: 97857928 heartbeat IPC: 0.6817 cumulative IPC: 0.7598 (Simulation time: 00 hr 20 min 25 sec)
Heartbeat CPU 0 instructions: 116500717 cycles: 98594423 heartbeat IPC: 0.6789 cumulative IPC: 0.7591 (Simulation time: 00 hr 20 min 34 sec)
Heartbeat CPU 0 instructions: 117000721 cycles: 99371277 heartbeat IPC: 0.6436 cumulative IPC: 0.7581 (Simulation time: 00 hr 20 min 44 sec)
Heartbeat CPU 0 instructions: 117500725 cycles: 100232703 heartbeat IPC: 0.5804 cumulative IPC: 0.7564 (Simulation time: 00 hr 20 min 55 sec)
Heartbeat CPU 0 instructions: 118000729 cycles: 101104083 heartbeat IPC: 0.5738 cumulative IPC: 0.7546 (Simulation time: 00 hr 21 min 03 sec)
Heartbeat CPU 0 instructions: 118500730 cycles: 101914524 heartbeat IPC: 0.6169 cumulative IPC: 0.7534 (Simulation time: 00 hr 21 min 10 sec)
Heartbeat CPU 0 instructions: 119000732 cycles: 102723822 heartbeat IPC: 0.6178 cumulative IPC: 0.7522 (Simulation time: 00 hr 21 min 18 sec)
Heartbeat CPU 0 instructions: 119500733 cycles: 103533436 heartbeat IPC: 0.6176 cumulative IPC: 0.751 (Simulation time: 00 hr 21 min 25 sec)
Heartbeat CPU 0 instructions: 120000735 cycles: 104344014 heartbeat IPC: 0.6168 cumulative IPC: 0.7499 (Simulation time: 00 hr 21 min 32 sec)
Heartbeat CPU 0 instructions: 120500736 cycles: 105154518 heartbeat IPC: 0.6169 cumulative IPC: 0.7487 (Simulation time: 00 hr 21 min 40 sec)
Heartbeat CPU 0 instructions: 121000738 cycles: 105964769 heartbeat IPC: 0.6171 cumulative IPC: 0.7476 (Simulation time: 00 hr 21 min 47 sec)
Heartbeat CPU 0 instructions: 121500739 cycles: 106775453 heartbeat IPC: 0.6168 cumulative IPC: 0.7465 (Simulation time: 00 hr 21 min 54 sec)
Heartbeat CPU 0 instructions: 122000741 cycles: 107585737 heartbeat IPC: 0.6171 cumulative IPC: 0.7454 (Simulation time: 00 hr 22 min 02 sec)
Heartbeat CPU 0 instructions: 122500743 cycles: 108236449 heartbeat IPC: 0.7684 cumulative IPC: 0.7456 (Simulation time: 00 hr 22 min 08 sec)
Heartbeat CPU 0 instructions: 123000747 cycles: 108467761 heartbeat IPC: 2.162 cumulative IPC: 0.7489 (Simulation time: 00 hr 22 min 11 sec)
Heartbeat CPU 0 instructions: 123500753 cycles: 108677346 heartbeat IPC: 2.386 cumulative IPC: 0.7524 (Simulation time: 00 hr 22 min 14 sec)
Heartbeat CPU 0 instructions: 124000757 cycles: 108969896 heartbeat IPC: 1.709 cumulative IPC: 0.7553 (Simulation time: 00 hr 22 min 17 sec)
Heartbeat CPU 0 instructions: 124500757 cycles: 109284250 heartbeat IPC: 1.591 cumulative IPC: 0.758 (Simulation time: 00 hr 22 min 20 sec)
Heartbeat CPU 0 instructions: 125000761 cycles: 109571530 heartbeat IPC: 1.74 cumulative IPC: 0.7608 (Simulation time: 00 hr 22 min 24 sec)
Heartbeat CPU 0 instructions: 125500765 cycles: 109957408 heartbeat IPC: 1.296 cumulative IPC: 0.7629 (Simulation time: 00 hr 22 min 28 sec)
Heartbeat CPU 0 instructions: 126000771 cycles: 110340092 heartbeat IPC: 1.307 cumulative IPC: 0.765 (Simulation time: 00 hr 22 min 32 sec)
Heartbeat CPU 0 instructions: 126500774 cycles: 111142664 heartbeat IPC: 0.623 cumulative IPC: 0.7639 (Simulation time: 00 hr 22 min 41 sec)
Heartbeat CPU 0 instructions: 127000775 cycles: 111855815 heartbeat IPC: 0.7011 cumulative IPC: 0.7634 (Simulation time: 00 hr 22 min 48 sec)
Heartbeat CPU 0 instructions: 127500778 cycles: 112385060 heartbeat IPC: 0.9447 cumulative IPC: 0.7644 (Simulation time: 00 hr 22 min 54 sec)
Heartbeat CPU 0 instructions: 128000779 cycles: 112618151 heartbeat IPC: 2.145 cumulative IPC: 0.7675 (Simulation time: 00 hr 22 min 57 sec)
Heartbeat CPU 0 instructions: 128500783 cycles: 113459732 heartbeat IPC: 0.5941 cumulative IPC: 0.7661 (Simulation time: 00 hr 23 min 06 sec)
Heartbeat CPU 0 instructions: 129000787 cycles: 114130704 heartbeat IPC: 0.7452 cumulative IPC: 0.766 (Simulation time: 00 hr 23 min 13 sec)
Heartbeat CPU 0 instructions: 129500791 cycles: 114736494 heartbeat IPC: 0.8254 cumulative IPC: 0.7663 (Simulation time: 00 hr 23 min 19 sec)
Heartbeat CPU 0 instructions: 130000795 cycles: 115297363 heartbeat IPC: 0.8915 cumulative IPC: 0.767 (Simulation time: 00 hr 23 min 25 sec)
Heartbeat CPU 0 instructions: 130500796 cycles: 115958824 heartbeat IPC: 0.7559 cumulative IPC: 0.7669 (Simulation time: 00 hr 23 min 33 sec)
Heartbeat CPU 0 instructions: 131000803 cycles: 116754820 heartbeat IPC: 0.6282 cumulative IPC: 0.7659 (Simulation time: 00 hr 23 min 41 sec)
Heartbeat CPU 0 instructions: 131500803 cycles: 117394440 heartbeat IPC: 0.7817 cumulative IPC: 0.766 (Simulation time: 00 hr 23 min 48 sec)
Heartbeat CPU 0 instructions: 132000803 cycles: 118018183 heartbeat IPC: 0.8016 cumulative IPC: 0.7662 (Simulation time: 00 hr 23 min 55 sec)
Heartbeat CPU 0 instructions: 132500803 cycles: 118667829 heartbeat IPC: 0.7696 cumulative IPC: 0.7662 (Simulation time: 00 hr 24 min 02 sec)
Heartbeat CPU 0 instructions: 133000803 cycles: 119347142 heartbeat IPC: 0.736 cumulative IPC: 0.766 (Simulation time: 00 hr 24 min 09 sec)
Heartbeat CPU 0 instructions: 133500805 cycles: 119991005 heartbeat IPC: 0.7766 cumulative IPC: 0.7661 (Simulation time: 00 hr 24 min 16 sec)
Heartbeat CPU 0 instructions: 134000807 cycles: 120539750 heartbeat IPC: 0.9112 cumulative IPC: 0.7668 (Simulation time: 00 hr 24 min 21 sec)
Heartbeat CPU 0 instructions: 134500813 cycles: 120951611 heartbeat IPC: 1.214 cumulative IPC: 0.7685 (Simulation time: 00 hr 24 min 26 sec)
Heartbeat CPU 0 instructions: 135000815 cycles: 121445928 heartbeat IPC: 1.012 cumulative IPC: 0.7696 (Simulation time: 00 hr 24 min 31 sec)
Heartbeat CPU 0 instructions: 135500816 cycles: 122094071 heartbeat IPC: 0.7714 cumulative IPC: 0.7696 (Simulation time: 00 hr 24 min 38 sec)
Heartbeat CPU 0 instructions: 136000819 cycles: 122682926 heartbeat IPC: 0.8491 cumulative IPC: 0.77 (Simulation time: 00 hr 24 min 44 sec)
Heartbeat CPU 0 instructions: 136500821 cycles: 123165106 heartbeat IPC: 1.037 cumulative IPC: 0.7712 (Simulation time: 00 hr 24 min 50 sec)
Heartbeat CPU 0 instructions: 137000823 cycles: 123663505 heartbeat IPC: 1.003 cumulative IPC: 0.7722 (Simulation time: 00 hr 24 min 55 sec)
Heartbeat CPU 0 instructions: 137500827 cycles: 124232321 heartbeat IPC: 0.879 cumulative IPC: 0.7727 (Simulation time: 00 hr 25 min 01 sec)
Heartbeat CPU 0 instructions: 138000829 cycles: 124621966 heartbeat IPC: 1.283 cumulative IPC: 0.7745 (Simulation time: 00 hr 25 min 06 sec)
Heartbeat CPU 0 instructions: 138500833 cycles: 125017958 heartbeat IPC: 1.263 cumulative IPC: 0.7762 (Simulation time: 00 hr 25 min 10 sec)
Heartbeat CPU 0 instructions: 139000833 cycles: 125574642 heartbeat IPC: 0.8982 cumulative IPC: 0.7768 (Simulation time: 00 hr 25 min 16 sec)
Heartbeat CPU 0 instructions: 139500835 cycles: 126074630 heartbeat IPC: 1 cumulative IPC: 0.7777 (Simulation time: 00 hr 25 min 22 sec)
Heartbeat CPU 0 instructions: 140000836 cycles: 126718193 heartbeat IPC: 0.7769 cumulative IPC: 0.7777 (Simulation time: 00 hr 25 min 29 sec)
Heartbeat CPU 0 instructions: 140500843 cycles: 127325057 heartbeat IPC: 0.8239 cumulative IPC: 0.778 (Simulation time: 00 hr 25 min 35 sec)
Heartbeat CPU 0 instructions: 141000847 cycles: 127870195 heartbeat IPC: 0.9172 cumulative IPC: 0.7786 (Simulation time: 00 hr 25 min 41 sec)
Heartbeat CPU 0 instructions: 141500847 cycles: 128440447 heartbeat IPC: 0.8768 cumulative IPC: 0.7791 (Simulation time: 00 hr 25 min 47 sec)
Heartbeat CPU 0 instructions: 142000851 cycles: 129006383 heartbeat IPC: 0.8835 cumulative IPC: 0.7796 (Simulation time: 00 hr 25 min 53 sec)
Heartbeat CPU 0 instructions: 142500855 cycles: 129587545 heartbeat IPC: 0.8604 cumulative IPC: 0.78 (Simulation time: 00 hr 25 min 59 sec)
Heartbeat CPU 0 instructions: 143000857 cycles: 130273165 heartbeat IPC: 0.7293 cumulative IPC: 0.7797 (Simulation time: 00 hr 26 min 06 sec)
Heartbeat CPU 0 instructions: 143500857 cycles: 131030182 heartbeat IPC: 0.6605 cumulative IPC: 0.7789 (Simulation time: 00 hr 26 min 14 sec)
Heartbeat CPU 0 instructions: 144000857 cycles: 131759459 heartbeat IPC: 0.6856 cumulative IPC: 0.7784 (Simulation time: 00 hr 26 min 22 sec)
Heartbeat CPU 0 instructions: 144500859 cycles: 132475543 heartbeat IPC: 0.6982 cumulative IPC: 0.7779 (Simulation time: 00 hr 26 min 29 sec)
Heartbeat CPU 0 instructions: 145000862 cycles: 133203753 heartbeat IPC: 0.6866 cumulative IPC: 0.7774 (Simulation time: 00 hr 26 min 37 sec)
Heartbeat CPU 0 instructions: 145500865 cycles: 133982493 heartbeat IPC: 0.6421 cumulative IPC: 0.7765 (Simulation time: 00 hr 26 min 45 sec)
Heartbeat CPU 0 instructions: 146000869 cycles: 134650669 heartbeat IPC: 0.7483 cumulative IPC: 0.7764 (Simulation time: 00 hr 26 min 52 sec)
Heartbeat CPU 0 instructions: 146500871 cycles: 135414256 heartbeat IPC: 0.6548 cumulative IPC: 0.7756 (Simulation time: 00 hr 27 min 00 sec)
Heartbeat CPU 0 instructions: 147000877 cycles: 136172483 heartbeat IPC: 0.6594 cumulative IPC: 0.7749 (Simulation time: 00 hr 27 min 08 sec)
Heartbeat CPU 0 instructions: 147500884 cycles: 136682685 heartbeat IPC: 0.98 cumulative IPC: 0.7757 (Simulation time: 00 hr 27 min 14 sec)
Heartbeat CPU 0 instructions: 148000886 cycles: 136949862 heartbeat IPC: 1.871 cumulative IPC: 0.7781 (Simulation time: 00 hr 27 min 17 sec)
Heartbeat CPU 0 instructions: 148500892 cycles: 137290186 heartbeat IPC: 1.469 cumulative IPC: 0.7799 (Simulation time: 00 hr 27 min 21 sec)
Heartbeat CPU 0 instructions: 149000897 cycles: 137514877 heartbeat IPC: 2.225 cumulative IPC: 0.7825 (Simulation time: 00 hr 27 min 24 sec)
Heartbeat CPU 0 instructions: 149500904 cycles: 137776962 heartbeat IPC: 1.908 cumulative IPC: 0.7848 (Simulation time: 00 hr 27 min 28 sec)
Heartbeat CPU 0 instructions: 150000904 cycles: 138102995 heartbeat IPC: 1.534 cumulative IPC: 0.7867 (Simulation time: 00 hr 27 min 32 sec)
Heartbeat CPU 0 instructions: 150500906 cycles: 138372593 heartbeat IPC: 1.855 cumulative IPC: 0.789 (Simulation time: 00 hr 27 min 35 sec)
Heartbeat CPU 0 instructions: 151000907 cycles: 138612497 heartbeat IPC: 2.084 cumulative IPC: 0.7914 (Simulation time: 00 hr 27 min 38 sec)
Heartbeat CPU 0 instructions: 151500909 cycles: 138844938 heartbeat IPC: 2.151 cumulative IPC: 0.7939 (Simulation time: 00 hr 27 min 42 sec)
Heartbeat CPU 0 instructions: 152000909 cycles: 139045145 heartbeat IPC: 2.497 cumulative IPC: 0.7966 (Simulation time: 00 hr 27 min 44 sec)
Heartbeat CPU 0 instructions: 152500912 cycles: 139252595 heartbeat IPC: 2.41 cumulative IPC: 0.7992 (Simulation time: 00 hr 27 min 47 sec)
Heartbeat CPU 0 instructions: 153000917 cycles: 139463326 heartbeat IPC: 2.373 cumulative IPC: 0.8018 (Simulation time: 00 hr 27 min 50 sec)
Heartbeat CPU 0 instructions: 153500923 cycles: 139716715 heartbeat IPC: 1.973 cumulative IPC: 0.8041 (Simulation time: 00 hr 27 min 53 sec)
Heartbeat CPU 0 instructions: 154000927 cycles: 139909041 heartbeat IPC: 2.6 cumulative IPC: 0.8067 (Simulation time: 00 hr 27 min 56 sec)
Heartbeat CPU 0 instructions: 154500933 cycles: 140114241 heartbeat IPC: 2.437 cumulative IPC: 0.8093 (Simulation time: 00 hr 27 min 58 sec)
Heartbeat CPU 0 instructions: 155000937 cycles: 140302581 heartbeat IPC: 2.655 cumulative IPC: 0.812 (Simulation time: 00 hr 28 min 01 sec)
Heartbeat CPU 0 instructions: 155500939 cycles: 140478263 heartbeat IPC: 2.846 cumulative IPC: 0.8148 (Simulation time: 00 hr 28 min 03 sec)
Heartbeat CPU 0 instructions: 156000943 cycles: 140669512 heartbeat IPC: 2.614 cumulative IPC: 0.8174 (Simulation time: 00 hr 28 min 06 sec)
Heartbeat CPU 0 instructions: 156500945 cycles: 140893287 heartbeat IPC: 2.234 cumulative IPC: 0.8199 (Simulation time: 00 hr 28 min 09 sec)
Heartbeat CPU 0 instructions: 157000951 cycles: 141099365 heartbeat IPC: 2.426 cumulative IPC: 0.8224 (Simulation time: 00 hr 28 min 12 sec)
Heartbeat CPU 0 instructions: 157500952 cycles: 141309345 heartbeat IPC: 2.381 cumulative IPC: 0.8249 (Simulation time: 00 hr 28 min 14 sec)
Heartbeat CPU 0 instructions: 158000956 cycles: 141488043 heartbeat IPC: 2.798 cumulative IPC: 0.8276 (Simulation time: 00 hr 28 min 17 sec)
Heartbeat CPU 0 instructions: 158500963 cycles: 141759099 heartbeat IPC: 1.845 cumulative IPC: 0.8297 (Simulation time: 00 hr 28 min 20 sec)
Heartbeat CPU 0 instructions: 159000964 cycles: 141934932 heartbeat IPC: 2.844 cumulative IPC: 0.8324 (Simulation time: 00 hr 28 min 23 sec)
Heartbeat CPU 0 instructions: 159500969 cycles: 142118282 heartbeat IPC: 2.727 cumulative IPC: 0.8351 (Simulation time: 00 hr 28 min 25 sec)
Heartbeat CPU 0 instructions: 160000969 cycles: 142289659 heartbeat IPC: 2.918 cumulative IPC: 0.8378 (Simulation time: 00 hr 28 min 27 sec)
Heartbeat CPU 0 instructions: 160500975 cycles: 142470428 heartbeat IPC: 2.766 cumulative IPC: 0.8405 (Simulation time: 00 hr 28 min 30 sec)
Heartbeat CPU 0 instructions: 161000979 cycles: 142656600 heartbeat IPC: 2.686 cumulative IPC: 0.8431 (Simulation time: 00 hr 28 min 32 sec)
Heartbeat CPU 0 instructions: 161500979 cycles: 142887896 heartbeat IPC: 2.162 cumulative IPC: 0.8454 (Simulation time: 00 hr 28 min 35 sec)
Heartbeat CPU 0 instructions: 162000981 cycles: 143089010 heartbeat IPC: 2.486 cumulative IPC: 0.8479 (Simulation time: 00 hr 28 min 38 sec)
Heartbeat CPU 0 instructions: 162500987 cycles: 143271729 heartbeat IPC: 2.736 cumulative IPC: 0.8505 (Simulation time: 00 hr 28 min 40 sec)
Heartbeat CPU 0 instructions: 163000987 cycles: 143461391 heartbeat IPC: 2.636 cumulative IPC: 0.8531 (Simulation time: 00 hr 28 min 43 sec)
Heartbeat CPU 0 instructions: 163500987 cycles: 143665893 heartbeat IPC: 2.445 cumulative IPC: 0.8555 (Simulation time: 00 hr 28 min 45 sec)
Heartbeat CPU 0 instructions: 164000987 cycles: 143855997 heartbeat IPC: 2.63 cumulative IPC: 0.858 (Simulation time: 00 hr 28 min 48 sec)
Heartbeat CPU 0 instructions: 164500987 cycles: 144047633 heartbeat IPC: 2.609 cumulative IPC: 0.8606 (Simulation time: 00 hr 28 min 51 sec)
Heartbeat CPU 0 instructions: 165000987 cycles: 144241828 heartbeat IPC: 2.575 cumulative IPC: 0.8631 (Simulation time: 00 hr 28 min 53 sec)
Heartbeat CPU 0 instructions: 165500987 cycles: 144437063 heartbeat IPC: 2.561 cumulative IPC: 0.8655 (Simulation time: 00 hr 28 min 56 sec)
Heartbeat CPU 0 instructions: 166000987 cycles: 144648348 heartbeat IPC: 2.366 cumulative IPC: 0.8679 (Simulation time: 00 hr 28 min 58 sec)
Heartbeat CPU 0 instructions: 166500987 cycles: 144848014 heartbeat IPC: 2.504 cumulative IPC: 0.8704 (Simulation time: 00 hr 29 min 01 sec)
Heartbeat CPU 0 instructions: 167000987 cycles: 145058485 heartbeat IPC: 2.376 cumulative IPC: 0.8727 (Simulation time: 00 hr 29 min 04 sec)
Heartbeat CPU 0 instructions: 167500989 cycles: 145254984 heartbeat IPC: 2.545 cumulative IPC: 0.8752 (Simulation time: 00 hr 29 min 06 sec)
Heartbeat CPU 0 instructions: 168000995 cycles: 145481936 heartbeat IPC: 2.203 cumulative IPC: 0.8774 (Simulation time: 00 hr 29 min 09 sec)
Heartbeat CPU 0 instructions: 168500998 cycles: 145679157 heartbeat IPC: 2.535 cumulative IPC: 0.8798 (Simulation time: 00 hr 29 min 12 sec)
Heartbeat CPU 0 instructions: 169001002 cycles: 145883387 heartbeat IPC: 2.448 cumulative IPC: 0.8822 (Simulation time: 00 hr 29 min 15 sec)
Heartbeat CPU 0 instructions: 169501005 cycles: 146096083 heartbeat IPC: 2.351 cumulative IPC: 0.8845 (Simulation time: 00 hr 29 min 17 sec)
Heartbeat CPU 0 instructions: 170001006 cycles: 146302663 heartbeat IPC: 2.42 cumulative IPC: 0.8869 (Simulation time: 00 hr 29 min 20 sec)
Heartbeat CPU 0 instructions: 170501011 cycles: 146768822 heartbeat IPC: 1.073 cumulative IPC: 0.8875 (Simulation time: 00 hr 29 min 25 sec)
Heartbeat CPU 0 instructions: 171001015 cycles: 146979906 heartbeat IPC: 2.369 cumulative IPC: 0.8898 (Simulation time: 00 hr 29 min 28 sec)
Heartbeat CPU 0 instructions: 171501021 cycles: 147213874 heartbeat IPC: 2.137 cumulative IPC: 0.892 (Simulation time: 00 hr 29 min 31 sec)
Heartbeat CPU 0 instructions: 172001027 cycles: 147420027 heartbeat IPC: 2.425 cumulative IPC: 0.8943 (Simulation time: 00 hr 29 min 33 sec)
Heartbeat CPU 0 instructions: 172501027 cycles: 147651997 heartbeat IPC: 2.155 cumulative IPC: 0.8964 (Simulation time: 00 hr 29 min 36 sec)
Heartbeat CPU 0 instructions: 173001031 cycles: 147879835 heartbeat IPC: 2.195 cumulative IPC: 0.8986 (Simulation time: 00 hr 29 min 39 sec)
Heartbeat CPU 0 instructions: 173501035 cycles: 148099582 heartbeat IPC: 2.275 cumulative IPC: 0.9008 (Simulation time: 00 hr 29 min 42 sec)
Heartbeat CPU 0 instructions: 174001035 cycles: 148303198 heartbeat IPC: 2.456 cumulative IPC: 0.9031 (Simulation time: 00 hr 29 min 44 sec)
Heartbeat CPU 0 instructions: 174501035 cycles: 148507232 heartbeat IPC: 2.451 cumulative IPC: 0.9054 (Simulation time: 00 hr 29 min 47 sec)
Heartbeat CPU 0 instructions: 175001041 cycles: 148734971 heartbeat IPC: 2.196 cumulative IPC: 0.9075 (Simulation time: 00 hr 29 min 50 sec)
Heartbeat CPU 0 instructions: 175501043 cycles: 148937081 heartbeat IPC: 2.474 cumulative IPC: 0.9098 (Simulation time: 00 hr 29 min 52 sec)
Heartbeat CPU 0 instructions: 176001043 cycles: 149155989 heartbeat IPC: 2.284 cumulative IPC: 0.912 (Simulation time: 00 hr 29 min 55 sec)
Heartbeat CPU 0 instructions: 176501047 cycles: 149371232 heartbeat IPC: 2.323 cumulative IPC: 0.9142 (Simulation time: 00 hr 29 min 58 sec)
Heartbeat CPU 0 instructions: 177001050 cycles: 149564993 heartbeat IPC: 2.581 cumulative IPC: 0.9165 (Simulation time: 00 hr 30 min 00 sec)
Heartbeat CPU 0 instructions: 177501057 cycles: 149732131 heartbeat IPC: 2.992 cumulative IPC: 0.919 (Simulation time: 00 hr 30 min 03 sec)
Heartbeat CPU 0 instructions: 178001063 cycles: 149893811 heartbeat IPC: 3.093 cumulative IPC: 0.9215 (Simulation time: 00 hr 30 min 05 sec)
Heartbeat CPU 0 instructions: 178501065 cycles: 150080068 heartbeat IPC: 2.684 cumulative IPC: 0.9239 (Simulation time: 00 hr 30 min 07 sec)
Heartbeat CPU 0 instructions: 179001069 cycles: 150324898 heartbeat IPC: 2.042 cumulative IPC: 0.9259 (Simulation time: 00 hr 30 min 10 sec)
Heartbeat CPU 0 instructions: 179501069 cycles: 150528908 heartbeat IPC: 2.451 cumulative IPC: 0.9281 (Simulation time: 00 hr 30 min 13 sec)
Heartbeat CPU 0 instructions: 180001070 cycles: 150773737 heartbeat IPC: 2.042 cumulative IPC: 0.93 (Simulation time: 00 hr 30 min 16 sec)
Heartbeat CPU 0 instructions: 180501071 cycles: 150983225 heartbeat IPC: 2.387 cumulative IPC: 0.9322 (Simulation time: 00 hr 30 min 19 sec)
Heartbeat CPU 0 instructions: 181001071 cycles: 151173943 heartbeat IPC: 2.622 cumulative IPC: 0.9345 (Simulation time: 00 hr 30 min 21 sec)
Heartbeat CPU 0 instructions: 181501077 cycles: 151374825 heartbeat IPC: 2.489 cumulative IPC: 0.9368 (Simulation time: 00 hr 30 min 24 sec)
Heartbeat CPU 0 instructions: 182001083 cycles: 151583768 heartbeat IPC: 2.393 cumulative IPC: 0.9389 (Simulation time: 00 hr 30 min 26 sec)
Heartbeat CPU 0 instructions: 182501083 cycles: 151789802 heartbeat IPC: 2.427 cumulative IPC: 0.9411 (Simulation time: 00 hr 30 min 29 sec)
Heartbeat CPU 0 instructions: 183001085 cycles: 151992041 heartbeat IPC: 2.472 cumulative IPC: 0.9433 (Simulation time: 00 hr 30 min 32 sec)
Heartbeat CPU 0 instructions: 183501091 cycles: 152191614 heartbeat IPC: 2.505 cumulative IPC: 0.9455 (Simulation time: 00 hr 30 min 34 sec)
Heartbeat CPU 0 instructions: 184001093 cycles: 152384258 heartbeat IPC: 2.595 cumulative IPC: 0.9477 (Simulation time: 00 hr 30 min 37 sec)
Heartbeat CPU 0 instructions: 184501095 cycles: 152612193 heartbeat IPC: 2.194 cumulative IPC: 0.9497 (Simulation time: 00 hr 30 min 39 sec)
Heartbeat CPU 0 instructions: 185001101 cycles: 152822676 heartbeat IPC: 2.376 cumulative IPC: 0.9519 (Simulation time: 00 hr 30 min 42 sec)
Heartbeat CPU 0 instructions: 185501107 cycles: 153014568 heartbeat IPC: 2.606 cumulative IPC: 0.9541 (Simulation time: 00 hr 30 min 44 sec)
Heartbeat CPU 0 instructions: 186001107 cycles: 153214055 heartbeat IPC: 2.506 cumulative IPC: 0.9563 (Simulation time: 00 hr 30 min 47 sec)
Heartbeat CPU 0 instructions: 186501111 cycles: 153447364 heartbeat IPC: 2.143 cumulative IPC: 0.9582 (Simulation time: 00 hr 30 min 50 sec)
Heartbeat CPU 0 instructions: 187001115 cycles: 153659951 heartbeat IPC: 2.352 cumulative IPC: 0.9603 (Simulation time: 00 hr 30 min 53 sec)
Heartbeat CPU 0 instructions: 187501115 cycles: 153857396 heartbeat IPC: 2.532 cumulative IPC: 0.9625 (Simulation time: 00 hr 30 min 55 sec)
Heartbeat CPU 0 instructions: 188001119 cycles: 154077645 heartbeat IPC: 2.27 cumulative IPC: 0.9645 (Simulation time: 00 hr 30 min 58 sec)
Heartbeat CPU 0 instructions: 188501119 cycles: 154289761 heartbeat IPC: 2.357 cumulative IPC: 0.9665 (Simulation time: 00 hr 31 min 01 sec)
Heartbeat CPU 0 instructions: 189001119 cycles: 154518495 heartbeat IPC: 2.186 cumulative IPC: 0.9685 (Simulation time: 00 hr 31 min 03 sec)
Heartbeat CPU 0 instructions: 189501119 cycles: 154799283 heartbeat IPC: 1.781 cumulative IPC: 0.9701 (Simulation time: 00 hr 31 min 07 sec)
Heartbeat CPU 0 instructions: 190001119 cycles: 155009099 heartbeat IPC: 2.383 cumulative IPC: 0.9721 (Simulation time: 00 hr 31 min 09 sec)
Heartbeat CPU 0 instructions: 190501123 cycles: 155259246 heartbeat IPC: 1.999 cumulative IPC: 0.9739 (Simulation time: 00 hr 31 min 12 sec)
Heartbeat CPU 0 instructions: 191001125 cycles: 155479703 heartbeat IPC: 2.268 cumulative IPC: 0.9759 (Simulation time: 00 hr 31 min 15 sec)
Heartbeat CPU 0 instructions: 191501131 cycles: 155721756 heartbeat IPC: 2.066 cumulative IPC: 0.9777 (Simulation time: 00 hr 31 min 18 sec)
Heartbeat CPU 0 instructions: 192001137 cycles: 155960705 heartbeat IPC: 2.093 cumulative IPC: 0.9795 (Simulation time: 00 hr 31 min 21 sec)
Heartbeat CPU 0 instructions: 192501140 cycles: 156175708 heartbeat IPC: 2.326 cumulative IPC: 0.9815 (Simulation time: 00 hr 31 min 23 sec)
Heartbeat CPU 0 instructions: 193001145 cycles: 156587532 heartbeat IPC: 1.214 cumulative IPC: 0.9822 (Simulation time: 00 hr 31 min 28 sec)
Heartbeat CPU 0 instructions: 193501145 cycles: 157086829 heartbeat IPC: 1.001 cumulative IPC: 0.9823 (Simulation time: 00 hr 31 min 33 sec)
Heartbeat CPU 0 instructions: 194001145 cycles: 157624782 heartbeat IPC: 0.9294 cumulative IPC: 0.9821 (Simulation time: 00 hr 31 min 39 sec)
Heartbeat CPU 0 instructions: 194501145 cycles: 158145151 heartbeat IPC: 0.9609 cumulative IPC: 0.982 (Simulation time: 00 hr 31 min 45 sec)
Heartbeat CPU 0 instructions: 195001145 cycles: 158853659 heartbeat IPC: 0.7057 cumulative IPC: 0.9807 (Simulation time: 00 hr 31 min 52 sec)
Heartbeat CPU 0 instructions: 195501145 cycles: 159565641 heartbeat IPC: 0.7023 cumulative IPC: 0.9793 (Simulation time: 00 hr 32 min 00 sec)
Heartbeat CPU 0 instructions: 196001151 cycles: 160382237 heartbeat IPC: 0.6123 cumulative IPC: 0.9773 (Simulation time: 00 hr 32 min 09 sec)
Heartbeat CPU 0 instructions: 196501151 cycles: 160854675 heartbeat IPC: 1.058 cumulative IPC: 0.9776 (Simulation time: 00 hr 32 min 14 sec)
Heartbeat CPU 0 instructions: 197001152 cycles: 161222937 heartbeat IPC: 1.358 cumulative IPC: 0.9785 (Simulation time: 00 hr 32 min 18 sec)
Heartbeat CPU 0 instructions: 197501157 cycles: 161838478 heartbeat IPC: 0.8123 cumulative IPC: 0.9778 (Simulation time: 00 hr 32 min 24 sec)
Heartbeat CPU 0 instructions: 198001161 cycles: 162174762 heartbeat IPC: 1.487 cumulative IPC: 0.979 (Simulation time: 00 hr 32 min 28 sec)
Heartbeat CPU 0 instructions: 198501161 cycles: 162487415 heartbeat IPC: 1.599 cumulative IPC: 0.9803 (Simulation time: 00 hr 32 min 31 sec)
Heartbeat CPU 0 instructions: 199001165 cycles: 162737448 heartbeat IPC: 2 cumulative IPC: 0.9819 (Simulation time: 00 hr 32 min 34 sec)
Heartbeat CPU 0 instructions: 199501169 cycles: 163009545 heartbeat IPC: 1.838 cumulative IPC: 0.9835 (Simulation time: 00 hr 32 min 37 sec)
Heartbeat CPU 0 instructions: 200001171 cycles: 163458396 heartbeat IPC: 1.114 cumulative IPC: 0.9838 (Simulation time: 00 hr 32 min 42 sec)
Heartbeat CPU 0 instructions: 200501175 cycles: 163721124 heartbeat IPC: 1.903 cumulative IPC: 0.9854 (Simulation time: 00 hr 32 min 45 sec)
Heartbeat CPU 0 instructions: 201001176 cycles: 163995570 heartbeat IPC: 1.822 cumulative IPC: 0.9869 (Simulation time: 00 hr 32 min 48 sec)
Heartbeat CPU 0 instructions: 201501178 cycles: 164383225 heartbeat IPC: 1.29 cumulative IPC: 0.9877 (Simulation time: 00 hr 32 min 53 sec)
Heartbeat CPU 0 instructions: 202001183 cycles: 164656638 heartbeat IPC: 1.829 cumulative IPC: 0.9892 (Simulation time: 00 hr 32 min 56 sec)
Heartbeat CPU 0 instructions: 202501185 cycles: 165125504 heartbeat IPC: 1.066 cumulative IPC: 0.9894 (Simulation time: 00 hr 33 min 01 sec)
Heartbeat CPU 0 instructions: 203001191 cycles: 165504086 heartbeat IPC: 1.321 cumulative IPC: 0.9902 (Simulation time: 00 hr 33 min 05 sec)
Heartbeat CPU 0 instructions: 203501193 cycles: 165920709 heartbeat IPC: 1.2 cumulative IPC: 0.9908 (Simulation time: 00 hr 33 min 09 sec)
Heartbeat CPU 0 instructions: 204001193 cycles: 166438870 heartbeat IPC: 0.965 cumulative IPC: 0.9907 (Simulation time: 00 hr 33 min 15 sec)
Heartbeat CPU 0 instructions: 204501195 cycles: 166911200 heartbeat IPC: 1.059 cumulative IPC: 0.9909 (Simulation time: 00 hr 33 min 20 sec)
Heartbeat CPU 0 instructions: 205001199 cycles: 167269803 heartbeat IPC: 1.394 cumulative IPC: 0.9918 (Simulation time: 00 hr 33 min 24 sec)
Heartbeat CPU 0 instructions: 205501205 cycles: 167727353 heartbeat IPC: 1.093 cumulative IPC: 0.9921 (Simulation time: 00 hr 33 min 29 sec)
Heartbeat CPU 0 instructions: 206001206 cycles: 168232085 heartbeat IPC: 0.9906 cumulative IPC: 0.9921 (Simulation time: 00 hr 33 min 34 sec)
Heartbeat CPU 0 instructions: 206501213 cycles: 168574561 heartbeat IPC: 1.46 cumulative IPC: 0.9932 (Simulation time: 00 hr 33 min 38 sec)
Heartbeat CPU 0 instructions: 207001213 cycles: 168966739 heartbeat IPC: 1.275 cumulative IPC: 0.9939 (Simulation time: 00 hr 33 min 42 sec)
Heartbeat CPU 0 instructions: 207501213 cycles: 169341223 heartbeat IPC: 1.335 cumulative IPC: 0.9947 (Simulation time: 00 hr 33 min 46 sec)
Heartbeat CPU 0 instructions: 208001217 cycles: 169741925 heartbeat IPC: 1.248 cumulative IPC: 0.9953 (Simulation time: 00 hr 33 min 51 sec)
Heartbeat CPU 0 instructions: 208501217 cycles: 170211974 heartbeat IPC: 1.064 cumulative IPC: 0.9955 (Simulation time: 00 hr 33 min 56 sec)
Heartbeat CPU 0 instructions: 209001222 cycles: 170699880 heartbeat IPC: 1.025 cumulative IPC: 0.9956 (Simulation time: 00 hr 34 min 01 sec)
Heartbeat CPU 0 instructions: 209501224 cycles: 171054334 heartbeat IPC: 1.411 cumulative IPC: 0.9965 (Simulation time: 00 hr 34 min 04 sec)
Heartbeat CPU 0 instructions: 210001231 cycles: 171421166 heartbeat IPC: 1.363 cumulative IPC: 0.9973 (Simulation time: 00 hr 34 min 08 sec)
Heartbeat CPU 0 instructions: 210501232 cycles: 171736917 heartbeat IPC: 1.584 cumulative IPC: 0.9985 (Simulation time: 00 hr 34 min 12 sec)
Heartbeat CPU 0 instructions: 211001237 cycles: 172000872 heartbeat IPC: 1.894 cumulative IPC: 1 (Simulation time: 00 hr 34 min 15 sec)
Heartbeat CPU 0 instructions: 211501237 cycles: 172442973 heartbeat IPC: 1.131 cumulative IPC: 1 (Simulation time: 00 hr 34 min 20 sec)
Heartbeat CPU 0 instructions: 212001237 cycles: 172696012 heartbeat IPC: 1.976 cumulative IPC: 1.002 (Simulation time: 00 hr 34 min 23 sec)
Heartbeat CPU 0 instructions: 212501237 cycles: 173056818 heartbeat IPC: 1.386 cumulative IPC: 1.003 (Simulation time: 00 hr 34 min 27 sec)
Heartbeat CPU 0 instructions: 213001243 cycles: 173355848 heartbeat IPC: 1.672 cumulative IPC: 1.004 (Simulation time: 00 hr 34 min 30 sec)
Heartbeat CPU 0 instructions: 213501245 cycles: 173623969 heartbeat IPC: 1.865 cumulative IPC: 1.005 (Simulation time: 00 hr 34 min 33 sec)
Heartbeat CPU 0 instructions: 214001250 cycles: 174051830 heartbeat IPC: 1.169 cumulative IPC: 1.006 (Simulation time: 00 hr 34 min 37 sec)
Heartbeat CPU 0 instructions: 214501251 cycles: 174498623 heartbeat IPC: 1.119 cumulative IPC: 1.006 (Simulation time: 00 hr 34 min 42 sec)
Heartbeat CPU 0 instructions: 215001257 cycles: 174800324 heartbeat IPC: 1.657 cumulative IPC: 1.007 (Simulation time: 00 hr 34 min 45 sec)
Heartbeat CPU 0 instructions: 215501259 cycles: 175365768 heartbeat IPC: 0.8843 cumulative IPC: 1.007 (Simulation time: 00 hr 34 min 51 sec)
Heartbeat CPU 0 instructions: 216001263 cycles: 175823754 heartbeat IPC: 1.092 cumulative IPC: 1.007 (Simulation time: 00 hr 34 min 56 sec)
Heartbeat CPU 0 instructions: 216501263 cycles: 176130267 heartbeat IPC: 1.631 cumulative IPC: 1.008 (Simulation time: 00 hr 35 min 00 sec)
Heartbeat CPU 0 instructions: 217001265 cycles: 176414206 heartbeat IPC: 1.761 cumulative IPC: 1.01 (Simulation time: 00 hr 35 min 03 sec)
Heartbeat CPU 0 instructions: 217501265 cycles: 176712734 heartbeat IPC: 1.675 cumulative IPC: 1.011 (Simulation time: 00 hr 35 min 06 sec)
Heartbeat CPU 0 instructions: 218001268 cycles: 177031318 heartbeat IPC: 1.569 cumulative IPC: 1.012 (Simulation time: 00 hr 35 min 09 sec)
Heartbeat CPU 0 instructions: 218501275 cycles: 177325554 heartbeat IPC: 1.699 cumulative IPC: 1.013 (Simulation time: 00 hr 35 min 12 sec)
Heartbeat CPU 0 instructions: 219001281 cycles: 177677295 heartbeat IPC: 1.422 cumulative IPC: 1.014 (Simulation time: 00 hr 35 min 16 sec)
Heartbeat CPU 0 instructions: 219501281 cycles: 177943824 heartbeat IPC: 1.876 cumulative IPC: 1.015 (Simulation time: 00 hr 35 min 19 sec)
Heartbeat CPU 0 instructions: 220001281 cycles: 178226079 heartbeat IPC: 1.771 cumulative IPC: 1.017 (Simulation time: 00 hr 35 min 22 sec)
Heartbeat CPU 0 instructions: 220501281 cycles: 178518517 heartbeat IPC: 1.71 cumulative IPC: 1.018 (Simulation time: 00 hr 35 min 25 sec)
Heartbeat CPU 0 instructions: 221001283 cycles: 178870196 heartbeat IPC: 1.422 cumulative IPC: 1.019 (Simulation time: 00 hr 35 min 29 sec)
Heartbeat CPU 0 instructions: 221501289 cycles: 179165359 heartbeat IPC: 1.694 cumulative IPC: 1.02 (Simulation time: 00 hr 35 min 32 sec)
Heartbeat CPU 0 instructions: 222001289 cycles: 179601581 heartbeat IPC: 1.146 cumulative IPC: 1.02 (Simulation time: 00 hr 35 min 37 sec)
Heartbeat CPU 0 instructions: 222501289 cycles: 179926445 heartbeat IPC: 1.539 cumulative IPC: 1.021 (Simulation time: 00 hr 35 min 40 sec)
Heartbeat CPU 0 instructions: 223001289 cycles: 180209119 heartbeat IPC: 1.769 cumulative IPC: 1.022 (Simulation time: 00 hr 35 min 43 sec)
Heartbeat CPU 0 instructions: 223501289 cycles: 180485957 heartbeat IPC: 1.806 cumulative IPC: 1.024 (Simulation time: 00 hr 35 min 46 sec)
Heartbeat CPU 0 instructions: 224001293 cycles: 180821911 heartbeat IPC: 1.488 cumulative IPC: 1.025 (Simulation time: 00 hr 35 min 50 sec)
Heartbeat CPU 0 instructions: 224501298 cycles: 181160853 heartbeat IPC: 1.475 cumulative IPC: 1.025 (Simulation time: 00 hr 35 min 54 sec)
Heartbeat CPU 0 instructions: 225001301 cycles: 181531041 heartbeat IPC: 1.351 cumulative IPC: 1.026 (Simulation time: 00 hr 35 min 58 sec)
Heartbeat CPU 0 instructions: 225501301 cycles: 181878583 heartbeat IPC: 1.439 cumulative IPC: 1.027 (Simulation time: 00 hr 36 min 01 sec)
Heartbeat CPU 0 instructions: 226001305 cycles: 182186129 heartbeat IPC: 1.626 cumulative IPC: 1.028 (Simulation time: 00 hr 36 min 04 sec)
Heartbeat CPU 0 instructions: 226501305 cycles: 182488804 heartbeat IPC: 1.652 cumulative IPC: 1.029 (Simulation time: 00 hr 36 min 08 sec)
Heartbeat CPU 0 instructions: 227001308 cycles: 183138245 heartbeat IPC: 0.7699 cumulative IPC: 1.028 (Simulation time: 00 hr 36 min 15 sec)
Heartbeat CPU 0 instructions: 227501311 cycles: 183642202 heartbeat IPC: 0.9922 cumulative IPC: 1.028 (Simulation time: 00 hr 36 min 20 sec)
Heartbeat CPU 0 instructions: 228001311 cycles: 184245608 heartbeat IPC: 0.8286 cumulative IPC: 1.027 (Simulation time: 00 hr 36 min 26 sec)
Heartbeat CPU 0 instructions: 228501311 cycles: 184739644 heartbeat IPC: 1.012 cumulative IPC: 1.027 (Simulation time: 00 hr 36 min 31 sec)
Heartbeat CPU 0 instructions: 229001317 cycles: 185074672 heartbeat IPC: 1.492 cumulative IPC: 1.028 (Simulation time: 00 hr 36 min 35 sec)
Heartbeat CPU 0 instructions: 229501317 cycles: 185371033 heartbeat IPC: 1.687 cumulative IPC: 1.029 (Simulation time: 00 hr 36 min 38 sec)
Heartbeat CPU 0 instructions: 230001317 cycles: 185674272 heartbeat IPC: 1.649 cumulative IPC: 1.03 (Simulation time: 00 hr 36 min 41 sec)
Heartbeat CPU 0 instructions: 230501317 cycles: 186040209 heartbeat IPC: 1.366 cumulative IPC: 1.031 (Simulation time: 00 hr 36 min 45 sec)
Heartbeat CPU 0 instructions: 231001321 cycles: 186306872 heartbeat IPC: 1.875 cumulative IPC: 1.032 (Simulation time: 00 hr 36 min 48 sec)
Heartbeat CPU 0 instructions: 231501323 cycles: 186634589 heartbeat IPC: 1.526 cumulative IPC: 1.033 (Simulation time: 00 hr 36 min 51 sec)
Heartbeat CPU 0 instructions: 232001325 cycles: 186956071 heartbeat IPC: 1.555 cumulative IPC: 1.034 (Simulation time: 00 hr 36 min 54 sec)
Heartbeat CPU 0 instructions: 232501329 cycles: 187336771 heartbeat IPC: 1.313 cumulative IPC: 1.035 (Simulation time: 00 hr 36 min 59 sec)
Heartbeat CPU 0 instructions: 233001335 cycles: 187721019 heartbeat IPC: 1.301 cumulative IPC: 1.036 (Simulation time: 00 hr 37 min 03 sec)
Heartbeat CPU 0 instructions: 233501341 cycles: 188068585 heartbeat IPC: 1.439 cumulative IPC: 1.036 (Simulation time: 00 hr 37 min 06 sec)
Heartbeat CPU 0 instructions: 234001343 cycles: 188461858 heartbeat IPC: 1.271 cumulative IPC: 1.037 (Simulation time: 00 hr 37 min 11 sec)
Heartbeat CPU 0 instructions: 234501345 cycles: 188820292 heartbeat IPC: 1.395 cumulative IPC: 1.038 (Simulation time: 00 hr 37 min 14 sec)
Heartbeat CPU 0 instructions: 235001347 cycles: 189121429 heartbeat IPC: 1.66 cumulative IPC: 1.039 (Simulation time: 00 hr 37 min 18 sec)
Heartbeat CPU 0 instructions: 235501351 cycles: 189407868 heartbeat IPC: 1.746 cumulative IPC: 1.04 (Simulation time: 00 hr 37 min 21 sec)
Heartbeat CPU 0 instructions: 236001351 cycles: 189744498 heartbeat IPC: 1.485 cumulative IPC: 1.041 (Simulation time: 00 hr 37 min 24 sec)
Heartbeat CPU 0 instructions: 236501354 cycles: 190040052 heartbeat IPC: 1.692 cumulative IPC: 1.042 (Simulation time: 00 hr 37 min 27 sec)
Heartbeat CPU 0 instructions: 237001355 cycles: 190344014 heartbeat IPC: 1.645 cumulative IPC: 1.043 (Simulation time: 00 hr 37 min 30 sec)
Heartbeat CPU 0 instructions: 237501357 cycles: 190653310 heartbeat IPC: 1.617 cumulative IPC: 1.044 (Simulation time: 00 hr 37 min 33 sec)
Heartbeat CPU 0 instructions: 238001358 cycles: 190942147 heartbeat IPC: 1.731 cumulative IPC: 1.045 (Simulation time: 00 hr 37 min 36 sec)
Heartbeat CPU 0 instructions: 238501365 cycles: 191232148 heartbeat IPC: 1.724 cumulative IPC: 1.046 (Simulation time: 00 hr 37 min 39 sec)
Heartbeat CPU 0 instructions: 239001367 cycles: 191795117 heartbeat IPC: 0.8882 cumulative IPC: 1.045 (Simulation time: 00 hr 37 min 45 sec)
Heartbeat CPU 0 instructions: 239501367 cycles: 192111909 heartbeat IPC: 1.578 cumulative IPC: 1.046 (Simulation time: 00 hr 37 min 48 sec)
Heartbeat CPU 0 instructions: 240001369 cycles: 192380453 heartbeat IPC: 1.862 cumulative IPC: 1.047 (Simulation time: 00 hr 37 min 51 sec)
Heartbeat CPU 0 instructions: 240501369 cycles: 192685818 heartbeat IPC: 1.637 cumulative IPC: 1.048 (Simulation time: 00 hr 37 min 54 sec)
Heartbeat CPU 0 instructions: 241001369 cycles: 192990246 heartbeat IPC: 1.642 cumulative IPC: 1.049 (Simulation time: 00 hr 37 min 57 sec)
Heartbeat CPU 0 instructions: 241501375 cycles: 193270745 heartbeat IPC: 1.783 cumulative IPC: 1.051 (Simulation time: 00 hr 38 min 00 sec)
Heartbeat CPU 0 instructions: 242001379 cycles: 193545109 heartbeat IPC: 1.822 cumulative IPC: 1.052 (Simulation time: 00 hr 38 min 03 sec)
Heartbeat CPU 0 instructions: 242501383 cycles: 193832151 heartbeat IPC: 1.742 cumulative IPC: 1.053 (Simulation time: 00 hr 38 min 06 sec)
Heartbeat CPU 0 instructions: 243001389 cycles: 194251352 heartbeat IPC: 1.193 cumulative IPC: 1.053 (Simulation time: 00 hr 38 min 10 sec)
Heartbeat CPU 0 instructions: 243501389 cycles: 194565421 heartbeat IPC: 1.592 cumulative IPC: 1.054 (Simulation time: 00 hr 38 min 13 sec)
Heartbeat CPU 0 instructions: 244001391 cycles: 194868191 heartbeat IPC: 1.651 cumulative IPC: 1.055 (Simulation time: 00 hr 38 min 16 sec)
Heartbeat CPU 0 instructions: 244501393 cycles: 195171446 heartbeat IPC: 1.649 cumulative IPC: 1.056 (Simulation time: 00 hr 38 min 19 sec)
Heartbeat CPU 0 instructions: 245001395 cycles: 195554975 heartbeat IPC: 1.304 cumulative IPC: 1.057 (Simulation time: 00 hr 38 min 23 sec)
Heartbeat CPU 0 instructions: 245501395 cycles: 195869437 heartbeat IPC: 1.59 cumulative IPC: 1.057 (Simulation time: 00 hr 38 min 26 sec)
Heartbeat CPU 0 instructions: 246001395 cycles: 196155483 heartbeat IPC: 1.748 cumulative IPC: 1.059 (Simulation time: 00 hr 38 min 29 sec)
Heartbeat CPU 0 instructions: 246501395 cycles: 196443491 heartbeat IPC: 1.736 cumulative IPC: 1.06 (Simulation time: 00 hr 38 min 32 sec)
Heartbeat CPU 0 instructions: 247001395 cycles: 196773001 heartbeat IPC: 1.517 cumulative IPC: 1.06 (Simulation time: 00 hr 38 min 35 sec)
Heartbeat CPU 0 instructions: 247501395 cycles: 197120945 heartbeat IPC: 1.437 cumulative IPC: 1.061 (Simulation time: 00 hr 38 min 39 sec)
Heartbeat CPU 0 instructions: 248001397 cycles: 197464882 heartbeat IPC: 1.454 cumulative IPC: 1.062 (Simulation time: 00 hr 38 min 42 sec)
Heartbeat CPU 0 instructions: 248501397 cycles: 197973128 heartbeat IPC: 0.9838 cumulative IPC: 1.062 (Simulation time: 00 hr 38 min 47 sec)
Heartbeat CPU 0 instructions: 249001399 cycles: 198418361 heartbeat IPC: 1.123 cumulative IPC: 1.062 (Simulation time: 00 hr 38 min 51 sec)
Heartbeat CPU 0 instructions: 249501403 cycles: 198999815 heartbeat IPC: 0.8599 cumulative IPC: 1.061 (Simulation time: 00 hr 38 min 57 sec)
*** Reached end of trace: (0, "/local-ssd/ben/dpc4-traces/Graph/Ligra/ligra_PageRankDelta.com-lj.ungraph.gcc_6.3.0_O3.drop_24000M.length_250M.champsimtrace.xz")
Simulation finished CPU 0 instructions: 200000006 cycles: 188537577 cumulative IPC: 1.061 (Simulation time: 00 hr 39 min 02 sec)
Simulation complete CPU 0 instructions: 200000006 cycles: 188537577 cumulative IPC: 1.061 (Simulation time: 00 hr 39 min 02 sec)

ChampSim completed all CPUs

=== Simulation ===
CPU 0 runs /local-ssd/ben/dpc4-traces/Graph/Ligra/ligra_PageRankDelta.com-lj.ungraph.gcc_6.3.0_O3.drop_24000M.length_250M.champsimtrace.xz

Region of Interest Statistics

CPU 0 cumulative IPC: 1.061 instructions: 200000006 cycles: 188537577
CPU 0 Branch Prediction Accuracy: 98.44% MPKI: 1.278 Average ROB Occupancy at Mispredict: 132.6
Branch type MPKI
BRANCH_DIRECT_JUMP: 3e-05
BRANCH_INDIRECT: 0
BRANCH_CONDITIONAL: 1.278
BRANCH_DIRECT_CALL: 6.5e-05
BRANCH_INDIRECT_CALL: 0
BRANCH_RETURN: 7e-05

cpu0->cpu0_STLB TOTAL        ACCESS:    2462427 HIT:    2138282 MISS:     324145 MSHR_MERGE:          0
cpu0->cpu0_STLB LOAD         ACCESS:    2462427 HIT:    2138282 MISS:     324145 MSHR_MERGE:          0
cpu0->cpu0_STLB RFO          ACCESS:          0 HIT:          0 MISS:          0 MSHR_MERGE:          0
cpu0->cpu0_STLB PREFETCH     ACCESS:          0 HIT:          0 MISS:          0 MSHR_MERGE:          0
cpu0->cpu0_STLB WRITE        ACCESS:          0 HIT:          0 MISS:          0 MSHR_MERGE:          0
cpu0->cpu0_STLB TRANSLATION  ACCESS:          0 HIT:          0 MISS:          0 MSHR_MERGE:          0
cpu0->cpu0_STLB PREFETCH REQUESTED:          0 ISSUED:          0 USEFUL:          0 USELESS:          0
cpu0->cpu0_STLB AVERAGE MISS LATENCY: 92.57 cycles
cpu0->cpu0_L2C TOTAL        ACCESS:   26510033 HIT:   19557085 MISS:    6952948 MSHR_MERGE:    1487038
cpu0->cpu0_L2C LOAD         ACCESS:    5677242 HIT:    4590426 MISS:    1086816 MSHR_MERGE:     222750
cpu0->cpu0_L2C RFO          ACCESS:    1599303 HIT:       5229 MISS:    1594074 MSHR_MERGE:          0
cpu0->cpu0_L2C PREFETCH     ACCESS:   14038218 HIT:    9795886 MISS:    4242332 MSHR_MERGE:    1264288
cpu0->cpu0_L2C WRITE        ACCESS:    4978052 HIT:    4978051 MISS:          1 MSHR_MERGE:          0
cpu0->cpu0_L2C TRANSLATION  ACCESS:     217218 HIT:     187493 MISS:      29725 MSHR_MERGE:          0
cpu0->cpu0_L2C PREFETCH REQUESTED:   14456496 ISSUED:   14038218 USEFUL:    2350694 USELESS:     617556
cpu0->cpu0_L2C AVERAGE MISS LATENCY: 464 cycles
cpu0->cpu0_L1I TOTAL        ACCESS:   29713258 HIT:   29713219 MISS:         39 MSHR_MERGE:          0
cpu0->cpu0_L1I LOAD         ACCESS:   29713258 HIT:   29713219 MISS:         39 MSHR_MERGE:          0
cpu0->cpu0_L1I RFO          ACCESS:          0 HIT:          0 MISS:          0 MSHR_MERGE:          0
cpu0->cpu0_L1I PREFETCH     ACCESS:          0 HIT:          0 MISS:          0 MSHR_MERGE:          0
cpu0->cpu0_L1I WRITE        ACCESS:          0 HIT:          0 MISS:          0 MSHR_MERGE:          0
cpu0->cpu0_L1I TRANSLATION  ACCESS:          0 HIT:          0 MISS:          0 MSHR_MERGE:          0
cpu0->cpu0_L1I PREFETCH REQUESTED:          0 ISSUED:          0 USEFUL:          0 USELESS:          0
cpu0->cpu0_L1I AVERAGE MISS LATENCY: 155 cycles
cpu0->cpu0_L1D TOTAL        ACCESS:   60194998 HIT:   35438907 MISS:   24756091 MSHR_MERGE:   17261376
cpu0->cpu0_L1D LOAD         ACCESS:   26918961 HIT:   20422473 MISS:    6496488 MSHR_MERGE:     819243
cpu0->cpu0_L1D RFO          ACCESS:          0 HIT:          0 MISS:          0 MSHR_MERGE:          0
cpu0->cpu0_L1D PREFETCH     ACCESS:          0 HIT:          0 MISS:          0 MSHR_MERGE:          0
cpu0->cpu0_L1D WRITE        ACCESS:   32638408 HIT:   14603824 MISS:   18034584 MSHR_MERGE:   16434332
cpu0->cpu0_L1D TRANSLATION  ACCESS:     637629 HIT:     412610 MISS:     225019 MSHR_MERGE:       7801
cpu0->cpu0_L1D PREFETCH REQUESTED:          0 ISSUED:          0 USEFUL:          0 USELESS:          0
cpu0->cpu0_L1D AVERAGE MISS LATENCY: 176.5 cycles
cpu0->cpu0_ITLB TOTAL        ACCESS:   24556687 HIT:   24556682 MISS:          5 MSHR_MERGE:          2
cpu0->cpu0_ITLB LOAD         ACCESS:   24556687 HIT:   24556682 MISS:          5 MSHR_MERGE:          2
cpu0->cpu0_ITLB RFO          ACCESS:          0 HIT:          0 MISS:          0 MSHR_MERGE:          0
cpu0->cpu0_ITLB PREFETCH     ACCESS:          0 HIT:          0 MISS:          0 MSHR_MERGE:          0
cpu0->cpu0_ITLB WRITE        ACCESS:          0 HIT:          0 MISS:          0 MSHR_MERGE:          0
cpu0->cpu0_ITLB TRANSLATION  ACCESS:          0 HIT:          0 MISS:          0 MSHR_MERGE:          0
cpu0->cpu0_ITLB PREFETCH REQUESTED:          0 ISSUED:          0 USEFUL:          0 USELESS:          0
cpu0->cpu0_ITLB AVERAGE MISS LATENCY: 784 cycles
cpu0->cpu0_DTLB TOTAL        ACCESS:   55283419 HIT:   51961877 MISS:    3321542 MSHR_MERGE:     859118
cpu0->cpu0_DTLB LOAD         ACCESS:   55283419 HIT:   51961877 MISS:    3321542 MSHR_MERGE:     859118
cpu0->cpu0_DTLB RFO          ACCESS:          0 HIT:          0 MISS:          0 MSHR_MERGE:          0
cpu0->cpu0_DTLB PREFETCH     ACCESS:          0 HIT:          0 MISS:          0 MSHR_MERGE:          0
cpu0->cpu0_DTLB WRITE        ACCESS:          0 HIT:          0 MISS:          0 MSHR_MERGE:          0
cpu0->cpu0_DTLB TRANSLATION  ACCESS:          0 HIT:          0 MISS:          0 MSHR_MERGE:          0
cpu0->cpu0_DTLB PREFETCH REQUESTED:          0 ISSUED:          0 USEFUL:          0 USELESS:          0
cpu0->cpu0_DTLB AVERAGE MISS LATENCY: 17.32 cycles
cpu0->LLC TOTAL        ACCESS:   11566847 HIT:    2974144 MISS:    8592703 MSHR_MERGE:    1248532
cpu0->LLC LOAD         ACCESS:     864065 HIT:     261110 MISS:     602955 MSHR_MERGE:      10627
cpu0->LLC RFO          ACCESS:    1594074 HIT:          0 MISS:    1594074 MSHR_MERGE:          0
cpu0->LLC PREFETCH     ACCESS:    6562173 HIT:    2056481 MISS:    4505692 MSHR_MERGE:    1237905
cpu0->LLC WRITE        ACCESS:    2516811 HIT:     654250 MISS:    1862561 MSHR_MERGE:          0
cpu0->LLC TRANSLATION  ACCESS:      29724 HIT:       2303 MISS:      27421 MSHR_MERGE:          0
cpu0->LLC PREFETCH REQUESTED:    3611691 ISSUED:    3584129 USEFUL:    1367854 USELESS:    1078891
cpu0->LLC AVERAGE MISS LATENCY: 277.2 cycles

DRAM Statistics

Channel 0 RQ ROW_BUFFER_HIT:     401468
  ROW_BUFFER_MISS:    5079524
  AVG DBUS CONGESTED CYCLE: 10.82
Channel 0 WQ ROW_BUFFER_HIT:     157993
  ROW_BUFFER_MISS:    2077457
  FULL:     151760
Channel 0 REFRESHES ISSUED:      15710
BERTI Stats...
