[VMEM] WARNING: physical memory size is smaller than virtual memory size.
Berti Gaze Initialized with Sets: 64 Ways: 12

*** ChampSim Multicore Out-of-Order Simulator ***
Warmup Instructions: 50000000
Simulation Instructions: 200000000
Number of CPUs: 1
Page size: 4096
Core 0: /local-ssd/ben/dpc4-traces/gtraces_v2/charlie_0000.champsim.gz
Off-chip DRAM Size: 64 GiB Channels: 1 Width: 64-bit Data Rate: 4807 MT/s
[BTB] WARNING: target of return is a lower address than the corresponding call. This is usually a problem with your trace.
[BTB] WARNING: target of return is a lower address than the corresponding call. This is usually a problem with your trace.
Heartbeat CPU 0 instructions: 500006 cycles: 299145 heartbeat IPC: 1.671 cumulative IPC: 1.671 (Simulation time: 00 hr 00 min 04 sec)
Heartbeat CPU 0 instructions: 1000011 cycles: 485182 heartbeat IPC: 2.688 cumulative IPC: 2.061 (Simulation time: 00 hr 00 min 07 sec)
[BTB] WARNING: target of return is a lower address than the corresponding call. This is usually a problem with your trace.
Heartbeat CPU 0 instructions: 1500012 cycles: 653447 heartbeat IPC: 2.972 cumulative IPC: 2.296 (Simulation time: 00 hr 00 min 10 sec)
[BTB] WARNING: target of return is a lower address than the corresponding call. This is usually a problem with your trace.
[BTB] WARNING: target of return is a lower address than the corresponding call. This is usually a problem with your trace.
Heartbeat CPU 0 instructions: 2000012 cycles: 787247 heartbeat IPC: 3.737 cumulative IPC: 2.541 (Simulation time: 00 hr 00 min 12 sec)
[BTB] WARNING: target of return is a lower address than the corresponding call. This is usually a problem with your trace.
[BTB] WARNING: target of return is a lower address than the corresponding call. This is usually a problem with your trace.
[BTB] WARNING: target of return is a lower address than the corresponding call. This is usually a problem with your trace.
[BTB] WARNING: target of return is a lower address than the corresponding call. This is usually a problem with your trace.
[BTB] WARNING: target of return is a lower address than the corresponding call. This is usually a problem with your trace.
Heartbeat CPU 0 instructions: 2500014 cycles: 935629 heartbeat IPC: 3.37 cumulative IPC: 2.672 (Simulation time: 00 hr 00 min 14 sec)
Heartbeat CPU 0 instructions: 3000021 cycles: 1044621 heartbeat IPC: 4.588 cumulative IPC: 2.872 (Simulation time: 00 hr 00 min 15 sec)
Heartbeat CPU 0 instructions: 3500023 cycles: 1151946 heartbeat IPC: 4.659 cumulative IPC: 3.038 (Simulation time: 00 hr 00 min 17 sec)
Heartbeat CPU 0 instructions: 4000027 cycles: 1259729 heartbeat IPC: 4.639 cumulative IPC: 3.175 (Simulation time: 00 hr 00 min 19 sec)
Heartbeat CPU 0 instructions: 4500034 cycles: 1365772 heartbeat IPC: 4.715 cumulative IPC: 3.295 (Simulation time: 00 hr 00 min 20 sec)
Heartbeat CPU 0 instructions: 5000034 cycles: 1471840 heartbeat IPC: 4.714 cumulative IPC: 3.397 (Simulation time: 00 hr 00 min 22 sec)
Heartbeat CPU 0 instructions: 5500040 cycles: 1576759 heartbeat IPC: 4.766 cumulative IPC: 3.488 (Simulation time: 00 hr 00 min 24 sec)
Heartbeat CPU 0 instructions: 6000040 cycles: 1681549 heartbeat IPC: 4.771 cumulative IPC: 3.568 (Simulation time: 00 hr 00 min 25 sec)
Heartbeat CPU 0 instructions: 6500040 cycles: 1788819 heartbeat IPC: 4.661 cumulative IPC: 3.634 (Simulation time: 00 hr 00 min 27 sec)
Heartbeat CPU 0 instructions: 7000042 cycles: 1895366 heartbeat IPC: 4.693 cumulative IPC: 3.693 (Simulation time: 00 hr 00 min 29 sec)
Heartbeat CPU 0 instructions: 7500049 cycles: 2005160 heartbeat IPC: 4.554 cumulative IPC: 3.74 (Simulation time: 00 hr 00 min 30 sec)
Heartbeat CPU 0 instructions: 8000052 cycles: 2110945 heartbeat IPC: 4.727 cumulative IPC: 3.79 (Simulation time: 00 hr 00 min 32 sec)
Heartbeat CPU 0 instructions: 8500059 cycles: 2218289 heartbeat IPC: 4.658 cumulative IPC: 3.832 (Simulation time: 00 hr 00 min 34 sec)
Heartbeat CPU 0 instructions: 9000060 cycles: 2328856 heartbeat IPC: 4.522 cumulative IPC: 3.865 (Simulation time: 00 hr 00 min 36 sec)
Heartbeat CPU 0 instructions: 9500062 cycles: 2432426 heartbeat IPC: 4.828 cumulative IPC: 3.906 (Simulation time: 00 hr 00 min 37 sec)
Heartbeat CPU 0 instructions: 10000069 cycles: 2536593 heartbeat IPC: 4.8 cumulative IPC: 3.942 (Simulation time: 00 hr 00 min 39 sec)
Heartbeat CPU 0 instructions: 10500076 cycles: 2641185 heartbeat IPC: 4.781 cumulative IPC: 3.976 (Simulation time: 00 hr 00 min 40 sec)
Heartbeat CPU 0 instructions: 11000076 cycles: 2746626 heartbeat IPC: 4.742 cumulative IPC: 4.005 (Simulation time: 00 hr 00 min 42 sec)
Heartbeat CPU 0 instructions: 11500082 cycles: 2851225 heartbeat IPC: 4.78 cumulative IPC: 4.033 (Simulation time: 00 hr 00 min 44 sec)
Heartbeat CPU 0 instructions: 12000082 cycles: 2969685 heartbeat IPC: 4.221 cumulative IPC: 4.041 (Simulation time: 00 hr 00 min 46 sec)
Heartbeat CPU 0 instructions: 12500086 cycles: 3099347 heartbeat IPC: 3.856 cumulative IPC: 4.033 (Simulation time: 00 hr 00 min 48 sec)
Heartbeat CPU 0 instructions: 13000093 cycles: 3209308 heartbeat IPC: 4.547 cumulative IPC: 4.051 (Simulation time: 00 hr 00 min 49 sec)
Heartbeat CPU 0 instructions: 13500096 cycles: 3313556 heartbeat IPC: 4.796 cumulative IPC: 4.074 (Simulation time: 00 hr 00 min 51 sec)
Heartbeat CPU 0 instructions: 14000097 cycles: 3419791 heartbeat IPC: 4.707 cumulative IPC: 4.094 (Simulation time: 00 hr 00 min 53 sec)
Heartbeat CPU 0 instructions: 14500100 cycles: 3525353 heartbeat IPC: 4.737 cumulative IPC: 4.113 (Simulation time: 00 hr 00 min 54 sec)
Heartbeat CPU 0 instructions: 15000104 cycles: 3629903 heartbeat IPC: 4.782 cumulative IPC: 4.132 (Simulation time: 00 hr 00 min 56 sec)
Heartbeat CPU 0 instructions: 15500106 cycles: 3734120 heartbeat IPC: 4.798 cumulative IPC: 4.151 (Simulation time: 00 hr 00 min 57 sec)
Heartbeat CPU 0 instructions: 16000106 cycles: 3839644 heartbeat IPC: 4.738 cumulative IPC: 4.167 (Simulation time: 00 hr 00 min 59 sec)
Heartbeat CPU 0 instructions: 16500110 cycles: 3947784 heartbeat IPC: 4.624 cumulative IPC: 4.18 (Simulation time: 00 hr 01 min 01 sec)
Heartbeat CPU 0 instructions: 17000111 cycles: 4056018 heartbeat IPC: 4.62 cumulative IPC: 4.191 (Simulation time: 00 hr 01 min 03 sec)
Heartbeat CPU 0 instructions: 17500113 cycles: 4162528 heartbeat IPC: 4.694 cumulative IPC: 4.204 (Simulation time: 00 hr 01 min 04 sec)
Heartbeat CPU 0 instructions: 18000114 cycles: 4268795 heartbeat IPC: 4.705 cumulative IPC: 4.217 (Simulation time: 00 hr 01 min 06 sec)
Heartbeat CPU 0 instructions: 18500115 cycles: 4375950 heartbeat IPC: 4.666 cumulative IPC: 4.228 (Simulation time: 00 hr 01 min 08 sec)
Heartbeat CPU 0 instructions: 19000120 cycles: 4515866 heartbeat IPC: 3.574 cumulative IPC: 4.207 (Simulation time: 00 hr 01 min 10 sec)
Heartbeat CPU 0 instructions: 19500123 cycles: 4618358 heartbeat IPC: 4.878 cumulative IPC: 4.222 (Simulation time: 00 hr 01 min 11 sec)
Heartbeat CPU 0 instructions: 20000124 cycles: 4720107 heartbeat IPC: 4.914 cumulative IPC: 4.237 (Simulation time: 00 hr 01 min 12 sec)
Heartbeat CPU 0 instructions: 20500128 cycles: 4822578 heartbeat IPC: 4.879 cumulative IPC: 4.251 (Simulation time: 00 hr 01 min 14 sec)
Heartbeat CPU 0 instructions: 21000134 cycles: 4924050 heartbeat IPC: 4.928 cumulative IPC: 4.265 (Simulation time: 00 hr 01 min 15 sec)
Heartbeat CPU 0 instructions: 21500140 cycles: 5029870 heartbeat IPC: 4.725 cumulative IPC: 4.274 (Simulation time: 00 hr 01 min 16 sec)
Heartbeat CPU 0 instructions: 22000146 cycles: 5209117 heartbeat IPC: 2.789 cumulative IPC: 4.223 (Simulation time: 00 hr 01 min 19 sec)
Heartbeat CPU 0 instructions: 22500148 cycles: 5404430 heartbeat IPC: 2.56 cumulative IPC: 4.163 (Simulation time: 00 hr 01 min 22 sec)
Heartbeat CPU 0 instructions: 23000151 cycles: 5530644 heartbeat IPC: 3.962 cumulative IPC: 4.159 (Simulation time: 00 hr 01 min 24 sec)
Heartbeat CPU 0 instructions: 23500158 cycles: 5657851 heartbeat IPC: 3.931 cumulative IPC: 4.154 (Simulation time: 00 hr 01 min 26 sec)
Heartbeat CPU 0 instructions: 24000165 cycles: 5820220 heartbeat IPC: 3.079 cumulative IPC: 4.124 (Simulation time: 00 hr 01 min 28 sec)
Heartbeat CPU 0 instructions: 24500170 cycles: 5925522 heartbeat IPC: 4.748 cumulative IPC: 4.135 (Simulation time: 00 hr 01 min 30 sec)
Heartbeat CPU 0 instructions: 25000174 cycles: 6029681 heartbeat IPC: 4.8 cumulative IPC: 4.146 (Simulation time: 00 hr 01 min 31 sec)
Heartbeat CPU 0 instructions: 25500181 cycles: 6136487 heartbeat IPC: 4.681 cumulative IPC: 4.156 (Simulation time: 00 hr 01 min 33 sec)
Heartbeat CPU 0 instructions: 26000185 cycles: 6240674 heartbeat IPC: 4.799 cumulative IPC: 4.166 (Simulation time: 00 hr 01 min 35 sec)
Heartbeat CPU 0 instructions: 26500189 cycles: 6345698 heartbeat IPC: 4.761 cumulative IPC: 4.176 (Simulation time: 00 hr 01 min 37 sec)
Heartbeat CPU 0 instructions: 27000189 cycles: 6449493 heartbeat IPC: 4.817 cumulative IPC: 4.186 (Simulation time: 00 hr 01 min 38 sec)
Heartbeat CPU 0 instructions: 27500192 cycles: 6572781 heartbeat IPC: 4.056 cumulative IPC: 4.184 (Simulation time: 00 hr 01 min 40 sec)
Heartbeat CPU 0 instructions: 28000199 cycles: 6677096 heartbeat IPC: 4.793 cumulative IPC: 4.193 (Simulation time: 00 hr 01 min 42 sec)
Heartbeat CPU 0 instructions: 28500205 cycles: 6781903 heartbeat IPC: 4.771 cumulative IPC: 4.202 (Simulation time: 00 hr 01 min 44 sec)
Heartbeat CPU 0 instructions: 29000212 cycles: 6890474 heartbeat IPC: 4.605 cumulative IPC: 4.209 (Simulation time: 00 hr 01 min 45 sec)
Heartbeat CPU 0 instructions: 29500214 cycles: 7022262 heartbeat IPC: 3.794 cumulative IPC: 4.201 (Simulation time: 00 hr 01 min 47 sec)
Heartbeat CPU 0 instructions: 30000215 cycles: 7123579 heartbeat IPC: 4.935 cumulative IPC: 4.211 (Simulation time: 00 hr 01 min 49 sec)
Heartbeat CPU 0 instructions: 30500222 cycles: 7225190 heartbeat IPC: 4.921 cumulative IPC: 4.221 (Simulation time: 00 hr 01 min 50 sec)
Heartbeat CPU 0 instructions: 31000226 cycles: 7325594 heartbeat IPC: 4.98 cumulative IPC: 4.232 (Simulation time: 00 hr 01 min 51 sec)
Heartbeat CPU 0 instructions: 31500232 cycles: 7425594 heartbeat IPC: 5 cumulative IPC: 4.242 (Simulation time: 00 hr 01 min 53 sec)
Heartbeat CPU 0 instructions: 32000233 cycles: 7529624 heartbeat IPC: 4.806 cumulative IPC: 4.25 (Simulation time: 00 hr 01 min 54 sec)
Heartbeat CPU 0 instructions: 32500237 cycles: 7647671 heartbeat IPC: 4.236 cumulative IPC: 4.25 (Simulation time: 00 hr 01 min 56 sec)
Heartbeat CPU 0 instructions: 33000240 cycles: 7753332 heartbeat IPC: 4.732 cumulative IPC: 4.256 (Simulation time: 00 hr 01 min 57 sec)
Heartbeat CPU 0 instructions: 33500241 cycles: 7867910 heartbeat IPC: 4.364 cumulative IPC: 4.258 (Simulation time: 00 hr 01 min 59 sec)
Heartbeat CPU 0 instructions: 34000246 cycles: 7977789 heartbeat IPC: 4.551 cumulative IPC: 4.262 (Simulation time: 00 hr 02 min 01 sec)
Heartbeat CPU 0 instructions: 34500249 cycles: 8091965 heartbeat IPC: 4.379 cumulative IPC: 4.264 (Simulation time: 00 hr 02 min 03 sec)
Heartbeat CPU 0 instructions: 35000255 cycles: 8203550 heartbeat IPC: 4.481 cumulative IPC: 4.266 (Simulation time: 00 hr 02 min 04 sec)
Heartbeat CPU 0 instructions: 35500261 cycles: 8325597 heartbeat IPC: 4.097 cumulative IPC: 4.264 (Simulation time: 00 hr 02 min 06 sec)
Heartbeat CPU 0 instructions: 36000265 cycles: 8436082 heartbeat IPC: 4.526 cumulative IPC: 4.267 (Simulation time: 00 hr 02 min 08 sec)
Heartbeat CPU 0 instructions: 36500268 cycles: 8561735 heartbeat IPC: 3.979 cumulative IPC: 4.263 (Simulation time: 00 hr 02 min 10 sec)
Heartbeat CPU 0 instructions: 37000275 cycles: 8663970 heartbeat IPC: 4.891 cumulative IPC: 4.271 (Simulation time: 00 hr 02 min 11 sec)
Heartbeat CPU 0 instructions: 37500277 cycles: 8764863 heartbeat IPC: 4.956 cumulative IPC: 4.278 (Simulation time: 00 hr 02 min 13 sec)
Heartbeat CPU 0 instructions: 38000281 cycles: 8865203 heartbeat IPC: 4.983 cumulative IPC: 4.286 (Simulation time: 00 hr 02 min 14 sec)
Heartbeat CPU 0 instructions: 38500286 cycles: 8965202 heartbeat IPC: 5 cumulative IPC: 4.294 (Simulation time: 00 hr 02 min 15 sec)
Heartbeat CPU 0 instructions: 39000293 cycles: 9069754 heartbeat IPC: 4.782 cumulative IPC: 4.3 (Simulation time: 00 hr 02 min 17 sec)
Heartbeat CPU 0 instructions: 39500294 cycles: 9192505 heartbeat IPC: 4.073 cumulative IPC: 4.297 (Simulation time: 00 hr 02 min 18 sec)
Heartbeat CPU 0 instructions: 40000299 cycles: 9296926 heartbeat IPC: 4.788 cumulative IPC: 4.303 (Simulation time: 00 hr 02 min 20 sec)
Heartbeat CPU 0 instructions: 40500299 cycles: 9401437 heartbeat IPC: 4.784 cumulative IPC: 4.308 (Simulation time: 00 hr 02 min 22 sec)
Heartbeat CPU 0 instructions: 41000305 cycles: 9504741 heartbeat IPC: 4.84 cumulative IPC: 4.314 (Simulation time: 00 hr 02 min 23 sec)
Heartbeat CPU 0 instructions: 41500312 cycles: 9610727 heartbeat IPC: 4.718 cumulative IPC: 4.318 (Simulation time: 00 hr 02 min 25 sec)
Heartbeat CPU 0 instructions: 42000316 cycles: 9717032 heartbeat IPC: 4.703 cumulative IPC: 4.322 (Simulation time: 00 hr 02 min 27 sec)
Heartbeat CPU 0 instructions: 42500316 cycles: 9821866 heartbeat IPC: 4.769 cumulative IPC: 4.327 (Simulation time: 00 hr 02 min 28 sec)
Heartbeat CPU 0 instructions: 43000320 cycles: 9924888 heartbeat IPC: 4.853 cumulative IPC: 4.333 (Simulation time: 00 hr 02 min 30 sec)
Heartbeat CPU 0 instructions: 43500325 cycles: 10031939 heartbeat IPC: 4.671 cumulative IPC: 4.336 (Simulation time: 00 hr 02 min 32 sec)
Heartbeat CPU 0 instructions: 44000325 cycles: 10137613 heartbeat IPC: 4.732 cumulative IPC: 4.34 (Simulation time: 00 hr 02 min 33 sec)
Heartbeat CPU 0 instructions: 44500328 cycles: 10242132 heartbeat IPC: 4.784 cumulative IPC: 4.345 (Simulation time: 00 hr 02 min 35 sec)
Heartbeat CPU 0 instructions: 45000330 cycles: 10345747 heartbeat IPC: 4.826 cumulative IPC: 4.35 (Simulation time: 00 hr 02 min 37 sec)
Heartbeat CPU 0 instructions: 45500331 cycles: 10451739 heartbeat IPC: 4.717 cumulative IPC: 4.353 (Simulation time: 00 hr 02 min 38 sec)
Heartbeat CPU 0 instructions: 46000331 cycles: 10561940 heartbeat IPC: 4.537 cumulative IPC: 4.355 (Simulation time: 00 hr 02 min 40 sec)
Heartbeat CPU 0 instructions: 46500335 cycles: 10664572 heartbeat IPC: 4.872 cumulative IPC: 4.36 (Simulation time: 00 hr 02 min 42 sec)
Heartbeat CPU 0 instructions: 47000336 cycles: 10768097 heartbeat IPC: 4.83 cumulative IPC: 4.365 (Simulation time: 00 hr 02 min 43 sec)
Heartbeat CPU 0 instructions: 47500340 cycles: 10914038 heartbeat IPC: 3.426 cumulative IPC: 4.352 (Simulation time: 00 hr 02 min 45 sec)
Heartbeat CPU 0 instructions: 48000343 cycles: 11015661 heartbeat IPC: 4.92 cumulative IPC: 4.357 (Simulation time: 00 hr 02 min 47 sec)
Heartbeat CPU 0 instructions: 48500348 cycles: 11154746 heartbeat IPC: 3.595 cumulative IPC: 4.348 (Simulation time: 00 hr 02 min 49 sec)
Heartbeat CPU 0 instructions: 49000351 cycles: 11255672 heartbeat IPC: 4.954 cumulative IPC: 4.353 (Simulation time: 00 hr 02 min 50 sec)
Heartbeat CPU 0 instructions: 49500352 cycles: 11355673 heartbeat IPC: 5 cumulative IPC: 4.359 (Simulation time: 00 hr 02 min 51 sec)
Warmup finished CPU 0 instructions: 50000005 cycles: 11457474 cumulative IPC: 4.364 (Simulation time: 00 hr 02 min 53 sec)
Warmup complete CPU 0 instructions: 50000005 cycles: 11457474 cumulative IPC: 4.364 (Simulation time: 00 hr 02 min 53 sec)
Heartbeat CPU 0 instructions: 50000353 cycles: 11457745 heartbeat IPC: 4.899 cumulative IPC: 1.284 (Simulation time: 00 hr 02 min 53 sec)
Heartbeat CPU 0 instructions: 50500354 cycles: 12201546 heartbeat IPC: 0.6722 cumulative IPC: 0.6724 (Simulation time: 00 hr 02 min 59 sec)
Heartbeat CPU 0 instructions: 51000358 cycles: 12804267 heartbeat IPC: 0.8296 cumulative IPC: 0.7428 (Simulation time: 00 hr 03 min 03 sec)
Heartbeat CPU 0 instructions: 51500361 cycles: 13244042 heartbeat IPC: 1.137 cumulative IPC: 0.8398 (Simulation time: 00 hr 03 min 07 sec)
Heartbeat CPU 0 instructions: 52000364 cycles: 13627814 heartbeat IPC: 1.303 cumulative IPC: 0.9217 (Simulation time: 00 hr 03 min 11 sec)
Heartbeat CPU 0 instructions: 52500368 cycles: 14062596 heartbeat IPC: 1.15 cumulative IPC: 0.9598 (Simulation time: 00 hr 03 min 14 sec)
Heartbeat CPU 0 instructions: 53000370 cycles: 14579148 heartbeat IPC: 0.968 cumulative IPC: 0.9611 (Simulation time: 00 hr 03 min 18 sec)
Heartbeat CPU 0 instructions: 53500370 cycles: 14876966 heartbeat IPC: 1.679 cumulative IPC: 1.024 (Simulation time: 00 hr 03 min 21 sec)
Heartbeat CPU 0 instructions: 54000373 cycles: 15156340 heartbeat IPC: 1.79 cumulative IPC: 1.082 (Simulation time: 00 hr 03 min 23 sec)
Heartbeat CPU 0 instructions: 54500375 cycles: 15443764 heartbeat IPC: 1.74 cumulative IPC: 1.129 (Simulation time: 00 hr 03 min 25 sec)
Heartbeat CPU 0 instructions: 55000376 cycles: 15694536 heartbeat IPC: 1.994 cumulative IPC: 1.18 (Simulation time: 00 hr 03 min 28 sec)
Heartbeat CPU 0 instructions: 55500382 cycles: 15936819 heartbeat IPC: 2.064 cumulative IPC: 1.228 (Simulation time: 00 hr 03 min 30 sec)
Heartbeat CPU 0 instructions: 56000384 cycles: 16654895 heartbeat IPC: 0.6963 cumulative IPC: 1.154 (Simulation time: 00 hr 03 min 36 sec)
Heartbeat CPU 0 instructions: 56500389 cycles: 17329250 heartbeat IPC: 0.7415 cumulative IPC: 1.107 (Simulation time: 00 hr 03 min 42 sec)
Heartbeat CPU 0 instructions: 57000395 cycles: 18773871 heartbeat IPC: 0.3461 cumulative IPC: 0.9568 (Simulation time: 00 hr 03 min 52 sec)
Heartbeat CPU 0 instructions: 57500395 cycles: 19298472 heartbeat IPC: 0.9531 cumulative IPC: 0.9566 (Simulation time: 00 hr 03 min 57 sec)
Heartbeat CPU 0 instructions: 58000395 cycles: 19708710 heartbeat IPC: 1.219 cumulative IPC: 0.9696 (Simulation time: 00 hr 04 min 00 sec)
Heartbeat CPU 0 instructions: 58500397 cycles: 20205440 heartbeat IPC: 1.007 cumulative IPC: 0.9717 (Simulation time: 00 hr 04 min 05 sec)
Heartbeat CPU 0 instructions: 59000399 cycles: 20621154 heartbeat IPC: 1.203 cumulative IPC: 0.9822 (Simulation time: 00 hr 04 min 08 sec)
Heartbeat CPU 0 instructions: 59500400 cycles: 21049394 heartbeat IPC: 1.168 cumulative IPC: 0.9905 (Simulation time: 00 hr 04 min 12 sec)
Heartbeat CPU 0 instructions: 60000400 cycles: 21461920 heartbeat IPC: 1.212 cumulative IPC: 0.9996 (Simulation time: 00 hr 04 min 16 sec)
Heartbeat CPU 0 instructions: 60500405 cycles: 21828318 heartbeat IPC: 1.365 cumulative IPC: 1.012 (Simulation time: 00 hr 04 min 19 sec)
Heartbeat CPU 0 instructions: 61000408 cycles: 22575768 heartbeat IPC: 0.6689 cumulative IPC: 0.9894 (Simulation time: 00 hr 04 min 25 sec)
Heartbeat CPU 0 instructions: 61500412 cycles: 23005464 heartbeat IPC: 1.164 cumulative IPC: 0.9959 (Simulation time: 00 hr 04 min 29 sec)
Heartbeat CPU 0 instructions: 62000418 cycles: 23405691 heartbeat IPC: 1.249 cumulative IPC: 1.004 (Simulation time: 00 hr 04 min 32 sec)
Heartbeat CPU 0 instructions: 62500418 cycles: 23834017 heartbeat IPC: 1.167 cumulative IPC: 1.01 (Simulation time: 00 hr 04 min 36 sec)
Heartbeat CPU 0 instructions: 63000418 cycles: 24273538 heartbeat IPC: 1.138 cumulative IPC: 1.014 (Simulation time: 00 hr 04 min 40 sec)
Heartbeat CPU 0 instructions: 63500418 cycles: 24651079 heartbeat IPC: 1.324 cumulative IPC: 1.023 (Simulation time: 00 hr 04 min 43 sec)
Heartbeat CPU 0 instructions: 64000418 cycles: 25052621 heartbeat IPC: 1.245 cumulative IPC: 1.03 (Simulation time: 00 hr 04 min 47 sec)
Heartbeat CPU 0 instructions: 64500418 cycles: 25451462 heartbeat IPC: 1.254 cumulative IPC: 1.036 (Simulation time: 00 hr 04 min 50 sec)
Heartbeat CPU 0 instructions: 65000418 cycles: 25856928 heartbeat IPC: 1.233 cumulative IPC: 1.042 (Simulation time: 00 hr 04 min 54 sec)
Heartbeat CPU 0 instructions: 65500420 cycles: 26253317 heartbeat IPC: 1.261 cumulative IPC: 1.048 (Simulation time: 00 hr 04 min 57 sec)
Heartbeat CPU 0 instructions: 66000423 cycles: 26644609 heartbeat IPC: 1.278 cumulative IPC: 1.054 (Simulation time: 00 hr 05 min 01 sec)
Heartbeat CPU 0 instructions: 66500424 cycles: 27033210 heartbeat IPC: 1.287 cumulative IPC: 1.059 (Simulation time: 00 hr 05 min 04 sec)
Heartbeat CPU 0 instructions: 67000424 cycles: 27443165 heartbeat IPC: 1.22 cumulative IPC: 1.063 (Simulation time: 00 hr 05 min 08 sec)
Heartbeat CPU 0 instructions: 67500426 cycles: 27838687 heartbeat IPC: 1.264 cumulative IPC: 1.068 (Simulation time: 00 hr 05 min 11 sec)
Heartbeat CPU 0 instructions: 68000426 cycles: 28123838 heartbeat IPC: 1.753 cumulative IPC: 1.08 (Simulation time: 00 hr 05 min 14 sec)
Heartbeat CPU 0 instructions: 68500428 cycles: 28506143 heartbeat IPC: 1.308 cumulative IPC: 1.085 (Simulation time: 00 hr 05 min 18 sec)
Heartbeat CPU 0 instructions: 69000429 cycles: 28918863 heartbeat IPC: 1.211 cumulative IPC: 1.088 (Simulation time: 00 hr 05 min 21 sec)
Heartbeat CPU 0 instructions: 69500432 cycles: 29363989 heartbeat IPC: 1.123 cumulative IPC: 1.089 (Simulation time: 00 hr 05 min 25 sec)
Heartbeat CPU 0 instructions: 70000433 cycles: 29803883 heartbeat IPC: 1.137 cumulative IPC: 1.09 (Simulation time: 00 hr 05 min 29 sec)
Heartbeat CPU 0 instructions: 70500439 cycles: 30202441 heartbeat IPC: 1.255 cumulative IPC: 1.094 (Simulation time: 00 hr 05 min 32 sec)
Heartbeat CPU 0 instructions: 71000440 cycles: 31497133 heartbeat IPC: 0.3862 cumulative IPC: 1.048 (Simulation time: 00 hr 05 min 42 sec)
Heartbeat CPU 0 instructions: 71500440 cycles: 31809206 heartbeat IPC: 1.602 cumulative IPC: 1.056 (Simulation time: 00 hr 05 min 44 sec)
Heartbeat CPU 0 instructions: 72000441 cycles: 32103510 heartbeat IPC: 1.699 cumulative IPC: 1.066 (Simulation time: 00 hr 05 min 47 sec)
Heartbeat CPU 0 instructions: 72500441 cycles: 32398229 heartbeat IPC: 1.697 cumulative IPC: 1.074 (Simulation time: 00 hr 05 min 49 sec)
Heartbeat CPU 0 instructions: 73000442 cycles: 32663223 heartbeat IPC: 1.887 cumulative IPC: 1.085 (Simulation time: 00 hr 05 min 51 sec)
Heartbeat CPU 0 instructions: 73500442 cycles: 32901101 heartbeat IPC: 2.102 cumulative IPC: 1.096 (Simulation time: 00 hr 05 min 53 sec)
Heartbeat CPU 0 instructions: 74000442 cycles: 33325331 heartbeat IPC: 1.179 cumulative IPC: 1.098 (Simulation time: 00 hr 05 min 57 sec)
Heartbeat CPU 0 instructions: 74500445 cycles: 33850582 heartbeat IPC: 0.9519 cumulative IPC: 1.094 (Simulation time: 00 hr 06 min 01 sec)
Heartbeat CPU 0 instructions: 75000451 cycles: 34209519 heartbeat IPC: 1.393 cumulative IPC: 1.099 (Simulation time: 00 hr 06 min 05 sec)
Heartbeat CPU 0 instructions: 75500451 cycles: 34684895 heartbeat IPC: 1.052 cumulative IPC: 1.098 (Simulation time: 00 hr 06 min 09 sec)
Heartbeat CPU 0 instructions: 76000451 cycles: 35057911 heartbeat IPC: 1.34 cumulative IPC: 1.102 (Simulation time: 00 hr 06 min 13 sec)
Heartbeat CPU 0 instructions: 76500453 cycles: 35396627 heartbeat IPC: 1.476 cumulative IPC: 1.107 (Simulation time: 00 hr 06 min 16 sec)
Heartbeat CPU 0 instructions: 77000453 cycles: 35780054 heartbeat IPC: 1.304 cumulative IPC: 1.11 (Simulation time: 00 hr 06 min 20 sec)
Heartbeat CPU 0 instructions: 77500453 cycles: 36261490 heartbeat IPC: 1.039 cumulative IPC: 1.109 (Simulation time: 00 hr 06 min 24 sec)
Heartbeat CPU 0 instructions: 78000453 cycles: 36653832 heartbeat IPC: 1.274 cumulative IPC: 1.111 (Simulation time: 00 hr 06 min 27 sec)
Heartbeat CPU 0 instructions: 78500457 cycles: 37002907 heartbeat IPC: 1.432 cumulative IPC: 1.116 (Simulation time: 00 hr 06 min 31 sec)
Heartbeat CPU 0 instructions: 79000460 cycles: 37439085 heartbeat IPC: 1.146 cumulative IPC: 1.116 (Simulation time: 00 hr 06 min 35 sec)
Heartbeat CPU 0 instructions: 79500465 cycles: 37843075 heartbeat IPC: 1.238 cumulative IPC: 1.118 (Simulation time: 00 hr 06 min 38 sec)
Heartbeat CPU 0 instructions: 80000468 cycles: 38207380 heartbeat IPC: 1.372 cumulative IPC: 1.122 (Simulation time: 00 hr 06 min 41 sec)
Heartbeat CPU 0 instructions: 80500472 cycles: 38531857 heartbeat IPC: 1.541 cumulative IPC: 1.127 (Simulation time: 00 hr 06 min 45 sec)
Heartbeat CPU 0 instructions: 81000476 cycles: 38926156 heartbeat IPC: 1.268 cumulative IPC: 1.129 (Simulation time: 00 hr 06 min 48 sec)
Heartbeat CPU 0 instructions: 81500477 cycles: 39336213 heartbeat IPC: 1.219 cumulative IPC: 1.13 (Simulation time: 00 hr 06 min 52 sec)
Heartbeat CPU 0 instructions: 82000477 cycles: 39742100 heartbeat IPC: 1.232 cumulative IPC: 1.131 (Simulation time: 00 hr 06 min 56 sec)
Heartbeat CPU 0 instructions: 82500482 cycles: 40208987 heartbeat IPC: 1.071 cumulative IPC: 1.13 (Simulation time: 00 hr 07 min 00 sec)
Heartbeat CPU 0 instructions: 83000486 cycles: 40652428 heartbeat IPC: 1.128 cumulative IPC: 1.13 (Simulation time: 00 hr 07 min 04 sec)
Heartbeat CPU 0 instructions: 83500490 cycles: 41992684 heartbeat IPC: 0.3731 cumulative IPC: 1.097 (Simulation time: 00 hr 07 min 14 sec)
Heartbeat CPU 0 instructions: 84000492 cycles: 42284891 heartbeat IPC: 1.711 cumulative IPC: 1.103 (Simulation time: 00 hr 07 min 16 sec)
Heartbeat CPU 0 instructions: 84500492 cycles: 42566114 heartbeat IPC: 1.778 cumulative IPC: 1.109 (Simulation time: 00 hr 07 min 19 sec)
Heartbeat CPU 0 instructions: 85000493 cycles: 42858713 heartbeat IPC: 1.709 cumulative IPC: 1.115 (Simulation time: 00 hr 07 min 21 sec)
Heartbeat CPU 0 instructions: 85500496 cycles: 43251163 heartbeat IPC: 1.274 cumulative IPC: 1.117 (Simulation time: 00 hr 07 min 24 sec)
Heartbeat CPU 0 instructions: 86000500 cycles: 43588546 heartbeat IPC: 1.482 cumulative IPC: 1.12 (Simulation time: 00 hr 07 min 27 sec)
Heartbeat CPU 0 instructions: 86500507 cycles: 44153737 heartbeat IPC: 0.8847 cumulative IPC: 1.116 (Simulation time: 00 hr 07 min 32 sec)
Heartbeat CPU 0 instructions: 87000507 cycles: 44594261 heartbeat IPC: 1.135 cumulative IPC: 1.117 (Simulation time: 00 hr 07 min 36 sec)
Heartbeat CPU 0 instructions: 87500510 cycles: 45024984 heartbeat IPC: 1.161 cumulative IPC: 1.117 (Simulation time: 00 hr 07 min 39 sec)
Heartbeat CPU 0 instructions: 88000510 cycles: 45388421 heartbeat IPC: 1.376 cumulative IPC: 1.12 (Simulation time: 00 hr 07 min 43 sec)
Heartbeat CPU 0 instructions: 88500510 cycles: 45773926 heartbeat IPC: 1.297 cumulative IPC: 1.122 (Simulation time: 00 hr 07 min 46 sec)
Heartbeat CPU 0 instructions: 89000510 cycles: 46164295 heartbeat IPC: 1.281 cumulative IPC: 1.124 (Simulation time: 00 hr 07 min 50 sec)
Heartbeat CPU 0 instructions: 89500511 cycles: 46572092 heartbeat IPC: 1.226 cumulative IPC: 1.125 (Simulation time: 00 hr 07 min 54 sec)
Heartbeat CPU 0 instructions: 90000514 cycles: 46944717 heartbeat IPC: 1.342 cumulative IPC: 1.127 (Simulation time: 00 hr 07 min 57 sec)
Heartbeat CPU 0 instructions: 90500517 cycles: 47288551 heartbeat IPC: 1.454 cumulative IPC: 1.13 (Simulation time: 00 hr 08 min 00 sec)
Heartbeat CPU 0 instructions: 91000520 cycles: 47707280 heartbeat IPC: 1.194 cumulative IPC: 1.131 (Simulation time: 00 hr 08 min 04 sec)
Heartbeat CPU 0 instructions: 91500524 cycles: 48072456 heartbeat IPC: 1.369 cumulative IPC: 1.133 (Simulation time: 00 hr 08 min 08 sec)
Heartbeat CPU 0 instructions: 92000530 cycles: 48448372 heartbeat IPC: 1.33 cumulative IPC: 1.135 (Simulation time: 00 hr 08 min 11 sec)
Heartbeat CPU 0 instructions: 92500531 cycles: 48828368 heartbeat IPC: 1.316 cumulative IPC: 1.137 (Simulation time: 00 hr 08 min 14 sec)
Heartbeat CPU 0 instructions: 93000534 cycles: 49190900 heartbeat IPC: 1.379 cumulative IPC: 1.14 (Simulation time: 00 hr 08 min 18 sec)
Heartbeat CPU 0 instructions: 93500534 cycles: 49603961 heartbeat IPC: 1.21 cumulative IPC: 1.14 (Simulation time: 00 hr 08 min 22 sec)
Heartbeat CPU 0 instructions: 94000534 cycles: 50004541 heartbeat IPC: 1.248 cumulative IPC: 1.141 (Simulation time: 00 hr 08 min 25 sec)
Heartbeat CPU 0 instructions: 94500535 cycles: 50400980 heartbeat IPC: 1.261 cumulative IPC: 1.143 (Simulation time: 00 hr 08 min 29 sec)
Heartbeat CPU 0 instructions: 95000541 cycles: 50784595 heartbeat IPC: 1.303 cumulative IPC: 1.144 (Simulation time: 00 hr 08 min 33 sec)
Heartbeat CPU 0 instructions: 95500547 cycles: 51156650 heartbeat IPC: 1.344 cumulative IPC: 1.146 (Simulation time: 00 hr 08 min 36 sec)
Heartbeat CPU 0 instructions: 96000550 cycles: 51552654 heartbeat IPC: 1.263 cumulative IPC: 1.147 (Simulation time: 00 hr 08 min 40 sec)
Heartbeat CPU 0 instructions: 96500552 cycles: 52150089 heartbeat IPC: 0.8369 cumulative IPC: 1.143 (Simulation time: 00 hr 08 min 45 sec)
Heartbeat CPU 0 instructions: 97000556 cycles: 52449706 heartbeat IPC: 1.669 cumulative IPC: 1.147 (Simulation time: 00 hr 08 min 47 sec)
Heartbeat CPU 0 instructions: 97500558 cycles: 52750092 heartbeat IPC: 1.665 cumulative IPC: 1.15 (Simulation time: 00 hr 08 min 50 sec)
Heartbeat CPU 0 instructions: 98000559 cycles: 53049263 heartbeat IPC: 1.671 cumulative IPC: 1.154 (Simulation time: 00 hr 08 min 52 sec)
Heartbeat CPU 0 instructions: 98500561 cycles: 53309754 heartbeat IPC: 1.919 cumulative IPC: 1.159 (Simulation time: 00 hr 08 min 54 sec)
Heartbeat CPU 0 instructions: 99000561 cycles: 53561019 heartbeat IPC: 1.99 cumulative IPC: 1.164 (Simulation time: 00 hr 08 min 56 sec)
Heartbeat CPU 0 instructions: 99500568 cycles: 54018388 heartbeat IPC: 1.093 cumulative IPC: 1.163 (Simulation time: 00 hr 09 min 01 sec)
Heartbeat CPU 0 instructions: 100000568 cycles: 54446111 heartbeat IPC: 1.169 cumulative IPC: 1.163 (Simulation time: 00 hr 09 min 05 sec)
Heartbeat CPU 0 instructions: 100500575 cycles: 55145551 heartbeat IPC: 0.7149 cumulative IPC: 1.156 (Simulation time: 00 hr 09 min 11 sec)
Heartbeat CPU 0 instructions: 101000577 cycles: 55372019 heartbeat IPC: 2.208 cumulative IPC: 1.161 (Simulation time: 00 hr 09 min 14 sec)
Heartbeat CPU 0 instructions: 101500584 cycles: 55507583 heartbeat IPC: 3.688 cumulative IPC: 1.169 (Simulation time: 00 hr 09 min 15 sec)
Heartbeat CPU 0 instructions: 102000584 cycles: 55901369 heartbeat IPC: 1.27 cumulative IPC: 1.17 (Simulation time: 00 hr 09 min 18 sec)
Heartbeat CPU 0 instructions: 102500588 cycles: 56263628 heartbeat IPC: 1.38 cumulative IPC: 1.172 (Simulation time: 00 hr 09 min 22 sec)
Heartbeat CPU 0 instructions: 103000594 cycles: 56627850 heartbeat IPC: 1.373 cumulative IPC: 1.173 (Simulation time: 00 hr 09 min 26 sec)
Heartbeat CPU 0 instructions: 103500595 cycles: 57043831 heartbeat IPC: 1.202 cumulative IPC: 1.174 (Simulation time: 00 hr 09 min 30 sec)
Heartbeat CPU 0 instructions: 104000601 cycles: 57422793 heartbeat IPC: 1.319 cumulative IPC: 1.175 (Simulation time: 00 hr 09 min 34 sec)
Heartbeat CPU 0 instructions: 104500602 cycles: 57886148 heartbeat IPC: 1.079 cumulative IPC: 1.174 (Simulation time: 00 hr 09 min 38 sec)
Heartbeat CPU 0 instructions: 105000602 cycles: 58249401 heartbeat IPC: 1.376 cumulative IPC: 1.175 (Simulation time: 00 hr 09 min 42 sec)
Heartbeat CPU 0 instructions: 105500604 cycles: 58723508 heartbeat IPC: 1.055 cumulative IPC: 1.174 (Simulation time: 00 hr 09 min 46 sec)
Heartbeat CPU 0 instructions: 106000605 cycles: 59085781 heartbeat IPC: 1.38 cumulative IPC: 1.176 (Simulation time: 00 hr 09 min 50 sec)
Heartbeat CPU 0 instructions: 106500611 cycles: 59357458 heartbeat IPC: 1.84 cumulative IPC: 1.18 (Simulation time: 00 hr 09 min 53 sec)
Heartbeat CPU 0 instructions: 107000611 cycles: 59594362 heartbeat IPC: 2.111 cumulative IPC: 1.184 (Simulation time: 00 hr 09 min 55 sec)
Heartbeat CPU 0 instructions: 107500618 cycles: 59781287 heartbeat IPC: 2.675 cumulative IPC: 1.19 (Simulation time: 00 hr 09 min 57 sec)
Heartbeat CPU 0 instructions: 108000619 cycles: 59968318 heartbeat IPC: 2.673 cumulative IPC: 1.196 (Simulation time: 00 hr 10 min 00 sec)
Heartbeat CPU 0 instructions: 108500622 cycles: 60155345 heartbeat IPC: 2.673 cumulative IPC: 1.201 (Simulation time: 00 hr 10 min 02 sec)
Heartbeat CPU 0 instructions: 109000623 cycles: 60338818 heartbeat IPC: 2.725 cumulative IPC: 1.207 (Simulation time: 00 hr 10 min 04 sec)
Heartbeat CPU 0 instructions: 109500628 cycles: 60439629 heartbeat IPC: 4.96 cumulative IPC: 1.215 (Simulation time: 00 hr 10 min 06 sec)
Heartbeat CPU 0 instructions: 110000630 cycles: 60540302 heartbeat IPC: 4.967 cumulative IPC: 1.222 (Simulation time: 00 hr 10 min 07 sec)
Heartbeat CPU 0 instructions: 110500631 cycles: 61169178 heartbeat IPC: 0.7951 cumulative IPC: 1.217 (Simulation time: 00 hr 10 min 12 sec)
Heartbeat CPU 0 instructions: 111000637 cycles: 61356221 heartbeat IPC: 2.673 cumulative IPC: 1.222 (Simulation time: 00 hr 10 min 14 sec)
Heartbeat CPU 0 instructions: 111500637 cycles: 62074973 heartbeat IPC: 0.6957 cumulative IPC: 1.215 (Simulation time: 00 hr 10 min 20 sec)
Heartbeat CPU 0 instructions: 112000637 cycles: 62375297 heartbeat IPC: 1.665 cumulative IPC: 1.218 (Simulation time: 00 hr 10 min 23 sec)
Heartbeat CPU 0 instructions: 112500637 cycles: 62662613 heartbeat IPC: 1.74 cumulative IPC: 1.221 (Simulation time: 00 hr 10 min 25 sec)
Heartbeat CPU 0 instructions: 113000638 cycles: 62961793 heartbeat IPC: 1.671 cumulative IPC: 1.223 (Simulation time: 00 hr 10 min 27 sec)
Heartbeat CPU 0 instructions: 113500638 cycles: 63218568 heartbeat IPC: 1.947 cumulative IPC: 1.227 (Simulation time: 00 hr 10 min 29 sec)
Heartbeat CPU 0 instructions: 114000638 cycles: 63468269 heartbeat IPC: 2.002 cumulative IPC: 1.231 (Simulation time: 00 hr 10 min 32 sec)
Heartbeat CPU 0 instructions: 114500639 cycles: 63689234 heartbeat IPC: 2.263 cumulative IPC: 1.235 (Simulation time: 00 hr 10 min 34 sec)
Heartbeat CPU 0 instructions: 115000644 cycles: 63790480 heartbeat IPC: 4.939 cumulative IPC: 1.242 (Simulation time: 00 hr 10 min 35 sec)
Heartbeat CPU 0 instructions: 115500647 cycles: 64294668 heartbeat IPC: 0.9917 cumulative IPC: 1.24 (Simulation time: 00 hr 10 min 40 sec)
Heartbeat CPU 0 instructions: 116000647 cycles: 64481322 heartbeat IPC: 2.679 cumulative IPC: 1.245 (Simulation time: 00 hr 10 min 42 sec)
Heartbeat CPU 0 instructions: 116500648 cycles: 64668202 heartbeat IPC: 2.676 cumulative IPC: 1.25 (Simulation time: 00 hr 10 min 44 sec)
Heartbeat CPU 0 instructions: 117000649 cycles: 64772130 heartbeat IPC: 4.811 cumulative IPC: 1.257 (Simulation time: 00 hr 10 min 46 sec)
Heartbeat CPU 0 instructions: 117500649 cycles: 64872527 heartbeat IPC: 4.98 cumulative IPC: 1.264 (Simulation time: 00 hr 10 min 47 sec)
Heartbeat CPU 0 instructions: 118000649 cycles: 65107870 heartbeat IPC: 2.125 cumulative IPC: 1.267 (Simulation time: 00 hr 10 min 49 sec)
Heartbeat CPU 0 instructions: 118500654 cycles: 65295235 heartbeat IPC: 2.669 cumulative IPC: 1.272 (Simulation time: 00 hr 10 min 52 sec)
Heartbeat CPU 0 instructions: 119000655 cycles: 65481770 heartbeat IPC: 2.68 cumulative IPC: 1.277 (Simulation time: 00 hr 10 min 54 sec)
Heartbeat CPU 0 instructions: 119500655 cycles: 65687672 heartbeat IPC: 2.428 cumulative IPC: 1.282 (Simulation time: 00 hr 10 min 56 sec)
Heartbeat CPU 0 instructions: 120000658 cycles: 66019974 heartbeat IPC: 1.505 cumulative IPC: 1.283 (Simulation time: 00 hr 10 min 59 sec)
Heartbeat CPU 0 instructions: 120500659 cycles: 67015569 heartbeat IPC: 0.5022 cumulative IPC: 1.269 (Simulation time: 00 hr 11 min 06 sec)
Heartbeat CPU 0 instructions: 121000665 cycles: 67427156 heartbeat IPC: 1.215 cumulative IPC: 1.269 (Simulation time: 00 hr 11 min 10 sec)
Heartbeat CPU 0 instructions: 121500670 cycles: 67802349 heartbeat IPC: 1.333 cumulative IPC: 1.269 (Simulation time: 00 hr 11 min 14 sec)
Heartbeat CPU 0 instructions: 122000671 cycles: 68213596 heartbeat IPC: 1.216 cumulative IPC: 1.269 (Simulation time: 00 hr 11 min 17 sec)
Heartbeat CPU 0 instructions: 122500674 cycles: 68603129 heartbeat IPC: 1.284 cumulative IPC: 1.269 (Simulation time: 00 hr 11 min 21 sec)
Heartbeat CPU 0 instructions: 123000675 cycles: 68951117 heartbeat IPC: 1.437 cumulative IPC: 1.27 (Simulation time: 00 hr 11 min 24 sec)
Heartbeat CPU 0 instructions: 123500681 cycles: 69308695 heartbeat IPC: 1.398 cumulative IPC: 1.271 (Simulation time: 00 hr 11 min 27 sec)
Heartbeat CPU 0 instructions: 124000683 cycles: 69715688 heartbeat IPC: 1.229 cumulative IPC: 1.27 (Simulation time: 00 hr 11 min 31 sec)
Heartbeat CPU 0 instructions: 124500688 cycles: 70101531 heartbeat IPC: 1.296 cumulative IPC: 1.27 (Simulation time: 00 hr 11 min 35 sec)
Heartbeat CPU 0 instructions: 125000691 cycles: 70466691 heartbeat IPC: 1.369 cumulative IPC: 1.271 (Simulation time: 00 hr 11 min 38 sec)
Heartbeat CPU 0 instructions: 125500695 cycles: 70801298 heartbeat IPC: 1.494 cumulative IPC: 1.272 (Simulation time: 00 hr 11 min 41 sec)
Heartbeat CPU 0 instructions: 126000700 cycles: 71239490 heartbeat IPC: 1.141 cumulative IPC: 1.271 (Simulation time: 00 hr 11 min 45 sec)
Heartbeat CPU 0 instructions: 126500705 cycles: 71596139 heartbeat IPC: 1.402 cumulative IPC: 1.272 (Simulation time: 00 hr 11 min 49 sec)
Heartbeat CPU 0 instructions: 127000710 cycles: 71937463 heartbeat IPC: 1.465 cumulative IPC: 1.273 (Simulation time: 00 hr 11 min 52 sec)
Heartbeat CPU 0 instructions: 127500710 cycles: 72283308 heartbeat IPC: 1.446 cumulative IPC: 1.274 (Simulation time: 00 hr 11 min 55 sec)
Heartbeat CPU 0 instructions: 128000717 cycles: 72616593 heartbeat IPC: 1.5 cumulative IPC: 1.275 (Simulation time: 00 hr 11 min 58 sec)
Heartbeat CPU 0 instructions: 128500724 cycles: 72979750 heartbeat IPC: 1.377 cumulative IPC: 1.276 (Simulation time: 00 hr 12 min 02 sec)
Heartbeat CPU 0 instructions: 129000731 cycles: 73320154 heartbeat IPC: 1.469 cumulative IPC: 1.277 (Simulation time: 00 hr 12 min 05 sec)
Heartbeat CPU 0 instructions: 129500731 cycles: 73670275 heartbeat IPC: 1.428 cumulative IPC: 1.278 (Simulation time: 00 hr 12 min 08 sec)
Heartbeat CPU 0 instructions: 130000736 cycles: 74005360 heartbeat IPC: 1.492 cumulative IPC: 1.279 (Simulation time: 00 hr 12 min 12 sec)
Heartbeat CPU 0 instructions: 130500736 cycles: 75213430 heartbeat IPC: 0.4139 cumulative IPC: 1.263 (Simulation time: 00 hr 12 min 21 sec)
Heartbeat CPU 0 instructions: 131000739 cycles: 76089490 heartbeat IPC: 0.5707 cumulative IPC: 1.253 (Simulation time: 00 hr 12 min 29 sec)
Heartbeat CPU 0 instructions: 131500744 cycles: 76778787 heartbeat IPC: 0.7254 cumulative IPC: 1.248 (Simulation time: 00 hr 12 min 36 sec)
Heartbeat CPU 0 instructions: 132000747 cycles: 77460148 heartbeat IPC: 0.7338 cumulative IPC: 1.242 (Simulation time: 00 hr 12 min 42 sec)
Heartbeat CPU 0 instructions: 132500747 cycles: 78083071 heartbeat IPC: 0.8027 cumulative IPC: 1.238 (Simulation time: 00 hr 12 min 48 sec)
Heartbeat CPU 0 instructions: 133000751 cycles: 78744834 heartbeat IPC: 0.7556 cumulative IPC: 1.234 (Simulation time: 00 hr 12 min 54 sec)
Heartbeat CPU 0 instructions: 133500751 cycles: 79432744 heartbeat IPC: 0.7268 cumulative IPC: 1.228 (Simulation time: 00 hr 13 min 00 sec)
Heartbeat CPU 0 instructions: 134000752 cycles: 80042330 heartbeat IPC: 0.8202 cumulative IPC: 1.225 (Simulation time: 00 hr 13 min 06 sec)
Heartbeat CPU 0 instructions: 134500759 cycles: 80609505 heartbeat IPC: 0.8816 cumulative IPC: 1.222 (Simulation time: 00 hr 13 min 12 sec)
Heartbeat CPU 0 instructions: 135000761 cycles: 81270838 heartbeat IPC: 0.7561 cumulative IPC: 1.218 (Simulation time: 00 hr 13 min 17 sec)
Heartbeat CPU 0 instructions: 135500763 cycles: 81560834 heartbeat IPC: 1.724 cumulative IPC: 1.22 (Simulation time: 00 hr 13 min 19 sec)
Heartbeat CPU 0 instructions: 136000763 cycles: 81841749 heartbeat IPC: 1.78 cumulative IPC: 1.222 (Simulation time: 00 hr 13 min 22 sec)
Heartbeat CPU 0 instructions: 136500764 cycles: 82124469 heartbeat IPC: 1.769 cumulative IPC: 1.224 (Simulation time: 00 hr 13 min 24 sec)
Heartbeat CPU 0 instructions: 137000768 cycles: 82368287 heartbeat IPC: 2.051 cumulative IPC: 1.227 (Simulation time: 00 hr 13 min 26 sec)
Heartbeat CPU 0 instructions: 137500773 cycles: 82606735 heartbeat IPC: 2.097 cumulative IPC: 1.23 (Simulation time: 00 hr 13 min 28 sec)
Heartbeat CPU 0 instructions: 138000776 cycles: 83249486 heartbeat IPC: 0.7779 cumulative IPC: 1.226 (Simulation time: 00 hr 13 min 34 sec)
Heartbeat CPU 0 instructions: 138500777 cycles: 83681019 heartbeat IPC: 1.159 cumulative IPC: 1.225 (Simulation time: 00 hr 13 min 38 sec)
Heartbeat CPU 0 instructions: 139000780 cycles: 84032314 heartbeat IPC: 1.423 cumulative IPC: 1.226 (Simulation time: 00 hr 13 min 41 sec)
Heartbeat CPU 0 instructions: 139500786 cycles: 84469386 heartbeat IPC: 1.144 cumulative IPC: 1.226 (Simulation time: 00 hr 13 min 45 sec)
Heartbeat CPU 0 instructions: 140000791 cycles: 84846927 heartbeat IPC: 1.324 cumulative IPC: 1.226 (Simulation time: 00 hr 13 min 48 sec)
Heartbeat CPU 0 instructions: 140500795 cycles: 85269173 heartbeat IPC: 1.184 cumulative IPC: 1.226 (Simulation time: 00 hr 13 min 52 sec)
Heartbeat CPU 0 instructions: 141000798 cycles: 85652459 heartbeat IPC: 1.305 cumulative IPC: 1.227 (Simulation time: 00 hr 13 min 55 sec)
Heartbeat CPU 0 instructions: 141500803 cycles: 86061691 heartbeat IPC: 1.222 cumulative IPC: 1.226 (Simulation time: 00 hr 13 min 59 sec)
Heartbeat CPU 0 instructions: 142000810 cycles: 86410975 heartbeat IPC: 1.432 cumulative IPC: 1.227 (Simulation time: 00 hr 14 min 02 sec)
Heartbeat CPU 0 instructions: 142500812 cycles: 86831626 heartbeat IPC: 1.189 cumulative IPC: 1.227 (Simulation time: 00 hr 14 min 06 sec)
Heartbeat CPU 0 instructions: 143000812 cycles: 87236843 heartbeat IPC: 1.234 cumulative IPC: 1.227 (Simulation time: 00 hr 14 min 10 sec)
Heartbeat CPU 0 instructions: 143500812 cycles: 87623814 heartbeat IPC: 1.292 cumulative IPC: 1.228 (Simulation time: 00 hr 14 min 13 sec)
Heartbeat CPU 0 instructions: 144000813 cycles: 88051162 heartbeat IPC: 1.17 cumulative IPC: 1.227 (Simulation time: 00 hr 14 min 17 sec)
Heartbeat CPU 0 instructions: 144500819 cycles: 88451261 heartbeat IPC: 1.25 cumulative IPC: 1.227 (Simulation time: 00 hr 14 min 21 sec)
Heartbeat CPU 0 instructions: 145000819 cycles: 88840536 heartbeat IPC: 1.284 cumulative IPC: 1.228 (Simulation time: 00 hr 14 min 24 sec)
Heartbeat CPU 0 instructions: 145500826 cycles: 89223641 heartbeat IPC: 1.305 cumulative IPC: 1.228 (Simulation time: 00 hr 14 min 28 sec)
Heartbeat CPU 0 instructions: 146000828 cycles: 89659400 heartbeat IPC: 1.147 cumulative IPC: 1.228 (Simulation time: 00 hr 14 min 32 sec)
Heartbeat CPU 0 instructions: 146500832 cycles: 90027256 heartbeat IPC: 1.359 cumulative IPC: 1.228 (Simulation time: 00 hr 14 min 35 sec)
Heartbeat CPU 0 instructions: 147000834 cycles: 90445163 heartbeat IPC: 1.196 cumulative IPC: 1.228 (Simulation time: 00 hr 14 min 39 sec)
Heartbeat CPU 0 instructions: 147500839 cycles: 90838750 heartbeat IPC: 1.27 cumulative IPC: 1.228 (Simulation time: 00 hr 14 min 43 sec)
Heartbeat CPU 0 instructions: 148000839 cycles: 91651073 heartbeat IPC: 0.6155 cumulative IPC: 1.222 (Simulation time: 00 hr 14 min 49 sec)
Heartbeat CPU 0 instructions: 148500840 cycles: 92740291 heartbeat IPC: 0.459 cumulative IPC: 1.212 (Simulation time: 00 hr 14 min 58 sec)
Heartbeat CPU 0 instructions: 149000841 cycles: 93084554 heartbeat IPC: 1.452 cumulative IPC: 1.213 (Simulation time: 00 hr 15 min 01 sec)
Heartbeat CPU 0 instructions: 149500843 cycles: 93366994 heartbeat IPC: 1.77 cumulative IPC: 1.215 (Simulation time: 00 hr 15 min 03 sec)
Heartbeat CPU 0 instructions: 150000843 cycles: 93656699 heartbeat IPC: 1.726 cumulative IPC: 1.217 (Simulation time: 00 hr 15 min 05 sec)
Heartbeat CPU 0 instructions: 150500844 cycles: 93914733 heartbeat IPC: 1.938 cumulative IPC: 1.219 (Simulation time: 00 hr 15 min 07 sec)
Heartbeat CPU 0 instructions: 151000844 cycles: 94164508 heartbeat IPC: 2.002 cumulative IPC: 1.221 (Simulation time: 00 hr 15 min 10 sec)
Heartbeat CPU 0 instructions: 151500845 cycles: 94484619 heartbeat IPC: 1.562 cumulative IPC: 1.223 (Simulation time: 00 hr 15 min 13 sec)
Heartbeat CPU 0 instructions: 152000851 cycles: 94951503 heartbeat IPC: 1.071 cumulative IPC: 1.222 (Simulation time: 00 hr 15 min 17 sec)
Heartbeat CPU 0 instructions: 152500853 cycles: 95345730 heartbeat IPC: 1.268 cumulative IPC: 1.222 (Simulation time: 00 hr 15 min 21 sec)
Heartbeat CPU 0 instructions: 153000853 cycles: 95741286 heartbeat IPC: 1.264 cumulative IPC: 1.222 (Simulation time: 00 hr 15 min 24 sec)
Heartbeat CPU 0 instructions: 153500853 cycles: 96182601 heartbeat IPC: 1.133 cumulative IPC: 1.222 (Simulation time: 00 hr 15 min 28 sec)
Heartbeat CPU 0 instructions: 154000855 cycles: 96610458 heartbeat IPC: 1.169 cumulative IPC: 1.221 (Simulation time: 00 hr 15 min 32 sec)
Heartbeat CPU 0 instructions: 154500855 cycles: 96980374 heartbeat IPC: 1.352 cumulative IPC: 1.222 (Simulation time: 00 hr 15 min 35 sec)
Heartbeat CPU 0 instructions: 155000860 cycles: 97323244 heartbeat IPC: 1.458 cumulative IPC: 1.223 (Simulation time: 00 hr 15 min 38 sec)
Heartbeat CPU 0 instructions: 155500865 cycles: 97752040 heartbeat IPC: 1.166 cumulative IPC: 1.223 (Simulation time: 00 hr 15 min 42 sec)
Heartbeat CPU 0 instructions: 156000866 cycles: 98112378 heartbeat IPC: 1.388 cumulative IPC: 1.223 (Simulation time: 00 hr 15 min 46 sec)
Heartbeat CPU 0 instructions: 156500869 cycles: 98549787 heartbeat IPC: 1.143 cumulative IPC: 1.223 (Simulation time: 00 hr 15 min 49 sec)
Heartbeat CPU 0 instructions: 157000875 cycles: 98915404 heartbeat IPC: 1.368 cumulative IPC: 1.223 (Simulation time: 00 hr 15 min 53 sec)
Heartbeat CPU 0 instructions: 157500876 cycles: 99277268 heartbeat IPC: 1.382 cumulative IPC: 1.224 (Simulation time: 00 hr 15 min 56 sec)
Heartbeat CPU 0 instructions: 158000876 cycles: 99624402 heartbeat IPC: 1.44 cumulative IPC: 1.225 (Simulation time: 00 hr 16 min 00 sec)
Heartbeat CPU 0 instructions: 158500878 cycles: 100009444 heartbeat IPC: 1.299 cumulative IPC: 1.225 (Simulation time: 00 hr 16 min 03 sec)
Heartbeat CPU 0 instructions: 159000885 cycles: 100402091 heartbeat IPC: 1.273 cumulative IPC: 1.225 (Simulation time: 00 hr 16 min 07 sec)
Heartbeat CPU 0 instructions: 159500885 cycles: 100801486 heartbeat IPC: 1.252 cumulative IPC: 1.226 (Simulation time: 00 hr 16 min 11 sec)
Heartbeat CPU 0 instructions: 160000892 cycles: 101189739 heartbeat IPC: 1.288 cumulative IPC: 1.226 (Simulation time: 00 hr 16 min 15 sec)
Heartbeat CPU 0 instructions: 160500894 cycles: 101578721 heartbeat IPC: 1.285 cumulative IPC: 1.226 (Simulation time: 00 hr 16 min 18 sec)
Heartbeat CPU 0 instructions: 161000894 cycles: 101925659 heartbeat IPC: 1.441 cumulative IPC: 1.227 (Simulation time: 00 hr 16 min 22 sec)
Heartbeat CPU 0 instructions: 161500898 cycles: 102339610 heartbeat IPC: 1.208 cumulative IPC: 1.227 (Simulation time: 00 hr 16 min 26 sec)
Heartbeat CPU 0 instructions: 162000899 cycles: 102932953 heartbeat IPC: 0.8427 cumulative IPC: 1.224 (Simulation time: 00 hr 16 min 31 sec)
Heartbeat CPU 0 instructions: 162500904 cycles: 103345096 heartbeat IPC: 1.213 cumulative IPC: 1.224 (Simulation time: 00 hr 16 min 35 sec)
Heartbeat CPU 0 instructions: 163000905 cycles: 103811067 heartbeat IPC: 1.073 cumulative IPC: 1.224 (Simulation time: 00 hr 16 min 39 sec)
Heartbeat CPU 0 instructions: 163500905 cycles: 104194723 heartbeat IPC: 1.303 cumulative IPC: 1.224 (Simulation time: 00 hr 16 min 42 sec)
Heartbeat CPU 0 instructions: 164000909 cycles: 104589806 heartbeat IPC: 1.266 cumulative IPC: 1.224 (Simulation time: 00 hr 16 min 46 sec)
Heartbeat CPU 0 instructions: 164500914 cycles: 104970114 heartbeat IPC: 1.315 cumulative IPC: 1.224 (Simulation time: 00 hr 16 min 49 sec)
Heartbeat CPU 0 instructions: 165000920 cycles: 106010963 heartbeat IPC: 0.4804 cumulative IPC: 1.216 (Simulation time: 00 hr 16 min 58 sec)
Heartbeat CPU 0 instructions: 165500920 cycles: 106374648 heartbeat IPC: 1.375 cumulative IPC: 1.217 (Simulation time: 00 hr 17 min 01 sec)
Heartbeat CPU 0 instructions: 166000926 cycles: 106790682 heartbeat IPC: 1.202 cumulative IPC: 1.217 (Simulation time: 00 hr 17 min 06 sec)
Heartbeat CPU 0 instructions: 166500930 cycles: 107340300 heartbeat IPC: 0.9097 cumulative IPC: 1.215 (Simulation time: 00 hr 17 min 11 sec)
Heartbeat CPU 0 instructions: 167000931 cycles: 108027445 heartbeat IPC: 0.7276 cumulative IPC: 1.212 (Simulation time: 00 hr 17 min 16 sec)
Heartbeat CPU 0 instructions: 167500933 cycles: 108539482 heartbeat IPC: 0.9765 cumulative IPC: 1.21 (Simulation time: 00 hr 17 min 21 sec)
Heartbeat CPU 0 instructions: 168000935 cycles: 109146251 heartbeat IPC: 0.824 cumulative IPC: 1.208 (Simulation time: 00 hr 17 min 26 sec)
Heartbeat CPU 0 instructions: 168500941 cycles: 110112821 heartbeat IPC: 0.5173 cumulative IPC: 1.201 (Simulation time: 00 hr 17 min 33 sec)
Heartbeat CPU 0 instructions: 169000945 cycles: 111286227 heartbeat IPC: 0.4261 cumulative IPC: 1.192 (Simulation time: 00 hr 17 min 42 sec)
Heartbeat CPU 0 instructions: 169500950 cycles: 112365252 heartbeat IPC: 0.4634 cumulative IPC: 1.184 (Simulation time: 00 hr 17 min 50 sec)
Heartbeat CPU 0 instructions: 170000950 cycles: 112978744 heartbeat IPC: 0.815 cumulative IPC: 1.182 (Simulation time: 00 hr 17 min 55 sec)
Heartbeat CPU 0 instructions: 170500955 cycles: 114173346 heartbeat IPC: 0.4186 cumulative IPC: 1.173 (Simulation time: 00 hr 18 min 03 sec)
Heartbeat CPU 0 instructions: 171000955 cycles: 115699014 heartbeat IPC: 0.3277 cumulative IPC: 1.161 (Simulation time: 00 hr 18 min 14 sec)
Heartbeat CPU 0 instructions: 171500959 cycles: 117114862 heartbeat IPC: 0.3531 cumulative IPC: 1.15 (Simulation time: 00 hr 18 min 23 sec)
Heartbeat CPU 0 instructions: 172000964 cycles: 117955256 heartbeat IPC: 0.595 cumulative IPC: 1.146 (Simulation time: 00 hr 18 min 29 sec)
Heartbeat CPU 0 instructions: 172500968 cycles: 118426613 heartbeat IPC: 1.061 cumulative IPC: 1.145 (Simulation time: 00 hr 18 min 33 sec)
Heartbeat CPU 0 instructions: 173000968 cycles: 118806945 heartbeat IPC: 1.315 cumulative IPC: 1.146 (Simulation time: 00 hr 18 min 37 sec)
Heartbeat CPU 0 instructions: 173500968 cycles: 119199663 heartbeat IPC: 1.273 cumulative IPC: 1.146 (Simulation time: 00 hr 18 min 40 sec)
Heartbeat CPU 0 instructions: 174000968 cycles: 119581823 heartbeat IPC: 1.308 cumulative IPC: 1.147 (Simulation time: 00 hr 18 min 43 sec)
Heartbeat CPU 0 instructions: 174500969 cycles: 119956041 heartbeat IPC: 1.336 cumulative IPC: 1.147 (Simulation time: 00 hr 18 min 47 sec)
Heartbeat CPU 0 instructions: 175000969 cycles: 120324169 heartbeat IPC: 1.358 cumulative IPC: 1.148 (Simulation time: 00 hr 18 min 50 sec)
Heartbeat CPU 0 instructions: 175500973 cycles: 120745762 heartbeat IPC: 1.186 cumulative IPC: 1.148 (Simulation time: 00 hr 18 min 54 sec)
Heartbeat CPU 0 instructions: 176000975 cycles: 121166764 heartbeat IPC: 1.188 cumulative IPC: 1.148 (Simulation time: 00 hr 18 min 57 sec)
Heartbeat CPU 0 instructions: 176500975 cycles: 121558281 heartbeat IPC: 1.277 cumulative IPC: 1.149 (Simulation time: 00 hr 19 min 01 sec)
Heartbeat CPU 0 instructions: 177000976 cycles: 121951240 heartbeat IPC: 1.272 cumulative IPC: 1.149 (Simulation time: 00 hr 19 min 04 sec)
Heartbeat CPU 0 instructions: 177500978 cycles: 122289858 heartbeat IPC: 1.477 cumulative IPC: 1.15 (Simulation time: 00 hr 19 min 07 sec)
Heartbeat CPU 0 instructions: 178000978 cycles: 122752598 heartbeat IPC: 1.081 cumulative IPC: 1.15 (Simulation time: 00 hr 19 min 11 sec)
Heartbeat CPU 0 instructions: 178500979 cycles: 123157607 heartbeat IPC: 1.235 cumulative IPC: 1.15 (Simulation time: 00 hr 19 min 15 sec)
Heartbeat CPU 0 instructions: 179000985 cycles: 123587562 heartbeat IPC: 1.163 cumulative IPC: 1.15 (Simulation time: 00 hr 19 min 18 sec)
Heartbeat CPU 0 instructions: 179500985 cycles: 124085790 heartbeat IPC: 1.004 cumulative IPC: 1.15 (Simulation time: 00 hr 19 min 23 sec)
Heartbeat CPU 0 instructions: 180000988 cycles: 124464249 heartbeat IPC: 1.321 cumulative IPC: 1.15 (Simulation time: 00 hr 19 min 26 sec)
Heartbeat CPU 0 instructions: 180500993 cycles: 124802433 heartbeat IPC: 1.478 cumulative IPC: 1.151 (Simulation time: 00 hr 19 min 29 sec)
Heartbeat CPU 0 instructions: 181000993 cycles: 125140448 heartbeat IPC: 1.479 cumulative IPC: 1.152 (Simulation time: 00 hr 19 min 33 sec)
Heartbeat CPU 0 instructions: 181500996 cycles: 125467833 heartbeat IPC: 1.527 cumulative IPC: 1.153 (Simulation time: 00 hr 19 min 36 sec)
Heartbeat CPU 0 instructions: 182000999 cycles: 125800929 heartbeat IPC: 1.501 cumulative IPC: 1.154 (Simulation time: 00 hr 19 min 39 sec)
Heartbeat CPU 0 instructions: 182500999 cycles: 126173179 heartbeat IPC: 1.343 cumulative IPC: 1.155 (Simulation time: 00 hr 19 min 43 sec)
Heartbeat CPU 0 instructions: 183001002 cycles: 126515748 heartbeat IPC: 1.46 cumulative IPC: 1.156 (Simulation time: 00 hr 19 min 46 sec)
Heartbeat CPU 0 instructions: 183501005 cycles: 126845925 heartbeat IPC: 1.514 cumulative IPC: 1.157 (Simulation time: 00 hr 19 min 49 sec)
Heartbeat CPU 0 instructions: 184001012 cycles: 127164985 heartbeat IPC: 1.567 cumulative IPC: 1.158 (Simulation time: 00 hr 19 min 52 sec)
Heartbeat CPU 0 instructions: 184501018 cycles: 127483207 heartbeat IPC: 1.571 cumulative IPC: 1.159 (Simulation time: 00 hr 19 min 56 sec)
Heartbeat CPU 0 instructions: 185001018 cycles: 127934660 heartbeat IPC: 1.108 cumulative IPC: 1.159 (Simulation time: 00 hr 20 min 00 sec)
Heartbeat CPU 0 instructions: 185501019 cycles: 128398497 heartbeat IPC: 1.078 cumulative IPC: 1.159 (Simulation time: 00 hr 20 min 04 sec)
Heartbeat CPU 0 instructions: 186001020 cycles: 128760908 heartbeat IPC: 1.38 cumulative IPC: 1.159 (Simulation time: 00 hr 20 min 08 sec)
Heartbeat CPU 0 instructions: 186501022 cycles: 129167258 heartbeat IPC: 1.23 cumulative IPC: 1.16 (Simulation time: 00 hr 20 min 11 sec)
Heartbeat CPU 0 instructions: 187001026 cycles: 129658682 heartbeat IPC: 1.017 cumulative IPC: 1.159 (Simulation time: 00 hr 20 min 15 sec)
Heartbeat CPU 0 instructions: 187501026 cycles: 130193268 heartbeat IPC: 0.9353 cumulative IPC: 1.158 (Simulation time: 00 hr 20 min 20 sec)
Heartbeat CPU 0 instructions: 188001028 cycles: 130497520 heartbeat IPC: 1.643 cumulative IPC: 1.159 (Simulation time: 00 hr 20 min 22 sec)
Heartbeat CPU 0 instructions: 188501029 cycles: 130785745 heartbeat IPC: 1.735 cumulative IPC: 1.161 (Simulation time: 00 hr 20 min 24 sec)
Heartbeat CPU 0 instructions: 189001031 cycles: 131081221 heartbeat IPC: 1.692 cumulative IPC: 1.162 (Simulation time: 00 hr 20 min 27 sec)
Heartbeat CPU 0 instructions: 189501033 cycles: 131342238 heartbeat IPC: 1.916 cumulative IPC: 1.164 (Simulation time: 00 hr 20 min 29 sec)
Heartbeat CPU 0 instructions: 190001034 cycles: 131595084 heartbeat IPC: 1.977 cumulative IPC: 1.165 (Simulation time: 00 hr 20 min 31 sec)
Heartbeat CPU 0 instructions: 190501035 cycles: 132104841 heartbeat IPC: 0.9809 cumulative IPC: 1.165 (Simulation time: 00 hr 20 min 35 sec)
Heartbeat CPU 0 instructions: 191001039 cycles: 132555601 heartbeat IPC: 1.109 cumulative IPC: 1.164 (Simulation time: 00 hr 20 min 39 sec)
Heartbeat CPU 0 instructions: 191501041 cycles: 132973041 heartbeat IPC: 1.198 cumulative IPC: 1.164 (Simulation time: 00 hr 20 min 43 sec)
Heartbeat CPU 0 instructions: 192001043 cycles: 133323307 heartbeat IPC: 1.427 cumulative IPC: 1.165 (Simulation time: 00 hr 20 min 47 sec)
Heartbeat CPU 0 instructions: 192501046 cycles: 133651576 heartbeat IPC: 1.523 cumulative IPC: 1.166 (Simulation time: 00 hr 20 min 50 sec)
Heartbeat CPU 0 instructions: 193001049 cycles: 134005607 heartbeat IPC: 1.412 cumulative IPC: 1.167 (Simulation time: 00 hr 20 min 54 sec)
Heartbeat CPU 0 instructions: 193501050 cycles: 134367681 heartbeat IPC: 1.381 cumulative IPC: 1.168 (Simulation time: 00 hr 20 min 57 sec)
Heartbeat CPU 0 instructions: 194001055 cycles: 134731238 heartbeat IPC: 1.375 cumulative IPC: 1.168 (Simulation time: 00 hr 21 min 01 sec)
Heartbeat CPU 0 instructions: 194501057 cycles: 135123701 heartbeat IPC: 1.274 cumulative IPC: 1.168 (Simulation time: 00 hr 21 min 04 sec)
Heartbeat CPU 0 instructions: 195001059 cycles: 135511323 heartbeat IPC: 1.29 cumulative IPC: 1.169 (Simulation time: 00 hr 21 min 08 sec)
Heartbeat CPU 0 instructions: 195501060 cycles: 135898178 heartbeat IPC: 1.292 cumulative IPC: 1.169 (Simulation time: 00 hr 21 min 12 sec)
Heartbeat CPU 0 instructions: 196001061 cycles: 136267595 heartbeat IPC: 1.353 cumulative IPC: 1.17 (Simulation time: 00 hr 21 min 16 sec)
Heartbeat CPU 0 instructions: 196501068 cycles: 136717989 heartbeat IPC: 1.11 cumulative IPC: 1.17 (Simulation time: 00 hr 21 min 20 sec)
Heartbeat CPU 0 instructions: 197001072 cycles: 137100385 heartbeat IPC: 1.308 cumulative IPC: 1.17 (Simulation time: 00 hr 21 min 23 sec)
Heartbeat CPU 0 instructions: 197501073 cycles: 137551193 heartbeat IPC: 1.109 cumulative IPC: 1.17 (Simulation time: 00 hr 21 min 27 sec)
Heartbeat CPU 0 instructions: 198001073 cycles: 138022875 heartbeat IPC: 1.06 cumulative IPC: 1.169 (Simulation time: 00 hr 21 min 31 sec)
Heartbeat CPU 0 instructions: 198501076 cycles: 138418821 heartbeat IPC: 1.263 cumulative IPC: 1.17 (Simulation time: 00 hr 21 min 34 sec)
Heartbeat CPU 0 instructions: 199001078 cycles: 138839601 heartbeat IPC: 1.188 cumulative IPC: 1.17 (Simulation time: 00 hr 21 min 38 sec)
Heartbeat CPU 0 instructions: 199501085 cycles: 139272376 heartbeat IPC: 1.155 cumulative IPC: 1.17 (Simulation time: 00 hr 21 min 42 sec)
Heartbeat CPU 0 instructions: 200001091 cycles: 139697866 heartbeat IPC: 1.175 cumulative IPC: 1.17 (Simulation time: 00 hr 21 min 46 sec)
Heartbeat CPU 0 instructions: 200501091 cycles: 140129561 heartbeat IPC: 1.158 cumulative IPC: 1.17 (Simulation time: 00 hr 21 min 49 sec)
Heartbeat CPU 0 instructions: 201001091 cycles: 140545078 heartbeat IPC: 1.203 cumulative IPC: 1.17 (Simulation time: 00 hr 21 min 53 sec)
Heartbeat CPU 0 instructions: 201501096 cycles: 141059659 heartbeat IPC: 0.9717 cumulative IPC: 1.169 (Simulation time: 00 hr 21 min 57 sec)
Heartbeat CPU 0 instructions: 202001100 cycles: 141462646 heartbeat IPC: 1.241 cumulative IPC: 1.169 (Simulation time: 00 hr 22 min 01 sec)
Heartbeat CPU 0 instructions: 202501101 cycles: 141908186 heartbeat IPC: 1.122 cumulative IPC: 1.169 (Simulation time: 00 hr 22 min 05 sec)
Heartbeat CPU 0 instructions: 203001101 cycles: 142267811 heartbeat IPC: 1.39 cumulative IPC: 1.17 (Simulation time: 00 hr 22 min 08 sec)
Heartbeat CPU 0 instructions: 203501104 cycles: 142672314 heartbeat IPC: 1.236 cumulative IPC: 1.17 (Simulation time: 00 hr 22 min 13 sec)
Heartbeat CPU 0 instructions: 204001104 cycles: 143067993 heartbeat IPC: 1.264 cumulative IPC: 1.17 (Simulation time: 00 hr 22 min 16 sec)
Heartbeat CPU 0 instructions: 204501105 cycles: 143464706 heartbeat IPC: 1.26 cumulative IPC: 1.17 (Simulation time: 00 hr 22 min 20 sec)
Heartbeat CPU 0 instructions: 205001105 cycles: 143964965 heartbeat IPC: 0.9995 cumulative IPC: 1.17 (Simulation time: 00 hr 22 min 24 sec)
Heartbeat CPU 0 instructions: 205501105 cycles: 144308536 heartbeat IPC: 1.455 cumulative IPC: 1.17 (Simulation time: 00 hr 22 min 27 sec)
Heartbeat CPU 0 instructions: 206001108 cycles: 144653951 heartbeat IPC: 1.448 cumulative IPC: 1.171 (Simulation time: 00 hr 22 min 30 sec)
Heartbeat CPU 0 instructions: 206501109 cycles: 145007653 heartbeat IPC: 1.414 cumulative IPC: 1.172 (Simulation time: 00 hr 22 min 34 sec)
Heartbeat CPU 0 instructions: 207001113 cycles: 145360984 heartbeat IPC: 1.415 cumulative IPC: 1.172 (Simulation time: 00 hr 22 min 37 sec)
Heartbeat CPU 0 instructions: 207501118 cycles: 145701535 heartbeat IPC: 1.468 cumulative IPC: 1.173 (Simulation time: 00 hr 22 min 40 sec)
Heartbeat CPU 0 instructions: 208001118 cycles: 146040927 heartbeat IPC: 1.473 cumulative IPC: 1.174 (Simulation time: 00 hr 22 min 43 sec)
Heartbeat CPU 0 instructions: 208501120 cycles: 146434818 heartbeat IPC: 1.269 cumulative IPC: 1.174 (Simulation time: 00 hr 22 min 47 sec)
Heartbeat CPU 0 instructions: 209001123 cycles: 146771587 heartbeat IPC: 1.485 cumulative IPC: 1.175 (Simulation time: 00 hr 22 min 50 sec)
Heartbeat CPU 0 instructions: 209501124 cycles: 147162698 heartbeat IPC: 1.278 cumulative IPC: 1.175 (Simulation time: 00 hr 22 min 54 sec)
Heartbeat CPU 0 instructions: 210001127 cycles: 147517513 heartbeat IPC: 1.409 cumulative IPC: 1.176 (Simulation time: 00 hr 22 min 57 sec)
Heartbeat CPU 0 instructions: 210501129 cycles: 147842235 heartbeat IPC: 1.54 cumulative IPC: 1.177 (Simulation time: 00 hr 23 min 00 sec)
Heartbeat CPU 0 instructions: 211001132 cycles: 148170790 heartbeat IPC: 1.522 cumulative IPC: 1.178 (Simulation time: 00 hr 23 min 03 sec)
Heartbeat CPU 0 instructions: 211501133 cycles: 148643910 heartbeat IPC: 1.057 cumulative IPC: 1.177 (Simulation time: 00 hr 23 min 07 sec)
Heartbeat CPU 0 instructions: 212001133 cycles: 148932899 heartbeat IPC: 1.73 cumulative IPC: 1.178 (Simulation time: 00 hr 23 min 09 sec)
Heartbeat CPU 0 instructions: 212501133 cycles: 149234095 heartbeat IPC: 1.66 cumulative IPC: 1.179 (Simulation time: 00 hr 23 min 11 sec)
Heartbeat CPU 0 instructions: 213001134 cycles: 149528112 heartbeat IPC: 1.701 cumulative IPC: 1.181 (Simulation time: 00 hr 23 min 13 sec)
Heartbeat CPU 0 instructions: 213501135 cycles: 149775301 heartbeat IPC: 2.023 cumulative IPC: 1.182 (Simulation time: 00 hr 23 min 15 sec)
Heartbeat CPU 0 instructions: 214001137 cycles: 150036316 heartbeat IPC: 1.916 cumulative IPC: 1.183 (Simulation time: 00 hr 23 min 18 sec)
Heartbeat CPU 0 instructions: 214501143 cycles: 150497861 heartbeat IPC: 1.083 cumulative IPC: 1.183 (Simulation time: 00 hr 23 min 22 sec)
Heartbeat CPU 0 instructions: 215001148 cycles: 150878099 heartbeat IPC: 1.315 cumulative IPC: 1.183 (Simulation time: 00 hr 23 min 25 sec)
Heartbeat CPU 0 instructions: 215501148 cycles: 151409306 heartbeat IPC: 0.9413 cumulative IPC: 1.183 (Simulation time: 00 hr 23 min 30 sec)
Heartbeat CPU 0 instructions: 216001148 cycles: 151765915 heartbeat IPC: 1.402 cumulative IPC: 1.183 (Simulation time: 00 hr 23 min 33 sec)
Heartbeat CPU 0 instructions: 216501149 cycles: 152151260 heartbeat IPC: 1.298 cumulative IPC: 1.183 (Simulation time: 00 hr 23 min 36 sec)
Heartbeat CPU 0 instructions: 217001156 cycles: 152571932 heartbeat IPC: 1.189 cumulative IPC: 1.183 (Simulation time: 00 hr 23 min 40 sec)
Heartbeat CPU 0 instructions: 217501157 cycles: 152956106 heartbeat IPC: 1.301 cumulative IPC: 1.184 (Simulation time: 00 hr 23 min 43 sec)
Heartbeat CPU 0 instructions: 218001161 cycles: 153242531 heartbeat IPC: 1.746 cumulative IPC: 1.185 (Simulation time: 00 hr 23 min 45 sec)
Heartbeat CPU 0 instructions: 218501167 cycles: 153537872 heartbeat IPC: 1.693 cumulative IPC: 1.186 (Simulation time: 00 hr 23 min 47 sec)
Heartbeat CPU 0 instructions: 219001169 cycles: 154176803 heartbeat IPC: 0.7826 cumulative IPC: 1.184 (Simulation time: 00 hr 23 min 52 sec)
Heartbeat CPU 0 instructions: 219501170 cycles: 154512022 heartbeat IPC: 1.492 cumulative IPC: 1.185 (Simulation time: 00 hr 23 min 54 sec)
Heartbeat CPU 0 instructions: 220001171 cycles: 154754754 heartbeat IPC: 2.06 cumulative IPC: 1.186 (Simulation time: 00 hr 23 min 56 sec)
Heartbeat CPU 0 instructions: 220501178 cycles: 154982040 heartbeat IPC: 2.2 cumulative IPC: 1.188 (Simulation time: 00 hr 23 min 59 sec)
Heartbeat CPU 0 instructions: 221001180 cycles: 155403881 heartbeat IPC: 1.185 cumulative IPC: 1.188 (Simulation time: 00 hr 24 min 02 sec)
Heartbeat CPU 0 instructions: 221501185 cycles: 155769964 heartbeat IPC: 1.366 cumulative IPC: 1.188 (Simulation time: 00 hr 24 min 05 sec)
Heartbeat CPU 0 instructions: 222001185 cycles: 156165646 heartbeat IPC: 1.264 cumulative IPC: 1.189 (Simulation time: 00 hr 24 min 09 sec)
Heartbeat CPU 0 instructions: 222501185 cycles: 156556120 heartbeat IPC: 1.28 cumulative IPC: 1.189 (Simulation time: 00 hr 24 min 12 sec)
Heartbeat CPU 0 instructions: 223001191 cycles: 156923894 heartbeat IPC: 1.36 cumulative IPC: 1.189 (Simulation time: 00 hr 24 min 16 sec)
Heartbeat CPU 0 instructions: 223501195 cycles: 157232532 heartbeat IPC: 1.62 cumulative IPC: 1.19 (Simulation time: 00 hr 24 min 19 sec)
Heartbeat CPU 0 instructions: 224001201 cycles: 157623163 heartbeat IPC: 1.28 cumulative IPC: 1.19 (Simulation time: 00 hr 24 min 23 sec)
Heartbeat CPU 0 instructions: 224501202 cycles: 158012334 heartbeat IPC: 1.285 cumulative IPC: 1.191 (Simulation time: 00 hr 24 min 26 sec)
Heartbeat CPU 0 instructions: 225001207 cycles: 158368398 heartbeat IPC: 1.404 cumulative IPC: 1.191 (Simulation time: 00 hr 24 min 29 sec)
Heartbeat CPU 0 instructions: 225501207 cycles: 158718419 heartbeat IPC: 1.428 cumulative IPC: 1.192 (Simulation time: 00 hr 24 min 33 sec)
Heartbeat CPU 0 instructions: 226001210 cycles: 159115542 heartbeat IPC: 1.259 cumulative IPC: 1.192 (Simulation time: 00 hr 24 min 36 sec)
Heartbeat CPU 0 instructions: 226501216 cycles: 159460819 heartbeat IPC: 1.448 cumulative IPC: 1.193 (Simulation time: 00 hr 24 min 39 sec)
Heartbeat CPU 0 instructions: 227001217 cycles: 159819148 heartbeat IPC: 1.395 cumulative IPC: 1.193 (Simulation time: 00 hr 24 min 42 sec)
Heartbeat CPU 0 instructions: 227501222 cycles: 160175916 heartbeat IPC: 1.401 cumulative IPC: 1.194 (Simulation time: 00 hr 24 min 45 sec)
Heartbeat CPU 0 instructions: 228001227 cycles: 160569666 heartbeat IPC: 1.27 cumulative IPC: 1.194 (Simulation time: 00 hr 24 min 49 sec)
Heartbeat CPU 0 instructions: 228501234 cycles: 160948318 heartbeat IPC: 1.32 cumulative IPC: 1.194 (Simulation time: 00 hr 24 min 52 sec)
Heartbeat CPU 0 instructions: 229001238 cycles: 161300358 heartbeat IPC: 1.42 cumulative IPC: 1.195 (Simulation time: 00 hr 24 min 55 sec)
Heartbeat CPU 0 instructions: 229501240 cycles: 161677378 heartbeat IPC: 1.326 cumulative IPC: 1.195 (Simulation time: 00 hr 24 min 59 sec)
Heartbeat CPU 0 instructions: 230001240 cycles: 162485868 heartbeat IPC: 0.6184 cumulative IPC: 1.192 (Simulation time: 00 hr 25 min 05 sec)
Heartbeat CPU 0 instructions: 230501240 cycles: 162843544 heartbeat IPC: 1.398 cumulative IPC: 1.192 (Simulation time: 00 hr 25 min 08 sec)
Heartbeat CPU 0 instructions: 231001240 cycles: 163189830 heartbeat IPC: 1.444 cumulative IPC: 1.193 (Simulation time: 00 hr 25 min 11 sec)
Heartbeat CPU 0 instructions: 231501240 cycles: 163692341 heartbeat IPC: 0.995 cumulative IPC: 1.192 (Simulation time: 00 hr 25 min 15 sec)
Heartbeat CPU 0 instructions: 232001240 cycles: 164095465 heartbeat IPC: 1.24 cumulative IPC: 1.192 (Simulation time: 00 hr 25 min 19 sec)
Heartbeat CPU 0 instructions: 232501244 cycles: 164481537 heartbeat IPC: 1.295 cumulative IPC: 1.193 (Simulation time: 00 hr 25 min 22 sec)
Heartbeat CPU 0 instructions: 233001245 cycles: 164884984 heartbeat IPC: 1.239 cumulative IPC: 1.193 (Simulation time: 00 hr 25 min 26 sec)
Heartbeat CPU 0 instructions: 233501249 cycles: 165345351 heartbeat IPC: 1.086 cumulative IPC: 1.192 (Simulation time: 00 hr 25 min 29 sec)
Heartbeat CPU 0 instructions: 234001250 cycles: 165819815 heartbeat IPC: 1.054 cumulative IPC: 1.192 (Simulation time: 00 hr 25 min 33 sec)
Heartbeat CPU 0 instructions: 234501255 cycles: 166224135 heartbeat IPC: 1.237 cumulative IPC: 1.192 (Simulation time: 00 hr 25 min 36 sec)
Heartbeat CPU 0 instructions: 235001256 cycles: 166599311 heartbeat IPC: 1.333 cumulative IPC: 1.192 (Simulation time: 00 hr 25 min 40 sec)
Heartbeat CPU 0 instructions: 235501257 cycles: 166975706 heartbeat IPC: 1.328 cumulative IPC: 1.193 (Simulation time: 00 hr 25 min 43 sec)
Heartbeat CPU 0 instructions: 236001258 cycles: 167423278 heartbeat IPC: 1.117 cumulative IPC: 1.193 (Simulation time: 00 hr 25 min 46 sec)
Heartbeat CPU 0 instructions: 236501263 cycles: 167859924 heartbeat IPC: 1.145 cumulative IPC: 1.192 (Simulation time: 00 hr 25 min 50 sec)
Heartbeat CPU 0 instructions: 237001263 cycles: 168804929 heartbeat IPC: 0.5291 cumulative IPC: 1.188 (Simulation time: 00 hr 25 min 57 sec)
Heartbeat CPU 0 instructions: 237501265 cycles: 169454381 heartbeat IPC: 0.7699 cumulative IPC: 1.187 (Simulation time: 00 hr 26 min 02 sec)
Heartbeat CPU 0 instructions: 238001267 cycles: 169748422 heartbeat IPC: 1.7 cumulative IPC: 1.188 (Simulation time: 00 hr 26 min 04 sec)
Heartbeat CPU 0 instructions: 238501268 cycles: 170026852 heartbeat IPC: 1.796 cumulative IPC: 1.189 (Simulation time: 00 hr 26 min 06 sec)
Heartbeat CPU 0 instructions: 239001269 cycles: 170314167 heartbeat IPC: 1.74 cumulative IPC: 1.19 (Simulation time: 00 hr 26 min 08 sec)
Heartbeat CPU 0 instructions: 239501269 cycles: 170560351 heartbeat IPC: 2.031 cumulative IPC: 1.191 (Simulation time: 00 hr 26 min 10 sec)
Heartbeat CPU 0 instructions: 240001269 cycles: 170791415 heartbeat IPC: 2.164 cumulative IPC: 1.192 (Simulation time: 00 hr 26 min 12 sec)
Heartbeat CPU 0 instructions: 240501272 cycles: 171681325 heartbeat IPC: 0.5619 cumulative IPC: 1.189 (Simulation time: 00 hr 26 min 19 sec)
Heartbeat CPU 0 instructions: 241001272 cycles: 172572821 heartbeat IPC: 0.5609 cumulative IPC: 1.185 (Simulation time: 00 hr 26 min 25 sec)
Heartbeat CPU 0 instructions: 241501277 cycles: 173153581 heartbeat IPC: 0.8609 cumulative IPC: 1.184 (Simulation time: 00 hr 26 min 29 sec)
Heartbeat CPU 0 instructions: 242001278 cycles: 173749724 heartbeat IPC: 0.8387 cumulative IPC: 1.183 (Simulation time: 00 hr 26 min 34 sec)
Heartbeat CPU 0 instructions: 242501279 cycles: 174375229 heartbeat IPC: 0.7994 cumulative IPC: 1.182 (Simulation time: 00 hr 26 min 40 sec)
Heartbeat CPU 0 instructions: 243001281 cycles: 175022528 heartbeat IPC: 0.7724 cumulative IPC: 1.18 (Simulation time: 00 hr 26 min 45 sec)
Heartbeat CPU 0 instructions: 243501283 cycles: 175693332 heartbeat IPC: 0.7454 cumulative IPC: 1.178 (Simulation time: 00 hr 26 min 51 sec)
Heartbeat CPU 0 instructions: 244001289 cycles: 176595022 heartbeat IPC: 0.5545 cumulative IPC: 1.175 (Simulation time: 00 hr 26 min 57 sec)
Heartbeat CPU 0 instructions: 244501291 cycles: 177210306 heartbeat IPC: 0.8126 cumulative IPC: 1.173 (Simulation time: 00 hr 27 min 02 sec)
Heartbeat CPU 0 instructions: 245001294 cycles: 177648428 heartbeat IPC: 1.141 cumulative IPC: 1.173 (Simulation time: 00 hr 27 min 05 sec)
Heartbeat CPU 0 instructions: 245501300 cycles: 177992494 heartbeat IPC: 1.453 cumulative IPC: 1.174 (Simulation time: 00 hr 27 min 08 sec)
Heartbeat CPU 0 instructions: 246001302 cycles: 178455050 heartbeat IPC: 1.081 cumulative IPC: 1.174 (Simulation time: 00 hr 27 min 12 sec)
Heartbeat CPU 0 instructions: 246501304 cycles: 178855737 heartbeat IPC: 1.248 cumulative IPC: 1.174 (Simulation time: 00 hr 27 min 15 sec)
Heartbeat CPU 0 instructions: 247001305 cycles: 179246268 heartbeat IPC: 1.28 cumulative IPC: 1.174 (Simulation time: 00 hr 27 min 18 sec)
Heartbeat CPU 0 instructions: 247501308 cycles: 179606187 heartbeat IPC: 1.389 cumulative IPC: 1.175 (Simulation time: 00 hr 27 min 21 sec)
Heartbeat CPU 0 instructions: 248001308 cycles: 180058954 heartbeat IPC: 1.104 cumulative IPC: 1.174 (Simulation time: 00 hr 27 min 25 sec)
Heartbeat CPU 0 instructions: 248501312 cycles: 180350021 heartbeat IPC: 1.718 cumulative IPC: 1.175 (Simulation time: 00 hr 27 min 27 sec)
Heartbeat CPU 0 instructions: 249001314 cycles: 180629444 heartbeat IPC: 1.789 cumulative IPC: 1.176 (Simulation time: 00 hr 27 min 29 sec)
Heartbeat CPU 0 instructions: 249501315 cycles: 180918823 heartbeat IPC: 1.728 cumulative IPC: 1.177 (Simulation time: 00 hr 27 min 31 sec)
Simulation finished CPU 0 instructions: 200000000 cycles: 169708914 cumulative IPC: 1.178 (Simulation time: 00 hr 27 min 33 sec)
Simulation complete CPU 0 instructions: 200000000 cycles: 169708914 cumulative IPC: 1.178 (Simulation time: 00 hr 27 min 33 sec)

ChampSim completed all CPUs

=== Simulation ===
CPU 0 runs /local-ssd/ben/dpc4-traces/gtraces_v2/charlie_0000.champsim.gz

Region of Interest Statistics

CPU 0 cumulative IPC: 1.178 instructions: 200000000 cycles: 169708914
CPU 0 Branch Prediction Accuracy: 94.35% MPKI: 11.62 Average ROB Occupancy at Mispredict: 46.24
Branch type MPKI
BRANCH_DIRECT_JUMP: 0.13
BRANCH_INDIRECT: 0.322
BRANCH_CONDITIONAL: 10.67
BRANCH_DIRECT_CALL: 0.07052
BRANCH_INDIRECT_CALL: 0.322
BRANCH_RETURN: 0.1003

cpu0->cpu0_STLB TOTAL        ACCESS:     310322 HIT:     228788 MISS:      81534 MSHR_MERGE:          0
cpu0->cpu0_STLB LOAD         ACCESS:     310322 HIT:     228788 MISS:      81534 MSHR_MERGE:          0
cpu0->cpu0_STLB RFO          ACCESS:          0 HIT:          0 MISS:          0 MSHR_MERGE:          0
cpu0->cpu0_STLB PREFETCH     ACCESS:          0 HIT:          0 MISS:          0 MSHR_MERGE:          0
cpu0->cpu0_STLB WRITE        ACCESS:          0 HIT:          0 MISS:          0 MSHR_MERGE:          0
cpu0->cpu0_STLB TRANSLATION  ACCESS:          0 HIT:          0 MISS:          0 MSHR_MERGE:          0
cpu0->cpu0_STLB PREFETCH REQUESTED:          0 ISSUED:          0 USEFUL:          0 USELESS:          0
cpu0->cpu0_STLB AVERAGE MISS LATENCY: 268.1 cycles
cpu0->cpu0_L2C TOTAL        ACCESS:    6022601 HIT:    4731395 MISS:    1291206 MSHR_MERGE:     192677
cpu0->cpu0_L2C LOAD         ACCESS:    1149495 HIT:     984160 MISS:     165335 MSHR_MERGE:      21311
cpu0->cpu0_L2C RFO          ACCESS:     623307 HIT:      58972 MISS:     564335 MSHR_MERGE:       2758
cpu0->cpu0_L2C PREFETCH     ACCESS:    3438654 HIT:    2924424 MISS:     514230 MSHR_MERGE:     168608
cpu0->cpu0_L2C WRITE        ACCESS:     726200 HIT:     726154 MISS:         46 MSHR_MERGE:          0
cpu0->cpu0_L2C TRANSLATION  ACCESS:      84945 HIT:      37685 MISS:      47260 MSHR_MERGE:          0
cpu0->cpu0_L2C PREFETCH REQUESTED:    3748780 ISSUED:    3438654 USEFUL:     224592 USELESS:     122254
cpu0->cpu0_L2C AVERAGE MISS LATENCY: 236.3 cycles
cpu0->cpu0_L1I TOTAL        ACCESS:   12694551 HIT:   11910588 MISS:     783963 MSHR_MERGE:     200299
cpu0->cpu0_L1I LOAD         ACCESS:   12694551 HIT:   11910588 MISS:     783963 MSHR_MERGE:     200299
cpu0->cpu0_L1I RFO          ACCESS:          0 HIT:          0 MISS:          0 MSHR_MERGE:          0
cpu0->cpu0_L1I PREFETCH     ACCESS:          0 HIT:          0 MISS:          0 MSHR_MERGE:          0
cpu0->cpu0_L1I WRITE        ACCESS:          0 HIT:          0 MISS:          0 MSHR_MERGE:          0
cpu0->cpu0_L1I TRANSLATION  ACCESS:          0 HIT:          0 MISS:          0 MSHR_MERGE:          0
cpu0->cpu0_L1I PREFETCH REQUESTED:          0 ISSUED:          0 USEFUL:          0 USELESS:          0
cpu0->cpu0_L1I AVERAGE MISS LATENCY: 23.5 cycles
cpu0->cpu0_L1D TOTAL        ACCESS:   52131891 HIT:   47822478 MISS:    4309413 MSHR_MERGE:    3035328
cpu0->cpu0_L1D LOAD         ACCESS:   32932192 HIT:   31820698 MISS:    1111494 MSHR_MERGE:     545662
cpu0->cpu0_L1D RFO          ACCESS:          0 HIT:          0 MISS:          0 MSHR_MERGE:          0
cpu0->cpu0_L1D PREFETCH     ACCESS:          0 HIT:          0 MISS:          0 MSHR_MERGE:          0
cpu0->cpu0_L1D WRITE        ACCESS:   18982671 HIT:   15871191 MISS:    3111480 MSHR_MERGE:    2488172
cpu0->cpu0_L1D TRANSLATION  ACCESS:     217028 HIT:     130589 MISS:      86439 MSHR_MERGE:       1494
cpu0->cpu0_L1D PREFETCH REQUESTED:          0 ISSUED:          0 USEFUL:          0 USELESS:          0
cpu0->cpu0_L1D AVERAGE MISS LATENCY: 145.4 cycles
cpu0->cpu0_ITLB TOTAL        ACCESS:   10164790 HIT:   10099256 MISS:      65534 MSHR_MERGE:      31638
cpu0->cpu0_ITLB LOAD         ACCESS:   10164790 HIT:   10099256 MISS:      65534 MSHR_MERGE:      31638
cpu0->cpu0_ITLB RFO          ACCESS:          0 HIT:          0 MISS:          0 MSHR_MERGE:          0
cpu0->cpu0_ITLB PREFETCH     ACCESS:          0 HIT:          0 MISS:          0 MSHR_MERGE:          0
cpu0->cpu0_ITLB WRITE        ACCESS:          0 HIT:          0 MISS:          0 MSHR_MERGE:          0
cpu0->cpu0_ITLB TRANSLATION  ACCESS:          0 HIT:          0 MISS:          0 MSHR_MERGE:          0
cpu0->cpu0_ITLB PREFETCH REQUESTED:          0 ISSUED:          0 USEFUL:          0 USELESS:          0
cpu0->cpu0_ITLB AVERAGE MISS LATENCY: 43.81 cycles
cpu0->cpu0_DTLB TOTAL        ACCESS:   49414025 HIT:   48873694 MISS:     540331 MSHR_MERGE:     263905
cpu0->cpu0_DTLB LOAD         ACCESS:   49414025 HIT:   48873694 MISS:     540331 MSHR_MERGE:     263905
cpu0->cpu0_DTLB RFO          ACCESS:          0 HIT:          0 MISS:          0 MSHR_MERGE:          0
cpu0->cpu0_DTLB PREFETCH     ACCESS:          0 HIT:          0 MISS:          0 MSHR_MERGE:          0
cpu0->cpu0_DTLB WRITE        ACCESS:          0 HIT:          0 MISS:          0 MSHR_MERGE:          0
cpu0->cpu0_DTLB TRANSLATION  ACCESS:          0 HIT:          0 MISS:          0 MSHR_MERGE:          0
cpu0->cpu0_DTLB PREFETCH REQUESTED:          0 ISSUED:          0 USEFUL:          0 USELESS:          0
cpu0->cpu0_DTLB AVERAGE MISS LATENCY: 79.61 cycles
cpu0->LLC TOTAL        ACCESS:    1924999 HIT:     220503 MISS:    1704496 MSHR_MERGE:      24886
cpu0->LLC LOAD         ACCESS:     144024 HIT:      18154 MISS:     125870 MSHR_MERGE:        572
cpu0->LLC RFO          ACCESS:     561577 HIT:      16859 MISS:     544718 MSHR_MERGE:         57
cpu0->LLC PREFETCH     ACCESS:     522236 HIT:      91099 MISS:     431137 MSHR_MERGE:      24257
cpu0->LLC WRITE        ACCESS:     649902 HIT:      91294 MISS:     558608 MSHR_MERGE:          0
cpu0->LLC TRANSLATION  ACCESS:      47260 HIT:       3097 MISS:      44163 MSHR_MERGE:          0
cpu0->LLC PREFETCH REQUESTED:     176705 ISSUED:     176614 USEFUL:      71439 USELESS:      69710
cpu0->LLC AVERAGE MISS LATENCY: 134.9 cycles

DRAM Statistics

Channel 0 RQ ROW_BUFFER_HIT:      52096
  ROW_BUFFER_MISS:    1068894
  AVG DBUS CONGESTED CYCLE: 25.25
Channel 0 WQ ROW_BUFFER_HIT:     145238
  ROW_BUFFER_MISS:     487600
  FULL:       1138
Channel 0 REFRESHES ISSUED:      14142
BERTI Stats...
