[VMEM] WARNING: physical memory size is smaller than virtual memory size.

*** ChampSim Multicore Out-of-Order Simulator ***
Warmup Instructions: 50000000
Simulation Instructions: 200000000
Number of CPUs: 1
Page size: 4096
Core 0: /local-ssd/ben/dpc4-traces/gtraces_v2/tango_0004.champsim.gz
 L1D Berti prefetcher
Off-chip DRAM Size: 64 GiB Channels: 1 Width: 64-bit Data Rate: 4807 MT/s
[BTB] WARNING: target of return is a lower address than the corresponding call. This is usually a problem with your trace.
[BTB] WARNING: target of return is a lower address than the corresponding call. This is usually a problem with your trace.
[BTB] WARNING: target of return is a lower address than the corresponding call. This is usually a problem with your trace.
[BTB] WARNING: target of return is a lower address than the corresponding call. This is usually a problem with your trace.
[BTB] WARNING: target of return is a lower address than the corresponding call. This is usually a problem with your trace.
[BTB] WARNING: target of return is a lower address than the corresponding call. This is usually a problem with your trace.
[BTB] WARNING: target of return is a lower address than the corresponding call. This is usually a problem with your trace.
Heartbeat CPU 0 instructions: 500002 cycles: 270325 heartbeat IPC: 1.85 cumulative IPC: 1.85 (Simulation time: 00 hr 00 min 05 sec)
[BTB] WARNING: target of return is a lower address than the corresponding call. This is usually a problem with your trace.
[BTB] WARNING: target of return is a lower address than the corresponding call. This is usually a problem with your trace.
[BTB] WARNING: target of return is a lower address than the corresponding call. This is usually a problem with your trace.
Heartbeat CPU 0 instructions: 1000007 cycles: 475399 heartbeat IPC: 2.438 cumulative IPC: 2.104 (Simulation time: 00 hr 00 min 08 sec)
Heartbeat CPU 0 instructions: 1500008 cycles: 609695 heartbeat IPC: 3.723 cumulative IPC: 2.46 (Simulation time: 00 hr 00 min 10 sec)
Heartbeat CPU 0 instructions: 2000008 cycles: 767453 heartbeat IPC: 3.169 cumulative IPC: 2.606 (Simulation time: 00 hr 00 min 13 sec)
Heartbeat CPU 0 instructions: 2500008 cycles: 936379 heartbeat IPC: 2.96 cumulative IPC: 2.67 (Simulation time: 00 hr 00 min 16 sec)
Heartbeat CPU 0 instructions: 3000015 cycles: 1085771 heartbeat IPC: 3.347 cumulative IPC: 2.763 (Simulation time: 00 hr 00 min 19 sec)
Heartbeat CPU 0 instructions: 3500018 cycles: 1259382 heartbeat IPC: 2.88 cumulative IPC: 2.779 (Simulation time: 00 hr 00 min 22 sec)
Heartbeat CPU 0 instructions: 4000020 cycles: 1488159 heartbeat IPC: 2.186 cumulative IPC: 2.688 (Simulation time: 00 hr 00 min 26 sec)
Heartbeat CPU 0 instructions: 4500020 cycles: 1618257 heartbeat IPC: 3.843 cumulative IPC: 2.781 (Simulation time: 00 hr 00 min 29 sec)
Heartbeat CPU 0 instructions: 5000027 cycles: 1775451 heartbeat IPC: 3.181 cumulative IPC: 2.816 (Simulation time: 00 hr 00 min 32 sec)
Heartbeat CPU 0 instructions: 5500029 cycles: 1927827 heartbeat IPC: 3.281 cumulative IPC: 2.853 (Simulation time: 00 hr 00 min 35 sec)
Heartbeat CPU 0 instructions: 6000036 cycles: 2083754 heartbeat IPC: 3.207 cumulative IPC: 2.879 (Simulation time: 00 hr 00 min 38 sec)
Heartbeat CPU 0 instructions: 6500043 cycles: 2238320 heartbeat IPC: 3.235 cumulative IPC: 2.904 (Simulation time: 00 hr 00 min 41 sec)
Heartbeat CPU 0 instructions: 7000044 cycles: 2378362 heartbeat IPC: 3.57 cumulative IPC: 2.943 (Simulation time: 00 hr 00 min 43 sec)
Heartbeat CPU 0 instructions: 7500045 cycles: 2520440 heartbeat IPC: 3.519 cumulative IPC: 2.976 (Simulation time: 00 hr 00 min 46 sec)
Heartbeat CPU 0 instructions: 8000048 cycles: 2681229 heartbeat IPC: 3.11 cumulative IPC: 2.984 (Simulation time: 00 hr 00 min 49 sec)
Heartbeat CPU 0 instructions: 8500049 cycles: 2821407 heartbeat IPC: 3.567 cumulative IPC: 3.013 (Simulation time: 00 hr 00 min 52 sec)
Heartbeat CPU 0 instructions: 9000054 cycles: 2968234 heartbeat IPC: 3.405 cumulative IPC: 3.032 (Simulation time: 00 hr 00 min 55 sec)
Heartbeat CPU 0 instructions: 9500055 cycles: 3128283 heartbeat IPC: 3.124 cumulative IPC: 3.037 (Simulation time: 00 hr 00 min 58 sec)
Heartbeat CPU 0 instructions: 10000057 cycles: 3284537 heartbeat IPC: 3.2 cumulative IPC: 3.045 (Simulation time: 00 hr 01 min 01 sec)
Heartbeat CPU 0 instructions: 10500063 cycles: 3428134 heartbeat IPC: 3.482 cumulative IPC: 3.063 (Simulation time: 00 hr 01 min 04 sec)
Heartbeat CPU 0 instructions: 11000067 cycles: 3535262 heartbeat IPC: 4.667 cumulative IPC: 3.112 (Simulation time: 00 hr 01 min 05 sec)
Heartbeat CPU 0 instructions: 11500068 cycles: 3675543 heartbeat IPC: 3.564 cumulative IPC: 3.129 (Simulation time: 00 hr 01 min 08 sec)
Heartbeat CPU 0 instructions: 12000069 cycles: 3835052 heartbeat IPC: 3.135 cumulative IPC: 3.129 (Simulation time: 00 hr 01 min 11 sec)
Heartbeat CPU 0 instructions: 12500072 cycles: 4013391 heartbeat IPC: 2.804 cumulative IPC: 3.115 (Simulation time: 00 hr 01 min 14 sec)
Heartbeat CPU 0 instructions: 13000072 cycles: 4148721 heartbeat IPC: 3.695 cumulative IPC: 3.134 (Simulation time: 00 hr 01 min 16 sec)
Heartbeat CPU 0 instructions: 13500073 cycles: 4281528 heartbeat IPC: 3.765 cumulative IPC: 3.153 (Simulation time: 00 hr 01 min 19 sec)
Heartbeat CPU 0 instructions: 14000076 cycles: 4415652 heartbeat IPC: 3.728 cumulative IPC: 3.171 (Simulation time: 00 hr 01 min 21 sec)
Heartbeat CPU 0 instructions: 14500080 cycles: 4563616 heartbeat IPC: 3.379 cumulative IPC: 3.177 (Simulation time: 00 hr 01 min 24 sec)
Heartbeat CPU 0 instructions: 15000085 cycles: 4706178 heartbeat IPC: 3.507 cumulative IPC: 3.187 (Simulation time: 00 hr 01 min 27 sec)
Heartbeat CPU 0 instructions: 15500092 cycles: 4833606 heartbeat IPC: 3.924 cumulative IPC: 3.207 (Simulation time: 00 hr 01 min 29 sec)
Heartbeat CPU 0 instructions: 16000096 cycles: 4999686 heartbeat IPC: 3.011 cumulative IPC: 3.2 (Simulation time: 00 hr 01 min 32 sec)
Heartbeat CPU 0 instructions: 16500098 cycles: 5134064 heartbeat IPC: 3.721 cumulative IPC: 3.214 (Simulation time: 00 hr 01 min 35 sec)
Heartbeat CPU 0 instructions: 17000104 cycles: 5274102 heartbeat IPC: 3.571 cumulative IPC: 3.223 (Simulation time: 00 hr 01 min 37 sec)
Heartbeat CPU 0 instructions: 17500110 cycles: 5414018 heartbeat IPC: 3.574 cumulative IPC: 3.232 (Simulation time: 00 hr 01 min 40 sec)
Heartbeat CPU 0 instructions: 18000116 cycles: 5575749 heartbeat IPC: 3.092 cumulative IPC: 3.228 (Simulation time: 00 hr 01 min 43 sec)
Heartbeat CPU 0 instructions: 18500116 cycles: 5721952 heartbeat IPC: 3.42 cumulative IPC: 3.233 (Simulation time: 00 hr 01 min 46 sec)
Heartbeat CPU 0 instructions: 19000123 cycles: 5870266 heartbeat IPC: 3.371 cumulative IPC: 3.237 (Simulation time: 00 hr 01 min 49 sec)
Heartbeat CPU 0 instructions: 19500129 cycles: 6023924 heartbeat IPC: 3.254 cumulative IPC: 3.237 (Simulation time: 00 hr 01 min 52 sec)
Heartbeat CPU 0 instructions: 20000134 cycles: 6164999 heartbeat IPC: 3.544 cumulative IPC: 3.244 (Simulation time: 00 hr 01 min 55 sec)
Heartbeat CPU 0 instructions: 20500137 cycles: 6330747 heartbeat IPC: 3.017 cumulative IPC: 3.238 (Simulation time: 00 hr 01 min 58 sec)
Heartbeat CPU 0 instructions: 21000139 cycles: 6474703 heartbeat IPC: 3.473 cumulative IPC: 3.243 (Simulation time: 00 hr 02 min 01 sec)
Heartbeat CPU 0 instructions: 21500145 cycles: 6621235 heartbeat IPC: 3.412 cumulative IPC: 3.247 (Simulation time: 00 hr 02 min 03 sec)
Heartbeat CPU 0 instructions: 22000150 cycles: 6758263 heartbeat IPC: 3.649 cumulative IPC: 3.255 (Simulation time: 00 hr 02 min 06 sec)
Heartbeat CPU 0 instructions: 22500157 cycles: 6903141 heartbeat IPC: 3.451 cumulative IPC: 3.259 (Simulation time: 00 hr 02 min 09 sec)
Heartbeat CPU 0 instructions: 23000160 cycles: 7065326 heartbeat IPC: 3.083 cumulative IPC: 3.255 (Simulation time: 00 hr 02 min 12 sec)
Heartbeat CPU 0 instructions: 23500160 cycles: 7195521 heartbeat IPC: 3.84 cumulative IPC: 3.266 (Simulation time: 00 hr 02 min 15 sec)
Heartbeat CPU 0 instructions: 24000161 cycles: 7335337 heartbeat IPC: 3.576 cumulative IPC: 3.272 (Simulation time: 00 hr 02 min 17 sec)
Heartbeat CPU 0 instructions: 24500163 cycles: 7465522 heartbeat IPC: 3.841 cumulative IPC: 3.282 (Simulation time: 00 hr 02 min 20 sec)
Heartbeat CPU 0 instructions: 25000167 cycles: 7601418 heartbeat IPC: 3.679 cumulative IPC: 3.289 (Simulation time: 00 hr 02 min 23 sec)
Heartbeat CPU 0 instructions: 25500172 cycles: 7761299 heartbeat IPC: 3.127 cumulative IPC: 3.286 (Simulation time: 00 hr 02 min 26 sec)
Heartbeat CPU 0 instructions: 26000177 cycles: 7871337 heartbeat IPC: 4.544 cumulative IPC: 3.303 (Simulation time: 00 hr 02 min 28 sec)
Heartbeat CPU 0 instructions: 26500182 cycles: 8014201 heartbeat IPC: 3.5 cumulative IPC: 3.307 (Simulation time: 00 hr 02 min 30 sec)
Heartbeat CPU 0 instructions: 27000185 cycles: 8141321 heartbeat IPC: 3.933 cumulative IPC: 3.316 (Simulation time: 00 hr 02 min 33 sec)
Heartbeat CPU 0 instructions: 27500190 cycles: 8280321 heartbeat IPC: 3.597 cumulative IPC: 3.321 (Simulation time: 00 hr 02 min 36 sec)
Heartbeat CPU 0 instructions: 28000196 cycles: 8407708 heartbeat IPC: 3.925 cumulative IPC: 3.33 (Simulation time: 00 hr 02 min 38 sec)
Heartbeat CPU 0 instructions: 28500198 cycles: 8583320 heartbeat IPC: 2.847 cumulative IPC: 3.32 (Simulation time: 00 hr 02 min 41 sec)
Heartbeat CPU 0 instructions: 29000203 cycles: 8745961 heartbeat IPC: 3.074 cumulative IPC: 3.316 (Simulation time: 00 hr 02 min 44 sec)
Heartbeat CPU 0 instructions: 29500208 cycles: 8899891 heartbeat IPC: 3.248 cumulative IPC: 3.315 (Simulation time: 00 hr 02 min 48 sec)
Heartbeat CPU 0 instructions: 30000208 cycles: 9019724 heartbeat IPC: 4.172 cumulative IPC: 3.326 (Simulation time: 00 hr 02 min 50 sec)
Heartbeat CPU 0 instructions: 30500214 cycles: 9156789 heartbeat IPC: 3.648 cumulative IPC: 3.331 (Simulation time: 00 hr 02 min 52 sec)
Heartbeat CPU 0 instructions: 31000218 cycles: 9281459 heartbeat IPC: 4.011 cumulative IPC: 3.34 (Simulation time: 00 hr 02 min 54 sec)
Heartbeat CPU 0 instructions: 31500220 cycles: 9416302 heartbeat IPC: 3.708 cumulative IPC: 3.345 (Simulation time: 00 hr 02 min 57 sec)
Heartbeat CPU 0 instructions: 32000222 cycles: 9558492 heartbeat IPC: 3.516 cumulative IPC: 3.348 (Simulation time: 00 hr 03 min 00 sec)
Heartbeat CPU 0 instructions: 32500228 cycles: 9704401 heartbeat IPC: 3.427 cumulative IPC: 3.349 (Simulation time: 00 hr 03 min 03 sec)
Heartbeat CPU 0 instructions: 33000230 cycles: 9855589 heartbeat IPC: 3.307 cumulative IPC: 3.348 (Simulation time: 00 hr 03 min 06 sec)
Heartbeat CPU 0 instructions: 33500234 cycles: 10008413 heartbeat IPC: 3.272 cumulative IPC: 3.347 (Simulation time: 00 hr 03 min 09 sec)
Heartbeat CPU 0 instructions: 34000234 cycles: 10139715 heartbeat IPC: 3.808 cumulative IPC: 3.353 (Simulation time: 00 hr 03 min 11 sec)
Heartbeat CPU 0 instructions: 34500237 cycles: 10296671 heartbeat IPC: 3.186 cumulative IPC: 3.351 (Simulation time: 00 hr 03 min 14 sec)
Heartbeat CPU 0 instructions: 35000238 cycles: 10431665 heartbeat IPC: 3.704 cumulative IPC: 3.355 (Simulation time: 00 hr 03 min 17 sec)
Heartbeat CPU 0 instructions: 35500238 cycles: 10579939 heartbeat IPC: 3.372 cumulative IPC: 3.355 (Simulation time: 00 hr 03 min 20 sec)
Heartbeat CPU 0 instructions: 36000240 cycles: 10706925 heartbeat IPC: 3.937 cumulative IPC: 3.362 (Simulation time: 00 hr 03 min 22 sec)
Heartbeat CPU 0 instructions: 36500242 cycles: 10848245 heartbeat IPC: 3.538 cumulative IPC: 3.365 (Simulation time: 00 hr 03 min 24 sec)
Heartbeat CPU 0 instructions: 37000249 cycles: 10971931 heartbeat IPC: 4.043 cumulative IPC: 3.372 (Simulation time: 00 hr 03 min 27 sec)
Heartbeat CPU 0 instructions: 37500256 cycles: 11117181 heartbeat IPC: 3.442 cumulative IPC: 3.373 (Simulation time: 00 hr 03 min 29 sec)
Heartbeat CPU 0 instructions: 38000262 cycles: 11253444 heartbeat IPC: 3.669 cumulative IPC: 3.377 (Simulation time: 00 hr 03 min 32 sec)
Heartbeat CPU 0 instructions: 38500268 cycles: 11388768 heartbeat IPC: 3.695 cumulative IPC: 3.381 (Simulation time: 00 hr 03 min 35 sec)
Heartbeat CPU 0 instructions: 39000275 cycles: 11519538 heartbeat IPC: 3.824 cumulative IPC: 3.386 (Simulation time: 00 hr 03 min 37 sec)
Heartbeat CPU 0 instructions: 39500276 cycles: 11641683 heartbeat IPC: 4.094 cumulative IPC: 3.393 (Simulation time: 00 hr 03 min 39 sec)
Heartbeat CPU 0 instructions: 40000276 cycles: 11781355 heartbeat IPC: 3.58 cumulative IPC: 3.395 (Simulation time: 00 hr 03 min 42 sec)
Heartbeat CPU 0 instructions: 40500277 cycles: 11906458 heartbeat IPC: 3.997 cumulative IPC: 3.402 (Simulation time: 00 hr 03 min 45 sec)
Heartbeat CPU 0 instructions: 41000277 cycles: 12060610 heartbeat IPC: 3.244 cumulative IPC: 3.4 (Simulation time: 00 hr 03 min 48 sec)
Heartbeat CPU 0 instructions: 41500280 cycles: 12194847 heartbeat IPC: 3.725 cumulative IPC: 3.403 (Simulation time: 00 hr 03 min 51 sec)
Heartbeat CPU 0 instructions: 42000282 cycles: 12327213 heartbeat IPC: 3.777 cumulative IPC: 3.407 (Simulation time: 00 hr 03 min 53 sec)
Heartbeat CPU 0 instructions: 42500288 cycles: 12459587 heartbeat IPC: 3.777 cumulative IPC: 3.411 (Simulation time: 00 hr 03 min 56 sec)
Heartbeat CPU 0 instructions: 43000292 cycles: 12593077 heartbeat IPC: 3.746 cumulative IPC: 3.415 (Simulation time: 00 hr 03 min 58 sec)
Heartbeat CPU 0 instructions: 43500293 cycles: 12736799 heartbeat IPC: 3.479 cumulative IPC: 3.415 (Simulation time: 00 hr 04 min 01 sec)
Heartbeat CPU 0 instructions: 44000295 cycles: 12853273 heartbeat IPC: 4.293 cumulative IPC: 3.423 (Simulation time: 00 hr 04 min 04 sec)
Heartbeat CPU 0 instructions: 44500302 cycles: 12960682 heartbeat IPC: 4.655 cumulative IPC: 3.433 (Simulation time: 00 hr 04 min 05 sec)
Heartbeat CPU 0 instructions: 45000309 cycles: 13084918 heartbeat IPC: 4.025 cumulative IPC: 3.439 (Simulation time: 00 hr 04 min 08 sec)
Heartbeat CPU 0 instructions: 45500311 cycles: 13211944 heartbeat IPC: 3.936 cumulative IPC: 3.444 (Simulation time: 00 hr 04 min 10 sec)
Heartbeat CPU 0 instructions: 46000311 cycles: 13349717 heartbeat IPC: 3.629 cumulative IPC: 3.446 (Simulation time: 00 hr 04 min 13 sec)
Heartbeat CPU 0 instructions: 46500312 cycles: 13466570 heartbeat IPC: 4.279 cumulative IPC: 3.453 (Simulation time: 00 hr 04 min 15 sec)
Heartbeat CPU 0 instructions: 47000317 cycles: 13583117 heartbeat IPC: 4.29 cumulative IPC: 3.46 (Simulation time: 00 hr 04 min 17 sec)
Heartbeat CPU 0 instructions: 47500320 cycles: 13737968 heartbeat IPC: 3.229 cumulative IPC: 3.458 (Simulation time: 00 hr 04 min 20 sec)
Heartbeat CPU 0 instructions: 48000320 cycles: 13843610 heartbeat IPC: 4.733 cumulative IPC: 3.467 (Simulation time: 00 hr 04 min 22 sec)
Heartbeat CPU 0 instructions: 48500326 cycles: 13970799 heartbeat IPC: 3.931 cumulative IPC: 3.472 (Simulation time: 00 hr 04 min 25 sec)
Heartbeat CPU 0 instructions: 49000328 cycles: 14095761 heartbeat IPC: 4.001 cumulative IPC: 3.476 (Simulation time: 00 hr 04 min 27 sec)
Heartbeat CPU 0 instructions: 49500330 cycles: 14234815 heartbeat IPC: 3.596 cumulative IPC: 3.477 (Simulation time: 00 hr 04 min 30 sec)
Warmup halting CPU 0 at instruction 50000007 cycle 14373046 for remainder of phase
Warmup finished CPU 0 instructions: 50000007 cycles: 14373046 cumulative IPC: 3.479 (Simulation time: 00 hr 04 min 32 sec)
Warmup complete CPU 0 instructions: 50000007 cycles: 14373046 cumulative IPC: 3.479 (Simulation time: 00 hr 04 min 32 sec)
Heartbeat CPU 0 instructions: 50000337 cycles: 14373491 heartbeat IPC: 3.606 cumulative IPC: 0.7416 (Simulation time: 00 hr 04 min 32 sec)
Heartbeat CPU 0 instructions: 50500337 cycles: 15146874 heartbeat IPC: 0.6465 cumulative IPC: 0.6466 (Simulation time: 00 hr 04 min 39 sec)
Heartbeat CPU 0 instructions: 51000341 cycles: 15916022 heartbeat IPC: 0.6501 cumulative IPC: 0.6483 (Simulation time: 00 hr 04 min 45 sec)
Heartbeat CPU 0 instructions: 51500342 cycles: 16941394 heartbeat IPC: 0.4876 cumulative IPC: 0.5842 (Simulation time: 00 hr 04 min 55 sec)
Heartbeat CPU 0 instructions: 52000342 cycles: 18226121 heartbeat IPC: 0.3892 cumulative IPC: 0.5192 (Simulation time: 00 hr 05 min 06 sec)
Heartbeat CPU 0 instructions: 52500342 cycles: 19049385 heartbeat IPC: 0.6073 cumulative IPC: 0.5347 (Simulation time: 00 hr 05 min 13 sec)
Heartbeat CPU 0 instructions: 53000342 cycles: 19633431 heartbeat IPC: 0.8561 cumulative IPC: 0.5704 (Simulation time: 00 hr 05 min 18 sec)
Heartbeat CPU 0 instructions: 53500347 cycles: 20732513 heartbeat IPC: 0.4549 cumulative IPC: 0.5504 (Simulation time: 00 hr 05 min 26 sec)
Heartbeat CPU 0 instructions: 54000347 cycles: 21123579 heartbeat IPC: 1.279 cumulative IPC: 0.5926 (Simulation time: 00 hr 05 min 30 sec)
Heartbeat CPU 0 instructions: 54500347 cycles: 21381944 heartbeat IPC: 1.935 cumulative IPC: 0.6421 (Simulation time: 00 hr 05 min 33 sec)
Heartbeat CPU 0 instructions: 55000347 cycles: 22401010 heartbeat IPC: 0.4906 cumulative IPC: 0.6229 (Simulation time: 00 hr 05 min 41 sec)
Heartbeat CPU 0 instructions: 55500350 cycles: 23183699 heartbeat IPC: 0.6388 cumulative IPC: 0.6243 (Simulation time: 00 hr 05 min 48 sec)
Heartbeat CPU 0 instructions: 56000350 cycles: 24887774 heartbeat IPC: 0.2934 cumulative IPC: 0.5707 (Simulation time: 00 hr 06 min 01 sec)
Heartbeat CPU 0 instructions: 56500353 cycles: 26245021 heartbeat IPC: 0.3684 cumulative IPC: 0.5475 (Simulation time: 00 hr 06 min 11 sec)
Heartbeat CPU 0 instructions: 57000354 cycles: 26935692 heartbeat IPC: 0.7239 cumulative IPC: 0.5572 (Simulation time: 00 hr 06 min 17 sec)
Heartbeat CPU 0 instructions: 57500354 cycles: 28642089 heartbeat IPC: 0.293 cumulative IPC: 0.5256 (Simulation time: 00 hr 06 min 30 sec)
Heartbeat CPU 0 instructions: 58000354 cycles: 29874798 heartbeat IPC: 0.4056 cumulative IPC: 0.5161 (Simulation time: 00 hr 06 min 40 sec)
Heartbeat CPU 0 instructions: 58500360 cycles: 30572541 heartbeat IPC: 0.7166 cumulative IPC: 0.5247 (Simulation time: 00 hr 06 min 47 sec)
Heartbeat CPU 0 instructions: 59000362 cycles: 31170393 heartbeat IPC: 0.8363 cumulative IPC: 0.5358 (Simulation time: 00 hr 06 min 53 sec)
Heartbeat CPU 0 instructions: 59500362 cycles: 31709310 heartbeat IPC: 0.9278 cumulative IPC: 0.548 (Simulation time: 00 hr 06 min 59 sec)
Heartbeat CPU 0 instructions: 60000366 cycles: 32209263 heartbeat IPC: 1 cumulative IPC: 0.5607 (Simulation time: 00 hr 07 min 05 sec)
Heartbeat CPU 0 instructions: 60500366 cycles: 32661327 heartbeat IPC: 1.106 cumulative IPC: 0.5742 (Simulation time: 00 hr 07 min 10 sec)
Heartbeat CPU 0 instructions: 61000370 cycles: 33207894 heartbeat IPC: 0.9148 cumulative IPC: 0.584 (Simulation time: 00 hr 07 min 16 sec)
Heartbeat CPU 0 instructions: 61500371 cycles: 33580543 heartbeat IPC: 1.342 cumulative IPC: 0.5987 (Simulation time: 00 hr 07 min 20 sec)
Heartbeat CPU 0 instructions: 62000378 cycles: 33858081 heartbeat IPC: 1.802 cumulative IPC: 0.6159 (Simulation time: 00 hr 07 min 24 sec)
Heartbeat CPU 0 instructions: 62500380 cycles: 34136732 heartbeat IPC: 1.794 cumulative IPC: 0.6325 (Simulation time: 00 hr 07 min 27 sec)
Heartbeat CPU 0 instructions: 63000380 cycles: 34398211 heartbeat IPC: 1.912 cumulative IPC: 0.6492 (Simulation time: 00 hr 07 min 30 sec)
Heartbeat CPU 0 instructions: 63500382 cycles: 34659836 heartbeat IPC: 1.911 cumulative IPC: 0.6655 (Simulation time: 00 hr 07 min 33 sec)
Heartbeat CPU 0 instructions: 64000382 cycles: 34919112 heartbeat IPC: 1.928 cumulative IPC: 0.6814 (Simulation time: 00 hr 07 min 36 sec)
Heartbeat CPU 0 instructions: 64500388 cycles: 35185030 heartbeat IPC: 1.88 cumulative IPC: 0.6967 (Simulation time: 00 hr 07 min 39 sec)
Heartbeat CPU 0 instructions: 65000391 cycles: 35446090 heartbeat IPC: 1.915 cumulative IPC: 0.7118 (Simulation time: 00 hr 07 min 42 sec)
Heartbeat CPU 0 instructions: 65500392 cycles: 35698962 heartbeat IPC: 1.977 cumulative IPC: 0.7268 (Simulation time: 00 hr 07 min 45 sec)
Heartbeat CPU 0 instructions: 66000394 cycles: 35955163 heartbeat IPC: 1.952 cumulative IPC: 0.7414 (Simulation time: 00 hr 07 min 48 sec)
Heartbeat CPU 0 instructions: 66500394 cycles: 36215534 heartbeat IPC: 1.92 cumulative IPC: 0.7554 (Simulation time: 00 hr 07 min 52 sec)
Heartbeat CPU 0 instructions: 67000397 cycles: 36512231 heartbeat IPC: 1.685 cumulative IPC: 0.7679 (Simulation time: 00 hr 07 min 55 sec)
Heartbeat CPU 0 instructions: 67500400 cycles: 37071883 heartbeat IPC: 0.8934 cumulative IPC: 0.771 (Simulation time: 00 hr 08 min 02 sec)
Heartbeat CPU 0 instructions: 68000403 cycles: 38624171 heartbeat IPC: 0.3221 cumulative IPC: 0.7422 (Simulation time: 00 hr 08 min 16 sec)
Heartbeat CPU 0 instructions: 68500403 cycles: 39240244 heartbeat IPC: 0.8116 cumulative IPC: 0.744 (Simulation time: 00 hr 08 min 23 sec)
Heartbeat CPU 0 instructions: 69000407 cycles: 39608653 heartbeat IPC: 1.357 cumulative IPC: 0.7529 (Simulation time: 00 hr 08 min 27 sec)
Heartbeat CPU 0 instructions: 69500408 cycles: 39789531 heartbeat IPC: 2.764 cumulative IPC: 0.7672 (Simulation time: 00 hr 08 min 30 sec)
Heartbeat CPU 0 instructions: 70000408 cycles: 40286558 heartbeat IPC: 1.006 cumulative IPC: 0.7718 (Simulation time: 00 hr 08 min 35 sec)
Heartbeat CPU 0 instructions: 70500409 cycles: 40685652 heartbeat IPC: 1.253 cumulative IPC: 0.7791 (Simulation time: 00 hr 08 min 39 sec)
Heartbeat CPU 0 instructions: 71000415 cycles: 40953515 heartbeat IPC: 1.867 cumulative IPC: 0.7901 (Simulation time: 00 hr 08 min 42 sec)
Heartbeat CPU 0 instructions: 71500416 cycles: 41518374 heartbeat IPC: 0.8852 cumulative IPC: 0.792 (Simulation time: 00 hr 08 min 48 sec)
Heartbeat CPU 0 instructions: 72000416 cycles: 42281829 heartbeat IPC: 0.6549 cumulative IPC: 0.7883 (Simulation time: 00 hr 08 min 56 sec)
Heartbeat CPU 0 instructions: 72500421 cycles: 42894892 heartbeat IPC: 0.8156 cumulative IPC: 0.7889 (Simulation time: 00 hr 09 min 02 sec)
Heartbeat CPU 0 instructions: 73000426 cycles: 43254057 heartbeat IPC: 1.392 cumulative IPC: 0.7964 (Simulation time: 00 hr 09 min 07 sec)
Heartbeat CPU 0 instructions: 73500431 cycles: 43591722 heartbeat IPC: 1.481 cumulative IPC: 0.8043 (Simulation time: 00 hr 09 min 11 sec)
Heartbeat CPU 0 instructions: 74000434 cycles: 43801912 heartbeat IPC: 2.379 cumulative IPC: 0.8155 (Simulation time: 00 hr 09 min 14 sec)
Heartbeat CPU 0 instructions: 74500434 cycles: 44072537 heartbeat IPC: 1.848 cumulative IPC: 0.8249 (Simulation time: 00 hr 09 min 17 sec)
Heartbeat CPU 0 instructions: 75000434 cycles: 44276802 heartbeat IPC: 2.448 cumulative IPC: 0.836 (Simulation time: 00 hr 09 min 20 sec)
Heartbeat CPU 0 instructions: 75500434 cycles: 44591026 heartbeat IPC: 1.591 cumulative IPC: 0.8439 (Simulation time: 00 hr 09 min 24 sec)
Heartbeat CPU 0 instructions: 76000436 cycles: 44851393 heartbeat IPC: 1.92 cumulative IPC: 0.8531 (Simulation time: 00 hr 09 min 27 sec)
Heartbeat CPU 0 instructions: 76500440 cycles: 45137471 heartbeat IPC: 1.748 cumulative IPC: 0.8614 (Simulation time: 00 hr 09 min 31 sec)
Heartbeat CPU 0 instructions: 77000444 cycles: 45380867 heartbeat IPC: 2.054 cumulative IPC: 0.8708 (Simulation time: 00 hr 09 min 34 sec)
Heartbeat CPU 0 instructions: 77500446 cycles: 46623495 heartbeat IPC: 0.4024 cumulative IPC: 0.8527 (Simulation time: 00 hr 09 min 45 sec)
Heartbeat CPU 0 instructions: 78000450 cycles: 47707634 heartbeat IPC: 0.4612 cumulative IPC: 0.84 (Simulation time: 00 hr 09 min 53 sec)
Heartbeat CPU 0 instructions: 78500454 cycles: 48222357 heartbeat IPC: 0.9714 cumulative IPC: 0.842 (Simulation time: 00 hr 09 min 58 sec)
Heartbeat CPU 0 instructions: 79000456 cycles: 49727922 heartbeat IPC: 0.3321 cumulative IPC: 0.8203 (Simulation time: 00 hr 10 min 09 sec)
Heartbeat CPU 0 instructions: 79500456 cycles: 51074880 heartbeat IPC: 0.3712 cumulative IPC: 0.8038 (Simulation time: 00 hr 10 min 19 sec)
Heartbeat CPU 0 instructions: 80000456 cycles: 52739615 heartbeat IPC: 0.3003 cumulative IPC: 0.7819 (Simulation time: 00 hr 10 min 31 sec)
Heartbeat CPU 0 instructions: 80500457 cycles: 54074290 heartbeat IPC: 0.3746 cumulative IPC: 0.7682 (Simulation time: 00 hr 10 min 42 sec)
Heartbeat CPU 0 instructions: 81000462 cycles: 54765475 heartbeat IPC: 0.7234 cumulative IPC: 0.7675 (Simulation time: 00 hr 10 min 47 sec)
Heartbeat CPU 0 instructions: 81500462 cycles: 55677727 heartbeat IPC: 0.5481 cumulative IPC: 0.7626 (Simulation time: 00 hr 10 min 55 sec)
Heartbeat CPU 0 instructions: 82000463 cycles: 56151230 heartbeat IPC: 1.056 cumulative IPC: 0.766 (Simulation time: 00 hr 10 min 59 sec)
Heartbeat CPU 0 instructions: 82500463 cycles: 56753177 heartbeat IPC: 0.8306 cumulative IPC: 0.7669 (Simulation time: 00 hr 11 min 04 sec)
Heartbeat CPU 0 instructions: 83000469 cycles: 58129799 heartbeat IPC: 0.3632 cumulative IPC: 0.7542 (Simulation time: 00 hr 11 min 17 sec)
Heartbeat CPU 0 instructions: 83500469 cycles: 59077580 heartbeat IPC: 0.5275 cumulative IPC: 0.7494 (Simulation time: 00 hr 11 min 25 sec)
Heartbeat CPU 0 instructions: 84000474 cycles: 59725993 heartbeat IPC: 0.7711 cumulative IPC: 0.7497 (Simulation time: 00 hr 11 min 30 sec)
Heartbeat CPU 0 instructions: 84500481 cycles: 60894400 heartbeat IPC: 0.4279 cumulative IPC: 0.7416 (Simulation time: 00 hr 11 min 39 sec)
Heartbeat CPU 0 instructions: 85000486 cycles: 62148264 heartbeat IPC: 0.3988 cumulative IPC: 0.7326 (Simulation time: 00 hr 11 min 49 sec)
Heartbeat CPU 0 instructions: 85500486 cycles: 63567341 heartbeat IPC: 0.3523 cumulative IPC: 0.7216 (Simulation time: 00 hr 12 min 00 sec)
Heartbeat CPU 0 instructions: 86000486 cycles: 64698224 heartbeat IPC: 0.4421 cumulative IPC: 0.7154 (Simulation time: 00 hr 12 min 09 sec)
Heartbeat CPU 0 instructions: 86500491 cycles: 65923369 heartbeat IPC: 0.4081 cumulative IPC: 0.7081 (Simulation time: 00 hr 12 min 18 sec)
Heartbeat CPU 0 instructions: 87000491 cycles: 66812724 heartbeat IPC: 0.5622 cumulative IPC: 0.7056 (Simulation time: 00 hr 12 min 25 sec)
Heartbeat CPU 0 instructions: 87500492 cycles: 67866495 heartbeat IPC: 0.4745 cumulative IPC: 0.701 (Simulation time: 00 hr 12 min 33 sec)
Heartbeat CPU 0 instructions: 88000492 cycles: 68945334 heartbeat IPC: 0.4635 cumulative IPC: 0.6963 (Simulation time: 00 hr 12 min 43 sec)
Heartbeat CPU 0 instructions: 88500494 cycles: 69911380 heartbeat IPC: 0.5176 cumulative IPC: 0.6932 (Simulation time: 00 hr 12 min 51 sec)
Heartbeat CPU 0 instructions: 89000495 cycles: 71116691 heartbeat IPC: 0.4148 cumulative IPC: 0.6873 (Simulation time: 00 hr 13 min 00 sec)
Heartbeat CPU 0 instructions: 89500495 cycles: 72568622 heartbeat IPC: 0.3444 cumulative IPC: 0.6788 (Simulation time: 00 hr 13 min 12 sec)
Heartbeat CPU 0 instructions: 90000495 cycles: 73567694 heartbeat IPC: 0.5005 cumulative IPC: 0.6757 (Simulation time: 00 hr 13 min 20 sec)
Heartbeat CPU 0 instructions: 90500495 cycles: 74788102 heartbeat IPC: 0.4097 cumulative IPC: 0.6704 (Simulation time: 00 hr 13 min 29 sec)
Heartbeat CPU 0 instructions: 91000495 cycles: 76081383 heartbeat IPC: 0.3866 cumulative IPC: 0.6644 (Simulation time: 00 hr 13 min 40 sec)
Heartbeat CPU 0 instructions: 91500496 cycles: 77032363 heartbeat IPC: 0.5258 cumulative IPC: 0.6623 (Simulation time: 00 hr 13 min 47 sec)
Heartbeat CPU 0 instructions: 92000499 cycles: 78074936 heartbeat IPC: 0.4796 cumulative IPC: 0.6593 (Simulation time: 00 hr 13 min 56 sec)
Heartbeat CPU 0 instructions: 92500499 cycles: 79065051 heartbeat IPC: 0.505 cumulative IPC: 0.657 (Simulation time: 00 hr 14 min 05 sec)
Heartbeat CPU 0 instructions: 93000499 cycles: 79998974 heartbeat IPC: 0.5354 cumulative IPC: 0.6552 (Simulation time: 00 hr 14 min 13 sec)
Heartbeat CPU 0 instructions: 93500504 cycles: 80878116 heartbeat IPC: 0.5687 cumulative IPC: 0.6541 (Simulation time: 00 hr 14 min 20 sec)
Heartbeat CPU 0 instructions: 94000506 cycles: 82284421 heartbeat IPC: 0.3555 cumulative IPC: 0.6479 (Simulation time: 00 hr 14 min 31 sec)
Heartbeat CPU 0 instructions: 94500506 cycles: 83502837 heartbeat IPC: 0.4104 cumulative IPC: 0.6437 (Simulation time: 00 hr 14 min 40 sec)
Heartbeat CPU 0 instructions: 95000511 cycles: 84904665 heartbeat IPC: 0.3567 cumulative IPC: 0.638 (Simulation time: 00 hr 14 min 51 sec)
Heartbeat CPU 0 instructions: 95500514 cycles: 85565495 heartbeat IPC: 0.7566 cumulative IPC: 0.6391 (Simulation time: 00 hr 14 min 57 sec)
Heartbeat CPU 0 instructions: 96000519 cycles: 86072835 heartbeat IPC: 0.9855 cumulative IPC: 0.6416 (Simulation time: 00 hr 15 min 02 sec)
Heartbeat CPU 0 instructions: 96500523 cycles: 87216722 heartbeat IPC: 0.4371 cumulative IPC: 0.6384 (Simulation time: 00 hr 15 min 11 sec)
Heartbeat CPU 0 instructions: 97000523 cycles: 87648300 heartbeat IPC: 1.159 cumulative IPC: 0.6414 (Simulation time: 00 hr 15 min 16 sec)
Heartbeat CPU 0 instructions: 97500528 cycles: 88011622 heartbeat IPC: 1.376 cumulative IPC: 0.645 (Simulation time: 00 hr 15 min 19 sec)
Heartbeat CPU 0 instructions: 98000534 cycles: 88249936 heartbeat IPC: 2.098 cumulative IPC: 0.6497 (Simulation time: 00 hr 15 min 22 sec)
Heartbeat CPU 0 instructions: 98500536 cycles: 89340978 heartbeat IPC: 0.4583 cumulative IPC: 0.647 (Simulation time: 00 hr 15 min 31 sec)
Heartbeat CPU 0 instructions: 99000536 cycles: 90331837 heartbeat IPC: 0.5046 cumulative IPC: 0.6451 (Simulation time: 00 hr 15 min 39 sec)
Heartbeat CPU 0 instructions: 99500536 cycles: 91074895 heartbeat IPC: 0.6729 cumulative IPC: 0.6454 (Simulation time: 00 hr 15 min 45 sec)
Heartbeat CPU 0 instructions: 100000537 cycles: 91779500 heartbeat IPC: 0.7096 cumulative IPC: 0.6459 (Simulation time: 00 hr 15 min 52 sec)
Heartbeat CPU 0 instructions: 100500538 cycles: 92309452 heartbeat IPC: 0.9435 cumulative IPC: 0.648 (Simulation time: 00 hr 15 min 57 sec)
Heartbeat CPU 0 instructions: 101000539 cycles: 93359462 heartbeat IPC: 0.4762 cumulative IPC: 0.6457 (Simulation time: 00 hr 16 min 05 sec)
Heartbeat CPU 0 instructions: 101500539 cycles: 94628845 heartbeat IPC: 0.3939 cumulative IPC: 0.6417 (Simulation time: 00 hr 16 min 15 sec)
Heartbeat CPU 0 instructions: 102000544 cycles: 95734405 heartbeat IPC: 0.4523 cumulative IPC: 0.6391 (Simulation time: 00 hr 16 min 24 sec)
Heartbeat CPU 0 instructions: 102500544 cycles: 96151475 heartbeat IPC: 1.199 cumulative IPC: 0.642 (Simulation time: 00 hr 16 min 28 sec)
Heartbeat CPU 0 instructions: 103000545 cycles: 98090128 heartbeat IPC: 0.2579 cumulative IPC: 0.6331 (Simulation time: 00 hr 16 min 43 sec)
Heartbeat CPU 0 instructions: 103500548 cycles: 98890968 heartbeat IPC: 0.6243 cumulative IPC: 0.633 (Simulation time: 00 hr 16 min 50 sec)
Heartbeat CPU 0 instructions: 104000549 cycles: 99576654 heartbeat IPC: 0.7292 cumulative IPC: 0.6338 (Simulation time: 00 hr 16 min 55 sec)
Heartbeat CPU 0 instructions: 104500549 cycles: 100947613 heartbeat IPC: 0.3647 cumulative IPC: 0.6295 (Simulation time: 00 hr 17 min 06 sec)
Heartbeat CPU 0 instructions: 105000553 cycles: 101213626 heartbeat IPC: 1.88 cumulative IPC: 0.6334 (Simulation time: 00 hr 17 min 09 sec)
Heartbeat CPU 0 instructions: 105500553 cycles: 101748195 heartbeat IPC: 0.9353 cumulative IPC: 0.6352 (Simulation time: 00 hr 17 min 14 sec)
Heartbeat CPU 0 instructions: 106000558 cycles: 102380349 heartbeat IPC: 0.791 cumulative IPC: 0.6363 (Simulation time: 00 hr 17 min 19 sec)
Heartbeat CPU 0 instructions: 106500558 cycles: 103127989 heartbeat IPC: 0.6688 cumulative IPC: 0.6366 (Simulation time: 00 hr 17 min 25 sec)
Heartbeat CPU 0 instructions: 107000558 cycles: 104501265 heartbeat IPC: 0.3641 cumulative IPC: 0.6324 (Simulation time: 00 hr 17 min 36 sec)
Heartbeat CPU 0 instructions: 107500558 cycles: 105415964 heartbeat IPC: 0.5466 cumulative IPC: 0.6316 (Simulation time: 00 hr 17 min 44 sec)
Heartbeat CPU 0 instructions: 108000560 cycles: 106427977 heartbeat IPC: 0.4941 cumulative IPC: 0.6301 (Simulation time: 00 hr 17 min 52 sec)
Heartbeat CPU 0 instructions: 108500567 cycles: 107121014 heartbeat IPC: 0.7215 cumulative IPC: 0.6307 (Simulation time: 00 hr 17 min 58 sec)
Heartbeat CPU 0 instructions: 109000567 cycles: 108558015 heartbeat IPC: 0.3479 cumulative IPC: 0.6264 (Simulation time: 00 hr 18 min 08 sec)
Heartbeat CPU 0 instructions: 109500567 cycles: 109380279 heartbeat IPC: 0.6081 cumulative IPC: 0.6263 (Simulation time: 00 hr 18 min 15 sec)
Heartbeat CPU 0 instructions: 110000568 cycles: 110341686 heartbeat IPC: 0.5201 cumulative IPC: 0.6252 (Simulation time: 00 hr 18 min 23 sec)
Heartbeat CPU 0 instructions: 110500574 cycles: 111099894 heartbeat IPC: 0.6595 cumulative IPC: 0.6255 (Simulation time: 00 hr 18 min 29 sec)
Heartbeat CPU 0 instructions: 111000575 cycles: 112064770 heartbeat IPC: 0.5182 cumulative IPC: 0.6244 (Simulation time: 00 hr 18 min 36 sec)
Heartbeat CPU 0 instructions: 111500581 cycles: 113146891 heartbeat IPC: 0.4621 cumulative IPC: 0.6226 (Simulation time: 00 hr 18 min 46 sec)
Heartbeat CPU 0 instructions: 112000582 cycles: 114184325 heartbeat IPC: 0.482 cumulative IPC: 0.6212 (Simulation time: 00 hr 18 min 54 sec)
Heartbeat CPU 0 instructions: 112500587 cycles: 115211945 heartbeat IPC: 0.4866 cumulative IPC: 0.6198 (Simulation time: 00 hr 19 min 02 sec)
Heartbeat CPU 0 instructions: 113000591 cycles: 115463003 heartbeat IPC: 1.992 cumulative IPC: 0.6232 (Simulation time: 00 hr 19 min 05 sec)
Heartbeat CPU 0 instructions: 113500597 cycles: 116805775 heartbeat IPC: 0.3724 cumulative IPC: 0.6199 (Simulation time: 00 hr 19 min 15 sec)
Heartbeat CPU 0 instructions: 114000597 cycles: 118120102 heartbeat IPC: 0.3804 cumulative IPC: 0.6169 (Simulation time: 00 hr 19 min 24 sec)
Heartbeat CPU 0 instructions: 114500597 cycles: 119036258 heartbeat IPC: 0.5458 cumulative IPC: 0.6163 (Simulation time: 00 hr 19 min 32 sec)
Heartbeat CPU 0 instructions: 115000599 cycles: 120118264 heartbeat IPC: 0.4621 cumulative IPC: 0.6147 (Simulation time: 00 hr 19 min 40 sec)
Heartbeat CPU 0 instructions: 115500599 cycles: 121274957 heartbeat IPC: 0.4323 cumulative IPC: 0.6127 (Simulation time: 00 hr 19 min 49 sec)
Heartbeat CPU 0 instructions: 116000601 cycles: 121984980 heartbeat IPC: 0.7042 cumulative IPC: 0.6133 (Simulation time: 00 hr 19 min 56 sec)
Heartbeat CPU 0 instructions: 116500601 cycles: 122838049 heartbeat IPC: 0.5861 cumulative IPC: 0.6131 (Simulation time: 00 hr 20 min 03 sec)
Heartbeat CPU 0 instructions: 117000603 cycles: 123208193 heartbeat IPC: 1.351 cumulative IPC: 0.6156 (Simulation time: 00 hr 20 min 07 sec)
Heartbeat CPU 0 instructions: 117500603 cycles: 124250327 heartbeat IPC: 0.4798 cumulative IPC: 0.6143 (Simulation time: 00 hr 20 min 15 sec)
Heartbeat CPU 0 instructions: 118000609 cycles: 125558468 heartbeat IPC: 0.3822 cumulative IPC: 0.6116 (Simulation time: 00 hr 20 min 25 sec)
Heartbeat CPU 0 instructions: 118500614 cycles: 127061955 heartbeat IPC: 0.3326 cumulative IPC: 0.6079 (Simulation time: 00 hr 20 min 36 sec)
Heartbeat CPU 0 instructions: 119000619 cycles: 128233068 heartbeat IPC: 0.4269 cumulative IPC: 0.606 (Simulation time: 00 hr 20 min 45 sec)
Heartbeat CPU 0 instructions: 119500619 cycles: 129172537 heartbeat IPC: 0.5322 cumulative IPC: 0.6054 (Simulation time: 00 hr 20 min 52 sec)
Heartbeat CPU 0 instructions: 120000621 cycles: 129816825 heartbeat IPC: 0.7761 cumulative IPC: 0.6064 (Simulation time: 00 hr 20 min 57 sec)
Heartbeat CPU 0 instructions: 120500627 cycles: 130915466 heartbeat IPC: 0.4551 cumulative IPC: 0.6049 (Simulation time: 00 hr 21 min 06 sec)
Heartbeat CPU 0 instructions: 121000629 cycles: 132012705 heartbeat IPC: 0.4557 cumulative IPC: 0.6035 (Simulation time: 00 hr 21 min 14 sec)
Heartbeat CPU 0 instructions: 121500636 cycles: 132438915 heartbeat IPC: 1.173 cumulative IPC: 0.6056 (Simulation time: 00 hr 21 min 18 sec)
Heartbeat CPU 0 instructions: 122000637 cycles: 133027832 heartbeat IPC: 0.849 cumulative IPC: 0.6068 (Simulation time: 00 hr 21 min 23 sec)
Heartbeat CPU 0 instructions: 122500637 cycles: 133427313 heartbeat IPC: 1.252 cumulative IPC: 0.609 (Simulation time: 00 hr 21 min 27 sec)
Heartbeat CPU 0 instructions: 123000639 cycles: 133982489 heartbeat IPC: 0.9006 cumulative IPC: 0.6103 (Simulation time: 00 hr 21 min 32 sec)
Heartbeat CPU 0 instructions: 123500639 cycles: 135530139 heartbeat IPC: 0.3231 cumulative IPC: 0.6067 (Simulation time: 00 hr 21 min 44 sec)
Heartbeat CPU 0 instructions: 124000643 cycles: 136481818 heartbeat IPC: 0.5254 cumulative IPC: 0.606 (Simulation time: 00 hr 21 min 52 sec)
Heartbeat CPU 0 instructions: 124500646 cycles: 137293471 heartbeat IPC: 0.616 cumulative IPC: 0.6061 (Simulation time: 00 hr 21 min 59 sec)
Heartbeat CPU 0 instructions: 125000650 cycles: 138006091 heartbeat IPC: 0.7016 cumulative IPC: 0.6066 (Simulation time: 00 hr 22 min 08 sec)
Heartbeat CPU 0 instructions: 125500652 cycles: 138724804 heartbeat IPC: 0.6957 cumulative IPC: 0.6072 (Simulation time: 00 hr 22 min 15 sec)
Heartbeat CPU 0 instructions: 126000655 cycles: 139310635 heartbeat IPC: 0.8535 cumulative IPC: 0.6083 (Simulation time: 00 hr 22 min 22 sec)
Heartbeat CPU 0 instructions: 126500655 cycles: 139861073 heartbeat IPC: 0.9084 cumulative IPC: 0.6096 (Simulation time: 00 hr 22 min 28 sec)
Heartbeat CPU 0 instructions: 127000656 cycles: 140501522 heartbeat IPC: 0.7807 cumulative IPC: 0.6105 (Simulation time: 00 hr 22 min 34 sec)
Heartbeat CPU 0 instructions: 127500662 cycles: 141105221 heartbeat IPC: 0.8282 cumulative IPC: 0.6115 (Simulation time: 00 hr 22 min 41 sec)
Heartbeat CPU 0 instructions: 128000662 cycles: 141766765 heartbeat IPC: 0.7558 cumulative IPC: 0.6123 (Simulation time: 00 hr 22 min 47 sec)
Heartbeat CPU 0 instructions: 128500662 cycles: 142432298 heartbeat IPC: 0.7513 cumulative IPC: 0.613 (Simulation time: 00 hr 22 min 56 sec)
Heartbeat CPU 0 instructions: 129000665 cycles: 143225251 heartbeat IPC: 0.6306 cumulative IPC: 0.6131 (Simulation time: 00 hr 23 min 05 sec)
Heartbeat CPU 0 instructions: 129500671 cycles: 144950282 heartbeat IPC: 0.2899 cumulative IPC: 0.6088 (Simulation time: 00 hr 23 min 17 sec)
Heartbeat CPU 0 instructions: 130000674 cycles: 146331039 heartbeat IPC: 0.3621 cumulative IPC: 0.6063 (Simulation time: 00 hr 23 min 28 sec)
Heartbeat CPU 0 instructions: 130500675 cycles: 148055715 heartbeat IPC: 0.2899 cumulative IPC: 0.6022 (Simulation time: 00 hr 23 min 40 sec)
Heartbeat CPU 0 instructions: 131000678 cycles: 149299984 heartbeat IPC: 0.4018 cumulative IPC: 0.6003 (Simulation time: 00 hr 23 min 49 sec)
Heartbeat CPU 0 instructions: 131500678 cycles: 150506620 heartbeat IPC: 0.4144 cumulative IPC: 0.5987 (Simulation time: 00 hr 23 min 58 sec)
Heartbeat CPU 0 instructions: 132000678 cycles: 151075951 heartbeat IPC: 0.8782 cumulative IPC: 0.5998 (Simulation time: 00 hr 24 min 03 sec)
Heartbeat CPU 0 instructions: 132500680 cycles: 151645808 heartbeat IPC: 0.8774 cumulative IPC: 0.601 (Simulation time: 00 hr 24 min 08 sec)
Heartbeat CPU 0 instructions: 133000687 cycles: 152141646 heartbeat IPC: 1.008 cumulative IPC: 0.6025 (Simulation time: 00 hr 24 min 12 sec)
Heartbeat CPU 0 instructions: 133500687 cycles: 153336423 heartbeat IPC: 0.4185 cumulative IPC: 0.6009 (Simulation time: 00 hr 24 min 22 sec)
Heartbeat CPU 0 instructions: 134000687 cycles: 154859294 heartbeat IPC: 0.3283 cumulative IPC: 0.5979 (Simulation time: 00 hr 24 min 32 sec)
Heartbeat CPU 0 instructions: 134500690 cycles: 155820505 heartbeat IPC: 0.5202 cumulative IPC: 0.5974 (Simulation time: 00 hr 24 min 40 sec)
Heartbeat CPU 0 instructions: 135000696 cycles: 156968614 heartbeat IPC: 0.4355 cumulative IPC: 0.5961 (Simulation time: 00 hr 24 min 48 sec)
Heartbeat CPU 0 instructions: 135500698 cycles: 158900021 heartbeat IPC: 0.2589 cumulative IPC: 0.5916 (Simulation time: 00 hr 25 min 01 sec)
Heartbeat CPU 0 instructions: 136000699 cycles: 159754083 heartbeat IPC: 0.5854 cumulative IPC: 0.5916 (Simulation time: 00 hr 25 min 08 sec)
Heartbeat CPU 0 instructions: 136500700 cycles: 160318515 heartbeat IPC: 0.8858 cumulative IPC: 0.5927 (Simulation time: 00 hr 25 min 12 sec)
Heartbeat CPU 0 instructions: 137000700 cycles: 162041491 heartbeat IPC: 0.2902 cumulative IPC: 0.5892 (Simulation time: 00 hr 25 min 24 sec)
Heartbeat CPU 0 instructions: 137500700 cycles: 163338924 heartbeat IPC: 0.3854 cumulative IPC: 0.5874 (Simulation time: 00 hr 25 min 33 sec)
Heartbeat CPU 0 instructions: 138000707 cycles: 163886362 heartbeat IPC: 0.9134 cumulative IPC: 0.5886 (Simulation time: 00 hr 25 min 38 sec)
Heartbeat CPU 0 instructions: 138500709 cycles: 164110445 heartbeat IPC: 2.231 cumulative IPC: 0.591 (Simulation time: 00 hr 25 min 41 sec)
Heartbeat CPU 0 instructions: 139000716 cycles: 164459496 heartbeat IPC: 1.432 cumulative IPC: 0.593 (Simulation time: 00 hr 25 min 44 sec)
Heartbeat CPU 0 instructions: 139500718 cycles: 164739904 heartbeat IPC: 1.783 cumulative IPC: 0.5952 (Simulation time: 00 hr 25 min 47 sec)
Heartbeat CPU 0 instructions: 140000718 cycles: 165673940 heartbeat IPC: 0.5353 cumulative IPC: 0.5948 (Simulation time: 00 hr 25 min 54 sec)
Heartbeat CPU 0 instructions: 140500722 cycles: 166246972 heartbeat IPC: 0.8726 cumulative IPC: 0.5959 (Simulation time: 00 hr 25 min 59 sec)
Heartbeat CPU 0 instructions: 141000723 cycles: 166790388 heartbeat IPC: 0.9201 cumulative IPC: 0.597 (Simulation time: 00 hr 26 min 04 sec)
Heartbeat CPU 0 instructions: 141500723 cycles: 168574221 heartbeat IPC: 0.2803 cumulative IPC: 0.5934 (Simulation time: 00 hr 26 min 17 sec)
Heartbeat CPU 0 instructions: 142000725 cycles: 169491278 heartbeat IPC: 0.5452 cumulative IPC: 0.5931 (Simulation time: 00 hr 26 min 24 sec)
Heartbeat CPU 0 instructions: 142500727 cycles: 170469219 heartbeat IPC: 0.5113 cumulative IPC: 0.5926 (Simulation time: 00 hr 26 min 31 sec)
Heartbeat CPU 0 instructions: 143000730 cycles: 171328620 heartbeat IPC: 0.5818 cumulative IPC: 0.5925 (Simulation time: 00 hr 26 min 38 sec)
Heartbeat CPU 0 instructions: 143500735 cycles: 172396335 heartbeat IPC: 0.4683 cumulative IPC: 0.5917 (Simulation time: 00 hr 26 min 46 sec)
Heartbeat CPU 0 instructions: 144000735 cycles: 173513607 heartbeat IPC: 0.4475 cumulative IPC: 0.5907 (Simulation time: 00 hr 26 min 54 sec)
Heartbeat CPU 0 instructions: 144500739 cycles: 174905889 heartbeat IPC: 0.3591 cumulative IPC: 0.5887 (Simulation time: 00 hr 27 min 05 sec)
Heartbeat CPU 0 instructions: 145000740 cycles: 175627547 heartbeat IPC: 0.6929 cumulative IPC: 0.5891 (Simulation time: 00 hr 27 min 11 sec)
Heartbeat CPU 0 instructions: 145500741 cycles: 177133784 heartbeat IPC: 0.332 cumulative IPC: 0.5868 (Simulation time: 00 hr 27 min 22 sec)
Heartbeat CPU 0 instructions: 146000745 cycles: 177892843 heartbeat IPC: 0.6587 cumulative IPC: 0.5871 (Simulation time: 00 hr 27 min 29 sec)
Heartbeat CPU 0 instructions: 146500747 cycles: 178171827 heartbeat IPC: 1.792 cumulative IPC: 0.5891 (Simulation time: 00 hr 27 min 31 sec)
Heartbeat CPU 0 instructions: 147000748 cycles: 178571497 heartbeat IPC: 1.251 cumulative IPC: 0.5908 (Simulation time: 00 hr 27 min 35 sec)
Heartbeat CPU 0 instructions: 147500751 cycles: 178788081 heartbeat IPC: 2.309 cumulative IPC: 0.593 (Simulation time: 00 hr 27 min 38 sec)
Heartbeat CPU 0 instructions: 148000753 cycles: 179180801 heartbeat IPC: 1.273 cumulative IPC: 0.5946 (Simulation time: 00 hr 27 min 41 sec)
Heartbeat CPU 0 instructions: 148500757 cycles: 180376968 heartbeat IPC: 0.418 cumulative IPC: 0.5934 (Simulation time: 00 hr 27 min 50 sec)
Heartbeat CPU 0 instructions: 149000760 cycles: 182046529 heartbeat IPC: 0.2995 cumulative IPC: 0.5904 (Simulation time: 00 hr 28 min 02 sec)
Heartbeat CPU 0 instructions: 149500761 cycles: 182503334 heartbeat IPC: 1.095 cumulative IPC: 0.5918 (Simulation time: 00 hr 28 min 06 sec)
Heartbeat CPU 0 instructions: 150000766 cycles: 182807518 heartbeat IPC: 1.644 cumulative IPC: 0.5937 (Simulation time: 00 hr 28 min 09 sec)
Heartbeat CPU 0 instructions: 150500766 cycles: 183666537 heartbeat IPC: 0.5821 cumulative IPC: 0.5936 (Simulation time: 00 hr 28 min 15 sec)
Heartbeat CPU 0 instructions: 151000769 cycles: 184639972 heartbeat IPC: 0.5136 cumulative IPC: 0.5932 (Simulation time: 00 hr 28 min 23 sec)
Heartbeat CPU 0 instructions: 151500769 cycles: 185395068 heartbeat IPC: 0.6622 cumulative IPC: 0.5935 (Simulation time: 00 hr 28 min 29 sec)
Heartbeat CPU 0 instructions: 152000771 cycles: 186013904 heartbeat IPC: 0.808 cumulative IPC: 0.5943 (Simulation time: 00 hr 28 min 34 sec)
Heartbeat CPU 0 instructions: 152500773 cycles: 187146215 heartbeat IPC: 0.4416 cumulative IPC: 0.5933 (Simulation time: 00 hr 28 min 42 sec)
Heartbeat CPU 0 instructions: 153000773 cycles: 187742853 heartbeat IPC: 0.838 cumulative IPC: 0.5941 (Simulation time: 00 hr 28 min 47 sec)
Heartbeat CPU 0 instructions: 153500776 cycles: 188655365 heartbeat IPC: 0.5479 cumulative IPC: 0.5939 (Simulation time: 00 hr 28 min 55 sec)
Heartbeat CPU 0 instructions: 154000779 cycles: 189426037 heartbeat IPC: 0.6488 cumulative IPC: 0.5941 (Simulation time: 00 hr 29 min 01 sec)
Heartbeat CPU 0 instructions: 154500780 cycles: 190249578 heartbeat IPC: 0.6071 cumulative IPC: 0.5942 (Simulation time: 00 hr 29 min 08 sec)
Heartbeat CPU 0 instructions: 155000782 cycles: 192076327 heartbeat IPC: 0.2737 cumulative IPC: 0.5909 (Simulation time: 00 hr 29 min 20 sec)
Heartbeat CPU 0 instructions: 155500783 cycles: 193312714 heartbeat IPC: 0.4044 cumulative IPC: 0.5896 (Simulation time: 00 hr 29 min 29 sec)
Heartbeat CPU 0 instructions: 156000784 cycles: 194585440 heartbeat IPC: 0.3929 cumulative IPC: 0.5882 (Simulation time: 00 hr 29 min 38 sec)
Heartbeat CPU 0 instructions: 156500784 cycles: 195674074 heartbeat IPC: 0.4593 cumulative IPC: 0.5874 (Simulation time: 00 hr 29 min 46 sec)
Heartbeat CPU 0 instructions: 157000787 cycles: 196787600 heartbeat IPC: 0.449 cumulative IPC: 0.5866 (Simulation time: 00 hr 29 min 54 sec)
Heartbeat CPU 0 instructions: 157500789 cycles: 198037016 heartbeat IPC: 0.4002 cumulative IPC: 0.5853 (Simulation time: 00 hr 30 min 03 sec)
Heartbeat CPU 0 instructions: 158000790 cycles: 198787106 heartbeat IPC: 0.6666 cumulative IPC: 0.5856 (Simulation time: 00 hr 30 min 09 sec)
Heartbeat CPU 0 instructions: 158500793 cycles: 199631001 heartbeat IPC: 0.5925 cumulative IPC: 0.5857 (Simulation time: 00 hr 30 min 15 sec)
Heartbeat CPU 0 instructions: 159000793 cycles: 200561905 heartbeat IPC: 0.5371 cumulative IPC: 0.5854 (Simulation time: 00 hr 30 min 22 sec)
Heartbeat CPU 0 instructions: 159500793 cycles: 201771932 heartbeat IPC: 0.4132 cumulative IPC: 0.5843 (Simulation time: 00 hr 30 min 30 sec)
Heartbeat CPU 0 instructions: 160000794 cycles: 202556450 heartbeat IPC: 0.6373 cumulative IPC: 0.5845 (Simulation time: 00 hr 30 min 36 sec)
Heartbeat CPU 0 instructions: 160500794 cycles: 203485468 heartbeat IPC: 0.5382 cumulative IPC: 0.5843 (Simulation time: 00 hr 30 min 43 sec)
Heartbeat CPU 0 instructions: 161000796 cycles: 203900776 heartbeat IPC: 1.204 cumulative IPC: 0.5857 (Simulation time: 00 hr 30 min 47 sec)
Heartbeat CPU 0 instructions: 161500796 cycles: 204996728 heartbeat IPC: 0.4562 cumulative IPC: 0.5849 (Simulation time: 00 hr 30 min 54 sec)
Heartbeat CPU 0 instructions: 162000796 cycles: 206336743 heartbeat IPC: 0.3731 cumulative IPC: 0.5834 (Simulation time: 00 hr 31 min 04 sec)
Heartbeat CPU 0 instructions: 162500800 cycles: 207787216 heartbeat IPC: 0.3447 cumulative IPC: 0.5817 (Simulation time: 00 hr 31 min 15 sec)
Heartbeat CPU 0 instructions: 163000807 cycles: 209165966 heartbeat IPC: 0.3627 cumulative IPC: 0.5801 (Simulation time: 00 hr 31 min 25 sec)
Heartbeat CPU 0 instructions: 163500807 cycles: 209943165 heartbeat IPC: 0.6433 cumulative IPC: 0.5804 (Simulation time: 00 hr 31 min 31 sec)
Heartbeat CPU 0 instructions: 164000809 cycles: 210895111 heartbeat IPC: 0.5252 cumulative IPC: 0.5801 (Simulation time: 00 hr 31 min 38 sec)
Heartbeat CPU 0 instructions: 164500810 cycles: 212469044 heartbeat IPC: 0.3177 cumulative IPC: 0.578 (Simulation time: 00 hr 31 min 49 sec)
Heartbeat CPU 0 instructions: 165000810 cycles: 213198022 heartbeat IPC: 0.6859 cumulative IPC: 0.5784 (Simulation time: 00 hr 31 min 55 sec)
Heartbeat CPU 0 instructions: 165500812 cycles: 214453458 heartbeat IPC: 0.3983 cumulative IPC: 0.5773 (Simulation time: 00 hr 32 min 04 sec)
Heartbeat CPU 0 instructions: 166000813 cycles: 215488654 heartbeat IPC: 0.483 cumulative IPC: 0.5768 (Simulation time: 00 hr 32 min 11 sec)
Heartbeat CPU 0 instructions: 166500815 cycles: 216568073 heartbeat IPC: 0.4632 cumulative IPC: 0.5762 (Simulation time: 00 hr 32 min 19 sec)
Heartbeat CPU 0 instructions: 167000816 cycles: 217082306 heartbeat IPC: 0.9723 cumulative IPC: 0.5772 (Simulation time: 00 hr 32 min 23 sec)
Heartbeat CPU 0 instructions: 167500823 cycles: 217667163 heartbeat IPC: 0.8549 cumulative IPC: 0.578 (Simulation time: 00 hr 32 min 28 sec)
Heartbeat CPU 0 instructions: 168000829 cycles: 217973453 heartbeat IPC: 1.632 cumulative IPC: 0.5796 (Simulation time: 00 hr 32 min 32 sec)
Heartbeat CPU 0 instructions: 168500833 cycles: 218837637 heartbeat IPC: 0.5786 cumulative IPC: 0.5796 (Simulation time: 00 hr 32 min 38 sec)
Heartbeat CPU 0 instructions: 169000834 cycles: 219705015 heartbeat IPC: 0.5765 cumulative IPC: 0.5796 (Simulation time: 00 hr 32 min 44 sec)
Heartbeat CPU 0 instructions: 169500837 cycles: 220633110 heartbeat IPC: 0.5387 cumulative IPC: 0.5794 (Simulation time: 00 hr 32 min 51 sec)
Heartbeat CPU 0 instructions: 170000840 cycles: 221494835 heartbeat IPC: 0.5802 cumulative IPC: 0.5794 (Simulation time: 00 hr 32 min 58 sec)
Heartbeat CPU 0 instructions: 170500842 cycles: 222158056 heartbeat IPC: 0.7539 cumulative IPC: 0.5799 (Simulation time: 00 hr 33 min 03 sec)
Heartbeat CPU 0 instructions: 171000849 cycles: 223076065 heartbeat IPC: 0.5447 cumulative IPC: 0.5798 (Simulation time: 00 hr 33 min 09 sec)
Heartbeat CPU 0 instructions: 171500850 cycles: 224112661 heartbeat IPC: 0.4823 cumulative IPC: 0.5793 (Simulation time: 00 hr 33 min 16 sec)
Heartbeat CPU 0 instructions: 172000855 cycles: 225230354 heartbeat IPC: 0.4474 cumulative IPC: 0.5786 (Simulation time: 00 hr 33 min 24 sec)
Heartbeat CPU 0 instructions: 172500855 cycles: 226272701 heartbeat IPC: 0.4797 cumulative IPC: 0.5781 (Simulation time: 00 hr 33 min 32 sec)
Heartbeat CPU 0 instructions: 173000855 cycles: 227434044 heartbeat IPC: 0.4305 cumulative IPC: 0.5773 (Simulation time: 00 hr 33 min 40 sec)
Heartbeat CPU 0 instructions: 173500856 cycles: 228200874 heartbeat IPC: 0.652 cumulative IPC: 0.5776 (Simulation time: 00 hr 33 min 46 sec)
Heartbeat CPU 0 instructions: 174000861 cycles: 228893075 heartbeat IPC: 0.7223 cumulative IPC: 0.578 (Simulation time: 00 hr 33 min 51 sec)
Heartbeat CPU 0 instructions: 174500865 cycles: 230569731 heartbeat IPC: 0.2982 cumulative IPC: 0.5759 (Simulation time: 00 hr 34 min 03 sec)
Heartbeat CPU 0 instructions: 175000866 cycles: 231766061 heartbeat IPC: 0.4179 cumulative IPC: 0.575 (Simulation time: 00 hr 34 min 12 sec)
Heartbeat CPU 0 instructions: 175500867 cycles: 232549593 heartbeat IPC: 0.6381 cumulative IPC: 0.5752 (Simulation time: 00 hr 34 min 18 sec)
Heartbeat CPU 0 instructions: 176000869 cycles: 233538385 heartbeat IPC: 0.5057 cumulative IPC: 0.5749 (Simulation time: 00 hr 34 min 24 sec)
Heartbeat CPU 0 instructions: 176500871 cycles: 234584838 heartbeat IPC: 0.4778 cumulative IPC: 0.5745 (Simulation time: 00 hr 34 min 32 sec)
Heartbeat CPU 0 instructions: 177000874 cycles: 235884112 heartbeat IPC: 0.3848 cumulative IPC: 0.5733 (Simulation time: 00 hr 34 min 41 sec)
Heartbeat CPU 0 instructions: 177500878 cycles: 237131555 heartbeat IPC: 0.4008 cumulative IPC: 0.5724 (Simulation time: 00 hr 34 min 50 sec)
Heartbeat CPU 0 instructions: 178000879 cycles: 238210246 heartbeat IPC: 0.4635 cumulative IPC: 0.5718 (Simulation time: 00 hr 34 min 58 sec)
Heartbeat CPU 0 instructions: 178500881 cycles: 238980977 heartbeat IPC: 0.6487 cumulative IPC: 0.5721 (Simulation time: 00 hr 35 min 04 sec)
Heartbeat CPU 0 instructions: 179000881 cycles: 239385041 heartbeat IPC: 1.237 cumulative IPC: 0.5733 (Simulation time: 00 hr 35 min 07 sec)
Heartbeat CPU 0 instructions: 179500881 cycles: 239755082 heartbeat IPC: 1.351 cumulative IPC: 0.5746 (Simulation time: 00 hr 35 min 11 sec)
Heartbeat CPU 0 instructions: 180000882 cycles: 240274560 heartbeat IPC: 0.9625 cumulative IPC: 0.5755 (Simulation time: 00 hr 35 min 15 sec)
Heartbeat CPU 0 instructions: 180500887 cycles: 240719895 heartbeat IPC: 1.123 cumulative IPC: 0.5766 (Simulation time: 00 hr 35 min 20 sec)
Heartbeat CPU 0 instructions: 181000889 cycles: 241066106 heartbeat IPC: 1.444 cumulative IPC: 0.5779 (Simulation time: 00 hr 35 min 23 sec)
Heartbeat CPU 0 instructions: 181500891 cycles: 242389696 heartbeat IPC: 0.3778 cumulative IPC: 0.5767 (Simulation time: 00 hr 35 min 34 sec)
Heartbeat CPU 0 instructions: 182000894 cycles: 243887607 heartbeat IPC: 0.3338 cumulative IPC: 0.5751 (Simulation time: 00 hr 35 min 44 sec)
Heartbeat CPU 0 instructions: 182500894 cycles: 244806420 heartbeat IPC: 0.5442 cumulative IPC: 0.575 (Simulation time: 00 hr 35 min 50 sec)
Heartbeat CPU 0 instructions: 183000901 cycles: 246241071 heartbeat IPC: 0.3485 cumulative IPC: 0.5736 (Simulation time: 00 hr 36 min 00 sec)
Heartbeat CPU 0 instructions: 183500904 cycles: 247037052 heartbeat IPC: 0.6282 cumulative IPC: 0.5738 (Simulation time: 00 hr 36 min 07 sec)
Heartbeat CPU 0 instructions: 184000910 cycles: 248105316 heartbeat IPC: 0.4681 cumulative IPC: 0.5733 (Simulation time: 00 hr 36 min 14 sec)
Heartbeat CPU 0 instructions: 184500914 cycles: 249293753 heartbeat IPC: 0.4207 cumulative IPC: 0.5725 (Simulation time: 00 hr 36 min 22 sec)
Heartbeat CPU 0 instructions: 185000916 cycles: 250545237 heartbeat IPC: 0.3995 cumulative IPC: 0.5716 (Simulation time: 00 hr 36 min 30 sec)
Heartbeat CPU 0 instructions: 185500923 cycles: 251160266 heartbeat IPC: 0.813 cumulative IPC: 0.5722 (Simulation time: 00 hr 36 min 35 sec)
Heartbeat CPU 0 instructions: 186000925 cycles: 252039610 heartbeat IPC: 0.5686 cumulative IPC: 0.5722 (Simulation time: 00 hr 36 min 42 sec)
Heartbeat CPU 0 instructions: 186500926 cycles: 252859908 heartbeat IPC: 0.6095 cumulative IPC: 0.5724 (Simulation time: 00 hr 36 min 48 sec)
Heartbeat CPU 0 instructions: 187000929 cycles: 253502091 heartbeat IPC: 0.7786 cumulative IPC: 0.5729 (Simulation time: 00 hr 36 min 53 sec)
Heartbeat CPU 0 instructions: 187500932 cycles: 253841250 heartbeat IPC: 1.474 cumulative IPC: 0.5742 (Simulation time: 00 hr 36 min 56 sec)
Heartbeat CPU 0 instructions: 188000939 cycles: 254023667 heartbeat IPC: 2.741 cumulative IPC: 0.5758 (Simulation time: 00 hr 36 min 58 sec)
Heartbeat CPU 0 instructions: 188500940 cycles: 254468299 heartbeat IPC: 1.125 cumulative IPC: 0.5769 (Simulation time: 00 hr 37 min 02 sec)
Heartbeat CPU 0 instructions: 189000941 cycles: 254741504 heartbeat IPC: 1.83 cumulative IPC: 0.5783 (Simulation time: 00 hr 37 min 05 sec)
Heartbeat CPU 0 instructions: 189500942 cycles: 255887399 heartbeat IPC: 0.4363 cumulative IPC: 0.5776 (Simulation time: 00 hr 37 min 13 sec)
Heartbeat CPU 0 instructions: 190000944 cycles: 257254519 heartbeat IPC: 0.3657 cumulative IPC: 0.5764 (Simulation time: 00 hr 37 min 22 sec)
Heartbeat CPU 0 instructions: 190500950 cycles: 258043820 heartbeat IPC: 0.6335 cumulative IPC: 0.5766 (Simulation time: 00 hr 37 min 28 sec)
Heartbeat CPU 0 instructions: 191000957 cycles: 258418003 heartbeat IPC: 1.336 cumulative IPC: 0.5778 (Simulation time: 00 hr 37 min 32 sec)
Heartbeat CPU 0 instructions: 191500959 cycles: 259506531 heartbeat IPC: 0.4593 cumulative IPC: 0.5772 (Simulation time: 00 hr 37 min 39 sec)
Heartbeat CPU 0 instructions: 192000961 cycles: 260149728 heartbeat IPC: 0.7774 cumulative IPC: 0.5778 (Simulation time: 00 hr 37 min 44 sec)
Heartbeat CPU 0 instructions: 192500961 cycles: 260939391 heartbeat IPC: 0.6332 cumulative IPC: 0.5779 (Simulation time: 00 hr 37 min 50 sec)
Heartbeat CPU 0 instructions: 193000961 cycles: 262312288 heartbeat IPC: 0.3642 cumulative IPC: 0.5768 (Simulation time: 00 hr 38 min 00 sec)
Heartbeat CPU 0 instructions: 193500961 cycles: 263517669 heartbeat IPC: 0.4148 cumulative IPC: 0.576 (Simulation time: 00 hr 38 min 08 sec)
Heartbeat CPU 0 instructions: 194000963 cycles: 265178036 heartbeat IPC: 0.3011 cumulative IPC: 0.5742 (Simulation time: 00 hr 38 min 19 sec)
Heartbeat CPU 0 instructions: 194500963 cycles: 266400740 heartbeat IPC: 0.4089 cumulative IPC: 0.5734 (Simulation time: 00 hr 38 min 27 sec)
Heartbeat CPU 0 instructions: 195000967 cycles: 267476465 heartbeat IPC: 0.4648 cumulative IPC: 0.5729 (Simulation time: 00 hr 38 min 34 sec)
Heartbeat CPU 0 instructions: 195500967 cycles: 267828412 heartbeat IPC: 1.421 cumulative IPC: 0.5741 (Simulation time: 00 hr 38 min 38 sec)
Heartbeat CPU 0 instructions: 196000967 cycles: 268179214 heartbeat IPC: 1.425 cumulative IPC: 0.5752 (Simulation time: 00 hr 38 min 41 sec)
Heartbeat CPU 0 instructions: 196500967 cycles: 268531109 heartbeat IPC: 1.421 cumulative IPC: 0.5764 (Simulation time: 00 hr 38 min 44 sec)
Heartbeat CPU 0 instructions: 197000973 cycles: 268842820 heartbeat IPC: 1.604 cumulative IPC: 0.5777 (Simulation time: 00 hr 38 min 47 sec)
Heartbeat CPU 0 instructions: 197500975 cycles: 269160253 heartbeat IPC: 1.575 cumulative IPC: 0.5789 (Simulation time: 00 hr 38 min 50 sec)
Heartbeat CPU 0 instructions: 198000981 cycles: 269478629 heartbeat IPC: 1.57 cumulative IPC: 0.5802 (Simulation time: 00 hr 38 min 53 sec)
Heartbeat CPU 0 instructions: 198500983 cycles: 269797146 heartbeat IPC: 1.57 cumulative IPC: 0.5814 (Simulation time: 00 hr 38 min 56 sec)
Heartbeat CPU 0 instructions: 199000984 cycles: 270170024 heartbeat IPC: 1.341 cumulative IPC: 0.5825 (Simulation time: 00 hr 38 min 59 sec)
Heartbeat CPU 0 instructions: 199500986 cycles: 271504926 heartbeat IPC: 0.3746 cumulative IPC: 0.5814 (Simulation time: 00 hr 39 min 09 sec)
Heartbeat CPU 0 instructions: 200000986 cycles: 273132887 heartbeat IPC: 0.3071 cumulative IPC: 0.5797 (Simulation time: 00 hr 39 min 20 sec)
Heartbeat CPU 0 instructions: 200500986 cycles: 274146869 heartbeat IPC: 0.4931 cumulative IPC: 0.5794 (Simulation time: 00 hr 39 min 27 sec)
Heartbeat CPU 0 instructions: 201000986 cycles: 275360978 heartbeat IPC: 0.4118 cumulative IPC: 0.5786 (Simulation time: 00 hr 39 min 35 sec)
Heartbeat CPU 0 instructions: 201500986 cycles: 276503933 heartbeat IPC: 0.4375 cumulative IPC: 0.578 (Simulation time: 00 hr 39 min 43 sec)
Heartbeat CPU 0 instructions: 202000987 cycles: 277187362 heartbeat IPC: 0.7316 cumulative IPC: 0.5784 (Simulation time: 00 hr 39 min 48 sec)
Heartbeat CPU 0 instructions: 202500993 cycles: 278047754 heartbeat IPC: 0.5811 cumulative IPC: 0.5784 (Simulation time: 00 hr 39 min 54 sec)
Heartbeat CPU 0 instructions: 203000998 cycles: 279272064 heartbeat IPC: 0.4084 cumulative IPC: 0.5776 (Simulation time: 00 hr 40 min 04 sec)
Heartbeat CPU 0 instructions: 203500999 cycles: 280819607 heartbeat IPC: 0.3231 cumulative IPC: 0.5761 (Simulation time: 00 hr 40 min 15 sec)
Heartbeat CPU 0 instructions: 204001002 cycles: 282317772 heartbeat IPC: 0.3337 cumulative IPC: 0.5747 (Simulation time: 00 hr 40 min 25 sec)
Heartbeat CPU 0 instructions: 204501005 cycles: 283259254 heartbeat IPC: 0.5311 cumulative IPC: 0.5746 (Simulation time: 00 hr 40 min 32 sec)
Heartbeat CPU 0 instructions: 205001010 cycles: 284199584 heartbeat IPC: 0.5317 cumulative IPC: 0.5744 (Simulation time: 00 hr 40 min 39 sec)
Heartbeat CPU 0 instructions: 205501013 cycles: 285425027 heartbeat IPC: 0.408 cumulative IPC: 0.5737 (Simulation time: 00 hr 40 min 47 sec)
Heartbeat CPU 0 instructions: 206001013 cycles: 286728588 heartbeat IPC: 0.3836 cumulative IPC: 0.5728 (Simulation time: 00 hr 40 min 56 sec)
Heartbeat CPU 0 instructions: 206501019 cycles: 287922982 heartbeat IPC: 0.4186 cumulative IPC: 0.5721 (Simulation time: 00 hr 41 min 04 sec)
Heartbeat CPU 0 instructions: 207001026 cycles: 288270266 heartbeat IPC: 1.44 cumulative IPC: 0.5732 (Simulation time: 00 hr 41 min 07 sec)
Heartbeat CPU 0 instructions: 207501033 cycles: 288851698 heartbeat IPC: 0.86 cumulative IPC: 0.5738 (Simulation time: 00 hr 41 min 12 sec)
Heartbeat CPU 0 instructions: 208001036 cycles: 289186524 heartbeat IPC: 1.493 cumulative IPC: 0.5749 (Simulation time: 00 hr 41 min 15 sec)
Heartbeat CPU 0 instructions: 208501039 cycles: 289924744 heartbeat IPC: 0.6773 cumulative IPC: 0.5752 (Simulation time: 00 hr 41 min 21 sec)
Heartbeat CPU 0 instructions: 209001045 cycles: 290727245 heartbeat IPC: 0.6231 cumulative IPC: 0.5754 (Simulation time: 00 hr 41 min 27 sec)
Heartbeat CPU 0 instructions: 209501046 cycles: 292161901 heartbeat IPC: 0.3485 cumulative IPC: 0.5742 (Simulation time: 00 hr 41 min 38 sec)
Heartbeat CPU 0 instructions: 210001051 cycles: 293008873 heartbeat IPC: 0.5903 cumulative IPC: 0.5742 (Simulation time: 00 hr 41 min 44 sec)
Heartbeat CPU 0 instructions: 210501051 cycles: 294431193 heartbeat IPC: 0.3515 cumulative IPC: 0.5731 (Simulation time: 00 hr 41 min 54 sec)
Heartbeat CPU 0 instructions: 211001058 cycles: 296228963 heartbeat IPC: 0.2781 cumulative IPC: 0.5712 (Simulation time: 00 hr 42 min 06 sec)
Heartbeat CPU 0 instructions: 211501058 cycles: 297134314 heartbeat IPC: 0.5523 cumulative IPC: 0.5712 (Simulation time: 00 hr 42 min 12 sec)
Heartbeat CPU 0 instructions: 212001059 cycles: 298600628 heartbeat IPC: 0.341 cumulative IPC: 0.57 (Simulation time: 00 hr 42 min 22 sec)
Heartbeat CPU 0 instructions: 212501059 cycles: 299219939 heartbeat IPC: 0.8073 cumulative IPC: 0.5705 (Simulation time: 00 hr 42 min 27 sec)
Heartbeat CPU 0 instructions: 213001062 cycles: 300575276 heartbeat IPC: 0.3689 cumulative IPC: 0.5695 (Simulation time: 00 hr 42 min 36 sec)
Heartbeat CPU 0 instructions: 213501065 cycles: 301552440 heartbeat IPC: 0.5117 cumulative IPC: 0.5693 (Simulation time: 00 hr 42 min 43 sec)
Heartbeat CPU 0 instructions: 214001067 cycles: 302110778 heartbeat IPC: 0.8955 cumulative IPC: 0.57 (Simulation time: 00 hr 42 min 47 sec)
Heartbeat CPU 0 instructions: 214501067 cycles: 302702880 heartbeat IPC: 0.8444 cumulative IPC: 0.5705 (Simulation time: 00 hr 42 min 52 sec)
Heartbeat CPU 0 instructions: 215001071 cycles: 303342104 heartbeat IPC: 0.7822 cumulative IPC: 0.571 (Simulation time: 00 hr 42 min 56 sec)
Heartbeat CPU 0 instructions: 215501071 cycles: 304220686 heartbeat IPC: 0.5691 cumulative IPC: 0.571 (Simulation time: 00 hr 43 min 03 sec)
Heartbeat CPU 0 instructions: 216001076 cycles: 305556247 heartbeat IPC: 0.3744 cumulative IPC: 0.5701 (Simulation time: 00 hr 43 min 11 sec)
Heartbeat CPU 0 instructions: 216501077 cycles: 306818151 heartbeat IPC: 0.3962 cumulative IPC: 0.5693 (Simulation time: 00 hr 43 min 20 sec)
Heartbeat CPU 0 instructions: 217001077 cycles: 308042677 heartbeat IPC: 0.4083 cumulative IPC: 0.5687 (Simulation time: 00 hr 43 min 28 sec)
Heartbeat CPU 0 instructions: 217501080 cycles: 309162771 heartbeat IPC: 0.4464 cumulative IPC: 0.5682 (Simulation time: 00 hr 43 min 36 sec)
Heartbeat CPU 0 instructions: 218001082 cycles: 310815595 heartbeat IPC: 0.3025 cumulative IPC: 0.5667 (Simulation time: 00 hr 43 min 46 sec)
Heartbeat CPU 0 instructions: 218501087 cycles: 311964434 heartbeat IPC: 0.4352 cumulative IPC: 0.5662 (Simulation time: 00 hr 43 min 54 sec)
Heartbeat CPU 0 instructions: 219001090 cycles: 313299626 heartbeat IPC: 0.3745 cumulative IPC: 0.5654 (Simulation time: 00 hr 44 min 02 sec)
Heartbeat CPU 0 instructions: 219501097 cycles: 314280368 heartbeat IPC: 0.5098 cumulative IPC: 0.5652 (Simulation time: 00 hr 44 min 09 sec)
Heartbeat CPU 0 instructions: 220001098 cycles: 315331843 heartbeat IPC: 0.4755 cumulative IPC: 0.5649 (Simulation time: 00 hr 44 min 16 sec)
Heartbeat CPU 0 instructions: 220501098 cycles: 316176862 heartbeat IPC: 0.5917 cumulative IPC: 0.5649 (Simulation time: 00 hr 44 min 22 sec)
Heartbeat CPU 0 instructions: 221001098 cycles: 317386088 heartbeat IPC: 0.4135 cumulative IPC: 0.5643 (Simulation time: 00 hr 44 min 29 sec)
Heartbeat CPU 0 instructions: 221501102 cycles: 318470696 heartbeat IPC: 0.461 cumulative IPC: 0.564 (Simulation time: 00 hr 44 min 37 sec)
Heartbeat CPU 0 instructions: 222001105 cycles: 319175643 heartbeat IPC: 0.7093 cumulative IPC: 0.5643 (Simulation time: 00 hr 44 min 42 sec)
Heartbeat CPU 0 instructions: 222501106 cycles: 319860131 heartbeat IPC: 0.7305 cumulative IPC: 0.5647 (Simulation time: 00 hr 44 min 47 sec)
Heartbeat CPU 0 instructions: 223001110 cycles: 320932379 heartbeat IPC: 0.4663 cumulative IPC: 0.5643 (Simulation time: 00 hr 44 min 54 sec)
Heartbeat CPU 0 instructions: 223501111 cycles: 322057549 heartbeat IPC: 0.4444 cumulative IPC: 0.5639 (Simulation time: 00 hr 45 min 01 sec)
Heartbeat CPU 0 instructions: 224001111 cycles: 323395865 heartbeat IPC: 0.3736 cumulative IPC: 0.5631 (Simulation time: 00 hr 45 min 11 sec)
Heartbeat CPU 0 instructions: 224501114 cycles: 324223643 heartbeat IPC: 0.604 cumulative IPC: 0.5632 (Simulation time: 00 hr 45 min 16 sec)
Heartbeat CPU 0 instructions: 225001114 cycles: 325724135 heartbeat IPC: 0.3332 cumulative IPC: 0.5621 (Simulation time: 00 hr 45 min 27 sec)
Heartbeat CPU 0 instructions: 225501120 cycles: 326415717 heartbeat IPC: 0.723 cumulative IPC: 0.5624 (Simulation time: 00 hr 45 min 33 sec)
Heartbeat CPU 0 instructions: 226001126 cycles: 327022133 heartbeat IPC: 0.8245 cumulative IPC: 0.5629 (Simulation time: 00 hr 45 min 39 sec)
Heartbeat CPU 0 instructions: 226501132 cycles: 327564807 heartbeat IPC: 0.9214 cumulative IPC: 0.5636 (Simulation time: 00 hr 45 min 44 sec)
Heartbeat CPU 0 instructions: 227001138 cycles: 328083531 heartbeat IPC: 0.9639 cumulative IPC: 0.5642 (Simulation time: 00 hr 45 min 49 sec)
Heartbeat CPU 0 instructions: 227501144 cycles: 328642258 heartbeat IPC: 0.8949 cumulative IPC: 0.5648 (Simulation time: 00 hr 45 min 54 sec)
Heartbeat CPU 0 instructions: 228001145 cycles: 329198181 heartbeat IPC: 0.8994 cumulative IPC: 0.5654 (Simulation time: 00 hr 46 min 00 sec)
Heartbeat CPU 0 instructions: 228501152 cycles: 329656679 heartbeat IPC: 1.091 cumulative IPC: 0.5662 (Simulation time: 00 hr 46 min 04 sec)
Heartbeat CPU 0 instructions: 229001158 cycles: 330014490 heartbeat IPC: 1.397 cumulative IPC: 0.5671 (Simulation time: 00 hr 46 min 07 sec)
Heartbeat CPU 0 instructions: 229501161 cycles: 330393324 heartbeat IPC: 1.32 cumulative IPC: 0.568 (Simulation time: 00 hr 46 min 11 sec)
Heartbeat CPU 0 instructions: 230001161 cycles: 331331763 heartbeat IPC: 0.5328 cumulative IPC: 0.5679 (Simulation time: 00 hr 46 min 19 sec)
Heartbeat CPU 0 instructions: 230501165 cycles: 331803822 heartbeat IPC: 1.059 cumulative IPC: 0.5686 (Simulation time: 00 hr 46 min 24 sec)
Heartbeat CPU 0 instructions: 231001170 cycles: 332345502 heartbeat IPC: 0.9231 cumulative IPC: 0.5692 (Simulation time: 00 hr 46 min 29 sec)
Heartbeat CPU 0 instructions: 231501175 cycles: 332760316 heartbeat IPC: 1.205 cumulative IPC: 0.5701 (Simulation time: 00 hr 46 min 33 sec)
Heartbeat CPU 0 instructions: 232001178 cycles: 334747083 heartbeat IPC: 0.2517 cumulative IPC: 0.5681 (Simulation time: 00 hr 46 min 46 sec)
Heartbeat CPU 0 instructions: 232501185 cycles: 335544504 heartbeat IPC: 0.627 cumulative IPC: 0.5682 (Simulation time: 00 hr 46 min 54 sec)
Heartbeat CPU 0 instructions: 233001187 cycles: 335992080 heartbeat IPC: 1.117 cumulative IPC: 0.569 (Simulation time: 00 hr 46 min 59 sec)
Heartbeat CPU 0 instructions: 233501193 cycles: 336379619 heartbeat IPC: 1.29 cumulative IPC: 0.5699 (Simulation time: 00 hr 47 min 03 sec)
Heartbeat CPU 0 instructions: 234001194 cycles: 336744143 heartbeat IPC: 1.372 cumulative IPC: 0.5708 (Simulation time: 00 hr 47 min 08 sec)
Heartbeat CPU 0 instructions: 234501198 cycles: 337156128 heartbeat IPC: 1.214 cumulative IPC: 0.5716 (Simulation time: 00 hr 47 min 11 sec)
Heartbeat CPU 0 instructions: 235001204 cycles: 337361720 heartbeat IPC: 2.432 cumulative IPC: 0.5728 (Simulation time: 00 hr 47 min 14 sec)
Heartbeat CPU 0 instructions: 235501207 cycles: 337557358 heartbeat IPC: 2.556 cumulative IPC: 0.574 (Simulation time: 00 hr 47 min 16 sec)
Heartbeat CPU 0 instructions: 236001209 cycles: 337743718 heartbeat IPC: 2.683 cumulative IPC: 0.5752 (Simulation time: 00 hr 47 min 19 sec)
Heartbeat CPU 0 instructions: 236501213 cycles: 337929780 heartbeat IPC: 2.687 cumulative IPC: 0.5764 (Simulation time: 00 hr 47 min 21 sec)
Heartbeat CPU 0 instructions: 237001213 cycles: 338119955 heartbeat IPC: 2.629 cumulative IPC: 0.5776 (Simulation time: 00 hr 47 min 24 sec)
Heartbeat CPU 0 instructions: 237501213 cycles: 338304246 heartbeat IPC: 2.713 cumulative IPC: 0.5788 (Simulation time: 00 hr 47 min 26 sec)
Heartbeat CPU 0 instructions: 238001218 cycles: 338551064 heartbeat IPC: 2.026 cumulative IPC: 0.5799 (Simulation time: 00 hr 47 min 30 sec)
Heartbeat CPU 0 instructions: 238501218 cycles: 339714477 heartbeat IPC: 0.4298 cumulative IPC: 0.5794 (Simulation time: 00 hr 47 min 37 sec)
Heartbeat CPU 0 instructions: 239001223 cycles: 340003356 heartbeat IPC: 1.731 cumulative IPC: 0.5804 (Simulation time: 00 hr 47 min 40 sec)
Heartbeat CPU 0 instructions: 239501224 cycles: 340221385 heartbeat IPC: 2.293 cumulative IPC: 0.5816 (Simulation time: 00 hr 47 min 43 sec)
Heartbeat CPU 0 instructions: 240001225 cycles: 340424247 heartbeat IPC: 2.465 cumulative IPC: 0.5827 (Simulation time: 00 hr 47 min 45 sec)
Heartbeat CPU 0 instructions: 240501225 cycles: 340620599 heartbeat IPC: 2.546 cumulative IPC: 0.5839 (Simulation time: 00 hr 47 min 48 sec)
Heartbeat CPU 0 instructions: 241001225 cycles: 340809034 heartbeat IPC: 2.653 cumulative IPC: 0.5851 (Simulation time: 00 hr 47 min 50 sec)
Heartbeat CPU 0 instructions: 241501225 cycles: 341002139 heartbeat IPC: 2.589 cumulative IPC: 0.5863 (Simulation time: 00 hr 47 min 53 sec)
Heartbeat CPU 0 instructions: 242001228 cycles: 341195185 heartbeat IPC: 2.59 cumulative IPC: 0.5875 (Simulation time: 00 hr 47 min 55 sec)
Heartbeat CPU 0 instructions: 242501229 cycles: 341934252 heartbeat IPC: 0.6765 cumulative IPC: 0.5877 (Simulation time: 00 hr 48 min 01 sec)
Heartbeat CPU 0 instructions: 243001233 cycles: 343651091 heartbeat IPC: 0.2912 cumulative IPC: 0.5861 (Simulation time: 00 hr 48 min 14 sec)
Heartbeat CPU 0 instructions: 243501235 cycles: 344727698 heartbeat IPC: 0.4644 cumulative IPC: 0.5857 (Simulation time: 00 hr 48 min 21 sec)
Heartbeat CPU 0 instructions: 244001238 cycles: 346222831 heartbeat IPC: 0.3344 cumulative IPC: 0.5846 (Simulation time: 00 hr 48 min 31 sec)
Heartbeat CPU 0 instructions: 244501241 cycles: 347125621 heartbeat IPC: 0.5538 cumulative IPC: 0.5845 (Simulation time: 00 hr 48 min 37 sec)
Heartbeat CPU 0 instructions: 245001241 cycles: 348208305 heartbeat IPC: 0.4618 cumulative IPC: 0.5841 (Simulation time: 00 hr 48 min 44 sec)
Heartbeat CPU 0 instructions: 245501247 cycles: 349988032 heartbeat IPC: 0.2809 cumulative IPC: 0.5825 (Simulation time: 00 hr 48 min 55 sec)
Heartbeat CPU 0 instructions: 246001247 cycles: 351368459 heartbeat IPC: 0.3622 cumulative IPC: 0.5816 (Simulation time: 00 hr 49 min 04 sec)
Heartbeat CPU 0 instructions: 246501248 cycles: 352492878 heartbeat IPC: 0.4447 cumulative IPC: 0.5812 (Simulation time: 00 hr 49 min 13 sec)
Heartbeat CPU 0 instructions: 247001250 cycles: 353493437 heartbeat IPC: 0.4997 cumulative IPC: 0.5809 (Simulation time: 00 hr 49 min 20 sec)
Heartbeat CPU 0 instructions: 247501251 cycles: 355098051 heartbeat IPC: 0.3116 cumulative IPC: 0.5796 (Simulation time: 00 hr 49 min 29 sec)
Heartbeat CPU 0 instructions: 248001258 cycles: 355911078 heartbeat IPC: 0.615 cumulative IPC: 0.5797 (Simulation time: 00 hr 49 min 35 sec)
Heartbeat CPU 0 instructions: 248501259 cycles: 357052435 heartbeat IPC: 0.4381 cumulative IPC: 0.5793 (Simulation time: 00 hr 49 min 43 sec)
Heartbeat CPU 0 instructions: 249001259 cycles: 357970596 heartbeat IPC: 0.5446 cumulative IPC: 0.5792 (Simulation time: 00 hr 49 min 49 sec)
Heartbeat CPU 0 instructions: 249501260 cycles: 358849926 heartbeat IPC: 0.5686 cumulative IPC: 0.5791 (Simulation time: 00 hr 49 min 55 sec)
Simulation finished CPU 0 instructions: 200000000 cycles: 345659137 cumulative IPC: 0.5786 (Simulation time: 00 hr 50 min 03 sec)
Simulation complete CPU 0 instructions: 200000000 cycles: 345659137 cumulative IPC: 0.5786 (Simulation time: 00 hr 50 min 03 sec)

ChampSim completed all CPUs

=== Simulation ===
CPU 0 runs /local-ssd/ben/dpc4-traces/gtraces_v2/tango_0004.champsim.gz

Region of Interest Statistics

CPU 0 cumulative IPC: 0.5786 instructions: 200000000 cycles: 345659137
CPU 0 Branch Prediction Accuracy: 90.34% MPKI: 17.97 Average ROB Occupancy at Mispredict: 24.92
Branch type MPKI
BRANCH_DIRECT_JUMP: 0.5656
BRANCH_INDIRECT: 0.3338
BRANCH_CONDITIONAL: 15.15
BRANCH_DIRECT_CALL: 0.8592
BRANCH_INDIRECT_CALL: 0.362
BRANCH_RETURN: 0.6986

cpu0->cpu0_STLB TOTAL        ACCESS:    2271571 HIT:    1604919 MISS:     666652 MSHR_MERGE:          0
cpu0->cpu0_STLB LOAD         ACCESS:    2271571 HIT:    1604919 MISS:     666652 MSHR_MERGE:          0
cpu0->cpu0_STLB RFO          ACCESS:          0 HIT:          0 MISS:          0 MSHR_MERGE:          0
cpu0->cpu0_STLB PREFETCH     ACCESS:          0 HIT:          0 MISS:          0 MSHR_MERGE:          0
cpu0->cpu0_STLB WRITE        ACCESS:          0 HIT:          0 MISS:          0 MSHR_MERGE:          0
cpu0->cpu0_STLB TRANSLATION  ACCESS:          0 HIT:          0 MISS:          0 MSHR_MERGE:          0
cpu0->cpu0_STLB PREFETCH REQUESTED:          0 ISSUED:          0 USEFUL:          0 USELESS:          0
cpu0->cpu0_STLB AVERAGE MISS LATENCY: 118.4 cycles
cpu0->cpu0_L2C TOTAL        ACCESS:   11322333 HIT:    7680036 MISS:    3642297 MSHR_MERGE:     431261
cpu0->cpu0_L2C LOAD         ACCESS:    3942819 HIT:    2813028 MISS:    1129791 MSHR_MERGE:      22102
cpu0->cpu0_L2C RFO          ACCESS:     670066 HIT:     204478 MISS:     465588 MSHR_MERGE:       5383
cpu0->cpu0_L2C PREFETCH     ACCESS:    4884156 HIT:    3085699 MISS:    1798457 MSHR_MERGE:     403776
cpu0->cpu0_L2C WRITE        ACCESS:    1120789 HIT:    1120739 MISS:         50 MSHR_MERGE:          0
cpu0->cpu0_L2C TRANSLATION  ACCESS:     704503 HIT:     456092 MISS:     248411 MSHR_MERGE:          0
cpu0->cpu0_L2C PREFETCH REQUESTED:    4125866 ISSUED:    4059111 USEFUL:     325505 USELESS:     755491
cpu0->cpu0_L2C AVERAGE MISS LATENCY: 198.8 cycles
cpu0->cpu0_L1I TOTAL        ACCESS:   16992088 HIT:   13945269 MISS:    3046819 MSHR_MERGE:     658002
cpu0->cpu0_L1I LOAD         ACCESS:   16992088 HIT:   13945269 MISS:    3046819 MSHR_MERGE:     658002
cpu0->cpu0_L1I RFO          ACCESS:          0 HIT:          0 MISS:          0 MSHR_MERGE:          0
cpu0->cpu0_L1I PREFETCH     ACCESS:          0 HIT:          0 MISS:          0 MSHR_MERGE:          0
cpu0->cpu0_L1I WRITE        ACCESS:          0 HIT:          0 MISS:          0 MSHR_MERGE:          0
cpu0->cpu0_L1I TRANSLATION  ACCESS:          0 HIT:          0 MISS:          0 MSHR_MERGE:          0
cpu0->cpu0_L1I PREFETCH REQUESTED:          0 ISSUED:          0 USEFUL:          0 USELESS:          0
cpu0->cpu0_L1I AVERAGE MISS LATENCY: 47.09 cycles
cpu0->cpu0_L1D TOTAL        ACCESS:   61229169 HIT:   54777539 MISS:    6451630 MSHR_MERGE:    2697966
cpu0->cpu0_L1D LOAD         ACCESS:   31473777 HIT:   29318687 MISS:    2155090 MSHR_MERGE:     601075
cpu0->cpu0_L1D RFO          ACCESS:          0 HIT:          0 MISS:          0 MSHR_MERGE:          0
cpu0->cpu0_L1D PREFETCH     ACCESS:    1765089 HIT:     904514 MISS:     860575 MSHR_MERGE:      35526
cpu0->cpu0_L1D WRITE        ACCESS:   26293669 HIT:   23567262 MISS:    2726407 MSHR_MERGE:    2056310
cpu0->cpu0_L1D TRANSLATION  ACCESS:    1696634 HIT:     987076 MISS:     709558 MSHR_MERGE:       5055
cpu0->cpu0_L1D PREFETCH REQUESTED:    1787276 ISSUED:    1765086 USEFUL:     317177 USELESS:     507841
cpu0->cpu0_L1D AVERAGE MISS LATENCY: 101.1 cycles
cpu0->cpu0_ITLB TOTAL        ACCESS:   14379808 HIT:   13981959 MISS:     397849 MSHR_MERGE:     185321
cpu0->cpu0_ITLB LOAD         ACCESS:   14379808 HIT:   13981959 MISS:     397849 MSHR_MERGE:     185321
cpu0->cpu0_ITLB RFO          ACCESS:          0 HIT:          0 MISS:          0 MSHR_MERGE:          0
cpu0->cpu0_ITLB PREFETCH     ACCESS:          0 HIT:          0 MISS:          0 MSHR_MERGE:          0
cpu0->cpu0_ITLB WRITE        ACCESS:          0 HIT:          0 MISS:          0 MSHR_MERGE:          0
cpu0->cpu0_ITLB TRANSLATION  ACCESS:          0 HIT:          0 MISS:          0 MSHR_MERGE:          0
cpu0->cpu0_ITLB PREFETCH REQUESTED:          0 ISSUED:          0 USEFUL:          0 USELESS:          0
cpu0->cpu0_ITLB AVERAGE MISS LATENCY: 24.16 cycles
cpu0->cpu0_DTLB TOTAL        ACCESS:   56557646 HIT:   52726645 MISS:    3831001 MSHR_MERGE:    1771959
cpu0->cpu0_DTLB LOAD         ACCESS:   56557646 HIT:   52726645 MISS:    3831001 MSHR_MERGE:    1771959
cpu0->cpu0_DTLB RFO          ACCESS:          0 HIT:          0 MISS:          0 MSHR_MERGE:          0
cpu0->cpu0_DTLB PREFETCH     ACCESS:          0 HIT:          0 MISS:          0 MSHR_MERGE:          0
cpu0->cpu0_DTLB WRITE        ACCESS:          0 HIT:          0 MISS:          0 MSHR_MERGE:          0
cpu0->cpu0_DTLB TRANSLATION  ACCESS:          0 HIT:          0 MISS:          0 MSHR_MERGE:          0
cpu0->cpu0_DTLB PREFETCH REQUESTED:          0 ISSUED:          0 USEFUL:          0 USELESS:          0
cpu0->cpu0_DTLB AVERAGE MISS LATENCY: 41.68 cycles
cpu0->LLC TOTAL        ACCESS:    3977364 HIT:     984177 MISS:    2993187 MSHR_MERGE:          0
cpu0->LLC LOAD         ACCESS:    1107689 HIT:     318594 MISS:     789095 MSHR_MERGE:          0
cpu0->LLC RFO          ACCESS:     460205 HIT:      11839 MISS:     448366 MSHR_MERGE:          0
cpu0->LLC PREFETCH     ACCESS:    1394681 HIT:     144717 MISS:    1249964 MSHR_MERGE:          0
cpu0->LLC WRITE        ACCESS:     766378 HIT:     452882 MISS:     313496 MSHR_MERGE:          0
cpu0->LLC TRANSLATION  ACCESS:     248411 HIT:      56145 MISS:     192266 MSHR_MERGE:          0
cpu0->LLC PREFETCH REQUESTED:          0 ISSUED:          0 USEFUL:          0 USELESS:          0
cpu0->LLC AVERAGE MISS LATENCY: 187.1 cycles

DRAM Statistics

Channel 0 RQ ROW_BUFFER_HIT:      33519
  ROW_BUFFER_MISS:    2646088
  AVG DBUS CONGESTED CYCLE: 25.36
Channel 0 WQ ROW_BUFFER_HIT:     191829
  ROW_BUFFER_MISS:     527499
  FULL:          0
Channel 0 REFRESHES ISSUED:      28803
