[VMEM] WARNING: physical memory size is smaller than virtual memory size.

*** ChampSim Multicore Out-of-Order Simulator ***
Warmup Instructions: 50000000
Simulation Instructions: 200000000
Number of CPUs: 1
Page size: 4096
Core 0: /local-ssd/ben/dpc4-traces/gtraces_v2/charlie_0000.champsim.gz
 L1D Berti prefetcher
Off-chip DRAM Size: 64 GiB Channels: 1 Width: 64-bit Data Rate: 4807 MT/s
[BTB] WARNING: target of return is a lower address than the corresponding call. This is usually a problem with your trace.
[BTB] WARNING: target of return is a lower address than the corresponding call. This is usually a problem with your trace.
Heartbeat CPU 0 instructions: 500003 cycles: 301391 heartbeat IPC: 1.659 cumulative IPC: 1.659 (Simulation time: 00 hr 00 min 05 sec)
Heartbeat CPU 0 instructions: 1000004 cycles: 490863 heartbeat IPC: 2.639 cumulative IPC: 2.037 (Simulation time: 00 hr 00 min 09 sec)
[BTB] WARNING: target of return is a lower address than the corresponding call. This is usually a problem with your trace.
Heartbeat CPU 0 instructions: 1500005 cycles: 658278 heartbeat IPC: 2.987 cumulative IPC: 2.279 (Simulation time: 00 hr 00 min 12 sec)
[BTB] WARNING: target of return is a lower address than the corresponding call. This is usually a problem with your trace.
[BTB] WARNING: target of return is a lower address than the corresponding call. This is usually a problem with your trace.
Heartbeat CPU 0 instructions: 2000005 cycles: 792106 heartbeat IPC: 3.736 cumulative IPC: 2.525 (Simulation time: 00 hr 00 min 14 sec)
[BTB] WARNING: target of return is a lower address than the corresponding call. This is usually a problem with your trace.
[BTB] WARNING: target of return is a lower address than the corresponding call. This is usually a problem with your trace.
[BTB] WARNING: target of return is a lower address than the corresponding call. This is usually a problem with your trace.
[BTB] WARNING: target of return is a lower address than the corresponding call. This is usually a problem with your trace.
[BTB] WARNING: target of return is a lower address than the corresponding call. This is usually a problem with your trace.
Heartbeat CPU 0 instructions: 2500006 cycles: 940394 heartbeat IPC: 3.372 cumulative IPC: 2.658 (Simulation time: 00 hr 00 min 16 sec)
Heartbeat CPU 0 instructions: 3000013 cycles: 1049418 heartbeat IPC: 4.586 cumulative IPC: 2.859 (Simulation time: 00 hr 00 min 18 sec)
Heartbeat CPU 0 instructions: 3500013 cycles: 1156422 heartbeat IPC: 4.673 cumulative IPC: 3.027 (Simulation time: 00 hr 00 min 20 sec)
Heartbeat CPU 0 instructions: 4000019 cycles: 1263886 heartbeat IPC: 4.653 cumulative IPC: 3.165 (Simulation time: 00 hr 00 min 22 sec)
Heartbeat CPU 0 instructions: 4500026 cycles: 1369879 heartbeat IPC: 4.717 cumulative IPC: 3.285 (Simulation time: 00 hr 00 min 24 sec)
Heartbeat CPU 0 instructions: 5000026 cycles: 1475829 heartbeat IPC: 4.719 cumulative IPC: 3.388 (Simulation time: 00 hr 00 min 26 sec)
Heartbeat CPU 0 instructions: 5500029 cycles: 1580674 heartbeat IPC: 4.769 cumulative IPC: 3.48 (Simulation time: 00 hr 00 min 27 sec)
Heartbeat CPU 0 instructions: 6000033 cycles: 1685235 heartbeat IPC: 4.782 cumulative IPC: 3.56 (Simulation time: 00 hr 00 min 29 sec)
Heartbeat CPU 0 instructions: 6500040 cycles: 1792543 heartbeat IPC: 4.66 cumulative IPC: 3.626 (Simulation time: 00 hr 00 min 31 sec)
Heartbeat CPU 0 instructions: 7000044 cycles: 1898734 heartbeat IPC: 4.709 cumulative IPC: 3.687 (Simulation time: 00 hr 00 min 33 sec)
Heartbeat CPU 0 instructions: 7500049 cycles: 2008308 heartbeat IPC: 4.563 cumulative IPC: 3.735 (Simulation time: 00 hr 00 min 35 sec)
Heartbeat CPU 0 instructions: 8000052 cycles: 2114029 heartbeat IPC: 4.729 cumulative IPC: 3.784 (Simulation time: 00 hr 00 min 37 sec)
Heartbeat CPU 0 instructions: 8500059 cycles: 2221308 heartbeat IPC: 4.661 cumulative IPC: 3.827 (Simulation time: 00 hr 00 min 39 sec)
Heartbeat CPU 0 instructions: 9000060 cycles: 2331925 heartbeat IPC: 4.52 cumulative IPC: 3.859 (Simulation time: 00 hr 00 min 41 sec)
Heartbeat CPU 0 instructions: 9500062 cycles: 2435139 heartbeat IPC: 4.844 cumulative IPC: 3.901 (Simulation time: 00 hr 00 min 43 sec)
Heartbeat CPU 0 instructions: 10000069 cycles: 2539057 heartbeat IPC: 4.812 cumulative IPC: 3.938 (Simulation time: 00 hr 00 min 45 sec)
Heartbeat CPU 0 instructions: 10500076 cycles: 2643430 heartbeat IPC: 4.791 cumulative IPC: 3.972 (Simulation time: 00 hr 00 min 46 sec)
Heartbeat CPU 0 instructions: 11000079 cycles: 2748663 heartbeat IPC: 4.751 cumulative IPC: 4.002 (Simulation time: 00 hr 00 min 48 sec)
Heartbeat CPU 0 instructions: 11500082 cycles: 2853147 heartbeat IPC: 4.785 cumulative IPC: 4.031 (Simulation time: 00 hr 00 min 50 sec)
Heartbeat CPU 0 instructions: 12000082 cycles: 2971298 heartbeat IPC: 4.232 cumulative IPC: 4.039 (Simulation time: 00 hr 00 min 52 sec)
Heartbeat CPU 0 instructions: 12500086 cycles: 3100604 heartbeat IPC: 3.867 cumulative IPC: 4.032 (Simulation time: 00 hr 00 min 55 sec)
Heartbeat CPU 0 instructions: 13000093 cycles: 3210265 heartbeat IPC: 4.56 cumulative IPC: 4.05 (Simulation time: 00 hr 00 min 56 sec)
Heartbeat CPU 0 instructions: 13500096 cycles: 3314253 heartbeat IPC: 4.808 cumulative IPC: 4.073 (Simulation time: 00 hr 00 min 58 sec)
Heartbeat CPU 0 instructions: 14000097 cycles: 3419835 heartbeat IPC: 4.736 cumulative IPC: 4.094 (Simulation time: 00 hr 01 min 00 sec)
Heartbeat CPU 0 instructions: 14500100 cycles: 3525483 heartbeat IPC: 4.733 cumulative IPC: 4.113 (Simulation time: 00 hr 01 min 02 sec)
Heartbeat CPU 0 instructions: 15000100 cycles: 3630162 heartbeat IPC: 4.777 cumulative IPC: 4.132 (Simulation time: 00 hr 01 min 04 sec)
Heartbeat CPU 0 instructions: 15500106 cycles: 3734321 heartbeat IPC: 4.8 cumulative IPC: 4.151 (Simulation time: 00 hr 01 min 06 sec)
Heartbeat CPU 0 instructions: 16000107 cycles: 3839698 heartbeat IPC: 4.745 cumulative IPC: 4.167 (Simulation time: 00 hr 01 min 07 sec)
Heartbeat CPU 0 instructions: 16500110 cycles: 3948099 heartbeat IPC: 4.613 cumulative IPC: 4.179 (Simulation time: 00 hr 01 min 09 sec)
Heartbeat CPU 0 instructions: 17000117 cycles: 4056023 heartbeat IPC: 4.633 cumulative IPC: 4.191 (Simulation time: 00 hr 01 min 11 sec)
Heartbeat CPU 0 instructions: 17500117 cycles: 4162276 heartbeat IPC: 4.706 cumulative IPC: 4.204 (Simulation time: 00 hr 01 min 13 sec)
Heartbeat CPU 0 instructions: 18000122 cycles: 4268423 heartbeat IPC: 4.71 cumulative IPC: 4.217 (Simulation time: 00 hr 01 min 15 sec)
Heartbeat CPU 0 instructions: 18500129 cycles: 4375124 heartbeat IPC: 4.686 cumulative IPC: 4.228 (Simulation time: 00 hr 01 min 17 sec)
Heartbeat CPU 0 instructions: 19000136 cycles: 4515708 heartbeat IPC: 3.557 cumulative IPC: 4.208 (Simulation time: 00 hr 01 min 20 sec)
Heartbeat CPU 0 instructions: 19500140 cycles: 4618194 heartbeat IPC: 4.879 cumulative IPC: 4.222 (Simulation time: 00 hr 01 min 21 sec)
Heartbeat CPU 0 instructions: 20000140 cycles: 4719881 heartbeat IPC: 4.917 cumulative IPC: 4.237 (Simulation time: 00 hr 01 min 23 sec)
Heartbeat CPU 0 instructions: 20500144 cycles: 4822369 heartbeat IPC: 4.879 cumulative IPC: 4.251 (Simulation time: 00 hr 01 min 24 sec)
Heartbeat CPU 0 instructions: 21000150 cycles: 4923842 heartbeat IPC: 4.927 cumulative IPC: 4.265 (Simulation time: 00 hr 01 min 25 sec)
Heartbeat CPU 0 instructions: 21500150 cycles: 5029644 heartbeat IPC: 4.726 cumulative IPC: 4.275 (Simulation time: 00 hr 01 min 27 sec)
Heartbeat CPU 0 instructions: 22000154 cycles: 5208551 heartbeat IPC: 2.795 cumulative IPC: 4.224 (Simulation time: 00 hr 01 min 30 sec)
Heartbeat CPU 0 instructions: 22500161 cycles: 5404266 heartbeat IPC: 2.555 cumulative IPC: 4.163 (Simulation time: 00 hr 01 min 33 sec)
Heartbeat CPU 0 instructions: 23000167 cycles: 5531067 heartbeat IPC: 3.943 cumulative IPC: 4.158 (Simulation time: 00 hr 01 min 35 sec)
Heartbeat CPU 0 instructions: 23500174 cycles: 5658042 heartbeat IPC: 3.938 cumulative IPC: 4.153 (Simulation time: 00 hr 01 min 37 sec)
Heartbeat CPU 0 instructions: 24000181 cycles: 5820744 heartbeat IPC: 3.073 cumulative IPC: 4.123 (Simulation time: 00 hr 01 min 40 sec)
Heartbeat CPU 0 instructions: 24500187 cycles: 5926135 heartbeat IPC: 4.744 cumulative IPC: 4.134 (Simulation time: 00 hr 01 min 42 sec)
Heartbeat CPU 0 instructions: 25000190 cycles: 6030098 heartbeat IPC: 4.809 cumulative IPC: 4.146 (Simulation time: 00 hr 01 min 44 sec)
Heartbeat CPU 0 instructions: 25500197 cycles: 6136727 heartbeat IPC: 4.689 cumulative IPC: 4.155 (Simulation time: 00 hr 01 min 46 sec)
Heartbeat CPU 0 instructions: 26000198 cycles: 6241037 heartbeat IPC: 4.793 cumulative IPC: 4.166 (Simulation time: 00 hr 01 min 48 sec)
Heartbeat CPU 0 instructions: 26500198 cycles: 6345876 heartbeat IPC: 4.769 cumulative IPC: 4.176 (Simulation time: 00 hr 01 min 50 sec)
Heartbeat CPU 0 instructions: 27000205 cycles: 6449617 heartbeat IPC: 4.82 cumulative IPC: 4.186 (Simulation time: 00 hr 01 min 51 sec)
Heartbeat CPU 0 instructions: 27500208 cycles: 6572358 heartbeat IPC: 4.074 cumulative IPC: 4.184 (Simulation time: 00 hr 01 min 54 sec)
Heartbeat CPU 0 instructions: 28000211 cycles: 6676592 heartbeat IPC: 4.797 cumulative IPC: 4.194 (Simulation time: 00 hr 01 min 56 sec)
Heartbeat CPU 0 instructions: 28500212 cycles: 6781232 heartbeat IPC: 4.778 cumulative IPC: 4.203 (Simulation time: 00 hr 01 min 57 sec)
Heartbeat CPU 0 instructions: 29000212 cycles: 6889639 heartbeat IPC: 4.612 cumulative IPC: 4.209 (Simulation time: 00 hr 01 min 59 sec)
Heartbeat CPU 0 instructions: 29500214 cycles: 7022073 heartbeat IPC: 3.775 cumulative IPC: 4.201 (Simulation time: 00 hr 02 min 02 sec)
Heartbeat CPU 0 instructions: 30000215 cycles: 7123381 heartbeat IPC: 4.935 cumulative IPC: 4.212 (Simulation time: 00 hr 02 min 03 sec)
Heartbeat CPU 0 instructions: 30500222 cycles: 7225000 heartbeat IPC: 4.92 cumulative IPC: 4.221 (Simulation time: 00 hr 02 min 05 sec)
Heartbeat CPU 0 instructions: 31000226 cycles: 7325408 heartbeat IPC: 4.98 cumulative IPC: 4.232 (Simulation time: 00 hr 02 min 06 sec)
Heartbeat CPU 0 instructions: 31500232 cycles: 7425408 heartbeat IPC: 5 cumulative IPC: 4.242 (Simulation time: 00 hr 02 min 07 sec)
Heartbeat CPU 0 instructions: 32000236 cycles: 7529477 heartbeat IPC: 4.805 cumulative IPC: 4.25 (Simulation time: 00 hr 02 min 09 sec)
Heartbeat CPU 0 instructions: 32500240 cycles: 7647766 heartbeat IPC: 4.227 cumulative IPC: 4.25 (Simulation time: 00 hr 02 min 11 sec)
Heartbeat CPU 0 instructions: 33000240 cycles: 7752609 heartbeat IPC: 4.769 cumulative IPC: 4.257 (Simulation time: 00 hr 02 min 13 sec)
Heartbeat CPU 0 instructions: 33500241 cycles: 7866486 heartbeat IPC: 4.391 cumulative IPC: 4.259 (Simulation time: 00 hr 02 min 15 sec)
Heartbeat CPU 0 instructions: 34000244 cycles: 7975662 heartbeat IPC: 4.58 cumulative IPC: 4.263 (Simulation time: 00 hr 02 min 17 sec)
Heartbeat CPU 0 instructions: 34500249 cycles: 8088499 heartbeat IPC: 4.431 cumulative IPC: 4.265 (Simulation time: 00 hr 02 min 19 sec)
Heartbeat CPU 0 instructions: 35000255 cycles: 8198836 heartbeat IPC: 4.532 cumulative IPC: 4.269 (Simulation time: 00 hr 02 min 21 sec)
Heartbeat CPU 0 instructions: 35500258 cycles: 8320690 heartbeat IPC: 4.103 cumulative IPC: 4.267 (Simulation time: 00 hr 02 min 23 sec)
Heartbeat CPU 0 instructions: 36000265 cycles: 8431089 heartbeat IPC: 4.529 cumulative IPC: 4.27 (Simulation time: 00 hr 02 min 25 sec)
Heartbeat CPU 0 instructions: 36500268 cycles: 8556931 heartbeat IPC: 3.973 cumulative IPC: 4.266 (Simulation time: 00 hr 02 min 27 sec)
Heartbeat CPU 0 instructions: 37000269 cycles: 8659152 heartbeat IPC: 4.891 cumulative IPC: 4.273 (Simulation time: 00 hr 02 min 29 sec)
Heartbeat CPU 0 instructions: 37500273 cycles: 8760020 heartbeat IPC: 4.957 cumulative IPC: 4.281 (Simulation time: 00 hr 02 min 30 sec)
Heartbeat CPU 0 instructions: 38000273 cycles: 8860358 heartbeat IPC: 4.983 cumulative IPC: 4.289 (Simulation time: 00 hr 02 min 32 sec)
Heartbeat CPU 0 instructions: 38500278 cycles: 8960357 heartbeat IPC: 5 cumulative IPC: 4.297 (Simulation time: 00 hr 02 min 33 sec)
Heartbeat CPU 0 instructions: 39000284 cycles: 9064815 heartbeat IPC: 4.787 cumulative IPC: 4.302 (Simulation time: 00 hr 02 min 35 sec)
Heartbeat CPU 0 instructions: 39500286 cycles: 9186814 heartbeat IPC: 4.098 cumulative IPC: 4.3 (Simulation time: 00 hr 02 min 37 sec)
Heartbeat CPU 0 instructions: 40000287 cycles: 9290938 heartbeat IPC: 4.802 cumulative IPC: 4.305 (Simulation time: 00 hr 02 min 39 sec)
Heartbeat CPU 0 instructions: 40500287 cycles: 9395411 heartbeat IPC: 4.786 cumulative IPC: 4.311 (Simulation time: 00 hr 02 min 41 sec)
Heartbeat CPU 0 instructions: 41000289 cycles: 9498096 heartbeat IPC: 4.869 cumulative IPC: 4.317 (Simulation time: 00 hr 02 min 42 sec)
Heartbeat CPU 0 instructions: 41500293 cycles: 9603702 heartbeat IPC: 4.735 cumulative IPC: 4.321 (Simulation time: 00 hr 02 min 44 sec)
Heartbeat CPU 0 instructions: 42000298 cycles: 9709690 heartbeat IPC: 4.718 cumulative IPC: 4.326 (Simulation time: 00 hr 02 min 46 sec)
Heartbeat CPU 0 instructions: 42500300 cycles: 9814447 heartbeat IPC: 4.773 cumulative IPC: 4.33 (Simulation time: 00 hr 02 min 48 sec)
Heartbeat CPU 0 instructions: 43000302 cycles: 9917174 heartbeat IPC: 4.867 cumulative IPC: 4.336 (Simulation time: 00 hr 02 min 50 sec)
Heartbeat CPU 0 instructions: 43500302 cycles: 10023847 heartbeat IPC: 4.687 cumulative IPC: 4.34 (Simulation time: 00 hr 02 min 52 sec)
Heartbeat CPU 0 instructions: 44000305 cycles: 10129097 heartbeat IPC: 4.751 cumulative IPC: 4.344 (Simulation time: 00 hr 02 min 54 sec)
Heartbeat CPU 0 instructions: 44500312 cycles: 10233207 heartbeat IPC: 4.803 cumulative IPC: 4.349 (Simulation time: 00 hr 02 min 55 sec)
Heartbeat CPU 0 instructions: 45000314 cycles: 10336781 heartbeat IPC: 4.827 cumulative IPC: 4.353 (Simulation time: 00 hr 02 min 57 sec)
Heartbeat CPU 0 instructions: 45500315 cycles: 10442480 heartbeat IPC: 4.73 cumulative IPC: 4.357 (Simulation time: 00 hr 02 min 59 sec)
Heartbeat CPU 0 instructions: 46000317 cycles: 10552544 heartbeat IPC: 4.543 cumulative IPC: 4.359 (Simulation time: 00 hr 03 min 01 sec)
Heartbeat CPU 0 instructions: 46500319 cycles: 10654942 heartbeat IPC: 4.883 cumulative IPC: 4.364 (Simulation time: 00 hr 03 min 03 sec)
Heartbeat CPU 0 instructions: 47000320 cycles: 10758051 heartbeat IPC: 4.849 cumulative IPC: 4.369 (Simulation time: 00 hr 03 min 05 sec)
Heartbeat CPU 0 instructions: 47500326 cycles: 10905457 heartbeat IPC: 3.392 cumulative IPC: 4.356 (Simulation time: 00 hr 03 min 07 sec)
Heartbeat CPU 0 instructions: 48000328 cycles: 11007061 heartbeat IPC: 4.921 cumulative IPC: 4.361 (Simulation time: 00 hr 03 min 09 sec)
Heartbeat CPU 0 instructions: 48500328 cycles: 11146370 heartbeat IPC: 3.589 cumulative IPC: 4.351 (Simulation time: 00 hr 03 min 11 sec)
Heartbeat CPU 0 instructions: 49000329 cycles: 11247275 heartbeat IPC: 4.955 cumulative IPC: 4.357 (Simulation time: 00 hr 03 min 12 sec)
Heartbeat CPU 0 instructions: 49500330 cycles: 11347274 heartbeat IPC: 5 cumulative IPC: 4.362 (Simulation time: 00 hr 03 min 14 sec)
Warmup halting CPU 0 at instruction 50000005 cycle 11449121 for remainder of phase
Warmup finished CPU 0 instructions: 50000005 cycles: 11449121 cumulative IPC: 4.367 (Simulation time: 00 hr 03 min 15 sec)
Warmup complete CPU 0 instructions: 50000005 cycles: 11449121 cumulative IPC: 4.367 (Simulation time: 00 hr 03 min 15 sec)
Heartbeat CPU 0 instructions: 50000335 cycles: 11449956 heartbeat IPC: 4.869 cumulative IPC: 0.3952 (Simulation time: 00 hr 03 min 15 sec)
Heartbeat CPU 0 instructions: 50500342 cycles: 12324792 heartbeat IPC: 0.5715 cumulative IPC: 0.5714 (Simulation time: 00 hr 03 min 23 sec)
Heartbeat CPU 0 instructions: 51000343 cycles: 13036190 heartbeat IPC: 0.7028 cumulative IPC: 0.6303 (Simulation time: 00 hr 03 min 29 sec)
Heartbeat CPU 0 instructions: 51500343 cycles: 13414726 heartbeat IPC: 1.321 cumulative IPC: 0.7633 (Simulation time: 00 hr 03 min 33 sec)
Heartbeat CPU 0 instructions: 52000348 cycles: 13768127 heartbeat IPC: 1.415 cumulative IPC: 0.8626 (Simulation time: 00 hr 03 min 37 sec)
Heartbeat CPU 0 instructions: 52500352 cycles: 14144918 heartbeat IPC: 1.327 cumulative IPC: 0.9275 (Simulation time: 00 hr 03 min 41 sec)
Heartbeat CPU 0 instructions: 53000352 cycles: 14672033 heartbeat IPC: 0.9486 cumulative IPC: 0.9309 (Simulation time: 00 hr 03 min 45 sec)
Heartbeat CPU 0 instructions: 53500354 cycles: 14971352 heartbeat IPC: 1.67 cumulative IPC: 0.9938 (Simulation time: 00 hr 03 min 48 sec)
Heartbeat CPU 0 instructions: 54000357 cycles: 15251438 heartbeat IPC: 1.785 cumulative IPC: 1.052 (Simulation time: 00 hr 03 min 51 sec)
Heartbeat CPU 0 instructions: 54500357 cycles: 15538378 heartbeat IPC: 1.743 cumulative IPC: 1.101 (Simulation time: 00 hr 03 min 53 sec)
Heartbeat CPU 0 instructions: 55000358 cycles: 15789723 heartbeat IPC: 1.989 cumulative IPC: 1.152 (Simulation time: 00 hr 03 min 56 sec)
Heartbeat CPU 0 instructions: 55500364 cycles: 16034407 heartbeat IPC: 2.043 cumulative IPC: 1.2 (Simulation time: 00 hr 03 min 58 sec)
Heartbeat CPU 0 instructions: 56000364 cycles: 16839704 heartbeat IPC: 0.6209 cumulative IPC: 1.113 (Simulation time: 00 hr 04 min 06 sec)
Heartbeat CPU 0 instructions: 56500367 cycles: 17512243 heartbeat IPC: 0.7435 cumulative IPC: 1.072 (Simulation time: 00 hr 04 min 12 sec)
Heartbeat CPU 0 instructions: 57000367 cycles: 19238821 heartbeat IPC: 0.2896 cumulative IPC: 0.8987 (Simulation time: 00 hr 04 min 25 sec)
Heartbeat CPU 0 instructions: 57500372 cycles: 19812237 heartbeat IPC: 0.872 cumulative IPC: 0.8968 (Simulation time: 00 hr 04 min 30 sec)
Heartbeat CPU 0 instructions: 58000372 cycles: 20156801 heartbeat IPC: 1.451 cumulative IPC: 0.9188 (Simulation time: 00 hr 04 min 34 sec)
Heartbeat CPU 0 instructions: 58500373 cycles: 20618929 heartbeat IPC: 1.082 cumulative IPC: 0.927 (Simulation time: 00 hr 04 min 38 sec)
Heartbeat CPU 0 instructions: 59000373 cycles: 20957327 heartbeat IPC: 1.478 cumulative IPC: 0.9466 (Simulation time: 00 hr 04 min 42 sec)
Heartbeat CPU 0 instructions: 59500374 cycles: 21302894 heartbeat IPC: 1.447 cumulative IPC: 0.9641 (Simulation time: 00 hr 04 min 46 sec)
Heartbeat CPU 0 instructions: 60000377 cycles: 21634514 heartbeat IPC: 1.508 cumulative IPC: 0.9818 (Simulation time: 00 hr 04 min 49 sec)
Heartbeat CPU 0 instructions: 60500377 cycles: 21916883 heartbeat IPC: 1.771 cumulative IPC: 1.003 (Simulation time: 00 hr 04 min 53 sec)
Heartbeat CPU 0 instructions: 61000379 cycles: 22750040 heartbeat IPC: 0.6001 cumulative IPC: 0.9734 (Simulation time: 00 hr 05 min 00 sec)
Heartbeat CPU 0 instructions: 61500381 cycles: 23134749 heartbeat IPC: 1.3 cumulative IPC: 0.9841 (Simulation time: 00 hr 05 min 04 sec)
Heartbeat CPU 0 instructions: 62000381 cycles: 23475290 heartbeat IPC: 1.468 cumulative IPC: 0.9979 (Simulation time: 00 hr 05 min 07 sec)
Heartbeat CPU 0 instructions: 62500382 cycles: 23878879 heartbeat IPC: 1.239 cumulative IPC: 1.006 (Simulation time: 00 hr 05 min 11 sec)
Heartbeat CPU 0 instructions: 63000384 cycles: 24261007 heartbeat IPC: 1.308 cumulative IPC: 1.015 (Simulation time: 00 hr 05 min 15 sec)
Heartbeat CPU 0 instructions: 63500384 cycles: 24559712 heartbeat IPC: 1.674 cumulative IPC: 1.03 (Simulation time: 00 hr 05 min 19 sec)
Heartbeat CPU 0 instructions: 64000384 cycles: 24916609 heartbeat IPC: 1.401 cumulative IPC: 1.04 (Simulation time: 00 hr 05 min 22 sec)
Heartbeat CPU 0 instructions: 64500387 cycles: 25246462 heartbeat IPC: 1.516 cumulative IPC: 1.051 (Simulation time: 00 hr 05 min 26 sec)
Heartbeat CPU 0 instructions: 65000387 cycles: 25585726 heartbeat IPC: 1.474 cumulative IPC: 1.061 (Simulation time: 00 hr 05 min 29 sec)
Heartbeat CPU 0 instructions: 65500388 cycles: 25918334 heartbeat IPC: 1.503 cumulative IPC: 1.071 (Simulation time: 00 hr 05 min 33 sec)
Heartbeat CPU 0 instructions: 66000392 cycles: 26246893 heartbeat IPC: 1.522 cumulative IPC: 1.081 (Simulation time: 00 hr 05 min 36 sec)
Heartbeat CPU 0 instructions: 66500395 cycles: 26573721 heartbeat IPC: 1.53 cumulative IPC: 1.091 (Simulation time: 00 hr 05 min 40 sec)
Heartbeat CPU 0 instructions: 67000398 cycles: 26917119 heartbeat IPC: 1.456 cumulative IPC: 1.099 (Simulation time: 00 hr 05 min 44 sec)
Heartbeat CPU 0 instructions: 67500403 cycles: 27257287 heartbeat IPC: 1.47 cumulative IPC: 1.107 (Simulation time: 00 hr 05 min 47 sec)
Heartbeat CPU 0 instructions: 68000404 cycles: 27481041 heartbeat IPC: 2.235 cumulative IPC: 1.123 (Simulation time: 00 hr 05 min 50 sec)
Heartbeat CPU 0 instructions: 68500406 cycles: 27787405 heartbeat IPC: 1.632 cumulative IPC: 1.132 (Simulation time: 00 hr 05 min 54 sec)
Heartbeat CPU 0 instructions: 69000407 cycles: 28125597 heartbeat IPC: 1.478 cumulative IPC: 1.139 (Simulation time: 00 hr 05 min 57 sec)
Heartbeat CPU 0 instructions: 69500408 cycles: 28522397 heartbeat IPC: 1.26 cumulative IPC: 1.142 (Simulation time: 00 hr 06 min 01 sec)
Heartbeat CPU 0 instructions: 70000408 cycles: 28897055 heartbeat IPC: 1.335 cumulative IPC: 1.146 (Simulation time: 00 hr 06 min 05 sec)
Heartbeat CPU 0 instructions: 70500415 cycles: 29220872 heartbeat IPC: 1.544 cumulative IPC: 1.154 (Simulation time: 00 hr 06 min 09 sec)
Heartbeat CPU 0 instructions: 71000417 cycles: 30839024 heartbeat IPC: 0.309 cumulative IPC: 1.083 (Simulation time: 00 hr 06 min 22 sec)
Heartbeat CPU 0 instructions: 71500419 cycles: 31150176 heartbeat IPC: 1.607 cumulative IPC: 1.091 (Simulation time: 00 hr 06 min 25 sec)
Heartbeat CPU 0 instructions: 72000420 cycles: 31443767 heartbeat IPC: 1.703 cumulative IPC: 1.1 (Simulation time: 00 hr 06 min 27 sec)
Heartbeat CPU 0 instructions: 72500420 cycles: 31741900 heartbeat IPC: 1.677 cumulative IPC: 1.109 (Simulation time: 00 hr 06 min 30 sec)
Heartbeat CPU 0 instructions: 73000421 cycles: 32006991 heartbeat IPC: 1.886 cumulative IPC: 1.119 (Simulation time: 00 hr 06 min 32 sec)
Heartbeat CPU 0 instructions: 73500421 cycles: 32245272 heartbeat IPC: 2.098 cumulative IPC: 1.13 (Simulation time: 00 hr 06 min 35 sec)
Heartbeat CPU 0 instructions: 74000424 cycles: 32710962 heartbeat IPC: 1.074 cumulative IPC: 1.129 (Simulation time: 00 hr 06 min 40 sec)
Heartbeat CPU 0 instructions: 74500424 cycles: 33173272 heartbeat IPC: 1.082 cumulative IPC: 1.128 (Simulation time: 00 hr 06 min 44 sec)
Heartbeat CPU 0 instructions: 75000425 cycles: 33446785 heartbeat IPC: 1.828 cumulative IPC: 1.137 (Simulation time: 00 hr 06 min 47 sec)
Heartbeat CPU 0 instructions: 75500425 cycles: 33962378 heartbeat IPC: 0.9698 cumulative IPC: 1.133 (Simulation time: 00 hr 06 min 52 sec)
Heartbeat CPU 0 instructions: 76000425 cycles: 34270430 heartbeat IPC: 1.623 cumulative IPC: 1.139 (Simulation time: 00 hr 06 min 56 sec)
Heartbeat CPU 0 instructions: 76500429 cycles: 34508886 heartbeat IPC: 2.097 cumulative IPC: 1.149 (Simulation time: 00 hr 06 min 59 sec)
Heartbeat CPU 0 instructions: 77000432 cycles: 34797985 heartbeat IPC: 1.73 cumulative IPC: 1.156 (Simulation time: 00 hr 07 min 03 sec)
Heartbeat CPU 0 instructions: 77500437 cycles: 35228799 heartbeat IPC: 1.161 cumulative IPC: 1.156 (Simulation time: 00 hr 07 min 07 sec)
Heartbeat CPU 0 instructions: 78000437 cycles: 35527849 heartbeat IPC: 1.672 cumulative IPC: 1.163 (Simulation time: 00 hr 07 min 10 sec)
Heartbeat CPU 0 instructions: 78500437 cycles: 35785076 heartbeat IPC: 1.944 cumulative IPC: 1.171 (Simulation time: 00 hr 07 min 13 sec)
Heartbeat CPU 0 instructions: 79000437 cycles: 36156041 heartbeat IPC: 1.348 cumulative IPC: 1.174 (Simulation time: 00 hr 07 min 17 sec)
Heartbeat CPU 0 instructions: 79500442 cycles: 36484600 heartbeat IPC: 1.522 cumulative IPC: 1.178 (Simulation time: 00 hr 07 min 21 sec)
Heartbeat CPU 0 instructions: 80000442 cycles: 36778029 heartbeat IPC: 1.704 cumulative IPC: 1.184 (Simulation time: 00 hr 07 min 24 sec)
Heartbeat CPU 0 instructions: 80500442 cycles: 37005647 heartbeat IPC: 2.197 cumulative IPC: 1.193 (Simulation time: 00 hr 07 min 27 sec)
Heartbeat CPU 0 instructions: 81000445 cycles: 37316054 heartbeat IPC: 1.611 cumulative IPC: 1.198 (Simulation time: 00 hr 07 min 31 sec)
Heartbeat CPU 0 instructions: 81500450 cycles: 37645897 heartbeat IPC: 1.516 cumulative IPC: 1.202 (Simulation time: 00 hr 07 min 35 sec)
Heartbeat CPU 0 instructions: 82000454 cycles: 37954643 heartbeat IPC: 1.619 cumulative IPC: 1.207 (Simulation time: 00 hr 07 min 38 sec)
Heartbeat CPU 0 instructions: 82500458 cycles: 38338947 heartbeat IPC: 1.301 cumulative IPC: 1.209 (Simulation time: 00 hr 07 min 43 sec)
Heartbeat CPU 0 instructions: 83000462 cycles: 38715894 heartbeat IPC: 1.326 cumulative IPC: 1.21 (Simulation time: 00 hr 07 min 47 sec)
Heartbeat CPU 0 instructions: 83500465 cycles: 40548309 heartbeat IPC: 0.2729 cumulative IPC: 1.151 (Simulation time: 00 hr 08 min 02 sec)
Heartbeat CPU 0 instructions: 84000465 cycles: 40841053 heartbeat IPC: 1.708 cumulative IPC: 1.157 (Simulation time: 00 hr 08 min 04 sec)
Heartbeat CPU 0 instructions: 84500469 cycles: 41122021 heartbeat IPC: 1.78 cumulative IPC: 1.163 (Simulation time: 00 hr 08 min 07 sec)
Heartbeat CPU 0 instructions: 85000469 cycles: 41418397 heartbeat IPC: 1.687 cumulative IPC: 1.168 (Simulation time: 00 hr 08 min 10 sec)
Heartbeat CPU 0 instructions: 85500469 cycles: 41820543 heartbeat IPC: 1.243 cumulative IPC: 1.169 (Simulation time: 00 hr 08 min 13 sec)
Heartbeat CPU 0 instructions: 86000471 cycles: 42162241 heartbeat IPC: 1.463 cumulative IPC: 1.172 (Simulation time: 00 hr 08 min 16 sec)
Heartbeat CPU 0 instructions: 86500471 cycles: 42815118 heartbeat IPC: 0.7658 cumulative IPC: 1.164 (Simulation time: 00 hr 08 min 23 sec)
Heartbeat CPU 0 instructions: 87000471 cycles: 43250581 heartbeat IPC: 1.148 cumulative IPC: 1.163 (Simulation time: 00 hr 08 min 27 sec)
Heartbeat CPU 0 instructions: 87500471 cycles: 43626623 heartbeat IPC: 1.33 cumulative IPC: 1.165 (Simulation time: 00 hr 08 min 31 sec)
Heartbeat CPU 0 instructions: 88000472 cycles: 43914372 heartbeat IPC: 1.738 cumulative IPC: 1.17 (Simulation time: 00 hr 08 min 34 sec)
Heartbeat CPU 0 instructions: 88500475 cycles: 44220942 heartbeat IPC: 1.631 cumulative IPC: 1.175 (Simulation time: 00 hr 08 min 37 sec)
Heartbeat CPU 0 instructions: 89000479 cycles: 44544131 heartbeat IPC: 1.547 cumulative IPC: 1.178 (Simulation time: 00 hr 08 min 41 sec)
Heartbeat CPU 0 instructions: 89500480 cycles: 44880996 heartbeat IPC: 1.484 cumulative IPC: 1.182 (Simulation time: 00 hr 08 min 45 sec)
Heartbeat CPU 0 instructions: 90000485 cycles: 45187970 heartbeat IPC: 1.629 cumulative IPC: 1.186 (Simulation time: 00 hr 08 min 48 sec)
Heartbeat CPU 0 instructions: 90500489 cycles: 45443717 heartbeat IPC: 1.955 cumulative IPC: 1.191 (Simulation time: 00 hr 08 min 51 sec)
Heartbeat CPU 0 instructions: 91000491 cycles: 45785558 heartbeat IPC: 1.463 cumulative IPC: 1.194 (Simulation time: 00 hr 08 min 55 sec)
Heartbeat CPU 0 instructions: 91500491 cycles: 46058546 heartbeat IPC: 1.832 cumulative IPC: 1.199 (Simulation time: 00 hr 08 min 58 sec)
Heartbeat CPU 0 instructions: 92000496 cycles: 46353008 heartbeat IPC: 1.698 cumulative IPC: 1.203 (Simulation time: 00 hr 09 min 01 sec)
Heartbeat CPU 0 instructions: 92500498 cycles: 46649505 heartbeat IPC: 1.686 cumulative IPC: 1.207 (Simulation time: 00 hr 09 min 05 sec)
Heartbeat CPU 0 instructions: 93000498 cycles: 46914970 heartbeat IPC: 1.883 cumulative IPC: 1.212 (Simulation time: 00 hr 09 min 08 sec)
Heartbeat CPU 0 instructions: 93500498 cycles: 47242370 heartbeat IPC: 1.527 cumulative IPC: 1.215 (Simulation time: 00 hr 09 min 11 sec)
Heartbeat CPU 0 instructions: 94000498 cycles: 47565913 heartbeat IPC: 1.545 cumulative IPC: 1.218 (Simulation time: 00 hr 09 min 15 sec)
Heartbeat CPU 0 instructions: 94500501 cycles: 47876502 heartbeat IPC: 1.61 cumulative IPC: 1.222 (Simulation time: 00 hr 09 min 18 sec)
Heartbeat CPU 0 instructions: 95000501 cycles: 48169407 heartbeat IPC: 1.707 cumulative IPC: 1.225 (Simulation time: 00 hr 09 min 22 sec)
Heartbeat CPU 0 instructions: 95500506 cycles: 48453307 heartbeat IPC: 1.761 cumulative IPC: 1.23 (Simulation time: 00 hr 09 min 25 sec)
Heartbeat CPU 0 instructions: 96000513 cycles: 48754852 heartbeat IPC: 1.658 cumulative IPC: 1.233 (Simulation time: 00 hr 09 min 29 sec)
Heartbeat CPU 0 instructions: 96500517 cycles: 49340594 heartbeat IPC: 0.8536 cumulative IPC: 1.227 (Simulation time: 00 hr 09 min 34 sec)
Heartbeat CPU 0 instructions: 97000517 cycles: 49643199 heartbeat IPC: 1.652 cumulative IPC: 1.231 (Simulation time: 00 hr 09 min 37 sec)
Heartbeat CPU 0 instructions: 97500519 cycles: 49944845 heartbeat IPC: 1.658 cumulative IPC: 1.234 (Simulation time: 00 hr 09 min 40 sec)
Heartbeat CPU 0 instructions: 98000521 cycles: 50244988 heartbeat IPC: 1.666 cumulative IPC: 1.237 (Simulation time: 00 hr 09 min 43 sec)
Heartbeat CPU 0 instructions: 98500523 cycles: 50507956 heartbeat IPC: 1.901 cumulative IPC: 1.242 (Simulation time: 00 hr 09 min 45 sec)
Heartbeat CPU 0 instructions: 99000525 cycles: 50762729 heartbeat IPC: 1.963 cumulative IPC: 1.246 (Simulation time: 00 hr 09 min 47 sec)
Heartbeat CPU 0 instructions: 99500528 cycles: 51302086 heartbeat IPC: 0.927 cumulative IPC: 1.242 (Simulation time: 00 hr 09 min 53 sec)
Heartbeat CPU 0 instructions: 100000531 cycles: 51619602 heartbeat IPC: 1.575 cumulative IPC: 1.245 (Simulation time: 00 hr 09 min 57 sec)
Heartbeat CPU 0 instructions: 100500536 cycles: 52357639 heartbeat IPC: 0.6775 cumulative IPC: 1.234 (Simulation time: 00 hr 10 min 04 sec)
Heartbeat CPU 0 instructions: 101000538 cycles: 52592799 heartbeat IPC: 2.126 cumulative IPC: 1.24 (Simulation time: 00 hr 10 min 07 sec)
Heartbeat CPU 0 instructions: 101500541 cycles: 52728797 heartbeat IPC: 3.677 cumulative IPC: 1.248 (Simulation time: 00 hr 10 min 09 sec)
Heartbeat CPU 0 instructions: 102000548 cycles: 53095221 heartbeat IPC: 1.365 cumulative IPC: 1.249 (Simulation time: 00 hr 10 min 12 sec)
Heartbeat CPU 0 instructions: 102500554 cycles: 53345652 heartbeat IPC: 1.997 cumulative IPC: 1.253 (Simulation time: 00 hr 10 min 16 sec)
Heartbeat CPU 0 instructions: 103000557 cycles: 53551965 heartbeat IPC: 2.424 cumulative IPC: 1.259 (Simulation time: 00 hr 10 min 19 sec)
Heartbeat CPU 0 instructions: 103500558 cycles: 53847826 heartbeat IPC: 1.69 cumulative IPC: 1.262 (Simulation time: 00 hr 10 min 22 sec)
Heartbeat CPU 0 instructions: 104000558 cycles: 54053769 heartbeat IPC: 2.428 cumulative IPC: 1.267 (Simulation time: 00 hr 10 min 26 sec)
Heartbeat CPU 0 instructions: 104500560 cycles: 54422946 heartbeat IPC: 1.354 cumulative IPC: 1.268 (Simulation time: 00 hr 10 min 30 sec)
Heartbeat CPU 0 instructions: 105000562 cycles: 54700718 heartbeat IPC: 1.8 cumulative IPC: 1.272 (Simulation time: 00 hr 10 min 33 sec)
Heartbeat CPU 0 instructions: 105500563 cycles: 55077919 heartbeat IPC: 1.326 cumulative IPC: 1.272 (Simulation time: 00 hr 10 min 37 sec)
Heartbeat CPU 0 instructions: 106000565 cycles: 55352345 heartbeat IPC: 1.822 cumulative IPC: 1.276 (Simulation time: 00 hr 10 min 40 sec)
Heartbeat CPU 0 instructions: 106500568 cycles: 55568307 heartbeat IPC: 2.315 cumulative IPC: 1.281 (Simulation time: 00 hr 10 min 43 sec)
Heartbeat CPU 0 instructions: 107000569 cycles: 55837556 heartbeat IPC: 1.857 cumulative IPC: 1.284 (Simulation time: 00 hr 10 min 46 sec)
Heartbeat CPU 0 instructions: 107500569 cycles: 56024480 heartbeat IPC: 2.675 cumulative IPC: 1.29 (Simulation time: 00 hr 10 min 49 sec)
Heartbeat CPU 0 instructions: 108000575 cycles: 56211504 heartbeat IPC: 2.673 cumulative IPC: 1.296 (Simulation time: 00 hr 10 min 51 sec)
Heartbeat CPU 0 instructions: 108500576 cycles: 56398538 heartbeat IPC: 2.673 cumulative IPC: 1.301 (Simulation time: 00 hr 10 min 54 sec)
Heartbeat CPU 0 instructions: 109000581 cycles: 56582168 heartbeat IPC: 2.723 cumulative IPC: 1.307 (Simulation time: 00 hr 10 min 57 sec)
Heartbeat CPU 0 instructions: 109500582 cycles: 56682991 heartbeat IPC: 4.959 cumulative IPC: 1.315 (Simulation time: 00 hr 10 min 58 sec)
Heartbeat CPU 0 instructions: 110000586 cycles: 56783666 heartbeat IPC: 4.967 cumulative IPC: 1.324 (Simulation time: 00 hr 11 min 00 sec)
Heartbeat CPU 0 instructions: 110500589 cycles: 57626317 heartbeat IPC: 0.5934 cumulative IPC: 1.31 (Simulation time: 00 hr 11 min 07 sec)
Heartbeat CPU 0 instructions: 111000591 cycles: 57813614 heartbeat IPC: 2.67 cumulative IPC: 1.316 (Simulation time: 00 hr 11 min 10 sec)
Heartbeat CPU 0 instructions: 111500596 cycles: 58691677 heartbeat IPC: 0.5694 cumulative IPC: 1.302 (Simulation time: 00 hr 11 min 18 sec)
Heartbeat CPU 0 instructions: 112000598 cycles: 58991963 heartbeat IPC: 1.665 cumulative IPC: 1.304 (Simulation time: 00 hr 11 min 20 sec)
Heartbeat CPU 0 instructions: 112500598 cycles: 59278314 heartbeat IPC: 1.746 cumulative IPC: 1.307 (Simulation time: 00 hr 11 min 23 sec)
Heartbeat CPU 0 instructions: 113000599 cycles: 59580715 heartbeat IPC: 1.653 cumulative IPC: 1.309 (Simulation time: 00 hr 11 min 26 sec)
Heartbeat CPU 0 instructions: 113500599 cycles: 59838708 heartbeat IPC: 1.938 cumulative IPC: 1.312 (Simulation time: 00 hr 11 min 28 sec)
Heartbeat CPU 0 instructions: 114000602 cycles: 60091415 heartbeat IPC: 1.979 cumulative IPC: 1.316 (Simulation time: 00 hr 11 min 31 sec)
Heartbeat CPU 0 instructions: 114500603 cycles: 60351016 heartbeat IPC: 1.926 cumulative IPC: 1.319 (Simulation time: 00 hr 11 min 34 sec)
Heartbeat CPU 0 instructions: 115000607 cycles: 60452263 heartbeat IPC: 4.938 cumulative IPC: 1.326 (Simulation time: 00 hr 11 min 36 sec)
Heartbeat CPU 0 instructions: 115500609 cycles: 61076646 heartbeat IPC: 0.8008 cumulative IPC: 1.32 (Simulation time: 00 hr 11 min 42 sec)
Heartbeat CPU 0 instructions: 116000612 cycles: 61263311 heartbeat IPC: 2.679 cumulative IPC: 1.325 (Simulation time: 00 hr 11 min 44 sec)
Heartbeat CPU 0 instructions: 116500618 cycles: 61450185 heartbeat IPC: 2.676 cumulative IPC: 1.33 (Simulation time: 00 hr 11 min 47 sec)
Heartbeat CPU 0 instructions: 117000618 cycles: 61554129 heartbeat IPC: 4.81 cumulative IPC: 1.337 (Simulation time: 00 hr 11 min 49 sec)
Heartbeat CPU 0 instructions: 117500620 cycles: 61654527 heartbeat IPC: 4.98 cumulative IPC: 1.344 (Simulation time: 00 hr 11 min 50 sec)
Heartbeat CPU 0 instructions: 118000622 cycles: 61891071 heartbeat IPC: 2.114 cumulative IPC: 1.348 (Simulation time: 00 hr 11 min 53 sec)
Heartbeat CPU 0 instructions: 118500629 cycles: 62078442 heartbeat IPC: 2.669 cumulative IPC: 1.353 (Simulation time: 00 hr 11 min 56 sec)
Heartbeat CPU 0 instructions: 119000630 cycles: 62264980 heartbeat IPC: 2.68 cumulative IPC: 1.358 (Simulation time: 00 hr 11 min 59 sec)
Heartbeat CPU 0 instructions: 119500634 cycles: 62473243 heartbeat IPC: 2.401 cumulative IPC: 1.362 (Simulation time: 00 hr 12 min 01 sec)
Heartbeat CPU 0 instructions: 120000634 cycles: 62823568 heartbeat IPC: 1.427 cumulative IPC: 1.363 (Simulation time: 00 hr 12 min 05 sec)
Heartbeat CPU 0 instructions: 120500641 cycles: 64007821 heartbeat IPC: 0.4222 cumulative IPC: 1.341 (Simulation time: 00 hr 12 min 14 sec)
Heartbeat CPU 0 instructions: 121000643 cycles: 64329107 heartbeat IPC: 1.556 cumulative IPC: 1.343 (Simulation time: 00 hr 12 min 18 sec)
Heartbeat CPU 0 instructions: 121500644 cycles: 64625818 heartbeat IPC: 1.685 cumulative IPC: 1.345 (Simulation time: 00 hr 12 min 21 sec)
Heartbeat CPU 0 instructions: 122000647 cycles: 64977562 heartbeat IPC: 1.421 cumulative IPC: 1.345 (Simulation time: 00 hr 12 min 25 sec)
Heartbeat CPU 0 instructions: 122500649 cycles: 65304532 heartbeat IPC: 1.529 cumulative IPC: 1.346 (Simulation time: 00 hr 12 min 29 sec)
Heartbeat CPU 0 instructions: 123000651 cycles: 65568169 heartbeat IPC: 1.897 cumulative IPC: 1.349 (Simulation time: 00 hr 12 min 32 sec)
Heartbeat CPU 0 instructions: 123500657 cycles: 65848390 heartbeat IPC: 1.784 cumulative IPC: 1.351 (Simulation time: 00 hr 12 min 35 sec)
Heartbeat CPU 0 instructions: 124000658 cycles: 66176269 heartbeat IPC: 1.525 cumulative IPC: 1.352 (Simulation time: 00 hr 12 min 39 sec)
Heartbeat CPU 0 instructions: 124500659 cycles: 66489160 heartbeat IPC: 1.598 cumulative IPC: 1.354 (Simulation time: 00 hr 12 min 42 sec)
Heartbeat CPU 0 instructions: 125000659 cycles: 66780369 heartbeat IPC: 1.717 cumulative IPC: 1.355 (Simulation time: 00 hr 12 min 45 sec)
Heartbeat CPU 0 instructions: 125500659 cycles: 67038051 heartbeat IPC: 1.94 cumulative IPC: 1.358 (Simulation time: 00 hr 12 min 49 sec)
Heartbeat CPU 0 instructions: 126000661 cycles: 67400954 heartbeat IPC: 1.378 cumulative IPC: 1.358 (Simulation time: 00 hr 12 min 52 sec)
Heartbeat CPU 0 instructions: 126500664 cycles: 67691275 heartbeat IPC: 1.722 cumulative IPC: 1.36 (Simulation time: 00 hr 12 min 56 sec)
Heartbeat CPU 0 instructions: 127000665 cycles: 67953075 heartbeat IPC: 1.91 cumulative IPC: 1.363 (Simulation time: 00 hr 12 min 59 sec)
Heartbeat CPU 0 instructions: 127500667 cycles: 68206623 heartbeat IPC: 1.972 cumulative IPC: 1.365 (Simulation time: 00 hr 13 min 02 sec)
Heartbeat CPU 0 instructions: 128000672 cycles: 68459833 heartbeat IPC: 1.975 cumulative IPC: 1.368 (Simulation time: 00 hr 13 min 05 sec)
Heartbeat CPU 0 instructions: 128500672 cycles: 68729763 heartbeat IPC: 1.852 cumulative IPC: 1.37 (Simulation time: 00 hr 13 min 08 sec)
Heartbeat CPU 0 instructions: 129000674 cycles: 68980686 heartbeat IPC: 1.993 cumulative IPC: 1.373 (Simulation time: 00 hr 13 min 11 sec)
Heartbeat CPU 0 instructions: 129500676 cycles: 69240278 heartbeat IPC: 1.926 cumulative IPC: 1.376 (Simulation time: 00 hr 13 min 14 sec)
Heartbeat CPU 0 instructions: 130000676 cycles: 69487152 heartbeat IPC: 2.025 cumulative IPC: 1.378 (Simulation time: 00 hr 13 min 17 sec)
Heartbeat CPU 0 instructions: 130500677 cycles: 70897207 heartbeat IPC: 0.3546 cumulative IPC: 1.354 (Simulation time: 00 hr 13 min 30 sec)
Heartbeat CPU 0 instructions: 131000677 cycles: 71776294 heartbeat IPC: 0.5688 cumulative IPC: 1.343 (Simulation time: 00 hr 13 min 39 sec)
Heartbeat CPU 0 instructions: 131500682 cycles: 72459811 heartbeat IPC: 0.7315 cumulative IPC: 1.336 (Simulation time: 00 hr 13 min 47 sec)
Heartbeat CPU 0 instructions: 132000685 cycles: 73140572 heartbeat IPC: 0.7345 cumulative IPC: 1.329 (Simulation time: 00 hr 13 min 54 sec)
Heartbeat CPU 0 instructions: 132500692 cycles: 73738963 heartbeat IPC: 0.8356 cumulative IPC: 1.324 (Simulation time: 00 hr 14 min 00 sec)
Heartbeat CPU 0 instructions: 133000695 cycles: 74383143 heartbeat IPC: 0.7762 cumulative IPC: 1.319 (Simulation time: 00 hr 14 min 07 sec)
Heartbeat CPU 0 instructions: 133500698 cycles: 75072328 heartbeat IPC: 0.7255 cumulative IPC: 1.312 (Simulation time: 00 hr 14 min 14 sec)
Heartbeat CPU 0 instructions: 134000704 cycles: 75679738 heartbeat IPC: 0.8232 cumulative IPC: 1.308 (Simulation time: 00 hr 14 min 21 sec)
Heartbeat CPU 0 instructions: 134500705 cycles: 76234637 heartbeat IPC: 0.9011 cumulative IPC: 1.304 (Simulation time: 00 hr 14 min 27 sec)
Heartbeat CPU 0 instructions: 135000707 cycles: 77000042 heartbeat IPC: 0.6533 cumulative IPC: 1.297 (Simulation time: 00 hr 14 min 34 sec)
Heartbeat CPU 0 instructions: 135500709 cycles: 77289444 heartbeat IPC: 1.728 cumulative IPC: 1.299 (Simulation time: 00 hr 14 min 36 sec)
Heartbeat CPU 0 instructions: 136000711 cycles: 77571864 heartbeat IPC: 1.77 cumulative IPC: 1.301 (Simulation time: 00 hr 14 min 39 sec)
Heartbeat CPU 0 instructions: 136500713 cycles: 77857050 heartbeat IPC: 1.753 cumulative IPC: 1.303 (Simulation time: 00 hr 14 min 42 sec)
Heartbeat CPU 0 instructions: 137000713 cycles: 78102117 heartbeat IPC: 2.04 cumulative IPC: 1.305 (Simulation time: 00 hr 14 min 44 sec)
Heartbeat CPU 0 instructions: 137500719 cycles: 78344341 heartbeat IPC: 2.064 cumulative IPC: 1.308 (Simulation time: 00 hr 14 min 47 sec)
Heartbeat CPU 0 instructions: 138000720 cycles: 79084562 heartbeat IPC: 0.6755 cumulative IPC: 1.301 (Simulation time: 00 hr 14 min 54 sec)
Heartbeat CPU 0 instructions: 138500723 cycles: 79429722 heartbeat IPC: 1.449 cumulative IPC: 1.302 (Simulation time: 00 hr 14 min 57 sec)
Heartbeat CPU 0 instructions: 139000724 cycles: 79701492 heartbeat IPC: 1.84 cumulative IPC: 1.304 (Simulation time: 00 hr 15 min 00 sec)
Heartbeat CPU 0 instructions: 139500730 cycles: 80060455 heartbeat IPC: 1.393 cumulative IPC: 1.304 (Simulation time: 00 hr 15 min 04 sec)
Heartbeat CPU 0 instructions: 140000732 cycles: 80365045 heartbeat IPC: 1.642 cumulative IPC: 1.306 (Simulation time: 00 hr 15 min 08 sec)
Heartbeat CPU 0 instructions: 140500733 cycles: 80727780 heartbeat IPC: 1.378 cumulative IPC: 1.306 (Simulation time: 00 hr 15 min 12 sec)
Heartbeat CPU 0 instructions: 141000735 cycles: 81039280 heartbeat IPC: 1.605 cumulative IPC: 1.308 (Simulation time: 00 hr 15 min 15 sec)
Heartbeat CPU 0 instructions: 141500735 cycles: 81363621 heartbeat IPC: 1.542 cumulative IPC: 1.309 (Simulation time: 00 hr 15 min 19 sec)
Heartbeat CPU 0 instructions: 142000739 cycles: 81636910 heartbeat IPC: 1.83 cumulative IPC: 1.311 (Simulation time: 00 hr 15 min 22 sec)
Heartbeat CPU 0 instructions: 142500741 cycles: 81960241 heartbeat IPC: 1.546 cumulative IPC: 1.312 (Simulation time: 00 hr 15 min 25 sec)
Heartbeat CPU 0 instructions: 143000741 cycles: 82304554 heartbeat IPC: 1.452 cumulative IPC: 1.313 (Simulation time: 00 hr 15 min 29 sec)
Heartbeat CPU 0 instructions: 143500748 cycles: 82605447 heartbeat IPC: 1.662 cumulative IPC: 1.314 (Simulation time: 00 hr 15 min 32 sec)
Heartbeat CPU 0 instructions: 144000754 cycles: 82959289 heartbeat IPC: 1.413 cumulative IPC: 1.315 (Simulation time: 00 hr 15 min 36 sec)
Heartbeat CPU 0 instructions: 144500756 cycles: 83284345 heartbeat IPC: 1.538 cumulative IPC: 1.316 (Simulation time: 00 hr 15 min 40 sec)
Heartbeat CPU 0 instructions: 145000756 cycles: 83585006 heartbeat IPC: 1.663 cumulative IPC: 1.317 (Simulation time: 00 hr 15 min 43 sec)
Heartbeat CPU 0 instructions: 145500757 cycles: 83883948 heartbeat IPC: 1.673 cumulative IPC: 1.318 (Simulation time: 00 hr 15 min 47 sec)
Heartbeat CPU 0 instructions: 146000757 cycles: 84238261 heartbeat IPC: 1.411 cumulative IPC: 1.319 (Simulation time: 00 hr 15 min 50 sec)
Heartbeat CPU 0 instructions: 146500758 cycles: 84523927 heartbeat IPC: 1.75 cumulative IPC: 1.321 (Simulation time: 00 hr 15 min 54 sec)
Heartbeat CPU 0 instructions: 147000762 cycles: 84848894 heartbeat IPC: 1.539 cumulative IPC: 1.322 (Simulation time: 00 hr 15 min 57 sec)
Heartbeat CPU 0 instructions: 147500765 cycles: 85157571 heartbeat IPC: 1.62 cumulative IPC: 1.323 (Simulation time: 00 hr 16 min 01 sec)
Heartbeat CPU 0 instructions: 148000766 cycles: 86008120 heartbeat IPC: 0.5879 cumulative IPC: 1.314 (Simulation time: 00 hr 16 min 09 sec)
Heartbeat CPU 0 instructions: 148500769 cycles: 87422722 heartbeat IPC: 0.3535 cumulative IPC: 1.297 (Simulation time: 00 hr 16 min 21 sec)
Heartbeat CPU 0 instructions: 149000769 cycles: 87768421 heartbeat IPC: 1.446 cumulative IPC: 1.297 (Simulation time: 00 hr 16 min 24 sec)
Heartbeat CPU 0 instructions: 149500776 cycles: 88051911 heartbeat IPC: 1.764 cumulative IPC: 1.299 (Simulation time: 00 hr 16 min 26 sec)
Heartbeat CPU 0 instructions: 150000777 cycles: 88344594 heartbeat IPC: 1.708 cumulative IPC: 1.3 (Simulation time: 00 hr 16 min 29 sec)
Heartbeat CPU 0 instructions: 150500778 cycles: 88606695 heartbeat IPC: 1.908 cumulative IPC: 1.303 (Simulation time: 00 hr 16 min 31 sec)
Heartbeat CPU 0 instructions: 151000779 cycles: 88860662 heartbeat IPC: 1.969 cumulative IPC: 1.305 (Simulation time: 00 hr 16 min 34 sec)
Heartbeat CPU 0 instructions: 151500780 cycles: 89216921 heartbeat IPC: 1.403 cumulative IPC: 1.305 (Simulation time: 00 hr 16 min 38 sec)
Heartbeat CPU 0 instructions: 152000783 cycles: 89628377 heartbeat IPC: 1.215 cumulative IPC: 1.305 (Simulation time: 00 hr 16 min 42 sec)
Heartbeat CPU 0 instructions: 152500785 cycles: 89940115 heartbeat IPC: 1.604 cumulative IPC: 1.306 (Simulation time: 00 hr 16 min 45 sec)
Heartbeat CPU 0 instructions: 153000785 cycles: 90264180 heartbeat IPC: 1.543 cumulative IPC: 1.307 (Simulation time: 00 hr 16 min 49 sec)
Heartbeat CPU 0 instructions: 153500786 cycles: 90649588 heartbeat IPC: 1.297 cumulative IPC: 1.307 (Simulation time: 00 hr 16 min 53 sec)
Heartbeat CPU 0 instructions: 154000790 cycles: 91011527 heartbeat IPC: 1.381 cumulative IPC: 1.307 (Simulation time: 00 hr 16 min 57 sec)
Heartbeat CPU 0 instructions: 154500790 cycles: 91301487 heartbeat IPC: 1.724 cumulative IPC: 1.309 (Simulation time: 00 hr 17 min 00 sec)
Heartbeat CPU 0 instructions: 155000791 cycles: 91559916 heartbeat IPC: 1.935 cumulative IPC: 1.311 (Simulation time: 00 hr 17 min 03 sec)
Heartbeat CPU 0 instructions: 155500796 cycles: 91906754 heartbeat IPC: 1.442 cumulative IPC: 1.311 (Simulation time: 00 hr 17 min 07 sec)
Heartbeat CPU 0 instructions: 156000802 cycles: 92191581 heartbeat IPC: 1.755 cumulative IPC: 1.313 (Simulation time: 00 hr 17 min 10 sec)
Heartbeat CPU 0 instructions: 156500805 cycles: 92558415 heartbeat IPC: 1.363 cumulative IPC: 1.313 (Simulation time: 00 hr 17 min 14 sec)
Heartbeat CPU 0 instructions: 157000805 cycles: 92850379 heartbeat IPC: 1.713 cumulative IPC: 1.314 (Simulation time: 00 hr 17 min 17 sec)
Heartbeat CPU 0 instructions: 157500809 cycles: 93133131 heartbeat IPC: 1.768 cumulative IPC: 1.316 (Simulation time: 00 hr 17 min 20 sec)
Heartbeat CPU 0 instructions: 158000810 cycles: 93400307 heartbeat IPC: 1.871 cumulative IPC: 1.318 (Simulation time: 00 hr 17 min 23 sec)
Heartbeat CPU 0 instructions: 158500814 cycles: 93699741 heartbeat IPC: 1.67 cumulative IPC: 1.319 (Simulation time: 00 hr 17 min 27 sec)
Heartbeat CPU 0 instructions: 159000820 cycles: 94010211 heartbeat IPC: 1.61 cumulative IPC: 1.32 (Simulation time: 00 hr 17 min 30 sec)
Heartbeat CPU 0 instructions: 159500820 cycles: 94260454 heartbeat IPC: 1.998 cumulative IPC: 1.322 (Simulation time: 00 hr 17 min 33 sec)
Heartbeat CPU 0 instructions: 160000820 cycles: 94533490 heartbeat IPC: 1.831 cumulative IPC: 1.324 (Simulation time: 00 hr 17 min 37 sec)
Heartbeat CPU 0 instructions: 160500823 cycles: 94849058 heartbeat IPC: 1.584 cumulative IPC: 1.325 (Simulation time: 00 hr 17 min 40 sec)
Heartbeat CPU 0 instructions: 161000823 cycles: 95099554 heartbeat IPC: 1.996 cumulative IPC: 1.327 (Simulation time: 00 hr 17 min 44 sec)
Heartbeat CPU 0 instructions: 161500830 cycles: 95422847 heartbeat IPC: 1.547 cumulative IPC: 1.328 (Simulation time: 00 hr 17 min 48 sec)
Heartbeat CPU 0 instructions: 162000834 cycles: 96016732 heartbeat IPC: 0.8419 cumulative IPC: 1.324 (Simulation time: 00 hr 17 min 53 sec)
Heartbeat CPU 0 instructions: 162500839 cycles: 96386815 heartbeat IPC: 1.351 cumulative IPC: 1.325 (Simulation time: 00 hr 17 min 57 sec)
Heartbeat CPU 0 instructions: 163000841 cycles: 96837401 heartbeat IPC: 1.11 cumulative IPC: 1.323 (Simulation time: 00 hr 18 min 01 sec)
Heartbeat CPU 0 instructions: 163500841 cycles: 97166587 heartbeat IPC: 1.519 cumulative IPC: 1.324 (Simulation time: 00 hr 18 min 05 sec)
Heartbeat CPU 0 instructions: 164000841 cycles: 97497477 heartbeat IPC: 1.511 cumulative IPC: 1.325 (Simulation time: 00 hr 18 min 09 sec)
Heartbeat CPU 0 instructions: 164500842 cycles: 97805745 heartbeat IPC: 1.622 cumulative IPC: 1.326 (Simulation time: 00 hr 18 min 12 sec)
Heartbeat CPU 0 instructions: 165000843 cycles: 98894603 heartbeat IPC: 0.4592 cumulative IPC: 1.315 (Simulation time: 00 hr 18 min 22 sec)
Heartbeat CPU 0 instructions: 165500843 cycles: 99264182 heartbeat IPC: 1.353 cumulative IPC: 1.315 (Simulation time: 00 hr 18 min 27 sec)
Heartbeat CPU 0 instructions: 166000843 cycles: 99716725 heartbeat IPC: 1.105 cumulative IPC: 1.314 (Simulation time: 00 hr 18 min 32 sec)
Heartbeat CPU 0 instructions: 166500845 cycles: 100359381 heartbeat IPC: 0.778 cumulative IPC: 1.31 (Simulation time: 00 hr 18 min 38 sec)
Heartbeat CPU 0 instructions: 167000851 cycles: 101085667 heartbeat IPC: 0.6884 cumulative IPC: 1.305 (Simulation time: 00 hr 18 min 44 sec)
Heartbeat CPU 0 instructions: 167500854 cycles: 101592933 heartbeat IPC: 0.9857 cumulative IPC: 1.303 (Simulation time: 00 hr 18 min 49 sec)
Heartbeat CPU 0 instructions: 168000861 cycles: 102284390 heartbeat IPC: 0.7231 cumulative IPC: 1.299 (Simulation time: 00 hr 18 min 56 sec)
Heartbeat CPU 0 instructions: 168500863 cycles: 103476233 heartbeat IPC: 0.4195 cumulative IPC: 1.288 (Simulation time: 00 hr 19 min 06 sec)
Heartbeat CPU 0 instructions: 169000864 cycles: 105116673 heartbeat IPC: 0.3048 cumulative IPC: 1.27 (Simulation time: 00 hr 19 min 18 sec)
Heartbeat CPU 0 instructions: 169500864 cycles: 106406755 heartbeat IPC: 0.3876 cumulative IPC: 1.258 (Simulation time: 00 hr 19 min 28 sec)
Heartbeat CPU 0 instructions: 170000864 cycles: 107103374 heartbeat IPC: 0.7178 cumulative IPC: 1.255 (Simulation time: 00 hr 19 min 34 sec)
Heartbeat CPU 0 instructions: 170500865 cycles: 108624462 heartbeat IPC: 0.3287 cumulative IPC: 1.24 (Simulation time: 00 hr 19 min 45 sec)
Heartbeat CPU 0 instructions: 171000867 cycles: 110548511 heartbeat IPC: 0.2599 cumulative IPC: 1.221 (Simulation time: 00 hr 19 min 59 sec)
Heartbeat CPU 0 instructions: 171500867 cycles: 112311404 heartbeat IPC: 0.2836 cumulative IPC: 1.205 (Simulation time: 00 hr 20 min 11 sec)
Heartbeat CPU 0 instructions: 172000867 cycles: 113422811 heartbeat IPC: 0.4499 cumulative IPC: 1.196 (Simulation time: 00 hr 20 min 19 sec)
Heartbeat CPU 0 instructions: 172500871 cycles: 113865527 heartbeat IPC: 1.129 cumulative IPC: 1.196 (Simulation time: 00 hr 20 min 23 sec)
Heartbeat CPU 0 instructions: 173000871 cycles: 114187903 heartbeat IPC: 1.551 cumulative IPC: 1.197 (Simulation time: 00 hr 20 min 27 sec)
Heartbeat CPU 0 instructions: 173500874 cycles: 114517981 heartbeat IPC: 1.515 cumulative IPC: 1.198 (Simulation time: 00 hr 20 min 30 sec)
Heartbeat CPU 0 instructions: 174000875 cycles: 114850598 heartbeat IPC: 1.503 cumulative IPC: 1.199 (Simulation time: 00 hr 20 min 34 sec)
Heartbeat CPU 0 instructions: 174500879 cycles: 115152866 heartbeat IPC: 1.654 cumulative IPC: 1.201 (Simulation time: 00 hr 20 min 37 sec)
Heartbeat CPU 0 instructions: 175000880 cycles: 115474411 heartbeat IPC: 1.555 cumulative IPC: 1.202 (Simulation time: 00 hr 20 min 40 sec)
Heartbeat CPU 0 instructions: 175500880 cycles: 115852517 heartbeat IPC: 1.322 cumulative IPC: 1.202 (Simulation time: 00 hr 20 min 44 sec)
Heartbeat CPU 0 instructions: 176000882 cycles: 116219414 heartbeat IPC: 1.363 cumulative IPC: 1.203 (Simulation time: 00 hr 20 min 48 sec)
Heartbeat CPU 0 instructions: 176500885 cycles: 116557847 heartbeat IPC: 1.477 cumulative IPC: 1.204 (Simulation time: 00 hr 20 min 51 sec)
Heartbeat CPU 0 instructions: 177000891 cycles: 116910012 heartbeat IPC: 1.42 cumulative IPC: 1.204 (Simulation time: 00 hr 20 min 55 sec)
Heartbeat CPU 0 instructions: 177500893 cycles: 117198105 heartbeat IPC: 1.736 cumulative IPC: 1.206 (Simulation time: 00 hr 20 min 58 sec)
Heartbeat CPU 0 instructions: 178000893 cycles: 117605828 heartbeat IPC: 1.226 cumulative IPC: 1.206 (Simulation time: 00 hr 21 min 02 sec)
Heartbeat CPU 0 instructions: 178500895 cycles: 117960686 heartbeat IPC: 1.409 cumulative IPC: 1.206 (Simulation time: 00 hr 21 min 05 sec)
Heartbeat CPU 0 instructions: 179000899 cycles: 118332511 heartbeat IPC: 1.345 cumulative IPC: 1.207 (Simulation time: 00 hr 21 min 09 sec)
Heartbeat CPU 0 instructions: 179500900 cycles: 118783684 heartbeat IPC: 1.108 cumulative IPC: 1.207 (Simulation time: 00 hr 21 min 13 sec)
Heartbeat CPU 0 instructions: 180000900 cycles: 119084831 heartbeat IPC: 1.66 cumulative IPC: 1.208 (Simulation time: 00 hr 21 min 17 sec)
Heartbeat CPU 0 instructions: 180500905 cycles: 119334020 heartbeat IPC: 2.007 cumulative IPC: 1.21 (Simulation time: 00 hr 21 min 20 sec)
Heartbeat CPU 0 instructions: 181000911 cycles: 119579574 heartbeat IPC: 2.036 cumulative IPC: 1.212 (Simulation time: 00 hr 21 min 22 sec)
Heartbeat CPU 0 instructions: 181500913 cycles: 119821602 heartbeat IPC: 2.066 cumulative IPC: 1.213 (Simulation time: 00 hr 21 min 25 sec)
Heartbeat CPU 0 instructions: 182000917 cycles: 120063916 heartbeat IPC: 2.063 cumulative IPC: 1.215 (Simulation time: 00 hr 21 min 28 sec)
Heartbeat CPU 0 instructions: 182500924 cycles: 120338516 heartbeat IPC: 1.821 cumulative IPC: 1.217 (Simulation time: 00 hr 21 min 31 sec)
Heartbeat CPU 0 instructions: 183000928 cycles: 120585287 heartbeat IPC: 2.026 cumulative IPC: 1.219 (Simulation time: 00 hr 21 min 34 sec)
Heartbeat CPU 0 instructions: 183500930 cycles: 120821835 heartbeat IPC: 2.114 cumulative IPC: 1.221 (Simulation time: 00 hr 21 min 37 sec)
Heartbeat CPU 0 instructions: 184000932 cycles: 121049360 heartbeat IPC: 2.198 cumulative IPC: 1.223 (Simulation time: 00 hr 21 min 40 sec)
Heartbeat CPU 0 instructions: 184500933 cycles: 121277344 heartbeat IPC: 2.193 cumulative IPC: 1.225 (Simulation time: 00 hr 21 min 43 sec)
Heartbeat CPU 0 instructions: 185000934 cycles: 121630859 heartbeat IPC: 1.414 cumulative IPC: 1.225 (Simulation time: 00 hr 21 min 47 sec)
Heartbeat CPU 0 instructions: 185500935 cycles: 121926539 heartbeat IPC: 1.691 cumulative IPC: 1.227 (Simulation time: 00 hr 21 min 50 sec)
Heartbeat CPU 0 instructions: 186000939 cycles: 122191592 heartbeat IPC: 1.886 cumulative IPC: 1.228 (Simulation time: 00 hr 21 min 53 sec)
Heartbeat CPU 0 instructions: 186500939 cycles: 122516515 heartbeat IPC: 1.539 cumulative IPC: 1.229 (Simulation time: 00 hr 21 min 57 sec)
Heartbeat CPU 0 instructions: 187000940 cycles: 122952568 heartbeat IPC: 1.147 cumulative IPC: 1.229 (Simulation time: 00 hr 22 min 01 sec)
Heartbeat CPU 0 instructions: 187500942 cycles: 123473601 heartbeat IPC: 0.9596 cumulative IPC: 1.227 (Simulation time: 00 hr 22 min 06 sec)
Heartbeat CPU 0 instructions: 188000944 cycles: 123779997 heartbeat IPC: 1.632 cumulative IPC: 1.229 (Simulation time: 00 hr 22 min 08 sec)
Heartbeat CPU 0 instructions: 188500945 cycles: 124068495 heartbeat IPC: 1.733 cumulative IPC: 1.23 (Simulation time: 00 hr 22 min 11 sec)
Heartbeat CPU 0 instructions: 189000947 cycles: 124370401 heartbeat IPC: 1.656 cumulative IPC: 1.231 (Simulation time: 00 hr 22 min 14 sec)
Heartbeat CPU 0 instructions: 189500949 cycles: 124634937 heartbeat IPC: 1.89 cumulative IPC: 1.232 (Simulation time: 00 hr 22 min 16 sec)
Heartbeat CPU 0 instructions: 190000950 cycles: 124890522 heartbeat IPC: 1.956 cumulative IPC: 1.234 (Simulation time: 00 hr 22 min 18 sec)
Heartbeat CPU 0 instructions: 190500950 cycles: 125477598 heartbeat IPC: 0.8517 cumulative IPC: 1.232 (Simulation time: 00 hr 22 min 24 sec)
Heartbeat CPU 0 instructions: 191000951 cycles: 125841426 heartbeat IPC: 1.374 cumulative IPC: 1.233 (Simulation time: 00 hr 22 min 28 sec)
Heartbeat CPU 0 instructions: 191500952 cycles: 126149208 heartbeat IPC: 1.625 cumulative IPC: 1.234 (Simulation time: 00 hr 22 min 31 sec)
Heartbeat CPU 0 instructions: 192000956 cycles: 126413798 heartbeat IPC: 1.89 cumulative IPC: 1.235 (Simulation time: 00 hr 22 min 34 sec)
Heartbeat CPU 0 instructions: 192500961 cycles: 126652382 heartbeat IPC: 2.096 cumulative IPC: 1.237 (Simulation time: 00 hr 22 min 38 sec)
Heartbeat CPU 0 instructions: 193000967 cycles: 126887057 heartbeat IPC: 2.131 cumulative IPC: 1.239 (Simulation time: 00 hr 22 min 41 sec)
Heartbeat CPU 0 instructions: 193500969 cycles: 127171970 heartbeat IPC: 1.755 cumulative IPC: 1.24 (Simulation time: 00 hr 22 min 44 sec)
Heartbeat CPU 0 instructions: 194000976 cycles: 127447111 heartbeat IPC: 1.817 cumulative IPC: 1.241 (Simulation time: 00 hr 22 min 47 sec)
Heartbeat CPU 0 instructions: 194500977 cycles: 127758479 heartbeat IPC: 1.606 cumulative IPC: 1.242 (Simulation time: 00 hr 22 min 51 sec)
Heartbeat CPU 0 instructions: 195000982 cycles: 128067627 heartbeat IPC: 1.617 cumulative IPC: 1.243 (Simulation time: 00 hr 22 min 54 sec)
Heartbeat CPU 0 instructions: 195500982 cycles: 128365177 heartbeat IPC: 1.68 cumulative IPC: 1.244 (Simulation time: 00 hr 22 min 57 sec)
Heartbeat CPU 0 instructions: 196000983 cycles: 128594272 heartbeat IPC: 2.183 cumulative IPC: 1.246 (Simulation time: 00 hr 23 min 01 sec)
Heartbeat CPU 0 instructions: 196500984 cycles: 128971103 heartbeat IPC: 1.327 cumulative IPC: 1.247 (Simulation time: 00 hr 23 min 04 sec)
Heartbeat CPU 0 instructions: 197000986 cycles: 129264904 heartbeat IPC: 1.702 cumulative IPC: 1.248 (Simulation time: 00 hr 23 min 08 sec)
Heartbeat CPU 0 instructions: 197500987 cycles: 129636707 heartbeat IPC: 1.345 cumulative IPC: 1.248 (Simulation time: 00 hr 23 min 11 sec)
Heartbeat CPU 0 instructions: 198000989 cycles: 130043405 heartbeat IPC: 1.229 cumulative IPC: 1.248 (Simulation time: 00 hr 23 min 15 sec)
Heartbeat CPU 0 instructions: 198500996 cycles: 130349859 heartbeat IPC: 1.632 cumulative IPC: 1.249 (Simulation time: 00 hr 23 min 19 sec)
Heartbeat CPU 0 instructions: 199000996 cycles: 130693251 heartbeat IPC: 1.456 cumulative IPC: 1.25 (Simulation time: 00 hr 23 min 23 sec)
Heartbeat CPU 0 instructions: 199500998 cycles: 131044546 heartbeat IPC: 1.423 cumulative IPC: 1.25 (Simulation time: 00 hr 23 min 26 sec)
Heartbeat CPU 0 instructions: 200001000 cycles: 131389115 heartbeat IPC: 1.451 cumulative IPC: 1.251 (Simulation time: 00 hr 23 min 30 sec)
Heartbeat CPU 0 instructions: 200501000 cycles: 131738160 heartbeat IPC: 1.432 cumulative IPC: 1.251 (Simulation time: 00 hr 23 min 33 sec)
Heartbeat CPU 0 instructions: 201001002 cycles: 132067376 heartbeat IPC: 1.519 cumulative IPC: 1.252 (Simulation time: 00 hr 23 min 37 sec)
Heartbeat CPU 0 instructions: 201501002 cycles: 132550341 heartbeat IPC: 1.035 cumulative IPC: 1.251 (Simulation time: 00 hr 23 min 41 sec)
Heartbeat CPU 0 instructions: 202001004 cycles: 132871006 heartbeat IPC: 1.559 cumulative IPC: 1.252 (Simulation time: 00 hr 23 min 45 sec)
Heartbeat CPU 0 instructions: 202501009 cycles: 133225360 heartbeat IPC: 1.411 cumulative IPC: 1.252 (Simulation time: 00 hr 23 min 49 sec)
Heartbeat CPU 0 instructions: 203001011 cycles: 133482177 heartbeat IPC: 1.947 cumulative IPC: 1.254 (Simulation time: 00 hr 23 min 52 sec)
Heartbeat CPU 0 instructions: 203501011 cycles: 133699959 heartbeat IPC: 2.296 cumulative IPC: 1.256 (Simulation time: 00 hr 23 min 55 sec)
Heartbeat CPU 0 instructions: 204001013 cycles: 134016214 heartbeat IPC: 1.581 cumulative IPC: 1.256 (Simulation time: 00 hr 23 min 58 sec)
Heartbeat CPU 0 instructions: 204501018 cycles: 134269374 heartbeat IPC: 1.975 cumulative IPC: 1.258 (Simulation time: 00 hr 24 min 02 sec)
Heartbeat CPU 0 instructions: 205001019 cycles: 134740519 heartbeat IPC: 1.061 cumulative IPC: 1.257 (Simulation time: 00 hr 24 min 06 sec)
Heartbeat CPU 0 instructions: 205501022 cycles: 134991784 heartbeat IPC: 1.99 cumulative IPC: 1.259 (Simulation time: 00 hr 24 min 09 sec)
Heartbeat CPU 0 instructions: 206001022 cycles: 135241003 heartbeat IPC: 2.006 cumulative IPC: 1.26 (Simulation time: 00 hr 24 min 12 sec)
Heartbeat CPU 0 instructions: 206501022 cycles: 135507782 heartbeat IPC: 1.874 cumulative IPC: 1.262 (Simulation time: 00 hr 24 min 15 sec)
Heartbeat CPU 0 instructions: 207001023 cycles: 135757987 heartbeat IPC: 1.998 cumulative IPC: 1.263 (Simulation time: 00 hr 24 min 18 sec)
Heartbeat CPU 0 instructions: 207501030 cycles: 135998081 heartbeat IPC: 2.083 cumulative IPC: 1.265 (Simulation time: 00 hr 24 min 20 sec)
Heartbeat CPU 0 instructions: 208001030 cycles: 136250763 heartbeat IPC: 1.979 cumulative IPC: 1.266 (Simulation time: 00 hr 24 min 23 sec)
Heartbeat CPU 0 instructions: 208501032 cycles: 136560147 heartbeat IPC: 1.616 cumulative IPC: 1.267 (Simulation time: 00 hr 24 min 27 sec)
Heartbeat CPU 0 instructions: 209001034 cycles: 136820000 heartbeat IPC: 1.924 cumulative IPC: 1.268 (Simulation time: 00 hr 24 min 29 sec)
Heartbeat CPU 0 instructions: 209501035 cycles: 137133743 heartbeat IPC: 1.594 cumulative IPC: 1.269 (Simulation time: 00 hr 24 min 33 sec)
Heartbeat CPU 0 instructions: 210001042 cycles: 137395192 heartbeat IPC: 1.912 cumulative IPC: 1.27 (Simulation time: 00 hr 24 min 36 sec)
Heartbeat CPU 0 instructions: 210501049 cycles: 137632777 heartbeat IPC: 2.105 cumulative IPC: 1.272 (Simulation time: 00 hr 24 min 39 sec)
Heartbeat CPU 0 instructions: 211001055 cycles: 137878948 heartbeat IPC: 2.031 cumulative IPC: 1.273 (Simulation time: 00 hr 24 min 42 sec)
Heartbeat CPU 0 instructions: 211501056 cycles: 138361946 heartbeat IPC: 1.035 cumulative IPC: 1.273 (Simulation time: 00 hr 24 min 46 sec)
Heartbeat CPU 0 instructions: 212001057 cycles: 138651093 heartbeat IPC: 1.729 cumulative IPC: 1.274 (Simulation time: 00 hr 24 min 48 sec)
Heartbeat CPU 0 instructions: 212501057 cycles: 138956520 heartbeat IPC: 1.637 cumulative IPC: 1.274 (Simulation time: 00 hr 24 min 51 sec)
Heartbeat CPU 0 instructions: 213001059 cycles: 139255536 heartbeat IPC: 1.672 cumulative IPC: 1.275 (Simulation time: 00 hr 24 min 53 sec)
Heartbeat CPU 0 instructions: 213501061 cycles: 139502651 heartbeat IPC: 2.023 cumulative IPC: 1.277 (Simulation time: 00 hr 24 min 56 sec)
Heartbeat CPU 0 instructions: 214001065 cycles: 139766119 heartbeat IPC: 1.898 cumulative IPC: 1.278 (Simulation time: 00 hr 24 min 58 sec)
Heartbeat CPU 0 instructions: 214501065 cycles: 140234453 heartbeat IPC: 1.068 cumulative IPC: 1.277 (Simulation time: 00 hr 25 min 03 sec)
Heartbeat CPU 0 instructions: 215001069 cycles: 140491286 heartbeat IPC: 1.947 cumulative IPC: 1.279 (Simulation time: 00 hr 25 min 06 sec)
Heartbeat CPU 0 instructions: 215501069 cycles: 140993880 heartbeat IPC: 0.9948 cumulative IPC: 1.278 (Simulation time: 00 hr 25 min 11 sec)
Heartbeat CPU 0 instructions: 216001069 cycles: 141263521 heartbeat IPC: 1.854 cumulative IPC: 1.279 (Simulation time: 00 hr 25 min 14 sec)
Heartbeat CPU 0 instructions: 216501070 cycles: 141565569 heartbeat IPC: 1.655 cumulative IPC: 1.28 (Simulation time: 00 hr 25 min 17 sec)
Heartbeat CPU 0 instructions: 217001073 cycles: 141903638 heartbeat IPC: 1.479 cumulative IPC: 1.28 (Simulation time: 00 hr 25 min 21 sec)
Heartbeat CPU 0 instructions: 217501077 cycles: 142291591 heartbeat IPC: 1.289 cumulative IPC: 1.28 (Simulation time: 00 hr 25 min 24 sec)
Heartbeat CPU 0 instructions: 218001079 cycles: 142578883 heartbeat IPC: 1.74 cumulative IPC: 1.281 (Simulation time: 00 hr 25 min 27 sec)
Heartbeat CPU 0 instructions: 218501079 cycles: 142873607 heartbeat IPC: 1.697 cumulative IPC: 1.282 (Simulation time: 00 hr 25 min 29 sec)
Heartbeat CPU 0 instructions: 219001079 cycles: 143547127 heartbeat IPC: 0.7424 cumulative IPC: 1.279 (Simulation time: 00 hr 25 min 35 sec)
Heartbeat CPU 0 instructions: 219501081 cycles: 143886007 heartbeat IPC: 1.475 cumulative IPC: 1.28 (Simulation time: 00 hr 25 min 38 sec)
Heartbeat CPU 0 instructions: 220001081 cycles: 144128613 heartbeat IPC: 2.061 cumulative IPC: 1.281 (Simulation time: 00 hr 25 min 40 sec)
Heartbeat CPU 0 instructions: 220501083 cycles: 144359319 heartbeat IPC: 2.167 cumulative IPC: 1.283 (Simulation time: 00 hr 25 min 42 sec)
Heartbeat CPU 0 instructions: 221001083 cycles: 144762805 heartbeat IPC: 1.239 cumulative IPC: 1.283 (Simulation time: 00 hr 25 min 46 sec)
Heartbeat CPU 0 instructions: 221501086 cycles: 145053260 heartbeat IPC: 1.721 cumulative IPC: 1.284 (Simulation time: 00 hr 25 min 50 sec)
Heartbeat CPU 0 instructions: 222001086 cycles: 145373923 heartbeat IPC: 1.559 cumulative IPC: 1.284 (Simulation time: 00 hr 25 min 53 sec)
Heartbeat CPU 0 instructions: 222501086 cycles: 145679576 heartbeat IPC: 1.636 cumulative IPC: 1.285 (Simulation time: 00 hr 25 min 56 sec)
Heartbeat CPU 0 instructions: 223001088 cycles: 145964184 heartbeat IPC: 1.757 cumulative IPC: 1.286 (Simulation time: 00 hr 26 min 00 sec)
Heartbeat CPU 0 instructions: 223501091 cycles: 146199114 heartbeat IPC: 2.128 cumulative IPC: 1.288 (Simulation time: 00 hr 26 min 03 sec)
Heartbeat CPU 0 instructions: 224001096 cycles: 146424857 heartbeat IPC: 2.215 cumulative IPC: 1.289 (Simulation time: 00 hr 26 min 06 sec)
Heartbeat CPU 0 instructions: 224501098 cycles: 146695746 heartbeat IPC: 1.846 cumulative IPC: 1.29 (Simulation time: 00 hr 26 min 09 sec)
Heartbeat CPU 0 instructions: 225001103 cycles: 146965011 heartbeat IPC: 1.857 cumulative IPC: 1.291 (Simulation time: 00 hr 26 min 12 sec)
Heartbeat CPU 0 instructions: 225501105 cycles: 147230701 heartbeat IPC: 1.882 cumulative IPC: 1.293 (Simulation time: 00 hr 26 min 15 sec)
Heartbeat CPU 0 instructions: 226001112 cycles: 147556695 heartbeat IPC: 1.534 cumulative IPC: 1.293 (Simulation time: 00 hr 26 min 18 sec)
Heartbeat CPU 0 instructions: 226501116 cycles: 147820112 heartbeat IPC: 1.898 cumulative IPC: 1.294 (Simulation time: 00 hr 26 min 21 sec)
Heartbeat CPU 0 instructions: 227001123 cycles: 148097511 heartbeat IPC: 1.802 cumulative IPC: 1.295 (Simulation time: 00 hr 26 min 24 sec)
Heartbeat CPU 0 instructions: 227501125 cycles: 148347782 heartbeat IPC: 1.998 cumulative IPC: 1.297 (Simulation time: 00 hr 26 min 27 sec)
Heartbeat CPU 0 instructions: 228001127 cycles: 148669635 heartbeat IPC: 1.554 cumulative IPC: 1.297 (Simulation time: 00 hr 26 min 31 sec)
Heartbeat CPU 0 instructions: 228501128 cycles: 148975717 heartbeat IPC: 1.634 cumulative IPC: 1.298 (Simulation time: 00 hr 26 min 34 sec)
Heartbeat CPU 0 instructions: 229001129 cycles: 149244548 heartbeat IPC: 1.86 cumulative IPC: 1.299 (Simulation time: 00 hr 26 min 37 sec)
Heartbeat CPU 0 instructions: 229501131 cycles: 149532406 heartbeat IPC: 1.737 cumulative IPC: 1.3 (Simulation time: 00 hr 26 min 40 sec)
Heartbeat CPU 0 instructions: 230001131 cycles: 150453275 heartbeat IPC: 0.543 cumulative IPC: 1.295 (Simulation time: 00 hr 26 min 48 sec)
Heartbeat CPU 0 instructions: 230501136 cycles: 150747816 heartbeat IPC: 1.698 cumulative IPC: 1.296 (Simulation time: 00 hr 26 min 51 sec)
Heartbeat CPU 0 instructions: 231001136 cycles: 150996369 heartbeat IPC: 2.012 cumulative IPC: 1.297 (Simulation time: 00 hr 26 min 55 sec)
Heartbeat CPU 0 instructions: 231501139 cycles: 151425537 heartbeat IPC: 1.165 cumulative IPC: 1.297 (Simulation time: 00 hr 26 min 59 sec)
Heartbeat CPU 0 instructions: 232001141 cycles: 151755020 heartbeat IPC: 1.518 cumulative IPC: 1.297 (Simulation time: 00 hr 27 min 02 sec)
Heartbeat CPU 0 instructions: 232501141 cycles: 152058971 heartbeat IPC: 1.645 cumulative IPC: 1.298 (Simulation time: 00 hr 27 min 05 sec)
Heartbeat CPU 0 instructions: 233001147 cycles: 152372624 heartbeat IPC: 1.594 cumulative IPC: 1.299 (Simulation time: 00 hr 27 min 09 sec)
Heartbeat CPU 0 instructions: 233501151 cycles: 152776998 heartbeat IPC: 1.236 cumulative IPC: 1.298 (Simulation time: 00 hr 27 min 12 sec)
Heartbeat CPU 0 instructions: 234001153 cycles: 153193666 heartbeat IPC: 1.2 cumulative IPC: 1.298 (Simulation time: 00 hr 27 min 16 sec)
Heartbeat CPU 0 instructions: 234501159 cycles: 153519578 heartbeat IPC: 1.534 cumulative IPC: 1.299 (Simulation time: 00 hr 27 min 20 sec)
Heartbeat CPU 0 instructions: 235001161 cycles: 153794731 heartbeat IPC: 1.817 cumulative IPC: 1.3 (Simulation time: 00 hr 27 min 23 sec)
Heartbeat CPU 0 instructions: 235501165 cycles: 154085133 heartbeat IPC: 1.722 cumulative IPC: 1.301 (Simulation time: 00 hr 27 min 26 sec)
Heartbeat CPU 0 instructions: 236001165 cycles: 154452587 heartbeat IPC: 1.361 cumulative IPC: 1.301 (Simulation time: 00 hr 27 min 30 sec)
Heartbeat CPU 0 instructions: 236501169 cycles: 154789080 heartbeat IPC: 1.486 cumulative IPC: 1.301 (Simulation time: 00 hr 27 min 33 sec)
Heartbeat CPU 0 instructions: 237001170 cycles: 155813975 heartbeat IPC: 0.4879 cumulative IPC: 1.295 (Simulation time: 00 hr 27 min 42 sec)
Heartbeat CPU 0 instructions: 237501170 cycles: 156599787 heartbeat IPC: 0.6363 cumulative IPC: 1.292 (Simulation time: 00 hr 27 min 49 sec)
Heartbeat CPU 0 instructions: 238001174 cycles: 156893138 heartbeat IPC: 1.704 cumulative IPC: 1.293 (Simulation time: 00 hr 27 min 51 sec)
Heartbeat CPU 0 instructions: 238501174 cycles: 157172198 heartbeat IPC: 1.792 cumulative IPC: 1.294 (Simulation time: 00 hr 27 min 54 sec)
Heartbeat CPU 0 instructions: 239001176 cycles: 157461374 heartbeat IPC: 1.729 cumulative IPC: 1.294 (Simulation time: 00 hr 27 min 56 sec)
Heartbeat CPU 0 instructions: 239501176 cycles: 157707845 heartbeat IPC: 2.029 cumulative IPC: 1.296 (Simulation time: 00 hr 27 min 58 sec)
Heartbeat CPU 0 instructions: 240001179 cycles: 157946364 heartbeat IPC: 2.096 cumulative IPC: 1.297 (Simulation time: 00 hr 28 min 01 sec)
Heartbeat CPU 0 instructions: 240501181 cycles: 159019921 heartbeat IPC: 0.4657 cumulative IPC: 1.291 (Simulation time: 00 hr 28 min 10 sec)
Heartbeat CPU 0 instructions: 241001182 cycles: 160051991 heartbeat IPC: 0.4845 cumulative IPC: 1.285 (Simulation time: 00 hr 28 min 18 sec)
Heartbeat CPU 0 instructions: 241501188 cycles: 160588217 heartbeat IPC: 0.9325 cumulative IPC: 1.284 (Simulation time: 00 hr 28 min 23 sec)
Heartbeat CPU 0 instructions: 242001190 cycles: 161157879 heartbeat IPC: 0.8777 cumulative IPC: 1.282 (Simulation time: 00 hr 28 min 29 sec)
Heartbeat CPU 0 instructions: 242501191 cycles: 161760589 heartbeat IPC: 0.8296 cumulative IPC: 1.281 (Simulation time: 00 hr 28 min 35 sec)
Heartbeat CPU 0 instructions: 243001191 cycles: 162389081 heartbeat IPC: 0.7956 cumulative IPC: 1.279 (Simulation time: 00 hr 28 min 41 sec)
Heartbeat CPU 0 instructions: 243501191 cycles: 163045008 heartbeat IPC: 0.7623 cumulative IPC: 1.276 (Simulation time: 00 hr 28 min 48 sec)
Heartbeat CPU 0 instructions: 244001192 cycles: 164178112 heartbeat IPC: 0.4413 cumulative IPC: 1.27 (Simulation time: 00 hr 28 min 58 sec)
Heartbeat CPU 0 instructions: 244501199 cycles: 164875361 heartbeat IPC: 0.7171 cumulative IPC: 1.268 (Simulation time: 00 hr 29 min 03 sec)
Heartbeat CPU 0 instructions: 245001199 cycles: 165234308 heartbeat IPC: 1.393 cumulative IPC: 1.268 (Simulation time: 00 hr 29 min 07 sec)
Heartbeat CPU 0 instructions: 245501201 cycles: 165469289 heartbeat IPC: 2.128 cumulative IPC: 1.269 (Simulation time: 00 hr 29 min 10 sec)
Heartbeat CPU 0 instructions: 246001207 cycles: 165858106 heartbeat IPC: 1.286 cumulative IPC: 1.269 (Simulation time: 00 hr 29 min 14 sec)
Heartbeat CPU 0 instructions: 246501208 cycles: 166198858 heartbeat IPC: 1.467 cumulative IPC: 1.27 (Simulation time: 00 hr 29 min 18 sec)
Heartbeat CPU 0 instructions: 247001208 cycles: 166506649 heartbeat IPC: 1.624 cumulative IPC: 1.271 (Simulation time: 00 hr 29 min 21 sec)
Heartbeat CPU 0 instructions: 247501208 cycles: 166774554 heartbeat IPC: 1.866 cumulative IPC: 1.272 (Simulation time: 00 hr 29 min 24 sec)
Heartbeat CPU 0 instructions: 248001209 cycles: 167221038 heartbeat IPC: 1.12 cumulative IPC: 1.271 (Simulation time: 00 hr 29 min 28 sec)
Heartbeat CPU 0 instructions: 248501210 cycles: 167511398 heartbeat IPC: 1.722 cumulative IPC: 1.272 (Simulation time: 00 hr 29 min 30 sec)
Heartbeat CPU 0 instructions: 249001210 cycles: 167791818 heartbeat IPC: 1.783 cumulative IPC: 1.273 (Simulation time: 00 hr 29 min 33 sec)
Heartbeat CPU 0 instructions: 249501210 cycles: 168084520 heartbeat IPC: 1.708 cumulative IPC: 1.274 (Simulation time: 00 hr 29 min 35 sec)
Simulation finished CPU 0 instructions: 200000000 cycles: 156882970 cumulative IPC: 1.275 (Simulation time: 00 hr 29 min 37 sec)
Simulation complete CPU 0 instructions: 200000000 cycles: 156882970 cumulative IPC: 1.275 (Simulation time: 00 hr 29 min 37 sec)

ChampSim completed all CPUs

=== Simulation ===
CPU 0 runs /local-ssd/ben/dpc4-traces/gtraces_v2/charlie_0000.champsim.gz

Region of Interest Statistics

CPU 0 cumulative IPC: 1.275 instructions: 200000000 cycles: 156882970
CPU 0 Branch Prediction Accuracy: 94.35% MPKI: 11.62 Average ROB Occupancy at Mispredict: 38.66
Branch type MPKI
BRANCH_DIRECT_JUMP: 0.13
BRANCH_INDIRECT: 0.322
BRANCH_CONDITIONAL: 10.67
BRANCH_DIRECT_CALL: 0.07052
BRANCH_INDIRECT_CALL: 0.322
BRANCH_RETURN: 0.1003

cpu0->cpu0_STLB TOTAL        ACCESS:     321668 HIT:     235869 MISS:      85799 MSHR_MERGE:          0
cpu0->cpu0_STLB LOAD         ACCESS:     321668 HIT:     235869 MISS:      85799 MSHR_MERGE:          0
cpu0->cpu0_STLB RFO          ACCESS:          0 HIT:          0 MISS:          0 MSHR_MERGE:          0
cpu0->cpu0_STLB PREFETCH     ACCESS:          0 HIT:          0 MISS:          0 MSHR_MERGE:          0
cpu0->cpu0_STLB WRITE        ACCESS:          0 HIT:          0 MISS:          0 MSHR_MERGE:          0
cpu0->cpu0_STLB TRANSLATION  ACCESS:          0 HIT:          0 MISS:          0 MSHR_MERGE:          0
cpu0->cpu0_STLB PREFETCH REQUESTED:          0 ISSUED:          0 USEFUL:          0 USELESS:          0
cpu0->cpu0_STLB AVERAGE MISS LATENCY: 270.3 cycles
cpu0->cpu0_L2C TOTAL        ACCESS:    5603226 HIT:    3979519 MISS:    1623707 MSHR_MERGE:     413749
cpu0->cpu0_L2C LOAD         ACCESS:     954453 HIT:     741825 MISS:     212628 MSHR_MERGE:       7180
cpu0->cpu0_L2C RFO          ACCESS:     363312 HIT:     156799 MISS:     206513 MSHR_MERGE:      10016
cpu0->cpu0_L2C PREFETCH     ACCESS:    3458774 HIT:    2303346 MISS:    1155428 MSHR_MERGE:     396553
cpu0->cpu0_L2C WRITE        ACCESS:     737291 HIT:     737273 MISS:         18 MSHR_MERGE:          0
cpu0->cpu0_L2C TRANSLATION  ACCESS:      89396 HIT:      40276 MISS:      49120 MSHR_MERGE:          0
cpu0->cpu0_L2C PREFETCH REQUESTED:    2915980 ISSUED:    2847991 USEFUL:     505783 USELESS:     149029
cpu0->cpu0_L2C AVERAGE MISS LATENCY: 256.3 cycles
cpu0->cpu0_L1I TOTAL        ACCESS:   12688120 HIT:   11907334 MISS:     780786 MSHR_MERGE:     200279
cpu0->cpu0_L1I LOAD         ACCESS:   12688120 HIT:   11907334 MISS:     780786 MSHR_MERGE:     200279
cpu0->cpu0_L1I RFO          ACCESS:          0 HIT:          0 MISS:          0 MSHR_MERGE:          0
cpu0->cpu0_L1I PREFETCH     ACCESS:          0 HIT:          0 MISS:          0 MSHR_MERGE:          0
cpu0->cpu0_L1I WRITE        ACCESS:          0 HIT:          0 MISS:          0 MSHR_MERGE:          0
cpu0->cpu0_L1I TRANSLATION  ACCESS:          0 HIT:          0 MISS:          0 MSHR_MERGE:          0
cpu0->cpu0_L1I PREFETCH REQUESTED:          0 ISSUED:          0 USEFUL:          0 USELESS:          0
cpu0->cpu0_L1I AVERAGE MISS LATENCY: 54.48 cycles
cpu0->cpu0_L1D TOTAL        ACCESS:   53304982 HIT:   50367474 MISS:    2937508 MSHR_MERGE:    1500058
cpu0->cpu0_L1D LOAD         ACCESS:   33077596 HIT:   32490093 MISS:     587503 MSHR_MERGE:     213554
cpu0->cpu0_L1D RFO          ACCESS:          0 HIT:          0 MISS:          0 MSHR_MERGE:          0
cpu0->cpu0_L1D PREFETCH     ACCESS:     956086 HIT:     319317 MISS:     636769 MSHR_MERGE:      25982
cpu0->cpu0_L1D WRITE        ACCESS:   19044366 HIT:   17422083 MISS:    1622283 MSHR_MERGE:    1258965
cpu0->cpu0_L1D TRANSLATION  ACCESS:     226934 HIT:     135981 MISS:      90953 MSHR_MERGE:       1557
cpu0->cpu0_L1D PREFETCH REQUESTED:     975570 ISSUED:     956079 USEFUL:     466750 USELESS:     144017
cpu0->cpu0_L1D AVERAGE MISS LATENCY: 121 cycles
cpu0->cpu0_ITLB TOTAL        ACCESS:   10159073 HIT:   10093599 MISS:      65474 MSHR_MERGE:      31579
cpu0->cpu0_ITLB LOAD         ACCESS:   10159073 HIT:   10093599 MISS:      65474 MSHR_MERGE:      31579
cpu0->cpu0_ITLB RFO          ACCESS:          0 HIT:          0 MISS:          0 MSHR_MERGE:          0
cpu0->cpu0_ITLB PREFETCH     ACCESS:          0 HIT:          0 MISS:          0 MSHR_MERGE:          0
cpu0->cpu0_ITLB WRITE        ACCESS:          0 HIT:          0 MISS:          0 MSHR_MERGE:          0
cpu0->cpu0_ITLB TRANSLATION  ACCESS:          0 HIT:          0 MISS:          0 MSHR_MERGE:          0
cpu0->cpu0_ITLB PREFETCH REQUESTED:          0 ISSUED:          0 USEFUL:          0 USELESS:          0
cpu0->cpu0_ITLB AVERAGE MISS LATENCY: 44.7 cycles
cpu0->cpu0_DTLB TOTAL        ACCESS:   50217941 HIT:   49678328 MISS:     539613 MSHR_MERGE:     251840
cpu0->cpu0_DTLB LOAD         ACCESS:   50217941 HIT:   49678328 MISS:     539613 MSHR_MERGE:     251840
cpu0->cpu0_DTLB RFO          ACCESS:          0 HIT:          0 MISS:          0 MSHR_MERGE:          0
cpu0->cpu0_DTLB PREFETCH     ACCESS:          0 HIT:          0 MISS:          0 MSHR_MERGE:          0
cpu0->cpu0_DTLB WRITE        ACCESS:          0 HIT:          0 MISS:          0 MSHR_MERGE:          0
cpu0->cpu0_DTLB TRANSLATION  ACCESS:          0 HIT:          0 MISS:          0 MSHR_MERGE:          0
cpu0->cpu0_DTLB PREFETCH REQUESTED:          0 ISSUED:          0 USEFUL:          0 USELESS:          0
cpu0->cpu0_DTLB AVERAGE MISS LATENCY: 81.21 cycles
cpu0->LLC TOTAL        ACCESS:    1867729 HIT:      78952 MISS:    1788777 MSHR_MERGE:          0
cpu0->LLC LOAD         ACCESS:     205448 HIT:       9492 MISS:     195956 MSHR_MERGE:          0
cpu0->LLC RFO          ACCESS:     196497 HIT:       4402 MISS:     192095 MSHR_MERGE:          0
cpu0->LLC PREFETCH     ACCESS:     758875 HIT:       8694 MISS:     750181 MSHR_MERGE:          0
cpu0->LLC WRITE        ACCESS:     657789 HIT:      54282 MISS:     603507 MSHR_MERGE:          0
cpu0->LLC TRANSLATION  ACCESS:      49120 HIT:       2082 MISS:      47038 MSHR_MERGE:          0
cpu0->LLC PREFETCH REQUESTED:          0 ISSUED:          0 USEFUL:          0 USELESS:          0
cpu0->LLC AVERAGE MISS LATENCY: 112.2 cycles

DRAM Statistics

Channel 0 RQ ROW_BUFFER_HIT:      65630
  ROW_BUFFER_MISS:    1119634
  AVG DBUS CONGESTED CYCLE: 23.05
Channel 0 WQ ROW_BUFFER_HIT:     152403
  ROW_BUFFER_MISS:     494366
  FULL:       1185
Channel 0 REFRESHES ISSUED:      13072
