[VMEM] WARNING: physical memory size is smaller than virtual memory size.

*** ChampSim Multicore Out-of-Order Simulator ***
Warmup Instructions: 50000000
Simulation Instructions: 200000000
Number of CPUs: 1
Page size: 4096
Core 0: /local-ssd/ben/dpc4-traces/ai-ml/llama2.c-stories110M.1.champsimtrace.gz
 L1D Berti prefetcher
 L1D Berti prefetcher
Off-chip DRAM Size: 64 GiB Channels: 1 Width: 64-bit Data Rate: 4807 MT/s
Heartbeat CPU 0 instructions: 500006 cycles: 128605 heartbeat IPC: 3.888 cumulative IPC: 3.888 (Simulation time: 00 hr 00 min 03 sec)
Heartbeat CPU 0 instructions: 1000011 cycles: 255000 heartbeat IPC: 3.956 cumulative IPC: 3.922 (Simulation time: 00 hr 00 min 05 sec)
Heartbeat CPU 0 instructions: 1500018 cycles: 381144 heartbeat IPC: 3.964 cumulative IPC: 3.936 (Simulation time: 00 hr 00 min 07 sec)
Heartbeat CPU 0 instructions: 2000022 cycles: 507643 heartbeat IPC: 3.953 cumulative IPC: 3.94 (Simulation time: 00 hr 00 min 09 sec)
Heartbeat CPU 0 instructions: 2500026 cycles: 633943 heartbeat IPC: 3.959 cumulative IPC: 3.944 (Simulation time: 00 hr 00 min 11 sec)
Heartbeat CPU 0 instructions: 3000027 cycles: 760370 heartbeat IPC: 3.955 cumulative IPC: 3.945 (Simulation time: 00 hr 00 min 14 sec)
Heartbeat CPU 0 instructions: 3500032 cycles: 886981 heartbeat IPC: 3.949 cumulative IPC: 3.946 (Simulation time: 00 hr 00 min 16 sec)
Heartbeat CPU 0 instructions: 4000038 cycles: 1013386 heartbeat IPC: 3.956 cumulative IPC: 3.947 (Simulation time: 00 hr 00 min 18 sec)
Heartbeat CPU 0 instructions: 4500043 cycles: 1139994 heartbeat IPC: 3.949 cumulative IPC: 3.947 (Simulation time: 00 hr 00 min 20 sec)
Heartbeat CPU 0 instructions: 5000048 cycles: 1266600 heartbeat IPC: 3.949 cumulative IPC: 3.948 (Simulation time: 00 hr 00 min 23 sec)
Heartbeat CPU 0 instructions: 5500053 cycles: 1393222 heartbeat IPC: 3.949 cumulative IPC: 3.948 (Simulation time: 00 hr 00 min 25 sec)
Heartbeat CPU 0 instructions: 6000058 cycles: 1519828 heartbeat IPC: 3.949 cumulative IPC: 3.948 (Simulation time: 00 hr 00 min 27 sec)
Heartbeat CPU 0 instructions: 6500063 cycles: 1646233 heartbeat IPC: 3.956 cumulative IPC: 3.948 (Simulation time: 00 hr 00 min 29 sec)
Heartbeat CPU 0 instructions: 7000069 cycles: 1772842 heartbeat IPC: 3.949 cumulative IPC: 3.949 (Simulation time: 00 hr 00 min 32 sec)
Heartbeat CPU 0 instructions: 7500074 cycles: 1899249 heartbeat IPC: 3.956 cumulative IPC: 3.949 (Simulation time: 00 hr 00 min 34 sec)
Heartbeat CPU 0 instructions: 8000075 cycles: 2025645 heartbeat IPC: 3.956 cumulative IPC: 3.949 (Simulation time: 00 hr 00 min 36 sec)
Heartbeat CPU 0 instructions: 8500079 cycles: 2150994 heartbeat IPC: 3.989 cumulative IPC: 3.952 (Simulation time: 00 hr 00 min 38 sec)
Heartbeat CPU 0 instructions: 9000081 cycles: 2277670 heartbeat IPC: 3.947 cumulative IPC: 3.951 (Simulation time: 00 hr 00 min 41 sec)
Heartbeat CPU 0 instructions: 9500084 cycles: 2404144 heartbeat IPC: 3.953 cumulative IPC: 3.952 (Simulation time: 00 hr 00 min 43 sec)
Heartbeat CPU 0 instructions: 10000086 cycles: 2530819 heartbeat IPC: 3.947 cumulative IPC: 3.951 (Simulation time: 00 hr 00 min 45 sec)
Heartbeat CPU 0 instructions: 10500089 cycles: 2657293 heartbeat IPC: 3.953 cumulative IPC: 3.951 (Simulation time: 00 hr 00 min 47 sec)
Heartbeat CPU 0 instructions: 11000089 cycles: 2784648 heartbeat IPC: 3.926 cumulative IPC: 3.95 (Simulation time: 00 hr 00 min 49 sec)
Heartbeat CPU 0 instructions: 11500093 cycles: 2910939 heartbeat IPC: 3.959 cumulative IPC: 3.951 (Simulation time: 00 hr 00 min 52 sec)
Heartbeat CPU 0 instructions: 12000093 cycles: 3037227 heartbeat IPC: 3.959 cumulative IPC: 3.951 (Simulation time: 00 hr 00 min 54 sec)
Heartbeat CPU 0 instructions: 12500094 cycles: 3163747 heartbeat IPC: 3.952 cumulative IPC: 3.951 (Simulation time: 00 hr 00 min 56 sec)
Heartbeat CPU 0 instructions: 13000098 cycles: 3290141 heartbeat IPC: 3.956 cumulative IPC: 3.951 (Simulation time: 00 hr 00 min 58 sec)
Heartbeat CPU 0 instructions: 13500105 cycles: 3416464 heartbeat IPC: 3.958 cumulative IPC: 3.951 (Simulation time: 00 hr 01 min 00 sec)
Heartbeat CPU 0 instructions: 14000110 cycles: 3542857 heartbeat IPC: 3.956 cumulative IPC: 3.952 (Simulation time: 00 hr 01 min 03 sec)
Heartbeat CPU 0 instructions: 14500117 cycles: 3666554 heartbeat IPC: 4.042 cumulative IPC: 3.955 (Simulation time: 00 hr 01 min 05 sec)
Heartbeat CPU 0 instructions: 15000121 cycles: 3792852 heartbeat IPC: 3.959 cumulative IPC: 3.955 (Simulation time: 00 hr 01 min 07 sec)
Heartbeat CPU 0 instructions: 15500121 cycles: 3919290 heartbeat IPC: 3.955 cumulative IPC: 3.955 (Simulation time: 00 hr 01 min 09 sec)
Heartbeat CPU 0 instructions: 16000126 cycles: 4045896 heartbeat IPC: 3.949 cumulative IPC: 3.955 (Simulation time: 00 hr 01 min 11 sec)
Heartbeat CPU 0 instructions: 16500131 cycles: 4172301 heartbeat IPC: 3.956 cumulative IPC: 3.955 (Simulation time: 00 hr 01 min 14 sec)
Heartbeat CPU 0 instructions: 17000137 cycles: 4298910 heartbeat IPC: 3.949 cumulative IPC: 3.955 (Simulation time: 00 hr 01 min 16 sec)
Heartbeat CPU 0 instructions: 17500142 cycles: 4425317 heartbeat IPC: 3.956 cumulative IPC: 3.955 (Simulation time: 00 hr 01 min 18 sec)
Heartbeat CPU 0 instructions: 18000147 cycles: 4551925 heartbeat IPC: 3.949 cumulative IPC: 3.954 (Simulation time: 00 hr 01 min 20 sec)
Heartbeat CPU 0 instructions: 18500152 cycles: 4678333 heartbeat IPC: 3.955 cumulative IPC: 3.954 (Simulation time: 00 hr 01 min 23 sec)
Heartbeat CPU 0 instructions: 19000157 cycles: 4804939 heartbeat IPC: 3.949 cumulative IPC: 3.954 (Simulation time: 00 hr 01 min 25 sec)
Heartbeat CPU 0 instructions: 19500162 cycles: 4931347 heartbeat IPC: 3.955 cumulative IPC: 3.954 (Simulation time: 00 hr 01 min 27 sec)
Heartbeat CPU 0 instructions: 20000168 cycles: 5057957 heartbeat IPC: 3.949 cumulative IPC: 3.954 (Simulation time: 00 hr 01 min 29 sec)
Heartbeat CPU 0 instructions: 20500173 cycles: 5184567 heartbeat IPC: 3.949 cumulative IPC: 3.954 (Simulation time: 00 hr 01 min 32 sec)
Heartbeat CPU 0 instructions: 21000178 cycles: 5309169 heartbeat IPC: 4.013 cumulative IPC: 3.955 (Simulation time: 00 hr 01 min 34 sec)
Heartbeat CPU 0 instructions: 21500181 cycles: 5435846 heartbeat IPC: 3.947 cumulative IPC: 3.955 (Simulation time: 00 hr 01 min 36 sec)
Heartbeat CPU 0 instructions: 22000183 cycles: 5562319 heartbeat IPC: 3.953 cumulative IPC: 3.955 (Simulation time: 00 hr 01 min 38 sec)
Heartbeat CPU 0 instructions: 22500186 cycles: 5688996 heartbeat IPC: 3.947 cumulative IPC: 3.955 (Simulation time: 00 hr 01 min 41 sec)
Heartbeat CPU 0 instructions: 23000188 cycles: 5815471 heartbeat IPC: 3.953 cumulative IPC: 3.955 (Simulation time: 00 hr 01 min 43 sec)
Heartbeat CPU 0 instructions: 23500191 cycles: 5942146 heartbeat IPC: 3.947 cumulative IPC: 3.955 (Simulation time: 00 hr 01 min 45 sec)
Heartbeat CPU 0 instructions: 24000196 cycles: 6068545 heartbeat IPC: 3.956 cumulative IPC: 3.955 (Simulation time: 00 hr 01 min 47 sec)
Heartbeat CPU 0 instructions: 24500200 cycles: 6194843 heartbeat IPC: 3.959 cumulative IPC: 3.955 (Simulation time: 00 hr 01 min 50 sec)
Heartbeat CPU 0 instructions: 25000207 cycles: 6321118 heartbeat IPC: 3.96 cumulative IPC: 3.955 (Simulation time: 00 hr 01 min 52 sec)
Heartbeat CPU 0 instructions: 25500207 cycles: 6447309 heartbeat IPC: 3.962 cumulative IPC: 3.955 (Simulation time: 00 hr 01 min 54 sec)
Heartbeat CPU 0 instructions: 26000207 cycles: 6573834 heartbeat IPC: 3.952 cumulative IPC: 3.955 (Simulation time: 00 hr 01 min 56 sec)
Heartbeat CPU 0 instructions: 26500212 cycles: 6700242 heartbeat IPC: 3.955 cumulative IPC: 3.955 (Simulation time: 00 hr 01 min 58 sec)
Heartbeat CPU 0 instructions: 27000212 cycles: 6823774 heartbeat IPC: 4.048 cumulative IPC: 3.957 (Simulation time: 00 hr 02 min 01 sec)
Heartbeat CPU 0 instructions: 27500216 cycles: 6950080 heartbeat IPC: 3.959 cumulative IPC: 3.957 (Simulation time: 00 hr 02 min 03 sec)
Heartbeat CPU 0 instructions: 28000222 cycles: 7076386 heartbeat IPC: 3.959 cumulative IPC: 3.957 (Simulation time: 00 hr 02 min 05 sec)
Heartbeat CPU 0 instructions: 28500228 cycles: 7202995 heartbeat IPC: 3.949 cumulative IPC: 3.957 (Simulation time: 00 hr 02 min 07 sec)
Heartbeat CPU 0 instructions: 29000233 cycles: 7329399 heartbeat IPC: 3.956 cumulative IPC: 3.957 (Simulation time: 00 hr 02 min 09 sec)
Heartbeat CPU 0 instructions: 29500238 cycles: 7456010 heartbeat IPC: 3.949 cumulative IPC: 3.957 (Simulation time: 00 hr 02 min 12 sec)
Heartbeat CPU 0 instructions: 30000244 cycles: 7582415 heartbeat IPC: 3.956 cumulative IPC: 3.957 (Simulation time: 00 hr 02 min 14 sec)
Heartbeat CPU 0 instructions: 30500249 cycles: 7709025 heartbeat IPC: 3.949 cumulative IPC: 3.956 (Simulation time: 00 hr 02 min 16 sec)
Heartbeat CPU 0 instructions: 31000253 cycles: 7835430 heartbeat IPC: 3.956 cumulative IPC: 3.956 (Simulation time: 00 hr 02 min 18 sec)
Heartbeat CPU 0 instructions: 31500259 cycles: 7962043 heartbeat IPC: 3.949 cumulative IPC: 3.956 (Simulation time: 00 hr 02 min 21 sec)
Heartbeat CPU 0 instructions: 32000264 cycles: 8088446 heartbeat IPC: 3.956 cumulative IPC: 3.956 (Simulation time: 00 hr 02 min 23 sec)
Heartbeat CPU 0 instructions: 32500269 cycles: 8215054 heartbeat IPC: 3.949 cumulative IPC: 3.956 (Simulation time: 00 hr 02 min 25 sec)
Heartbeat CPU 0 instructions: 33000275 cycles: 8341460 heartbeat IPC: 3.956 cumulative IPC: 3.956 (Simulation time: 00 hr 02 min 28 sec)
Heartbeat CPU 0 instructions: 33500280 cycles: 8467218 heartbeat IPC: 3.976 cumulative IPC: 3.956 (Simulation time: 00 hr 02 min 30 sec)
Heartbeat CPU 0 instructions: 34000280 cycles: 8592723 heartbeat IPC: 3.984 cumulative IPC: 3.957 (Simulation time: 00 hr 02 min 32 sec)
Heartbeat CPU 0 instructions: 34500283 cycles: 8719398 heartbeat IPC: 3.947 cumulative IPC: 3.957 (Simulation time: 00 hr 02 min 34 sec)
Heartbeat CPU 0 instructions: 35000285 cycles: 8845873 heartbeat IPC: 3.953 cumulative IPC: 3.957 (Simulation time: 00 hr 02 min 36 sec)
Heartbeat CPU 0 instructions: 35500288 cycles: 8972548 heartbeat IPC: 3.947 cumulative IPC: 3.957 (Simulation time: 00 hr 02 min 39 sec)
Heartbeat CPU 0 instructions: 36000290 cycles: 9099221 heartbeat IPC: 3.947 cumulative IPC: 3.956 (Simulation time: 00 hr 02 min 41 sec)
Heartbeat CPU 0 instructions: 36500291 cycles: 9225554 heartbeat IPC: 3.958 cumulative IPC: 3.956 (Simulation time: 00 hr 02 min 43 sec)
Heartbeat CPU 0 instructions: 37000291 cycles: 9352060 heartbeat IPC: 3.952 cumulative IPC: 3.956 (Simulation time: 00 hr 02 min 45 sec)
Heartbeat CPU 0 instructions: 37500293 cycles: 9478297 heartbeat IPC: 3.961 cumulative IPC: 3.956 (Simulation time: 00 hr 02 min 48 sec)
Heartbeat CPU 0 instructions: 38000293 cycles: 9604480 heartbeat IPC: 3.962 cumulative IPC: 3.957 (Simulation time: 00 hr 02 min 50 sec)
Heartbeat CPU 0 instructions: 38500300 cycles: 9731006 heartbeat IPC: 3.952 cumulative IPC: 3.956 (Simulation time: 00 hr 02 min 52 sec)
Heartbeat CPU 0 instructions: 39000306 cycles: 9857413 heartbeat IPC: 3.956 cumulative IPC: 3.956 (Simulation time: 00 hr 02 min 54 sec)
Heartbeat CPU 0 instructions: 39500307 cycles: 9980994 heartbeat IPC: 4.046 cumulative IPC: 3.958 (Simulation time: 00 hr 02 min 57 sec)
Heartbeat CPU 0 instructions: 40000307 cycles: 10107293 heartbeat IPC: 3.959 cumulative IPC: 3.958 (Simulation time: 00 hr 02 min 59 sec)
Heartbeat CPU 0 instructions: 40500311 cycles: 10233800 heartbeat IPC: 3.952 cumulative IPC: 3.958 (Simulation time: 00 hr 03 min 01 sec)
Heartbeat CPU 0 instructions: 41000313 cycles: 10359901 heartbeat IPC: 3.965 cumulative IPC: 3.958 (Simulation time: 00 hr 03 min 03 sec)
Heartbeat CPU 0 instructions: 41500319 cycles: 10486521 heartbeat IPC: 3.949 cumulative IPC: 3.957 (Simulation time: 00 hr 03 min 05 sec)
Heartbeat CPU 0 instructions: 42000324 cycles: 10612924 heartbeat IPC: 3.956 cumulative IPC: 3.957 (Simulation time: 00 hr 03 min 08 sec)
Heartbeat CPU 0 instructions: 42500329 cycles: 10739530 heartbeat IPC: 3.949 cumulative IPC: 3.957 (Simulation time: 00 hr 03 min 10 sec)
Heartbeat CPU 0 instructions: 43000335 cycles: 10865938 heartbeat IPC: 3.955 cumulative IPC: 3.957 (Simulation time: 00 hr 03 min 12 sec)
Heartbeat CPU 0 instructions: 43500339 cycles: 10992550 heartbeat IPC: 3.949 cumulative IPC: 3.957 (Simulation time: 00 hr 03 min 14 sec)
Heartbeat CPU 0 instructions: 44000344 cycles: 11119162 heartbeat IPC: 3.949 cumulative IPC: 3.957 (Simulation time: 00 hr 03 min 17 sec)
Heartbeat CPU 0 instructions: 44500350 cycles: 11245568 heartbeat IPC: 3.956 cumulative IPC: 3.957 (Simulation time: 00 hr 03 min 19 sec)
Heartbeat CPU 0 instructions: 45000355 cycles: 11372175 heartbeat IPC: 3.949 cumulative IPC: 3.957 (Simulation time: 00 hr 03 min 21 sec)
Heartbeat CPU 0 instructions: 45500360 cycles: 11498583 heartbeat IPC: 3.955 cumulative IPC: 3.957 (Simulation time: 00 hr 03 min 24 sec)
Heartbeat CPU 0 instructions: 46000366 cycles: 11625191 heartbeat IPC: 3.949 cumulative IPC: 3.957 (Simulation time: 00 hr 03 min 26 sec)
Heartbeat CPU 0 instructions: 46500372 cycles: 11749827 heartbeat IPC: 4.012 cumulative IPC: 3.958 (Simulation time: 00 hr 03 min 28 sec)
Heartbeat CPU 0 instructions: 47000374 cycles: 11876503 heartbeat IPC: 3.947 cumulative IPC: 3.957 (Simulation time: 00 hr 03 min 30 sec)
Heartbeat CPU 0 instructions: 47500377 cycles: 12002977 heartbeat IPC: 3.953 cumulative IPC: 3.957 (Simulation time: 00 hr 03 min 32 sec)
Heartbeat CPU 0 instructions: 48000379 cycles: 12129653 heartbeat IPC: 3.947 cumulative IPC: 3.957 (Simulation time: 00 hr 03 min 35 sec)
Heartbeat CPU 0 instructions: 48500382 cycles: 12256125 heartbeat IPC: 3.953 cumulative IPC: 3.957 (Simulation time: 00 hr 03 min 37 sec)
Heartbeat CPU 0 instructions: 49000382 cycles: 12382687 heartbeat IPC: 3.951 cumulative IPC: 3.957 (Simulation time: 00 hr 03 min 39 sec)
Heartbeat CPU 0 instructions: 49500382 cycles: 12508981 heartbeat IPC: 3.959 cumulative IPC: 3.957 (Simulation time: 00 hr 03 min 41 sec)
Warmup halting CPU 0 at instruction 50000006 cycle 12635211 for remainder of phase
Warmup finished CPU 0 instructions: 50000006 cycles: 12635211 cumulative IPC: 3.957 (Simulation time: 00 hr 03 min 44 sec)
Warmup complete CPU 0 instructions: 50000006 cycles: 12635211 cumulative IPC: 3.957 (Simulation time: 00 hr 03 min 44 sec)
Heartbeat CPU 0 instructions: 50000385 cycles: 12635441 heartbeat IPC: 3.954 cumulative IPC: 1.648 (Simulation time: 00 hr 03 min 44 sec)
Heartbeat CPU 0 instructions: 50500390 cycles: 12940267 heartbeat IPC: 1.64 cumulative IPC: 1.64 (Simulation time: 00 hr 03 min 48 sec)
Heartbeat CPU 0 instructions: 51000390 cycles: 13247534 heartbeat IPC: 1.627 cumulative IPC: 1.634 (Simulation time: 00 hr 03 min 52 sec)
Heartbeat CPU 0 instructions: 51500394 cycles: 13554971 heartbeat IPC: 1.626 cumulative IPC: 1.631 (Simulation time: 00 hr 03 min 56 sec)
Heartbeat CPU 0 instructions: 52000398 cycles: 13860629 heartbeat IPC: 1.636 cumulative IPC: 1.632 (Simulation time: 00 hr 04 min 00 sec)
Heartbeat CPU 0 instructions: 52500400 cycles: 14179536 heartbeat IPC: 1.568 cumulative IPC: 1.619 (Simulation time: 00 hr 04 min 04 sec)
Heartbeat CPU 0 instructions: 53000401 cycles: 14488448 heartbeat IPC: 1.619 cumulative IPC: 1.619 (Simulation time: 00 hr 04 min 08 sec)
Heartbeat CPU 0 instructions: 53500405 cycles: 14797045 heartbeat IPC: 1.62 cumulative IPC: 1.619 (Simulation time: 00 hr 04 min 12 sec)
Heartbeat CPU 0 instructions: 54000405 cycles: 15106992 heartbeat IPC: 1.613 cumulative IPC: 1.618 (Simulation time: 00 hr 04 min 16 sec)
Heartbeat CPU 0 instructions: 54500409 cycles: 15421116 heartbeat IPC: 1.592 cumulative IPC: 1.615 (Simulation time: 00 hr 04 min 20 sec)
Heartbeat CPU 0 instructions: 55000409 cycles: 15732130 heartbeat IPC: 1.608 cumulative IPC: 1.615 (Simulation time: 00 hr 04 min 24 sec)
Heartbeat CPU 0 instructions: 55500409 cycles: 16045216 heartbeat IPC: 1.597 cumulative IPC: 1.613 (Simulation time: 00 hr 04 min 28 sec)
Heartbeat CPU 0 instructions: 56000409 cycles: 16358326 heartbeat IPC: 1.597 cumulative IPC: 1.612 (Simulation time: 00 hr 04 min 32 sec)
Heartbeat CPU 0 instructions: 56500415 cycles: 16676606 heartbeat IPC: 1.571 cumulative IPC: 1.608 (Simulation time: 00 hr 04 min 36 sec)
Heartbeat CPU 0 instructions: 57000415 cycles: 16986537 heartbeat IPC: 1.613 cumulative IPC: 1.609 (Simulation time: 00 hr 04 min 40 sec)
Heartbeat CPU 0 instructions: 57500415 cycles: 17297606 heartbeat IPC: 1.607 cumulative IPC: 1.609 (Simulation time: 00 hr 04 min 44 sec)
Heartbeat CPU 0 instructions: 58000415 cycles: 17609181 heartbeat IPC: 1.605 cumulative IPC: 1.608 (Simulation time: 00 hr 04 min 49 sec)
Heartbeat CPU 0 instructions: 58500418 cycles: 17921085 heartbeat IPC: 1.603 cumulative IPC: 1.608 (Simulation time: 00 hr 04 min 53 sec)
Heartbeat CPU 0 instructions: 59000418 cycles: 18246242 heartbeat IPC: 1.538 cumulative IPC: 1.604 (Simulation time: 00 hr 04 min 57 sec)
Heartbeat CPU 0 instructions: 59500423 cycles: 18558670 heartbeat IPC: 1.6 cumulative IPC: 1.604 (Simulation time: 00 hr 05 min 01 sec)
Heartbeat CPU 0 instructions: 60000429 cycles: 18870888 heartbeat IPC: 1.601 cumulative IPC: 1.604 (Simulation time: 00 hr 05 min 06 sec)
Heartbeat CPU 0 instructions: 60500431 cycles: 19182384 heartbeat IPC: 1.605 cumulative IPC: 1.604 (Simulation time: 00 hr 05 min 10 sec)
Heartbeat CPU 0 instructions: 61000437 cycles: 19496329 heartbeat IPC: 1.593 cumulative IPC: 1.603 (Simulation time: 00 hr 05 min 14 sec)
Heartbeat CPU 0 instructions: 61500439 cycles: 19808035 heartbeat IPC: 1.604 cumulative IPC: 1.603 (Simulation time: 00 hr 05 min 18 sec)
Heartbeat CPU 0 instructions: 62000440 cycles: 20123319 heartbeat IPC: 1.586 cumulative IPC: 1.603 (Simulation time: 00 hr 05 min 22 sec)
Heartbeat CPU 0 instructions: 62500440 cycles: 20431965 heartbeat IPC: 1.62 cumulative IPC: 1.603 (Simulation time: 00 hr 05 min 27 sec)
Heartbeat CPU 0 instructions: 63000441 cycles: 20744476 heartbeat IPC: 1.6 cumulative IPC: 1.603 (Simulation time: 00 hr 05 min 31 sec)
Heartbeat CPU 0 instructions: 63500442 cycles: 21052655 heartbeat IPC: 1.622 cumulative IPC: 1.604 (Simulation time: 00 hr 05 min 35 sec)
Heartbeat CPU 0 instructions: 64000446 cycles: 21373348 heartbeat IPC: 1.559 cumulative IPC: 1.602 (Simulation time: 00 hr 05 min 39 sec)
Heartbeat CPU 0 instructions: 64500446 cycles: 21684551 heartbeat IPC: 1.607 cumulative IPC: 1.602 (Simulation time: 00 hr 05 min 43 sec)
Heartbeat CPU 0 instructions: 65000448 cycles: 22003670 heartbeat IPC: 1.567 cumulative IPC: 1.601 (Simulation time: 00 hr 05 min 47 sec)
Heartbeat CPU 0 instructions: 65500448 cycles: 22314193 heartbeat IPC: 1.61 cumulative IPC: 1.601 (Simulation time: 00 hr 05 min 51 sec)
Heartbeat CPU 0 instructions: 66000450 cycles: 22637428 heartbeat IPC: 1.547 cumulative IPC: 1.6 (Simulation time: 00 hr 05 min 55 sec)
Heartbeat CPU 0 instructions: 66500450 cycles: 22947989 heartbeat IPC: 1.61 cumulative IPC: 1.6 (Simulation time: 00 hr 05 min 59 sec)
Heartbeat CPU 0 instructions: 67000450 cycles: 23259063 heartbeat IPC: 1.607 cumulative IPC: 1.6 (Simulation time: 00 hr 06 min 03 sec)
Heartbeat CPU 0 instructions: 67500452 cycles: 23572469 heartbeat IPC: 1.595 cumulative IPC: 1.6 (Simulation time: 00 hr 06 min 07 sec)
Heartbeat CPU 0 instructions: 68000454 cycles: 23885359 heartbeat IPC: 1.598 cumulative IPC: 1.6 (Simulation time: 00 hr 06 min 11 sec)
Heartbeat CPU 0 instructions: 68500454 cycles: 24196178 heartbeat IPC: 1.609 cumulative IPC: 1.6 (Simulation time: 00 hr 06 min 15 sec)
Heartbeat CPU 0 instructions: 69000456 cycles: 24502156 heartbeat IPC: 1.634 cumulative IPC: 1.601 (Simulation time: 00 hr 06 min 19 sec)
Heartbeat CPU 0 instructions: 69500456 cycles: 24813002 heartbeat IPC: 1.609 cumulative IPC: 1.601 (Simulation time: 00 hr 06 min 23 sec)
Heartbeat CPU 0 instructions: 70000460 cycles: 25122216 heartbeat IPC: 1.617 cumulative IPC: 1.602 (Simulation time: 00 hr 06 min 27 sec)
Heartbeat CPU 0 instructions: 70500460 cycles: 25434436 heartbeat IPC: 1.601 cumulative IPC: 1.602 (Simulation time: 00 hr 06 min 31 sec)
Heartbeat CPU 0 instructions: 71000460 cycles: 25746605 heartbeat IPC: 1.602 cumulative IPC: 1.602 (Simulation time: 00 hr 06 min 35 sec)
Heartbeat CPU 0 instructions: 71500460 cycles: 26059609 heartbeat IPC: 1.597 cumulative IPC: 1.602 (Simulation time: 00 hr 06 min 40 sec)
Heartbeat CPU 0 instructions: 72000460 cycles: 26382949 heartbeat IPC: 1.546 cumulative IPC: 1.6 (Simulation time: 00 hr 06 min 44 sec)
Heartbeat CPU 0 instructions: 72500460 cycles: 26693712 heartbeat IPC: 1.609 cumulative IPC: 1.6 (Simulation time: 00 hr 06 min 48 sec)
Heartbeat CPU 0 instructions: 73000463 cycles: 27005247 heartbeat IPC: 1.605 cumulative IPC: 1.601 (Simulation time: 00 hr 06 min 52 sec)
Heartbeat CPU 0 instructions: 73500468 cycles: 27317151 heartbeat IPC: 1.603 cumulative IPC: 1.601 (Simulation time: 00 hr 06 min 57 sec)
Heartbeat CPU 0 instructions: 74000474 cycles: 27629176 heartbeat IPC: 1.602 cumulative IPC: 1.601 (Simulation time: 00 hr 07 min 01 sec)
Heartbeat CPU 0 instructions: 74500480 cycles: 27940117 heartbeat IPC: 1.608 cumulative IPC: 1.601 (Simulation time: 00 hr 07 min 05 sec)
Heartbeat CPU 0 instructions: 75000481 cycles: 28246376 heartbeat IPC: 1.633 cumulative IPC: 1.601 (Simulation time: 00 hr 07 min 09 sec)
Heartbeat CPU 0 instructions: 75500483 cycles: 28554021 heartbeat IPC: 1.625 cumulative IPC: 1.602 (Simulation time: 00 hr 07 min 13 sec)
Heartbeat CPU 0 instructions: 76000484 cycles: 28864376 heartbeat IPC: 1.611 cumulative IPC: 1.602 (Simulation time: 00 hr 07 min 17 sec)
Heartbeat CPU 0 instructions: 76500484 cycles: 29173172 heartbeat IPC: 1.619 cumulative IPC: 1.602 (Simulation time: 00 hr 07 min 21 sec)
Heartbeat CPU 0 instructions: 77000484 cycles: 29482012 heartbeat IPC: 1.619 cumulative IPC: 1.603 (Simulation time: 00 hr 07 min 25 sec)
Heartbeat CPU 0 instructions: 77500484 cycles: 29799444 heartbeat IPC: 1.575 cumulative IPC: 1.602 (Simulation time: 00 hr 07 min 29 sec)
Heartbeat CPU 0 instructions: 78000489 cycles: 30113682 heartbeat IPC: 1.591 cumulative IPC: 1.602 (Simulation time: 00 hr 07 min 34 sec)
Heartbeat CPU 0 instructions: 78500490 cycles: 30422033 heartbeat IPC: 1.622 cumulative IPC: 1.602 (Simulation time: 00 hr 07 min 39 sec)
Heartbeat CPU 0 instructions: 79000495 cycles: 30736019 heartbeat IPC: 1.592 cumulative IPC: 1.602 (Simulation time: 00 hr 07 min 43 sec)
Heartbeat CPU 0 instructions: 79500495 cycles: 31048100 heartbeat IPC: 1.602 cumulative IPC: 1.602 (Simulation time: 00 hr 07 min 47 sec)
Heartbeat CPU 0 instructions: 80000495 cycles: 31362001 heartbeat IPC: 1.593 cumulative IPC: 1.602 (Simulation time: 00 hr 07 min 51 sec)
Heartbeat CPU 0 instructions: 80500495 cycles: 31675929 heartbeat IPC: 1.593 cumulative IPC: 1.602 (Simulation time: 00 hr 07 min 55 sec)
Heartbeat CPU 0 instructions: 81000499 cycles: 31987749 heartbeat IPC: 1.604 cumulative IPC: 1.602 (Simulation time: 00 hr 07 min 59 sec)
Heartbeat CPU 0 instructions: 81500501 cycles: 32298680 heartbeat IPC: 1.608 cumulative IPC: 1.602 (Simulation time: 00 hr 08 min 04 sec)
Heartbeat CPU 0 instructions: 82000501 cycles: 32608347 heartbeat IPC: 1.615 cumulative IPC: 1.602 (Simulation time: 00 hr 08 min 08 sec)
Heartbeat CPU 0 instructions: 82500501 cycles: 32921102 heartbeat IPC: 1.599 cumulative IPC: 1.602 (Simulation time: 00 hr 08 min 12 sec)
Heartbeat CPU 0 instructions: 83000502 cycles: 33233135 heartbeat IPC: 1.602 cumulative IPC: 1.602 (Simulation time: 00 hr 08 min 16 sec)
Heartbeat CPU 0 instructions: 83500505 cycles: 33544282 heartbeat IPC: 1.607 cumulative IPC: 1.602 (Simulation time: 00 hr 08 min 20 sec)
Heartbeat CPU 0 instructions: 84000505 cycles: 33853407 heartbeat IPC: 1.617 cumulative IPC: 1.602 (Simulation time: 00 hr 08 min 24 sec)
Heartbeat CPU 0 instructions: 84500510 cycles: 34188289 heartbeat IPC: 1.493 cumulative IPC: 1.601 (Simulation time: 00 hr 08 min 29 sec)
Heartbeat CPU 0 instructions: 85000514 cycles: 34499484 heartbeat IPC: 1.607 cumulative IPC: 1.601 (Simulation time: 00 hr 08 min 33 sec)
Heartbeat CPU 0 instructions: 85500518 cycles: 34809120 heartbeat IPC: 1.615 cumulative IPC: 1.601 (Simulation time: 00 hr 08 min 37 sec)
Heartbeat CPU 0 instructions: 86000524 cycles: 35122536 heartbeat IPC: 1.595 cumulative IPC: 1.601 (Simulation time: 00 hr 08 min 42 sec)
Heartbeat CPU 0 instructions: 86500525 cycles: 35434793 heartbeat IPC: 1.601 cumulative IPC: 1.601 (Simulation time: 00 hr 08 min 46 sec)
Heartbeat CPU 0 instructions: 87000528 cycles: 35745913 heartbeat IPC: 1.607 cumulative IPC: 1.601 (Simulation time: 00 hr 08 min 50 sec)
Heartbeat CPU 0 instructions: 87500529 cycles: 36053367 heartbeat IPC: 1.626 cumulative IPC: 1.601 (Simulation time: 00 hr 08 min 54 sec)
Heartbeat CPU 0 instructions: 88000529 cycles: 36363943 heartbeat IPC: 1.61 cumulative IPC: 1.601 (Simulation time: 00 hr 08 min 58 sec)
Heartbeat CPU 0 instructions: 88500535 cycles: 36669129 heartbeat IPC: 1.638 cumulative IPC: 1.602 (Simulation time: 00 hr 09 min 02 sec)
Heartbeat CPU 0 instructions: 89000535 cycles: 36977826 heartbeat IPC: 1.62 cumulative IPC: 1.602 (Simulation time: 00 hr 09 min 06 sec)
Heartbeat CPU 0 instructions: 89500536 cycles: 37282105 heartbeat IPC: 1.643 cumulative IPC: 1.603 (Simulation time: 00 hr 09 min 10 sec)
Heartbeat CPU 0 instructions: 90000536 cycles: 37592729 heartbeat IPC: 1.61 cumulative IPC: 1.603 (Simulation time: 00 hr 09 min 14 sec)
Heartbeat CPU 0 instructions: 90500537 cycles: 37913593 heartbeat IPC: 1.558 cumulative IPC: 1.602 (Simulation time: 00 hr 09 min 18 sec)
Heartbeat CPU 0 instructions: 91000537 cycles: 38224902 heartbeat IPC: 1.606 cumulative IPC: 1.602 (Simulation time: 00 hr 09 min 22 sec)
Heartbeat CPU 0 instructions: 91500537 cycles: 38532698 heartbeat IPC: 1.624 cumulative IPC: 1.602 (Simulation time: 00 hr 09 min 26 sec)
Heartbeat CPU 0 instructions: 92000540 cycles: 38840358 heartbeat IPC: 1.625 cumulative IPC: 1.603 (Simulation time: 00 hr 09 min 30 sec)
Heartbeat CPU 0 instructions: 92500540 cycles: 39151463 heartbeat IPC: 1.607 cumulative IPC: 1.603 (Simulation time: 00 hr 09 min 35 sec)
Heartbeat CPU 0 instructions: 93000540 cycles: 39462978 heartbeat IPC: 1.605 cumulative IPC: 1.603 (Simulation time: 00 hr 09 min 39 sec)
Heartbeat CPU 0 instructions: 93500540 cycles: 39776442 heartbeat IPC: 1.595 cumulative IPC: 1.603 (Simulation time: 00 hr 09 min 43 sec)
Heartbeat CPU 0 instructions: 94000544 cycles: 40086305 heartbeat IPC: 1.614 cumulative IPC: 1.603 (Simulation time: 00 hr 09 min 47 sec)
Heartbeat CPU 0 instructions: 94500546 cycles: 40396787 heartbeat IPC: 1.61 cumulative IPC: 1.603 (Simulation time: 00 hr 09 min 51 sec)
Heartbeat CPU 0 instructions: 95000546 cycles: 40709803 heartbeat IPC: 1.597 cumulative IPC: 1.603 (Simulation time: 00 hr 09 min 55 sec)
Heartbeat CPU 0 instructions: 95500546 cycles: 41019907 heartbeat IPC: 1.612 cumulative IPC: 1.603 (Simulation time: 00 hr 09 min 59 sec)
Heartbeat CPU 0 instructions: 96000547 cycles: 41330570 heartbeat IPC: 1.609 cumulative IPC: 1.603 (Simulation time: 00 hr 10 min 03 sec)
Heartbeat CPU 0 instructions: 96500550 cycles: 41642363 heartbeat IPC: 1.604 cumulative IPC: 1.603 (Simulation time: 00 hr 10 min 07 sec)
Heartbeat CPU 0 instructions: 97000552 cycles: 41968346 heartbeat IPC: 1.534 cumulative IPC: 1.602 (Simulation time: 00 hr 10 min 12 sec)
Heartbeat CPU 0 instructions: 97500553 cycles: 42281629 heartbeat IPC: 1.596 cumulative IPC: 1.602 (Simulation time: 00 hr 10 min 16 sec)
Heartbeat CPU 0 instructions: 98000560 cycles: 42592460 heartbeat IPC: 1.609 cumulative IPC: 1.602 (Simulation time: 00 hr 10 min 20 sec)
Heartbeat CPU 0 instructions: 98500562 cycles: 42901857 heartbeat IPC: 1.616 cumulative IPC: 1.602 (Simulation time: 00 hr 10 min 25 sec)
Heartbeat CPU 0 instructions: 99000568 cycles: 43215034 heartbeat IPC: 1.597 cumulative IPC: 1.602 (Simulation time: 00 hr 10 min 29 sec)
Heartbeat CPU 0 instructions: 99500570 cycles: 43524894 heartbeat IPC: 1.614 cumulative IPC: 1.602 (Simulation time: 00 hr 10 min 33 sec)
Heartbeat CPU 0 instructions: 100000570 cycles: 43837658 heartbeat IPC: 1.599 cumulative IPC: 1.602 (Simulation time: 00 hr 10 min 37 sec)
Heartbeat CPU 0 instructions: 100500570 cycles: 44145815 heartbeat IPC: 1.623 cumulative IPC: 1.603 (Simulation time: 00 hr 10 min 41 sec)
Heartbeat CPU 0 instructions: 101000573 cycles: 44455030 heartbeat IPC: 1.617 cumulative IPC: 1.603 (Simulation time: 00 hr 10 min 46 sec)
Heartbeat CPU 0 instructions: 101500573 cycles: 44762958 heartbeat IPC: 1.624 cumulative IPC: 1.603 (Simulation time: 00 hr 10 min 50 sec)
Heartbeat CPU 0 instructions: 102000577 cycles: 45068113 heartbeat IPC: 1.639 cumulative IPC: 1.603 (Simulation time: 00 hr 10 min 54 sec)
Heartbeat CPU 0 instructions: 102500577 cycles: 45375072 heartbeat IPC: 1.629 cumulative IPC: 1.604 (Simulation time: 00 hr 10 min 58 sec)
Heartbeat CPU 0 instructions: 103000577 cycles: 45693595 heartbeat IPC: 1.57 cumulative IPC: 1.603 (Simulation time: 00 hr 11 min 02 sec)
Heartbeat CPU 0 instructions: 103500578 cycles: 46002079 heartbeat IPC: 1.621 cumulative IPC: 1.603 (Simulation time: 00 hr 11 min 06 sec)
Heartbeat CPU 0 instructions: 104000581 cycles: 46310373 heartbeat IPC: 1.622 cumulative IPC: 1.604 (Simulation time: 00 hr 11 min 10 sec)
Heartbeat CPU 0 instructions: 104500581 cycles: 46621188 heartbeat IPC: 1.609 cumulative IPC: 1.604 (Simulation time: 00 hr 11 min 14 sec)
Heartbeat CPU 0 instructions: 105000581 cycles: 46933416 heartbeat IPC: 1.601 cumulative IPC: 1.604 (Simulation time: 00 hr 11 min 19 sec)
Heartbeat CPU 0 instructions: 105500585 cycles: 47244875 heartbeat IPC: 1.605 cumulative IPC: 1.604 (Simulation time: 00 hr 11 min 25 sec)
Heartbeat CPU 0 instructions: 106000585 cycles: 47560324 heartbeat IPC: 1.585 cumulative IPC: 1.603 (Simulation time: 00 hr 11 min 32 sec)
Heartbeat CPU 0 instructions: 106500585 cycles: 47869628 heartbeat IPC: 1.617 cumulative IPC: 1.604 (Simulation time: 00 hr 11 min 38 sec)
Heartbeat CPU 0 instructions: 107000585 cycles: 48182777 heartbeat IPC: 1.597 cumulative IPC: 1.604 (Simulation time: 00 hr 11 min 44 sec)
Heartbeat CPU 0 instructions: 107500588 cycles: 48490987 heartbeat IPC: 1.622 cumulative IPC: 1.604 (Simulation time: 00 hr 11 min 49 sec)
Heartbeat CPU 0 instructions: 108000591 cycles: 48801985 heartbeat IPC: 1.608 cumulative IPC: 1.604 (Simulation time: 00 hr 11 min 53 sec)
Heartbeat CPU 0 instructions: 108500591 cycles: 49114855 heartbeat IPC: 1.598 cumulative IPC: 1.604 (Simulation time: 00 hr 11 min 57 sec)
Heartbeat CPU 0 instructions: 109000591 cycles: 49425595 heartbeat IPC: 1.609 cumulative IPC: 1.604 (Simulation time: 00 hr 12 min 02 sec)
Heartbeat CPU 0 instructions: 109500595 cycles: 49737978 heartbeat IPC: 1.601 cumulative IPC: 1.604 (Simulation time: 00 hr 12 min 06 sec)
Heartbeat CPU 0 instructions: 110000599 cycles: 50058746 heartbeat IPC: 1.559 cumulative IPC: 1.603 (Simulation time: 00 hr 12 min 10 sec)
Heartbeat CPU 0 instructions: 110500605 cycles: 50366755 heartbeat IPC: 1.623 cumulative IPC: 1.603 (Simulation time: 00 hr 12 min 14 sec)
Heartbeat CPU 0 instructions: 111000606 cycles: 50678319 heartbeat IPC: 1.605 cumulative IPC: 1.603 (Simulation time: 00 hr 12 min 19 sec)
Heartbeat CPU 0 instructions: 111500606 cycles: 50989645 heartbeat IPC: 1.606 cumulative IPC: 1.603 (Simulation time: 00 hr 12 min 23 sec)
Heartbeat CPU 0 instructions: 112000609 cycles: 51297627 heartbeat IPC: 1.623 cumulative IPC: 1.604 (Simulation time: 00 hr 12 min 27 sec)
Heartbeat CPU 0 instructions: 112500610 cycles: 51608332 heartbeat IPC: 1.609 cumulative IPC: 1.604 (Simulation time: 00 hr 12 min 31 sec)
Heartbeat CPU 0 instructions: 113000611 cycles: 51918081 heartbeat IPC: 1.614 cumulative IPC: 1.604 (Simulation time: 00 hr 12 min 35 sec)
Heartbeat CPU 0 instructions: 113500611 cycles: 52229403 heartbeat IPC: 1.606 cumulative IPC: 1.604 (Simulation time: 00 hr 12 min 40 sec)
Heartbeat CPU 0 instructions: 114000611 cycles: 52536710 heartbeat IPC: 1.627 cumulative IPC: 1.604 (Simulation time: 00 hr 12 min 44 sec)
Heartbeat CPU 0 instructions: 114500615 cycles: 52854167 heartbeat IPC: 1.575 cumulative IPC: 1.604 (Simulation time: 00 hr 12 min 48 sec)
Heartbeat CPU 0 instructions: 115000615 cycles: 53162205 heartbeat IPC: 1.623 cumulative IPC: 1.604 (Simulation time: 00 hr 12 min 52 sec)
Heartbeat CPU 0 instructions: 115500616 cycles: 53476354 heartbeat IPC: 1.592 cumulative IPC: 1.604 (Simulation time: 00 hr 12 min 56 sec)
Heartbeat CPU 0 instructions: 116000619 cycles: 53793645 heartbeat IPC: 1.576 cumulative IPC: 1.604 (Simulation time: 00 hr 13 min 00 sec)
Heartbeat CPU 0 instructions: 116500619 cycles: 54103288 heartbeat IPC: 1.615 cumulative IPC: 1.604 (Simulation time: 00 hr 13 min 04 sec)
Heartbeat CPU 0 instructions: 117000619 cycles: 54416713 heartbeat IPC: 1.595 cumulative IPC: 1.604 (Simulation time: 00 hr 13 min 08 sec)
Heartbeat CPU 0 instructions: 117500619 cycles: 54728124 heartbeat IPC: 1.606 cumulative IPC: 1.604 (Simulation time: 00 hr 13 min 12 sec)
Heartbeat CPU 0 instructions: 118000624 cycles: 55041232 heartbeat IPC: 1.597 cumulative IPC: 1.604 (Simulation time: 00 hr 13 min 16 sec)
Heartbeat CPU 0 instructions: 118500630 cycles: 55352679 heartbeat IPC: 1.605 cumulative IPC: 1.604 (Simulation time: 00 hr 13 min 20 sec)
Heartbeat CPU 0 instructions: 119000630 cycles: 55663027 heartbeat IPC: 1.611 cumulative IPC: 1.604 (Simulation time: 00 hr 13 min 24 sec)
Heartbeat CPU 0 instructions: 119500632 cycles: 55976295 heartbeat IPC: 1.596 cumulative IPC: 1.604 (Simulation time: 00 hr 13 min 29 sec)
Heartbeat CPU 0 instructions: 120000632 cycles: 56285675 heartbeat IPC: 1.616 cumulative IPC: 1.604 (Simulation time: 00 hr 13 min 33 sec)
Heartbeat CPU 0 instructions: 120500636 cycles: 56593124 heartbeat IPC: 1.626 cumulative IPC: 1.604 (Simulation time: 00 hr 13 min 37 sec)
Heartbeat CPU 0 instructions: 121000636 cycles: 56906278 heartbeat IPC: 1.597 cumulative IPC: 1.604 (Simulation time: 00 hr 13 min 41 sec)
Heartbeat CPU 0 instructions: 121500636 cycles: 57216772 heartbeat IPC: 1.61 cumulative IPC: 1.604 (Simulation time: 00 hr 13 min 45 sec)
Heartbeat CPU 0 instructions: 122000636 cycles: 57528459 heartbeat IPC: 1.604 cumulative IPC: 1.604 (Simulation time: 00 hr 13 min 49 sec)
Heartbeat CPU 0 instructions: 122500641 cycles: 57849304 heartbeat IPC: 1.558 cumulative IPC: 1.603 (Simulation time: 00 hr 13 min 54 sec)
Heartbeat CPU 0 instructions: 123000642 cycles: 58159366 heartbeat IPC: 1.613 cumulative IPC: 1.604 (Simulation time: 00 hr 13 min 58 sec)
Heartbeat CPU 0 instructions: 123500642 cycles: 58467588 heartbeat IPC: 1.622 cumulative IPC: 1.604 (Simulation time: 00 hr 14 min 02 sec)
Heartbeat CPU 0 instructions: 124000644 cycles: 58777993 heartbeat IPC: 1.611 cumulative IPC: 1.604 (Simulation time: 00 hr 14 min 07 sec)
Heartbeat CPU 0 instructions: 124500650 cycles: 59090848 heartbeat IPC: 1.598 cumulative IPC: 1.604 (Simulation time: 00 hr 14 min 11 sec)
Heartbeat CPU 0 instructions: 125000651 cycles: 59403369 heartbeat IPC: 1.6 cumulative IPC: 1.604 (Simulation time: 00 hr 14 min 15 sec)
Heartbeat CPU 0 instructions: 125500651 cycles: 59712228 heartbeat IPC: 1.619 cumulative IPC: 1.604 (Simulation time: 00 hr 14 min 19 sec)
Heartbeat CPU 0 instructions: 126000652 cycles: 60020276 heartbeat IPC: 1.623 cumulative IPC: 1.604 (Simulation time: 00 hr 14 min 23 sec)
Heartbeat CPU 0 instructions: 126500652 cycles: 60325114 heartbeat IPC: 1.64 cumulative IPC: 1.604 (Simulation time: 00 hr 14 min 27 sec)
Heartbeat CPU 0 instructions: 127000656 cycles: 60635469 heartbeat IPC: 1.611 cumulative IPC: 1.604 (Simulation time: 00 hr 14 min 32 sec)
Heartbeat CPU 0 instructions: 127500660 cycles: 60939944 heartbeat IPC: 1.642 cumulative IPC: 1.604 (Simulation time: 00 hr 14 min 36 sec)
Heartbeat CPU 0 instructions: 128000660 cycles: 61247457 heartbeat IPC: 1.626 cumulative IPC: 1.605 (Simulation time: 00 hr 14 min 40 sec)
Heartbeat CPU 0 instructions: 128500660 cycles: 61570107 heartbeat IPC: 1.55 cumulative IPC: 1.604 (Simulation time: 00 hr 14 min 44 sec)
Heartbeat CPU 0 instructions: 129000660 cycles: 61881188 heartbeat IPC: 1.607 cumulative IPC: 1.604 (Simulation time: 00 hr 14 min 48 sec)
Heartbeat CPU 0 instructions: 129500661 cycles: 62187279 heartbeat IPC: 1.634 cumulative IPC: 1.604 (Simulation time: 00 hr 14 min 52 sec)
Heartbeat CPU 0 instructions: 130000664 cycles: 62496520 heartbeat IPC: 1.617 cumulative IPC: 1.604 (Simulation time: 00 hr 14 min 56 sec)
Heartbeat CPU 0 instructions: 130500664 cycles: 62809933 heartbeat IPC: 1.595 cumulative IPC: 1.604 (Simulation time: 00 hr 15 min 00 sec)
Heartbeat CPU 0 instructions: 131000664 cycles: 63120987 heartbeat IPC: 1.607 cumulative IPC: 1.604 (Simulation time: 00 hr 15 min 04 sec)
Heartbeat CPU 0 instructions: 131500664 cycles: 63435877 heartbeat IPC: 1.588 cumulative IPC: 1.604 (Simulation time: 00 hr 15 min 08 sec)
Heartbeat CPU 0 instructions: 132000668 cycles: 63749293 heartbeat IPC: 1.595 cumulative IPC: 1.604 (Simulation time: 00 hr 15 min 13 sec)
Heartbeat CPU 0 instructions: 132500670 cycles: 64058587 heartbeat IPC: 1.617 cumulative IPC: 1.604 (Simulation time: 00 hr 15 min 17 sec)
Heartbeat CPU 0 instructions: 133000670 cycles: 64367141 heartbeat IPC: 1.62 cumulative IPC: 1.604 (Simulation time: 00 hr 15 min 21 sec)
Heartbeat CPU 0 instructions: 133500674 cycles: 64678396 heartbeat IPC: 1.606 cumulative IPC: 1.604 (Simulation time: 00 hr 15 min 25 sec)
Heartbeat CPU 0 instructions: 134000674 cycles: 64990188 heartbeat IPC: 1.604 cumulative IPC: 1.604 (Simulation time: 00 hr 15 min 29 sec)
Heartbeat CPU 0 instructions: 134500674 cycles: 65302184 heartbeat IPC: 1.603 cumulative IPC: 1.604 (Simulation time: 00 hr 15 min 33 sec)
Heartbeat CPU 0 instructions: 135000679 cycles: 65627465 heartbeat IPC: 1.537 cumulative IPC: 1.604 (Simulation time: 00 hr 15 min 38 sec)
Heartbeat CPU 0 instructions: 135500685 cycles: 65936119 heartbeat IPC: 1.62 cumulative IPC: 1.604 (Simulation time: 00 hr 15 min 42 sec)
Heartbeat CPU 0 instructions: 136000687 cycles: 66247757 heartbeat IPC: 1.604 cumulative IPC: 1.604 (Simulation time: 00 hr 15 min 46 sec)
Heartbeat CPU 0 instructions: 136500693 cycles: 66559798 heartbeat IPC: 1.602 cumulative IPC: 1.604 (Simulation time: 00 hr 15 min 51 sec)
Heartbeat CPU 0 instructions: 137000698 cycles: 66872938 heartbeat IPC: 1.597 cumulative IPC: 1.604 (Simulation time: 00 hr 15 min 55 sec)
Heartbeat CPU 0 instructions: 137500701 cycles: 67181744 heartbeat IPC: 1.619 cumulative IPC: 1.604 (Simulation time: 00 hr 15 min 59 sec)
Heartbeat CPU 0 instructions: 138000706 cycles: 67496777 heartbeat IPC: 1.587 cumulative IPC: 1.604 (Simulation time: 00 hr 16 min 03 sec)
Heartbeat CPU 0 instructions: 138500707 cycles: 67806872 heartbeat IPC: 1.612 cumulative IPC: 1.604 (Simulation time: 00 hr 16 min 07 sec)
Heartbeat CPU 0 instructions: 139000711 cycles: 68120895 heartbeat IPC: 1.592 cumulative IPC: 1.604 (Simulation time: 00 hr 16 min 12 sec)
Heartbeat CPU 0 instructions: 139500711 cycles: 68428122 heartbeat IPC: 1.627 cumulative IPC: 1.604 (Simulation time: 00 hr 16 min 16 sec)
Heartbeat CPU 0 instructions: 140000714 cycles: 68737496 heartbeat IPC: 1.616 cumulative IPC: 1.604 (Simulation time: 00 hr 16 min 20 sec)
Heartbeat CPU 0 instructions: 140500719 cycles: 69048464 heartbeat IPC: 1.608 cumulative IPC: 1.604 (Simulation time: 00 hr 16 min 24 sec)
Heartbeat CPU 0 instructions: 141000721 cycles: 69371199 heartbeat IPC: 1.549 cumulative IPC: 1.604 (Simulation time: 00 hr 16 min 28 sec)
Heartbeat CPU 0 instructions: 141500722 cycles: 69679704 heartbeat IPC: 1.621 cumulative IPC: 1.604 (Simulation time: 00 hr 16 min 32 sec)
Heartbeat CPU 0 instructions: 142000726 cycles: 69988314 heartbeat IPC: 1.62 cumulative IPC: 1.604 (Simulation time: 00 hr 16 min 36 sec)
Heartbeat CPU 0 instructions: 142500730 cycles: 70299489 heartbeat IPC: 1.607 cumulative IPC: 1.604 (Simulation time: 00 hr 16 min 40 sec)
Heartbeat CPU 0 instructions: 143000730 cycles: 70611405 heartbeat IPC: 1.603 cumulative IPC: 1.604 (Simulation time: 00 hr 16 min 44 sec)
Heartbeat CPU 0 instructions: 143500730 cycles: 70925937 heartbeat IPC: 1.59 cumulative IPC: 1.604 (Simulation time: 00 hr 16 min 48 sec)
Heartbeat CPU 0 instructions: 144000730 cycles: 71238007 heartbeat IPC: 1.602 cumulative IPC: 1.604 (Simulation time: 00 hr 16 min 52 sec)
Heartbeat CPU 0 instructions: 144500734 cycles: 71546993 heartbeat IPC: 1.618 cumulative IPC: 1.604 (Simulation time: 00 hr 16 min 57 sec)
Heartbeat CPU 0 instructions: 145000736 cycles: 71870568 heartbeat IPC: 1.545 cumulative IPC: 1.604 (Simulation time: 00 hr 17 min 01 sec)
Heartbeat CPU 0 instructions: 145500736 cycles: 72180840 heartbeat IPC: 1.611 cumulative IPC: 1.604 (Simulation time: 00 hr 17 min 05 sec)
Heartbeat CPU 0 instructions: 146000736 cycles: 72491835 heartbeat IPC: 1.608 cumulative IPC: 1.604 (Simulation time: 00 hr 17 min 09 sec)
Heartbeat CPU 0 instructions: 146500743 cycles: 72803255 heartbeat IPC: 1.606 cumulative IPC: 1.604 (Simulation time: 00 hr 17 min 13 sec)
Heartbeat CPU 0 instructions: 147000747 cycles: 73115727 heartbeat IPC: 1.6 cumulative IPC: 1.604 (Simulation time: 00 hr 17 min 17 sec)
Heartbeat CPU 0 instructions: 147500747 cycles: 73425891 heartbeat IPC: 1.612 cumulative IPC: 1.604 (Simulation time: 00 hr 17 min 22 sec)
Heartbeat CPU 0 instructions: 148000751 cycles: 73751171 heartbeat IPC: 1.537 cumulative IPC: 1.604 (Simulation time: 00 hr 17 min 26 sec)
Heartbeat CPU 0 instructions: 148500757 cycles: 74059410 heartbeat IPC: 1.622 cumulative IPC: 1.604 (Simulation time: 00 hr 17 min 30 sec)
Heartbeat CPU 0 instructions: 149000758 cycles: 74371440 heartbeat IPC: 1.602 cumulative IPC: 1.604 (Simulation time: 00 hr 17 min 35 sec)
Heartbeat CPU 0 instructions: 149500758 cycles: 74682201 heartbeat IPC: 1.609 cumulative IPC: 1.604 (Simulation time: 00 hr 17 min 39 sec)
Heartbeat CPU 0 instructions: 150000760 cycles: 74994025 heartbeat IPC: 1.603 cumulative IPC: 1.604 (Simulation time: 00 hr 17 min 43 sec)
Heartbeat CPU 0 instructions: 150500762 cycles: 75306244 heartbeat IPC: 1.601 cumulative IPC: 1.604 (Simulation time: 00 hr 17 min 47 sec)
Heartbeat CPU 0 instructions: 151000762 cycles: 75614485 heartbeat IPC: 1.622 cumulative IPC: 1.604 (Simulation time: 00 hr 17 min 51 sec)
Heartbeat CPU 0 instructions: 151500767 cycles: 75922421 heartbeat IPC: 1.624 cumulative IPC: 1.604 (Simulation time: 00 hr 17 min 55 sec)
Heartbeat CPU 0 instructions: 152000767 cycles: 76234664 heartbeat IPC: 1.601 cumulative IPC: 1.604 (Simulation time: 00 hr 18 min 00 sec)
Heartbeat CPU 0 instructions: 152500767 cycles: 76542698 heartbeat IPC: 1.623 cumulative IPC: 1.604 (Simulation time: 00 hr 18 min 04 sec)
Heartbeat CPU 0 instructions: 153000771 cycles: 76852852 heartbeat IPC: 1.612 cumulative IPC: 1.604 (Simulation time: 00 hr 18 min 08 sec)
Heartbeat CPU 0 instructions: 153500772 cycles: 77163165 heartbeat IPC: 1.611 cumulative IPC: 1.604 (Simulation time: 00 hr 18 min 12 sec)
Heartbeat CPU 0 instructions: 154000772 cycles: 77474198 heartbeat IPC: 1.608 cumulative IPC: 1.604 (Simulation time: 00 hr 18 min 16 sec)
Heartbeat CPU 0 instructions: 154500772 cycles: 77784604 heartbeat IPC: 1.611 cumulative IPC: 1.604 (Simulation time: 00 hr 18 min 20 sec)
Heartbeat CPU 0 instructions: 155000772 cycles: 78097895 heartbeat IPC: 1.596 cumulative IPC: 1.604 (Simulation time: 00 hr 18 min 24 sec)
Heartbeat CPU 0 instructions: 155500777 cycles: 78408086 heartbeat IPC: 1.612 cumulative IPC: 1.604 (Simulation time: 00 hr 18 min 28 sec)
Heartbeat CPU 0 instructions: 156000777 cycles: 78719498 heartbeat IPC: 1.606 cumulative IPC: 1.604 (Simulation time: 00 hr 18 min 32 sec)
Heartbeat CPU 0 instructions: 156500777 cycles: 79032046 heartbeat IPC: 1.6 cumulative IPC: 1.604 (Simulation time: 00 hr 18 min 36 sec)
Heartbeat CPU 0 instructions: 157000777 cycles: 79342647 heartbeat IPC: 1.61 cumulative IPC: 1.604 (Simulation time: 00 hr 18 min 40 sec)
Heartbeat CPU 0 instructions: 157500783 cycles: 79654770 heartbeat IPC: 1.602 cumulative IPC: 1.604 (Simulation time: 00 hr 18 min 44 sec)
Heartbeat CPU 0 instructions: 158000789 cycles: 79966431 heartbeat IPC: 1.604 cumulative IPC: 1.604 (Simulation time: 00 hr 18 min 49 sec)
Heartbeat CPU 0 instructions: 158500789 cycles: 80275070 heartbeat IPC: 1.62 cumulative IPC: 1.604 (Simulation time: 00 hr 18 min 53 sec)
Heartbeat CPU 0 instructions: 159000789 cycles: 80588872 heartbeat IPC: 1.593 cumulative IPC: 1.604 (Simulation time: 00 hr 18 min 57 sec)
Heartbeat CPU 0 instructions: 159500789 cycles: 80899363 heartbeat IPC: 1.61 cumulative IPC: 1.604 (Simulation time: 00 hr 19 min 01 sec)
Heartbeat CPU 0 instructions: 160000791 cycles: 81211204 heartbeat IPC: 1.603 cumulative IPC: 1.604 (Simulation time: 00 hr 19 min 05 sec)
Heartbeat CPU 0 instructions: 160500794 cycles: 81522455 heartbeat IPC: 1.606 cumulative IPC: 1.604 (Simulation time: 00 hr 19 min 09 sec)
Heartbeat CPU 0 instructions: 161000794 cycles: 81835012 heartbeat IPC: 1.6 cumulative IPC: 1.604 (Simulation time: 00 hr 19 min 13 sec)
Heartbeat CPU 0 instructions: 161500794 cycles: 82147160 heartbeat IPC: 1.602 cumulative IPC: 1.604 (Simulation time: 00 hr 19 min 17 sec)
Heartbeat CPU 0 instructions: 162000799 cycles: 82458776 heartbeat IPC: 1.605 cumulative IPC: 1.604 (Simulation time: 00 hr 19 min 21 sec)
Heartbeat CPU 0 instructions: 162500799 cycles: 82769242 heartbeat IPC: 1.61 cumulative IPC: 1.604 (Simulation time: 00 hr 19 min 25 sec)
Heartbeat CPU 0 instructions: 163000799 cycles: 83080442 heartbeat IPC: 1.607 cumulative IPC: 1.604 (Simulation time: 00 hr 19 min 29 sec)
Heartbeat CPU 0 instructions: 163500799 cycles: 83394546 heartbeat IPC: 1.592 cumulative IPC: 1.604 (Simulation time: 00 hr 19 min 34 sec)
Heartbeat CPU 0 instructions: 164000804 cycles: 83707703 heartbeat IPC: 1.597 cumulative IPC: 1.604 (Simulation time: 00 hr 19 min 38 sec)
Heartbeat CPU 0 instructions: 164500804 cycles: 84019586 heartbeat IPC: 1.603 cumulative IPC: 1.604 (Simulation time: 00 hr 19 min 42 sec)
Heartbeat CPU 0 instructions: 165000804 cycles: 84332200 heartbeat IPC: 1.599 cumulative IPC: 1.604 (Simulation time: 00 hr 19 min 46 sec)
Heartbeat CPU 0 instructions: 165500804 cycles: 84643018 heartbeat IPC: 1.609 cumulative IPC: 1.604 (Simulation time: 00 hr 19 min 50 sec)
Heartbeat CPU 0 instructions: 166000805 cycles: 84951849 heartbeat IPC: 1.619 cumulative IPC: 1.604 (Simulation time: 00 hr 19 min 54 sec)
Heartbeat CPU 0 instructions: 166500809 cycles: 85262741 heartbeat IPC: 1.608 cumulative IPC: 1.604 (Simulation time: 00 hr 19 min 58 sec)
Heartbeat CPU 0 instructions: 167000809 cycles: 85573327 heartbeat IPC: 1.61 cumulative IPC: 1.604 (Simulation time: 00 hr 20 min 02 sec)
Heartbeat CPU 0 instructions: 167500809 cycles: 85887083 heartbeat IPC: 1.594 cumulative IPC: 1.604 (Simulation time: 00 hr 20 min 06 sec)
Heartbeat CPU 0 instructions: 168000809 cycles: 86199178 heartbeat IPC: 1.602 cumulative IPC: 1.604 (Simulation time: 00 hr 20 min 10 sec)
Heartbeat CPU 0 instructions: 168500814 cycles: 86509922 heartbeat IPC: 1.609 cumulative IPC: 1.604 (Simulation time: 00 hr 20 min 14 sec)
Heartbeat CPU 0 instructions: 169000814 cycles: 86820601 heartbeat IPC: 1.609 cumulative IPC: 1.604 (Simulation time: 00 hr 20 min 18 sec)
Heartbeat CPU 0 instructions: 169500814 cycles: 87129529 heartbeat IPC: 1.619 cumulative IPC: 1.604 (Simulation time: 00 hr 20 min 22 sec)
Heartbeat CPU 0 instructions: 170000814 cycles: 87441021 heartbeat IPC: 1.605 cumulative IPC: 1.604 (Simulation time: 00 hr 20 min 27 sec)
Heartbeat CPU 0 instructions: 170500819 cycles: 87753406 heartbeat IPC: 1.601 cumulative IPC: 1.604 (Simulation time: 00 hr 20 min 31 sec)
Heartbeat CPU 0 instructions: 171000819 cycles: 88061936 heartbeat IPC: 1.621 cumulative IPC: 1.604 (Simulation time: 00 hr 20 min 35 sec)
Heartbeat CPU 0 instructions: 171500819 cycles: 88372954 heartbeat IPC: 1.608 cumulative IPC: 1.604 (Simulation time: 00 hr 20 min 39 sec)
Heartbeat CPU 0 instructions: 172000819 cycles: 88682706 heartbeat IPC: 1.614 cumulative IPC: 1.604 (Simulation time: 00 hr 20 min 43 sec)
Heartbeat CPU 0 instructions: 172500824 cycles: 88992936 heartbeat IPC: 1.612 cumulative IPC: 1.604 (Simulation time: 00 hr 20 min 47 sec)
Heartbeat CPU 0 instructions: 173000824 cycles: 89304809 heartbeat IPC: 1.603 cumulative IPC: 1.604 (Simulation time: 00 hr 20 min 51 sec)
Heartbeat CPU 0 instructions: 173500824 cycles: 89616230 heartbeat IPC: 1.606 cumulative IPC: 1.604 (Simulation time: 00 hr 20 min 55 sec)
Heartbeat CPU 0 instructions: 174000824 cycles: 89927211 heartbeat IPC: 1.608 cumulative IPC: 1.604 (Simulation time: 00 hr 20 min 59 sec)
Heartbeat CPU 0 instructions: 174500827 cycles: 90237295 heartbeat IPC: 1.612 cumulative IPC: 1.604 (Simulation time: 00 hr 21 min 03 sec)
Heartbeat CPU 0 instructions: 175000828 cycles: 90545670 heartbeat IPC: 1.621 cumulative IPC: 1.604 (Simulation time: 00 hr 21 min 07 sec)
Heartbeat CPU 0 instructions: 175500829 cycles: 90859144 heartbeat IPC: 1.595 cumulative IPC: 1.604 (Simulation time: 00 hr 21 min 12 sec)
Heartbeat CPU 0 instructions: 176000829 cycles: 91171960 heartbeat IPC: 1.598 cumulative IPC: 1.604 (Simulation time: 00 hr 21 min 16 sec)
Heartbeat CPU 0 instructions: 176500829 cycles: 91481163 heartbeat IPC: 1.617 cumulative IPC: 1.604 (Simulation time: 00 hr 21 min 20 sec)
Heartbeat CPU 0 instructions: 177000834 cycles: 91793422 heartbeat IPC: 1.601 cumulative IPC: 1.604 (Simulation time: 00 hr 21 min 24 sec)
Heartbeat CPU 0 instructions: 177500834 cycles: 92105861 heartbeat IPC: 1.6 cumulative IPC: 1.604 (Simulation time: 00 hr 21 min 28 sec)
Heartbeat CPU 0 instructions: 178000834 cycles: 92416313 heartbeat IPC: 1.611 cumulative IPC: 1.604 (Simulation time: 00 hr 21 min 32 sec)
Heartbeat CPU 0 instructions: 178500834 cycles: 92729443 heartbeat IPC: 1.597 cumulative IPC: 1.604 (Simulation time: 00 hr 21 min 36 sec)
Heartbeat CPU 0 instructions: 179000839 cycles: 93038577 heartbeat IPC: 1.617 cumulative IPC: 1.604 (Simulation time: 00 hr 21 min 40 sec)
Heartbeat CPU 0 instructions: 179500839 cycles: 93350844 heartbeat IPC: 1.601 cumulative IPC: 1.604 (Simulation time: 00 hr 21 min 44 sec)
Heartbeat CPU 0 instructions: 180000839 cycles: 93661168 heartbeat IPC: 1.611 cumulative IPC: 1.604 (Simulation time: 00 hr 21 min 48 sec)
Heartbeat CPU 0 instructions: 180500839 cycles: 93975348 heartbeat IPC: 1.591 cumulative IPC: 1.604 (Simulation time: 00 hr 21 min 53 sec)
Heartbeat CPU 0 instructions: 181000844 cycles: 94286871 heartbeat IPC: 1.605 cumulative IPC: 1.604 (Simulation time: 00 hr 21 min 57 sec)
Heartbeat CPU 0 instructions: 181500844 cycles: 94599886 heartbeat IPC: 1.597 cumulative IPC: 1.604 (Simulation time: 00 hr 22 min 01 sec)
Heartbeat CPU 0 instructions: 182000844 cycles: 94910308 heartbeat IPC: 1.611 cumulative IPC: 1.604 (Simulation time: 00 hr 22 min 05 sec)
Heartbeat CPU 0 instructions: 182500844 cycles: 95222240 heartbeat IPC: 1.603 cumulative IPC: 1.604 (Simulation time: 00 hr 22 min 09 sec)
Heartbeat CPU 0 instructions: 183000849 cycles: 95535139 heartbeat IPC: 1.598 cumulative IPC: 1.604 (Simulation time: 00 hr 22 min 13 sec)
Heartbeat CPU 0 instructions: 183500849 cycles: 95845563 heartbeat IPC: 1.611 cumulative IPC: 1.604 (Simulation time: 00 hr 22 min 17 sec)
Heartbeat CPU 0 instructions: 184000849 cycles: 96159807 heartbeat IPC: 1.591 cumulative IPC: 1.604 (Simulation time: 00 hr 22 min 21 sec)
Heartbeat CPU 0 instructions: 184500849 cycles: 96470017 heartbeat IPC: 1.612 cumulative IPC: 1.604 (Simulation time: 00 hr 22 min 25 sec)
Heartbeat CPU 0 instructions: 185000849 cycles: 96779410 heartbeat IPC: 1.616 cumulative IPC: 1.604 (Simulation time: 00 hr 22 min 30 sec)
Heartbeat CPU 0 instructions: 185500854 cycles: 97087782 heartbeat IPC: 1.621 cumulative IPC: 1.604 (Simulation time: 00 hr 22 min 34 sec)
Heartbeat CPU 0 instructions: 186000854 cycles: 97398171 heartbeat IPC: 1.611 cumulative IPC: 1.604 (Simulation time: 00 hr 22 min 38 sec)
Heartbeat CPU 0 instructions: 186500854 cycles: 97709643 heartbeat IPC: 1.605 cumulative IPC: 1.604 (Simulation time: 00 hr 22 min 42 sec)
Heartbeat CPU 0 instructions: 187000854 cycles: 98022360 heartbeat IPC: 1.599 cumulative IPC: 1.604 (Simulation time: 00 hr 22 min 46 sec)
Heartbeat CPU 0 instructions: 187500859 cycles: 98332568 heartbeat IPC: 1.612 cumulative IPC: 1.604 (Simulation time: 00 hr 22 min 50 sec)
Heartbeat CPU 0 instructions: 188000859 cycles: 98643203 heartbeat IPC: 1.61 cumulative IPC: 1.605 (Simulation time: 00 hr 22 min 54 sec)
Heartbeat CPU 0 instructions: 188500859 cycles: 98953084 heartbeat IPC: 1.614 cumulative IPC: 1.605 (Simulation time: 00 hr 22 min 58 sec)
Heartbeat CPU 0 instructions: 189000859 cycles: 99262382 heartbeat IPC: 1.617 cumulative IPC: 1.605 (Simulation time: 00 hr 23 min 02 sec)
Heartbeat CPU 0 instructions: 189500859 cycles: 99573678 heartbeat IPC: 1.606 cumulative IPC: 1.605 (Simulation time: 00 hr 23 min 06 sec)
Heartbeat CPU 0 instructions: 190000864 cycles: 99885913 heartbeat IPC: 1.601 cumulative IPC: 1.605 (Simulation time: 00 hr 23 min 10 sec)
Heartbeat CPU 0 instructions: 190500864 cycles: 100198227 heartbeat IPC: 1.601 cumulative IPC: 1.605 (Simulation time: 00 hr 23 min 14 sec)
Heartbeat CPU 0 instructions: 191000864 cycles: 100511178 heartbeat IPC: 1.598 cumulative IPC: 1.605 (Simulation time: 00 hr 23 min 19 sec)
Heartbeat CPU 0 instructions: 191500871 cycles: 100823400 heartbeat IPC: 1.601 cumulative IPC: 1.605 (Simulation time: 00 hr 23 min 23 sec)
Heartbeat CPU 0 instructions: 192000876 cycles: 101132136 heartbeat IPC: 1.62 cumulative IPC: 1.605 (Simulation time: 00 hr 23 min 27 sec)
Heartbeat CPU 0 instructions: 192500876 cycles: 101440576 heartbeat IPC: 1.621 cumulative IPC: 1.605 (Simulation time: 00 hr 23 min 31 sec)
Heartbeat CPU 0 instructions: 193000876 cycles: 101751718 heartbeat IPC: 1.607 cumulative IPC: 1.605 (Simulation time: 00 hr 23 min 35 sec)
Heartbeat CPU 0 instructions: 193500876 cycles: 102060484 heartbeat IPC: 1.619 cumulative IPC: 1.605 (Simulation time: 00 hr 23 min 39 sec)
Heartbeat CPU 0 instructions: 194000881 cycles: 102371029 heartbeat IPC: 1.61 cumulative IPC: 1.605 (Simulation time: 00 hr 23 min 43 sec)
Heartbeat CPU 0 instructions: 194500882 cycles: 102720388 heartbeat IPC: 1.431 cumulative IPC: 1.604 (Simulation time: 00 hr 23 min 47 sec)
Heartbeat CPU 0 instructions: 195000883 cycles: 103030655 heartbeat IPC: 1.612 cumulative IPC: 1.604 (Simulation time: 00 hr 23 min 51 sec)
Heartbeat CPU 0 instructions: 195500888 cycles: 103343248 heartbeat IPC: 1.6 cumulative IPC: 1.604 (Simulation time: 00 hr 23 min 55 sec)
Heartbeat CPU 0 instructions: 196000888 cycles: 103636834 heartbeat IPC: 1.703 cumulative IPC: 1.604 (Simulation time: 00 hr 23 min 59 sec)
Heartbeat CPU 0 instructions: 196500892 cycles: 103908343 heartbeat IPC: 1.842 cumulative IPC: 1.605 (Simulation time: 00 hr 24 min 03 sec)
Heartbeat CPU 0 instructions: 197000892 cycles: 104178458 heartbeat IPC: 1.851 cumulative IPC: 1.606 (Simulation time: 00 hr 24 min 06 sec)
Heartbeat CPU 0 instructions: 197500893 cycles: 104465423 heartbeat IPC: 1.742 cumulative IPC: 1.606 (Simulation time: 00 hr 24 min 10 sec)
Heartbeat CPU 0 instructions: 198000893 cycles: 104746505 heartbeat IPC: 1.779 cumulative IPC: 1.607 (Simulation time: 00 hr 24 min 14 sec)
Heartbeat CPU 0 instructions: 198500899 cycles: 105029959 heartbeat IPC: 1.764 cumulative IPC: 1.607 (Simulation time: 00 hr 24 min 18 sec)
Heartbeat CPU 0 instructions: 199000899 cycles: 105305112 heartbeat IPC: 1.817 cumulative IPC: 1.608 (Simulation time: 00 hr 24 min 21 sec)
Heartbeat CPU 0 instructions: 199500903 cycles: 105578022 heartbeat IPC: 1.832 cumulative IPC: 1.609 (Simulation time: 00 hr 24 min 25 sec)
Heartbeat CPU 0 instructions: 200000903 cycles: 105854393 heartbeat IPC: 1.809 cumulative IPC: 1.609 (Simulation time: 00 hr 24 min 29 sec)
Heartbeat CPU 0 instructions: 200500903 cycles: 106129681 heartbeat IPC: 1.816 cumulative IPC: 1.61 (Simulation time: 00 hr 24 min 32 sec)
Heartbeat CPU 0 instructions: 201000903 cycles: 106403304 heartbeat IPC: 1.827 cumulative IPC: 1.61 (Simulation time: 00 hr 24 min 36 sec)
Heartbeat CPU 0 instructions: 201500904 cycles: 106681605 heartbeat IPC: 1.797 cumulative IPC: 1.611 (Simulation time: 00 hr 24 min 40 sec)
Heartbeat CPU 0 instructions: 202000909 cycles: 106964679 heartbeat IPC: 1.766 cumulative IPC: 1.611 (Simulation time: 00 hr 24 min 44 sec)
Heartbeat CPU 0 instructions: 202500909 cycles: 107245479 heartbeat IPC: 1.781 cumulative IPC: 1.612 (Simulation time: 00 hr 24 min 47 sec)
Heartbeat CPU 0 instructions: 203000909 cycles: 107527096 heartbeat IPC: 1.775 cumulative IPC: 1.612 (Simulation time: 00 hr 24 min 51 sec)
Heartbeat CPU 0 instructions: 203500913 cycles: 107807189 heartbeat IPC: 1.785 cumulative IPC: 1.613 (Simulation time: 00 hr 24 min 55 sec)
Heartbeat CPU 0 instructions: 204000919 cycles: 108097788 heartbeat IPC: 1.721 cumulative IPC: 1.613 (Simulation time: 00 hr 24 min 59 sec)
Heartbeat CPU 0 instructions: 204500920 cycles: 108386424 heartbeat IPC: 1.732 cumulative IPC: 1.614 (Simulation time: 00 hr 25 min 03 sec)
Heartbeat CPU 0 instructions: 205000920 cycles: 108673225 heartbeat IPC: 1.743 cumulative IPC: 1.614 (Simulation time: 00 hr 25 min 07 sec)
Heartbeat CPU 0 instructions: 205500922 cycles: 108950713 heartbeat IPC: 1.802 cumulative IPC: 1.614 (Simulation time: 00 hr 25 min 11 sec)
Heartbeat CPU 0 instructions: 206000928 cycles: 109232828 heartbeat IPC: 1.772 cumulative IPC: 1.615 (Simulation time: 00 hr 25 min 15 sec)
Heartbeat CPU 0 instructions: 206500930 cycles: 109513003 heartbeat IPC: 1.785 cumulative IPC: 1.615 (Simulation time: 00 hr 25 min 18 sec)
Heartbeat CPU 0 instructions: 207000931 cycles: 109791703 heartbeat IPC: 1.794 cumulative IPC: 1.616 (Simulation time: 00 hr 25 min 22 sec)
Heartbeat CPU 0 instructions: 207500931 cycles: 110076089 heartbeat IPC: 1.758 cumulative IPC: 1.616 (Simulation time: 00 hr 25 min 26 sec)
Heartbeat CPU 0 instructions: 208000936 cycles: 110363476 heartbeat IPC: 1.74 cumulative IPC: 1.617 (Simulation time: 00 hr 25 min 30 sec)
Heartbeat CPU 0 instructions: 208500936 cycles: 110643175 heartbeat IPC: 1.788 cumulative IPC: 1.617 (Simulation time: 00 hr 25 min 34 sec)
Heartbeat CPU 0 instructions: 209000940 cycles: 110924836 heartbeat IPC: 1.775 cumulative IPC: 1.618 (Simulation time: 00 hr 25 min 37 sec)
Heartbeat CPU 0 instructions: 209500940 cycles: 111203171 heartbeat IPC: 1.796 cumulative IPC: 1.618 (Simulation time: 00 hr 25 min 41 sec)
Heartbeat CPU 0 instructions: 210000942 cycles: 111501885 heartbeat IPC: 1.674 cumulative IPC: 1.618 (Simulation time: 00 hr 25 min 45 sec)
Heartbeat CPU 0 instructions: 210500948 cycles: 111780445 heartbeat IPC: 1.795 cumulative IPC: 1.619 (Simulation time: 00 hr 25 min 49 sec)
Heartbeat CPU 0 instructions: 211000950 cycles: 112062994 heartbeat IPC: 1.77 cumulative IPC: 1.619 (Simulation time: 00 hr 25 min 52 sec)
Heartbeat CPU 0 instructions: 211500954 cycles: 112345433 heartbeat IPC: 1.77 cumulative IPC: 1.62 (Simulation time: 00 hr 25 min 56 sec)
Heartbeat CPU 0 instructions: 212000958 cycles: 112624116 heartbeat IPC: 1.794 cumulative IPC: 1.62 (Simulation time: 00 hr 26 min 00 sec)
Heartbeat CPU 0 instructions: 212500958 cycles: 112899873 heartbeat IPC: 1.813 cumulative IPC: 1.621 (Simulation time: 00 hr 26 min 03 sec)
Heartbeat CPU 0 instructions: 213000958 cycles: 113172008 heartbeat IPC: 1.837 cumulative IPC: 1.621 (Simulation time: 00 hr 26 min 07 sec)
Heartbeat CPU 0 instructions: 213500958 cycles: 113448829 heartbeat IPC: 1.806 cumulative IPC: 1.622 (Simulation time: 00 hr 26 min 10 sec)
Heartbeat CPU 0 instructions: 214000962 cycles: 113727156 heartbeat IPC: 1.796 cumulative IPC: 1.622 (Simulation time: 00 hr 26 min 14 sec)
Heartbeat CPU 0 instructions: 214500963 cycles: 114000592 heartbeat IPC: 1.829 cumulative IPC: 1.623 (Simulation time: 00 hr 26 min 18 sec)
Heartbeat CPU 0 instructions: 215000964 cycles: 114276045 heartbeat IPC: 1.815 cumulative IPC: 1.623 (Simulation time: 00 hr 26 min 22 sec)
Heartbeat CPU 0 instructions: 215500964 cycles: 114550138 heartbeat IPC: 1.824 cumulative IPC: 1.624 (Simulation time: 00 hr 26 min 25 sec)
Heartbeat CPU 0 instructions: 216000964 cycles: 114823145 heartbeat IPC: 1.831 cumulative IPC: 1.624 (Simulation time: 00 hr 26 min 29 sec)
Heartbeat CPU 0 instructions: 216500968 cycles: 115095303 heartbeat IPC: 1.837 cumulative IPC: 1.625 (Simulation time: 00 hr 26 min 33 sec)
Heartbeat CPU 0 instructions: 217000974 cycles: 115393327 heartbeat IPC: 1.678 cumulative IPC: 1.625 (Simulation time: 00 hr 26 min 37 sec)
Heartbeat CPU 0 instructions: 217500980 cycles: 115674054 heartbeat IPC: 1.781 cumulative IPC: 1.626 (Simulation time: 00 hr 26 min 40 sec)
Heartbeat CPU 0 instructions: 218000982 cycles: 115938714 heartbeat IPC: 1.889 cumulative IPC: 1.626 (Simulation time: 00 hr 26 min 44 sec)
Heartbeat CPU 0 instructions: 218500988 cycles: 116214995 heartbeat IPC: 1.81 cumulative IPC: 1.627 (Simulation time: 00 hr 26 min 48 sec)
Heartbeat CPU 0 instructions: 219000990 cycles: 116484698 heartbeat IPC: 1.854 cumulative IPC: 1.627 (Simulation time: 00 hr 26 min 52 sec)
Heartbeat CPU 0 instructions: 219500991 cycles: 116760559 heartbeat IPC: 1.813 cumulative IPC: 1.628 (Simulation time: 00 hr 26 min 55 sec)
Heartbeat CPU 0 instructions: 220000996 cycles: 117040951 heartbeat IPC: 1.783 cumulative IPC: 1.628 (Simulation time: 00 hr 26 min 59 sec)
Heartbeat CPU 0 instructions: 220500998 cycles: 117322558 heartbeat IPC: 1.776 cumulative IPC: 1.629 (Simulation time: 00 hr 27 min 03 sec)
Heartbeat CPU 0 instructions: 221000998 cycles: 117600609 heartbeat IPC: 1.798 cumulative IPC: 1.629 (Simulation time: 00 hr 27 min 06 sec)
Heartbeat CPU 0 instructions: 221500998 cycles: 117876780 heartbeat IPC: 1.81 cumulative IPC: 1.63 (Simulation time: 00 hr 27 min 10 sec)
Heartbeat CPU 0 instructions: 222001002 cycles: 118155044 heartbeat IPC: 1.797 cumulative IPC: 1.63 (Simulation time: 00 hr 27 min 13 sec)
Heartbeat CPU 0 instructions: 222501005 cycles: 118426876 heartbeat IPC: 1.839 cumulative IPC: 1.631 (Simulation time: 00 hr 27 min 17 sec)
Heartbeat CPU 0 instructions: 223001006 cycles: 118718633 heartbeat IPC: 1.714 cumulative IPC: 1.631 (Simulation time: 00 hr 27 min 21 sec)
Heartbeat CPU 0 instructions: 223501006 cycles: 119001864 heartbeat IPC: 1.765 cumulative IPC: 1.631 (Simulation time: 00 hr 27 min 24 sec)
Heartbeat CPU 0 instructions: 224001009 cycles: 119283165 heartbeat IPC: 1.777 cumulative IPC: 1.632 (Simulation time: 00 hr 27 min 28 sec)
Heartbeat CPU 0 instructions: 224501010 cycles: 119552870 heartbeat IPC: 1.854 cumulative IPC: 1.632 (Simulation time: 00 hr 27 min 31 sec)
Heartbeat CPU 0 instructions: 225001013 cycles: 119829120 heartbeat IPC: 1.81 cumulative IPC: 1.633 (Simulation time: 00 hr 27 min 35 sec)
Heartbeat CPU 0 instructions: 225501013 cycles: 120109933 heartbeat IPC: 1.781 cumulative IPC: 1.633 (Simulation time: 00 hr 27 min 39 sec)
Heartbeat CPU 0 instructions: 226001013 cycles: 120386645 heartbeat IPC: 1.807 cumulative IPC: 1.633 (Simulation time: 00 hr 27 min 42 sec)
Heartbeat CPU 0 instructions: 226501013 cycles: 120662808 heartbeat IPC: 1.811 cumulative IPC: 1.634 (Simulation time: 00 hr 27 min 46 sec)
Heartbeat CPU 0 instructions: 227001019 cycles: 120946534 heartbeat IPC: 1.762 cumulative IPC: 1.634 (Simulation time: 00 hr 27 min 49 sec)
Heartbeat CPU 0 instructions: 227501019 cycles: 121221669 heartbeat IPC: 1.817 cumulative IPC: 1.635 (Simulation time: 00 hr 27 min 53 sec)
Heartbeat CPU 0 instructions: 228001019 cycles: 121495818 heartbeat IPC: 1.824 cumulative IPC: 1.635 (Simulation time: 00 hr 27 min 57 sec)
Heartbeat CPU 0 instructions: 228501019 cycles: 121764829 heartbeat IPC: 1.859 cumulative IPC: 1.636 (Simulation time: 00 hr 28 min 00 sec)
Heartbeat CPU 0 instructions: 229001020 cycles: 122040833 heartbeat IPC: 1.812 cumulative IPC: 1.636 (Simulation time: 00 hr 28 min 04 sec)
Heartbeat CPU 0 instructions: 229501020 cycles: 122330823 heartbeat IPC: 1.724 cumulative IPC: 1.636 (Simulation time: 00 hr 28 min 07 sec)
Heartbeat CPU 0 instructions: 230001026 cycles: 122607093 heartbeat IPC: 1.81 cumulative IPC: 1.637 (Simulation time: 00 hr 28 min 11 sec)
Heartbeat CPU 0 instructions: 230501028 cycles: 122886253 heartbeat IPC: 1.791 cumulative IPC: 1.637 (Simulation time: 00 hr 28 min 15 sec)
Heartbeat CPU 0 instructions: 231001034 cycles: 123169351 heartbeat IPC: 1.766 cumulative IPC: 1.638 (Simulation time: 00 hr 28 min 19 sec)
Heartbeat CPU 0 instructions: 231501036 cycles: 123446215 heartbeat IPC: 1.806 cumulative IPC: 1.638 (Simulation time: 00 hr 28 min 22 sec)
Heartbeat CPU 0 instructions: 232001042 cycles: 123725386 heartbeat IPC: 1.791 cumulative IPC: 1.638 (Simulation time: 00 hr 28 min 26 sec)
Heartbeat CPU 0 instructions: 232501045 cycles: 124008337 heartbeat IPC: 1.767 cumulative IPC: 1.639 (Simulation time: 00 hr 28 min 30 sec)
Heartbeat CPU 0 instructions: 233001045 cycles: 124287024 heartbeat IPC: 1.794 cumulative IPC: 1.639 (Simulation time: 00 hr 28 min 33 sec)
Heartbeat CPU 0 instructions: 233501046 cycles: 124563934 heartbeat IPC: 1.806 cumulative IPC: 1.639 (Simulation time: 00 hr 28 min 37 sec)
Heartbeat CPU 0 instructions: 234001046 cycles: 124841061 heartbeat IPC: 1.804 cumulative IPC: 1.64 (Simulation time: 00 hr 28 min 40 sec)
Heartbeat CPU 0 instructions: 234501046 cycles: 125123039 heartbeat IPC: 1.773 cumulative IPC: 1.64 (Simulation time: 00 hr 28 min 44 sec)
Heartbeat CPU 0 instructions: 235001050 cycles: 125397504 heartbeat IPC: 1.822 cumulative IPC: 1.641 (Simulation time: 00 hr 28 min 47 sec)
Heartbeat CPU 0 instructions: 235501050 cycles: 125690976 heartbeat IPC: 1.704 cumulative IPC: 1.641 (Simulation time: 00 hr 28 min 51 sec)
Heartbeat CPU 0 instructions: 236001056 cycles: 125976657 heartbeat IPC: 1.75 cumulative IPC: 1.641 (Simulation time: 00 hr 28 min 54 sec)
Heartbeat CPU 0 instructions: 236501056 cycles: 126261551 heartbeat IPC: 1.755 cumulative IPC: 1.641 (Simulation time: 00 hr 28 min 58 sec)
Heartbeat CPU 0 instructions: 237001058 cycles: 126533184 heartbeat IPC: 1.841 cumulative IPC: 1.642 (Simulation time: 00 hr 29 min 01 sec)
Heartbeat CPU 0 instructions: 237501061 cycles: 126808228 heartbeat IPC: 1.818 cumulative IPC: 1.642 (Simulation time: 00 hr 29 min 05 sec)
Heartbeat CPU 0 instructions: 238001061 cycles: 127081277 heartbeat IPC: 1.831 cumulative IPC: 1.643 (Simulation time: 00 hr 29 min 08 sec)
Heartbeat CPU 0 instructions: 238501061 cycles: 127355651 heartbeat IPC: 1.822 cumulative IPC: 1.643 (Simulation time: 00 hr 29 min 12 sec)
Heartbeat CPU 0 instructions: 239001061 cycles: 127630360 heartbeat IPC: 1.82 cumulative IPC: 1.644 (Simulation time: 00 hr 29 min 15 sec)
Heartbeat CPU 0 instructions: 239501067 cycles: 127906495 heartbeat IPC: 1.811 cumulative IPC: 1.644 (Simulation time: 00 hr 29 min 19 sec)
Heartbeat CPU 0 instructions: 240001067 cycles: 128182908 heartbeat IPC: 1.809 cumulative IPC: 1.644 (Simulation time: 00 hr 29 min 22 sec)
Heartbeat CPU 0 instructions: 240501067 cycles: 128457647 heartbeat IPC: 1.82 cumulative IPC: 1.645 (Simulation time: 00 hr 29 min 26 sec)
Heartbeat CPU 0 instructions: 241001067 cycles: 128736735 heartbeat IPC: 1.792 cumulative IPC: 1.645 (Simulation time: 00 hr 29 min 29 sec)
Heartbeat CPU 0 instructions: 241501072 cycles: 129015087 heartbeat IPC: 1.796 cumulative IPC: 1.645 (Simulation time: 00 hr 29 min 33 sec)
Heartbeat CPU 0 instructions: 242001072 cycles: 129300184 heartbeat IPC: 1.754 cumulative IPC: 1.646 (Simulation time: 00 hr 29 min 36 sec)
Heartbeat CPU 0 instructions: 242501072 cycles: 129589538 heartbeat IPC: 1.728 cumulative IPC: 1.646 (Simulation time: 00 hr 29 min 40 sec)
Heartbeat CPU 0 instructions: 243001074 cycles: 129874440 heartbeat IPC: 1.755 cumulative IPC: 1.646 (Simulation time: 00 hr 29 min 44 sec)
Heartbeat CPU 0 instructions: 243501080 cycles: 130154053 heartbeat IPC: 1.788 cumulative IPC: 1.647 (Simulation time: 00 hr 29 min 47 sec)
Heartbeat CPU 0 instructions: 244001082 cycles: 130436040 heartbeat IPC: 1.773 cumulative IPC: 1.647 (Simulation time: 00 hr 29 min 51 sec)
Heartbeat CPU 0 instructions: 244501085 cycles: 130716448 heartbeat IPC: 1.783 cumulative IPC: 1.647 (Simulation time: 00 hr 29 min 55 sec)
Heartbeat CPU 0 instructions: 245001088 cycles: 131003111 heartbeat IPC: 1.744 cumulative IPC: 1.647 (Simulation time: 00 hr 29 min 58 sec)
Heartbeat CPU 0 instructions: 245501093 cycles: 131291838 heartbeat IPC: 1.732 cumulative IPC: 1.648 (Simulation time: 00 hr 30 min 02 sec)
Heartbeat CPU 0 instructions: 246001094 cycles: 131571980 heartbeat IPC: 1.785 cumulative IPC: 1.648 (Simulation time: 00 hr 30 min 05 sec)
Heartbeat CPU 0 instructions: 246501094 cycles: 131849435 heartbeat IPC: 1.802 cumulative IPC: 1.648 (Simulation time: 00 hr 30 min 09 sec)
Heartbeat CPU 0 instructions: 247001098 cycles: 132127595 heartbeat IPC: 1.798 cumulative IPC: 1.649 (Simulation time: 00 hr 30 min 12 sec)
Heartbeat CPU 0 instructions: 247501098 cycles: 132400992 heartbeat IPC: 1.829 cumulative IPC: 1.649 (Simulation time: 00 hr 30 min 16 sec)
Heartbeat CPU 0 instructions: 248001103 cycles: 132684945 heartbeat IPC: 1.761 cumulative IPC: 1.649 (Simulation time: 00 hr 30 min 19 sec)
Heartbeat CPU 0 instructions: 248501109 cycles: 132965422 heartbeat IPC: 1.783 cumulative IPC: 1.65 (Simulation time: 00 hr 30 min 23 sec)
Heartbeat CPU 0 instructions: 249001113 cycles: 133248610 heartbeat IPC: 1.766 cumulative IPC: 1.65 (Simulation time: 00 hr 30 min 26 sec)
Heartbeat CPU 0 instructions: 249501119 cycles: 133530934 heartbeat IPC: 1.771 cumulative IPC: 1.65 (Simulation time: 00 hr 30 min 30 sec)
Simulation finished CPU 0 instructions: 200000000 cycles: 121178436 cumulative IPC: 1.65 (Simulation time: 00 hr 30 min 33 sec)
Simulation complete CPU 0 instructions: 200000000 cycles: 121178436 cumulative IPC: 1.65 (Simulation time: 00 hr 30 min 33 sec)

ChampSim completed all CPUs

=== Simulation ===
CPU 0 runs /local-ssd/ben/dpc4-traces/ai-ml/llama2.c-stories110M.1.champsimtrace.gz

Region of Interest Statistics

CPU 0 cumulative IPC: 1.65 instructions: 200000000 cycles: 121178436
CPU 0 Branch Prediction Accuracy: 99.54% MPKI: 0.6617 Average ROB Occupancy at Mispredict: 503.8
Branch type MPKI
BRANCH_DIRECT_JUMP: 0.0001
BRANCH_INDIRECT: 5e-06
BRANCH_CONDITIONAL: 0.6614
BRANCH_DIRECT_CALL: 0.00012
BRANCH_INDIRECT_CALL: 2.5e-05
BRANCH_RETURN: 0.00014

cpu0->cpu0_STLB TOTAL        ACCESS:     110585 HIT:        600 MISS:     109985 MSHR_MERGE:          0
cpu0->cpu0_STLB LOAD         ACCESS:     110585 HIT:        600 MISS:     109985 MSHR_MERGE:          0
cpu0->cpu0_STLB RFO          ACCESS:          0 HIT:          0 MISS:          0 MSHR_MERGE:          0
cpu0->cpu0_STLB PREFETCH     ACCESS:          0 HIT:          0 MISS:          0 MSHR_MERGE:          0
cpu0->cpu0_STLB WRITE        ACCESS:          0 HIT:          0 MISS:          0 MSHR_MERGE:          0
cpu0->cpu0_STLB TRANSLATION  ACCESS:          0 HIT:          0 MISS:          0 MSHR_MERGE:          0
cpu0->cpu0_STLB PREFETCH REQUESTED:          0 ISSUED:          0 USEFUL:          0 USELESS:          0
cpu0->cpu0_STLB AVERAGE MISS LATENCY: 188.7 cycles
cpu0->cpu0_L2C TOTAL        ACCESS:   12849102 HIT:    1199637 MISS:   11649465 MSHR_MERGE:    4621299
cpu0->cpu0_L2C LOAD         ACCESS:    1504102 HIT:     131382 MISS:    1372720 MSHR_MERGE:     543559
cpu0->cpu0_L2C RFO          ACCESS:      16137 HIT:       8085 MISS:       8052 MSHR_MERGE:          0
cpu0->cpu0_L2C PREFETCH     ACCESS:   11293426 HIT:    1041270 MISS:   10252156 MSHR_MERGE:    4077740
cpu0->cpu0_L2C WRITE        ACCESS:      20951 HIT:      18748 MISS:       2203 MSHR_MERGE:          0
cpu0->cpu0_L2C TRANSLATION  ACCESS:      14486 HIT:        152 MISS:      14334 MSHR_MERGE:          0
cpu0->cpu0_L2C PREFETCH REQUESTED:    6337408 ISSUED:    5793774 USEFUL:    1680436 USELESS:    3023984
cpu0->cpu0_L2C AVERAGE MISS LATENCY: 187.2 cycles
cpu0->cpu0_L1I TOTAL        ACCESS:   25342332 HIT:   25342176 MISS:        156 MSHR_MERGE:         13
cpu0->cpu0_L1I LOAD         ACCESS:   25342332 HIT:   25342176 MISS:        156 MSHR_MERGE:         13
cpu0->cpu0_L1I RFO          ACCESS:          0 HIT:          0 MISS:          0 MSHR_MERGE:          0
cpu0->cpu0_L1I PREFETCH     ACCESS:          0 HIT:          0 MISS:          0 MSHR_MERGE:          0
cpu0->cpu0_L1I WRITE        ACCESS:          0 HIT:          0 MISS:          0 MSHR_MERGE:          0
cpu0->cpu0_L1I TRANSLATION  ACCESS:          0 HIT:          0 MISS:          0 MSHR_MERGE:          0
cpu0->cpu0_L1I PREFETCH REQUESTED:          0 ISSUED:          0 USEFUL:          0 USELESS:          0
cpu0->cpu0_L1I AVERAGE MISS LATENCY: 238.4 cycles
cpu0->cpu0_L1D TOTAL        ACCESS:   42418895 HIT:   25737141 MISS:   16681754 MSHR_MERGE:    9647495
cpu0->cpu0_L1D LOAD         ACCESS:   35754198 HIT:   25249003 MISS:   10505195 MSHR_MERGE:    9001236
cpu0->cpu0_L1D RFO          ACCESS:          0 HIT:          0 MISS:          0 MSHR_MERGE:          0
cpu0->cpu0_L1D PREFETCH     ACCESS:    6237518 HIT:      92021 MISS:    6145497 MSHR_MERGE:     645844
cpu0->cpu0_L1D WRITE        ACCESS:     206926 HIT:     190369 MISS:      16557 MSHR_MERGE:        396
cpu0->cpu0_L1D TRANSLATION  ACCESS:     220253 HIT:     205748 MISS:      14505 MSHR_MERGE:         19
cpu0->cpu0_L1D PREFETCH REQUESTED:    7018405 ISSUED:    6237511 USEFUL:    5496425 USELESS:       3222
cpu0->cpu0_L1D AVERAGE MISS LATENCY: 108.1 cycles
cpu0->cpu0_ITLB TOTAL        ACCESS:   22235038 HIT:   22235013 MISS:         25 MSHR_MERGE:          4
cpu0->cpu0_ITLB LOAD         ACCESS:   22235038 HIT:   22235013 MISS:         25 MSHR_MERGE:          4
cpu0->cpu0_ITLB RFO          ACCESS:          0 HIT:          0 MISS:          0 MSHR_MERGE:          0
cpu0->cpu0_ITLB PREFETCH     ACCESS:          0 HIT:          0 MISS:          0 MSHR_MERGE:          0
cpu0->cpu0_ITLB WRITE        ACCESS:          0 HIT:          0 MISS:          0 MSHR_MERGE:          0
cpu0->cpu0_ITLB TRANSLATION  ACCESS:          0 HIT:          0 MISS:          0 MSHR_MERGE:          0
cpu0->cpu0_ITLB PREFETCH REQUESTED:          0 ISSUED:          0 USEFUL:          0 USELESS:          0
cpu0->cpu0_ITLB AVERAGE MISS LATENCY: 439.5 cycles
cpu0->cpu0_DTLB TOTAL        ACCESS:   37503833 HIT:   35970756 MISS:    1533077 MSHR_MERGE:    1422513
cpu0->cpu0_DTLB LOAD         ACCESS:   37503833 HIT:   35970756 MISS:    1533077 MSHR_MERGE:    1422513
cpu0->cpu0_DTLB RFO          ACCESS:          0 HIT:          0 MISS:          0 MSHR_MERGE:          0
cpu0->cpu0_DTLB PREFETCH     ACCESS:          0 HIT:          0 MISS:          0 MSHR_MERGE:          0
cpu0->cpu0_DTLB WRITE        ACCESS:          0 HIT:          0 MISS:          0 MSHR_MERGE:          0
cpu0->cpu0_DTLB TRANSLATION  ACCESS:          0 HIT:          0 MISS:          0 MSHR_MERGE:          0
cpu0->cpu0_DTLB PREFETCH REQUESTED:          0 ISSUED:          0 USEFUL:          0 USELESS:          0
cpu0->cpu0_DTLB AVERAGE MISS LATENCY: 193.6 cycles
cpu0->LLC TOTAL        ACCESS:    9262629 HIT:     357388 MISS:    8905241 MSHR_MERGE:    1889370
cpu0->LLC LOAD         ACCESS:     829161 HIT:      17533 MISS:     811628 MSHR_MERGE:      23577
cpu0->LLC RFO          ACCESS:       8052 HIT:       3136 MISS:       4916 MSHR_MERGE:          0
cpu0->LLC PREFETCH     ACCESS:    8398146 HIT:     328888 MISS:    8069258 MSHR_MERGE:    1865793
cpu0->LLC WRITE        ACCESS:      12936 HIT:       7786 MISS:       5150 MSHR_MERGE:          0
cpu0->LLC TRANSLATION  ACCESS:      14334 HIT:         45 MISS:      14289 MSHR_MERGE:          0
cpu0->LLC PREFETCH REQUESTED:    2223777 ISSUED:    2223732 USEFUL:     332642 USELESS:     558205
cpu0->LLC AVERAGE MISS LATENCY: 240.1 cycles

DRAM Statistics

Channel 0 RQ ROW_BUFFER_HIT:    3318894
  ROW_BUFFER_MISS:    3691804
  AVG DBUS CONGESTED CYCLE: 5.592
Channel 0 WQ ROW_BUFFER_HIT:       1255
  ROW_BUFFER_MISS:       4627
  FULL:          0
Channel 0 REFRESHES ISSUED:      10098
