[VMEM] WARNING: physical memory size is smaller than virtual memory size.

*** ChampSim Multicore Out-of-Order Simulator ***
Warmup Instructions: 50000000
Simulation Instructions: 200000000
Number of CPUs: 1
Page size: 4096
Core 0: /local-ssd/ben/dpc4-traces/ai-ml/stable-diffusion.cpp-v2-1_768-nonema-pruned.3.champsimtrace.gz
 L1D Berti prefetcher
 L1D Berti prefetcher
Off-chip DRAM Size: 64 GiB Channels: 1 Width: 64-bit Data Rate: 4807 MT/s
Heartbeat CPU 0 instructions: 500003 cycles: 188313 heartbeat IPC: 2.655 cumulative IPC: 2.655 (Simulation time: 00 hr 00 min 04 sec)
Heartbeat CPU 0 instructions: 1000008 cycles: 351928 heartbeat IPC: 3.056 cumulative IPC: 2.842 (Simulation time: 00 hr 00 min 08 sec)
Heartbeat CPU 0 instructions: 1500013 cycles: 515361 heartbeat IPC: 3.059 cumulative IPC: 2.911 (Simulation time: 00 hr 00 min 11 sec)
Heartbeat CPU 0 instructions: 2000016 cycles: 686710 heartbeat IPC: 2.918 cumulative IPC: 2.912 (Simulation time: 00 hr 00 min 15 sec)
Heartbeat CPU 0 instructions: 2500022 cycles: 850375 heartbeat IPC: 3.055 cumulative IPC: 2.94 (Simulation time: 00 hr 00 min 18 sec)
Heartbeat CPU 0 instructions: 3000025 cycles: 1014146 heartbeat IPC: 3.053 cumulative IPC: 2.958 (Simulation time: 00 hr 00 min 22 sec)
Heartbeat CPU 0 instructions: 3500032 cycles: 1183245 heartbeat IPC: 2.957 cumulative IPC: 2.958 (Simulation time: 00 hr 00 min 26 sec)
Heartbeat CPU 0 instructions: 4000034 cycles: 1349094 heartbeat IPC: 3.015 cumulative IPC: 2.965 (Simulation time: 00 hr 00 min 29 sec)
Heartbeat CPU 0 instructions: 4500039 cycles: 1512464 heartbeat IPC: 3.061 cumulative IPC: 2.975 (Simulation time: 00 hr 00 min 33 sec)
Heartbeat CPU 0 instructions: 5000040 cycles: 1676442 heartbeat IPC: 3.049 cumulative IPC: 2.983 (Simulation time: 00 hr 00 min 36 sec)
Heartbeat CPU 0 instructions: 5500045 cycles: 1847524 heartbeat IPC: 2.923 cumulative IPC: 2.977 (Simulation time: 00 hr 00 min 40 sec)
Heartbeat CPU 0 instructions: 6000047 cycles: 2011208 heartbeat IPC: 3.055 cumulative IPC: 2.983 (Simulation time: 00 hr 00 min 43 sec)
Heartbeat CPU 0 instructions: 6500052 cycles: 2174833 heartbeat IPC: 3.056 cumulative IPC: 2.989 (Simulation time: 00 hr 00 min 47 sec)
Heartbeat CPU 0 instructions: 7000052 cycles: 2345953 heartbeat IPC: 2.922 cumulative IPC: 2.984 (Simulation time: 00 hr 00 min 50 sec)
Heartbeat CPU 0 instructions: 7500053 cycles: 2509600 heartbeat IPC: 3.055 cumulative IPC: 2.989 (Simulation time: 00 hr 00 min 54 sec)
Heartbeat CPU 0 instructions: 8000054 cycles: 2672998 heartbeat IPC: 3.06 cumulative IPC: 2.993 (Simulation time: 00 hr 00 min 57 sec)
Heartbeat CPU 0 instructions: 8500059 cycles: 2844394 heartbeat IPC: 2.917 cumulative IPC: 2.988 (Simulation time: 00 hr 01 min 01 sec)
Heartbeat CPU 0 instructions: 9000061 cycles: 3007797 heartbeat IPC: 3.06 cumulative IPC: 2.992 (Simulation time: 00 hr 01 min 04 sec)
Heartbeat CPU 0 instructions: 9500066 cycles: 3171539 heartbeat IPC: 3.054 cumulative IPC: 2.995 (Simulation time: 00 hr 01 min 08 sec)
Heartbeat CPU 0 instructions: 10000071 cycles: 3335234 heartbeat IPC: 3.054 cumulative IPC: 2.998 (Simulation time: 00 hr 01 min 11 sec)
Heartbeat CPU 0 instructions: 10500074 cycles: 3506321 heartbeat IPC: 2.923 cumulative IPC: 2.995 (Simulation time: 00 hr 01 min 15 sec)
Heartbeat CPU 0 instructions: 11000074 cycles: 3669981 heartbeat IPC: 3.055 cumulative IPC: 2.997 (Simulation time: 00 hr 01 min 18 sec)
Heartbeat CPU 0 instructions: 11500075 cycles: 3833508 heartbeat IPC: 3.058 cumulative IPC: 3 (Simulation time: 00 hr 01 min 22 sec)
Heartbeat CPU 0 instructions: 12000078 cycles: 4004569 heartbeat IPC: 2.923 cumulative IPC: 2.997 (Simulation time: 00 hr 01 min 25 sec)
Heartbeat CPU 0 instructions: 12500079 cycles: 4167618 heartbeat IPC: 3.067 cumulative IPC: 2.999 (Simulation time: 00 hr 01 min 29 sec)
Heartbeat CPU 0 instructions: 13000085 cycles: 4331570 heartbeat IPC: 3.05 cumulative IPC: 3.001 (Simulation time: 00 hr 01 min 32 sec)
Heartbeat CPU 0 instructions: 13500088 cycles: 4502961 heartbeat IPC: 2.917 cumulative IPC: 2.998 (Simulation time: 00 hr 01 min 36 sec)
Heartbeat CPU 0 instructions: 14000093 cycles: 4666732 heartbeat IPC: 3.053 cumulative IPC: 3 (Simulation time: 00 hr 01 min 39 sec)
Heartbeat CPU 0 instructions: 14500100 cycles: 4830337 heartbeat IPC: 3.056 cumulative IPC: 3.002 (Simulation time: 00 hr 01 min 43 sec)
Heartbeat CPU 0 instructions: 15000106 cycles: 4993636 heartbeat IPC: 3.062 cumulative IPC: 3.004 (Simulation time: 00 hr 01 min 46 sec)
Heartbeat CPU 0 instructions: 15500113 cycles: 5164686 heartbeat IPC: 2.923 cumulative IPC: 3.001 (Simulation time: 00 hr 01 min 50 sec)
Heartbeat CPU 0 instructions: 16000114 cycles: 5328304 heartbeat IPC: 3.056 cumulative IPC: 3.003 (Simulation time: 00 hr 01 min 53 sec)
Heartbeat CPU 0 instructions: 16500120 cycles: 5491711 heartbeat IPC: 3.06 cumulative IPC: 3.005 (Simulation time: 00 hr 01 min 57 sec)
Heartbeat CPU 0 instructions: 17000120 cycles: 5662830 heartbeat IPC: 2.922 cumulative IPC: 3.002 (Simulation time: 00 hr 02 min 01 sec)
Heartbeat CPU 0 instructions: 17500126 cycles: 5826027 heartbeat IPC: 3.064 cumulative IPC: 3.004 (Simulation time: 00 hr 02 min 04 sec)
Heartbeat CPU 0 instructions: 18000128 cycles: 5989971 heartbeat IPC: 3.05 cumulative IPC: 3.005 (Simulation time: 00 hr 02 min 08 sec)
Heartbeat CPU 0 instructions: 18500131 cycles: 6160936 heartbeat IPC: 2.925 cumulative IPC: 3.003 (Simulation time: 00 hr 02 min 11 sec)
Heartbeat CPU 0 instructions: 19000132 cycles: 6324210 heartbeat IPC: 3.062 cumulative IPC: 3.004 (Simulation time: 00 hr 02 min 15 sec)
Heartbeat CPU 0 instructions: 19500137 cycles: 6487752 heartbeat IPC: 3.057 cumulative IPC: 3.006 (Simulation time: 00 hr 02 min 18 sec)
Heartbeat CPU 0 instructions: 20000137 cycles: 6652091 heartbeat IPC: 3.042 cumulative IPC: 3.007 (Simulation time: 00 hr 02 min 22 sec)
Heartbeat CPU 0 instructions: 20500137 cycles: 6822557 heartbeat IPC: 2.933 cumulative IPC: 3.005 (Simulation time: 00 hr 02 min 25 sec)
Heartbeat CPU 0 instructions: 21000141 cycles: 6985959 heartbeat IPC: 3.06 cumulative IPC: 3.006 (Simulation time: 00 hr 02 min 29 sec)
Heartbeat CPU 0 instructions: 21500142 cycles: 7149578 heartbeat IPC: 3.056 cumulative IPC: 3.007 (Simulation time: 00 hr 02 min 32 sec)
Heartbeat CPU 0 instructions: 22000142 cycles: 7320727 heartbeat IPC: 2.921 cumulative IPC: 3.005 (Simulation time: 00 hr 02 min 36 sec)
Heartbeat CPU 0 instructions: 22500143 cycles: 7484504 heartbeat IPC: 3.053 cumulative IPC: 3.006 (Simulation time: 00 hr 02 min 39 sec)
Heartbeat CPU 0 instructions: 23000144 cycles: 7647775 heartbeat IPC: 3.062 cumulative IPC: 3.007 (Simulation time: 00 hr 02 min 43 sec)
Heartbeat CPU 0 instructions: 23500150 cycles: 7818700 heartbeat IPC: 2.925 cumulative IPC: 3.006 (Simulation time: 00 hr 02 min 46 sec)
Heartbeat CPU 0 instructions: 24000154 cycles: 7982078 heartbeat IPC: 3.06 cumulative IPC: 3.007 (Simulation time: 00 hr 02 min 50 sec)
Heartbeat CPU 0 instructions: 24500160 cycles: 8145730 heartbeat IPC: 3.055 cumulative IPC: 3.008 (Simulation time: 00 hr 02 min 53 sec)
Heartbeat CPU 0 instructions: 25000163 cycles: 8312362 heartbeat IPC: 3.001 cumulative IPC: 3.008 (Simulation time: 00 hr 02 min 57 sec)
Heartbeat CPU 0 instructions: 25500168 cycles: 8480044 heartbeat IPC: 2.982 cumulative IPC: 3.007 (Simulation time: 00 hr 03 min 00 sec)
Heartbeat CPU 0 instructions: 26000174 cycles: 8643653 heartbeat IPC: 3.056 cumulative IPC: 3.008 (Simulation time: 00 hr 03 min 04 sec)
Heartbeat CPU 0 instructions: 26500176 cycles: 8807072 heartbeat IPC: 3.06 cumulative IPC: 3.009 (Simulation time: 00 hr 03 min 07 sec)
Heartbeat CPU 0 instructions: 27000176 cycles: 8978575 heartbeat IPC: 2.915 cumulative IPC: 3.007 (Simulation time: 00 hr 03 min 11 sec)
Heartbeat CPU 0 instructions: 27500179 cycles: 9142343 heartbeat IPC: 3.053 cumulative IPC: 3.008 (Simulation time: 00 hr 03 min 15 sec)
Heartbeat CPU 0 instructions: 28000179 cycles: 9305433 heartbeat IPC: 3.066 cumulative IPC: 3.009 (Simulation time: 00 hr 03 min 18 sec)
Heartbeat CPU 0 instructions: 28500182 cycles: 9476337 heartbeat IPC: 2.926 cumulative IPC: 3.008 (Simulation time: 00 hr 03 min 22 sec)
Heartbeat CPU 0 instructions: 29000183 cycles: 9639797 heartbeat IPC: 3.059 cumulative IPC: 3.008 (Simulation time: 00 hr 03 min 25 sec)
Heartbeat CPU 0 instructions: 29500183 cycles: 9803383 heartbeat IPC: 3.056 cumulative IPC: 3.009 (Simulation time: 00 hr 03 min 29 sec)
Heartbeat CPU 0 instructions: 30000186 cycles: 9972045 heartbeat IPC: 2.965 cumulative IPC: 3.008 (Simulation time: 00 hr 03 min 32 sec)
Heartbeat CPU 0 instructions: 30500191 cycles: 10137848 heartbeat IPC: 3.016 cumulative IPC: 3.009 (Simulation time: 00 hr 03 min 36 sec)
Heartbeat CPU 0 instructions: 31000197 cycles: 10301695 heartbeat IPC: 3.052 cumulative IPC: 3.009 (Simulation time: 00 hr 03 min 39 sec)
Heartbeat CPU 0 instructions: 31500202 cycles: 10465155 heartbeat IPC: 3.059 cumulative IPC: 3.01 (Simulation time: 00 hr 03 min 43 sec)
Heartbeat CPU 0 instructions: 32000203 cycles: 10636163 heartbeat IPC: 2.924 cumulative IPC: 3.009 (Simulation time: 00 hr 03 min 46 sec)
Heartbeat CPU 0 instructions: 32500205 cycles: 10799658 heartbeat IPC: 3.058 cumulative IPC: 3.009 (Simulation time: 00 hr 03 min 50 sec)
Heartbeat CPU 0 instructions: 33000206 cycles: 10962998 heartbeat IPC: 3.061 cumulative IPC: 3.01 (Simulation time: 00 hr 03 min 53 sec)
Heartbeat CPU 0 instructions: 33500213 cycles: 11133841 heartbeat IPC: 2.927 cumulative IPC: 3.009 (Simulation time: 00 hr 03 min 57 sec)
Heartbeat CPU 0 instructions: 34000218 cycles: 11297251 heartbeat IPC: 3.06 cumulative IPC: 3.01 (Simulation time: 00 hr 04 min 00 sec)
Heartbeat CPU 0 instructions: 34500220 cycles: 11460637 heartbeat IPC: 3.06 cumulative IPC: 3.01 (Simulation time: 00 hr 04 min 04 sec)
Heartbeat CPU 0 instructions: 35000225 cycles: 11631578 heartbeat IPC: 2.925 cumulative IPC: 3.009 (Simulation time: 00 hr 04 min 07 sec)
Heartbeat CPU 0 instructions: 35500230 cycles: 11795248 heartbeat IPC: 3.055 cumulative IPC: 3.01 (Simulation time: 00 hr 04 min 11 sec)
Heartbeat CPU 0 instructions: 36000232 cycles: 11958636 heartbeat IPC: 3.06 cumulative IPC: 3.01 (Simulation time: 00 hr 04 min 14 sec)
Heartbeat CPU 0 instructions: 36500233 cycles: 12122398 heartbeat IPC: 3.053 cumulative IPC: 3.011 (Simulation time: 00 hr 04 min 18 sec)
Heartbeat CPU 0 instructions: 37000240 cycles: 12293379 heartbeat IPC: 2.924 cumulative IPC: 3.01 (Simulation time: 00 hr 04 min 22 sec)
Heartbeat CPU 0 instructions: 37500245 cycles: 12456822 heartbeat IPC: 3.059 cumulative IPC: 3.01 (Simulation time: 00 hr 04 min 25 sec)
Heartbeat CPU 0 instructions: 38000249 cycles: 12620595 heartbeat IPC: 3.053 cumulative IPC: 3.011 (Simulation time: 00 hr 04 min 28 sec)
Heartbeat CPU 0 instructions: 38500252 cycles: 12791822 heartbeat IPC: 2.92 cumulative IPC: 3.01 (Simulation time: 00 hr 04 min 32 sec)
Heartbeat CPU 0 instructions: 39000257 cycles: 12955456 heartbeat IPC: 3.056 cumulative IPC: 3.01 (Simulation time: 00 hr 04 min 36 sec)
Heartbeat CPU 0 instructions: 39500263 cycles: 13119125 heartbeat IPC: 3.055 cumulative IPC: 3.011 (Simulation time: 00 hr 04 min 39 sec)
Heartbeat CPU 0 instructions: 40000270 cycles: 13290394 heartbeat IPC: 2.919 cumulative IPC: 3.01 (Simulation time: 00 hr 04 min 43 sec)
Heartbeat CPU 0 instructions: 40500271 cycles: 13453863 heartbeat IPC: 3.059 cumulative IPC: 3.01 (Simulation time: 00 hr 04 min 46 sec)
Heartbeat CPU 0 instructions: 41000275 cycles: 13617284 heartbeat IPC: 3.06 cumulative IPC: 3.011 (Simulation time: 00 hr 04 min 50 sec)
Heartbeat CPU 0 instructions: 41500276 cycles: 13780868 heartbeat IPC: 3.057 cumulative IPC: 3.011 (Simulation time: 00 hr 04 min 53 sec)
Heartbeat CPU 0 instructions: 42000279 cycles: 13952268 heartbeat IPC: 2.917 cumulative IPC: 3.01 (Simulation time: 00 hr 04 min 57 sec)
Heartbeat CPU 0 instructions: 42500285 cycles: 14115736 heartbeat IPC: 3.059 cumulative IPC: 3.011 (Simulation time: 00 hr 05 min 00 sec)
Heartbeat CPU 0 instructions: 43000290 cycles: 14279103 heartbeat IPC: 3.061 cumulative IPC: 3.011 (Simulation time: 00 hr 05 min 04 sec)
Heartbeat CPU 0 instructions: 43500297 cycles: 14450115 heartbeat IPC: 2.924 cumulative IPC: 3.01 (Simulation time: 00 hr 05 min 07 sec)
Heartbeat CPU 0 instructions: 44000300 cycles: 14613574 heartbeat IPC: 3.059 cumulative IPC: 3.011 (Simulation time: 00 hr 05 min 11 sec)
Heartbeat CPU 0 instructions: 44500306 cycles: 14777248 heartbeat IPC: 3.055 cumulative IPC: 3.011 (Simulation time: 00 hr 05 min 14 sec)
Heartbeat CPU 0 instructions: 45000308 cycles: 14948326 heartbeat IPC: 2.923 cumulative IPC: 3.01 (Simulation time: 00 hr 05 min 18 sec)
Heartbeat CPU 0 instructions: 45500314 cycles: 15111642 heartbeat IPC: 3.062 cumulative IPC: 3.011 (Simulation time: 00 hr 05 min 22 sec)
Heartbeat CPU 0 instructions: 46000319 cycles: 15275059 heartbeat IPC: 3.06 cumulative IPC: 3.011 (Simulation time: 00 hr 05 min 25 sec)
Heartbeat CPU 0 instructions: 46500319 cycles: 15439308 heartbeat IPC: 3.044 cumulative IPC: 3.012 (Simulation time: 00 hr 05 min 29 sec)
Heartbeat CPU 0 instructions: 47000326 cycles: 15609650 heartbeat IPC: 2.935 cumulative IPC: 3.011 (Simulation time: 00 hr 05 min 32 sec)
Heartbeat CPU 0 instructions: 47500328 cycles: 15773215 heartbeat IPC: 3.057 cumulative IPC: 3.011 (Simulation time: 00 hr 05 min 36 sec)
Heartbeat CPU 0 instructions: 48000328 cycles: 15936648 heartbeat IPC: 3.059 cumulative IPC: 3.012 (Simulation time: 00 hr 05 min 39 sec)
Heartbeat CPU 0 instructions: 48500328 cycles: 16108181 heartbeat IPC: 2.915 cumulative IPC: 3.011 (Simulation time: 00 hr 05 min 43 sec)
Heartbeat CPU 0 instructions: 49000328 cycles: 16271894 heartbeat IPC: 3.054 cumulative IPC: 3.011 (Simulation time: 00 hr 05 min 46 sec)
Heartbeat CPU 0 instructions: 49500334 cycles: 16435256 heartbeat IPC: 3.061 cumulative IPC: 3.012 (Simulation time: 00 hr 05 min 50 sec)
Warmup halting CPU 0 at instruction 50000007 cycle 16606084 for remainder of phase
Warmup finished CPU 0 instructions: 50000007 cycles: 16606084 cumulative IPC: 3.011 (Simulation time: 00 hr 05 min 53 sec)
Warmup complete CPU 0 instructions: 50000007 cycles: 16606084 cumulative IPC: 3.011 (Simulation time: 00 hr 05 min 53 sec)
Heartbeat CPU 0 instructions: 50000340 cycles: 16606140 heartbeat IPC: 2.926 cumulative IPC: 5.946 (Simulation time: 00 hr 05 min 53 sec)
Heartbeat CPU 0 instructions: 50500346 cycles: 16795624 heartbeat IPC: 2.639 cumulative IPC: 2.64 (Simulation time: 00 hr 05 min 57 sec)
Heartbeat CPU 0 instructions: 51000351 cycles: 16985999 heartbeat IPC: 2.626 cumulative IPC: 2.633 (Simulation time: 00 hr 06 min 00 sec)
Heartbeat CPU 0 instructions: 51500356 cycles: 17188336 heartbeat IPC: 2.471 cumulative IPC: 2.577 (Simulation time: 00 hr 06 min 04 sec)
Heartbeat CPU 0 instructions: 52000356 cycles: 17400684 heartbeat IPC: 2.355 cumulative IPC: 2.517 (Simulation time: 00 hr 06 min 07 sec)
Heartbeat CPU 0 instructions: 52500361 cycles: 17591878 heartbeat IPC: 2.615 cumulative IPC: 2.536 (Simulation time: 00 hr 06 min 11 sec)
Heartbeat CPU 0 instructions: 53000368 cycles: 17783175 heartbeat IPC: 2.614 cumulative IPC: 2.549 (Simulation time: 00 hr 06 min 14 sec)
Heartbeat CPU 0 instructions: 53500368 cycles: 18006668 heartbeat IPC: 2.237 cumulative IPC: 2.499 (Simulation time: 00 hr 06 min 18 sec)
Heartbeat CPU 0 instructions: 54000369 cycles: 18194885 heartbeat IPC: 2.657 cumulative IPC: 2.518 (Simulation time: 00 hr 06 min 21 sec)
Heartbeat CPU 0 instructions: 54500374 cycles: 18384609 heartbeat IPC: 2.635 cumulative IPC: 2.53 (Simulation time: 00 hr 06 min 25 sec)
Heartbeat CPU 0 instructions: 55000375 cycles: 18609968 heartbeat IPC: 2.219 cumulative IPC: 2.495 (Simulation time: 00 hr 06 min 28 sec)
Heartbeat CPU 0 instructions: 55500379 cycles: 18798801 heartbeat IPC: 2.648 cumulative IPC: 2.508 (Simulation time: 00 hr 06 min 32 sec)
Heartbeat CPU 0 instructions: 56000379 cycles: 18989467 heartbeat IPC: 2.622 cumulative IPC: 2.518 (Simulation time: 00 hr 06 min 36 sec)
Heartbeat CPU 0 instructions: 56500385 cycles: 19204476 heartbeat IPC: 2.326 cumulative IPC: 2.502 (Simulation time: 00 hr 06 min 40 sec)
Heartbeat CPU 0 instructions: 57000386 cycles: 19405832 heartbeat IPC: 2.483 cumulative IPC: 2.5 (Simulation time: 00 hr 06 min 44 sec)
Heartbeat CPU 0 instructions: 57500387 cycles: 19597062 heartbeat IPC: 2.615 cumulative IPC: 2.508 (Simulation time: 00 hr 06 min 49 sec)
Heartbeat CPU 0 instructions: 58000389 cycles: 19786699 heartbeat IPC: 2.637 cumulative IPC: 2.515 (Simulation time: 00 hr 06 min 55 sec)
Heartbeat CPU 0 instructions: 58500396 cycles: 20009740 heartbeat IPC: 2.242 cumulative IPC: 2.497 (Simulation time: 00 hr 07 min 00 sec)
Heartbeat CPU 0 instructions: 59000400 cycles: 20200021 heartbeat IPC: 2.628 cumulative IPC: 2.504 (Simulation time: 00 hr 07 min 04 sec)
Heartbeat CPU 0 instructions: 59500403 cycles: 20390218 heartbeat IPC: 2.629 cumulative IPC: 2.511 (Simulation time: 00 hr 07 min 08 sec)
Heartbeat CPU 0 instructions: 60000404 cycles: 20614919 heartbeat IPC: 2.225 cumulative IPC: 2.495 (Simulation time: 00 hr 07 min 11 sec)
Heartbeat CPU 0 instructions: 60500406 cycles: 20805532 heartbeat IPC: 2.623 cumulative IPC: 2.5 (Simulation time: 00 hr 07 min 15 sec)
Heartbeat CPU 0 instructions: 61000407 cycles: 20994981 heartbeat IPC: 2.639 cumulative IPC: 2.506 (Simulation time: 00 hr 07 min 18 sec)
Heartbeat CPU 0 instructions: 61500408 cycles: 21220513 heartbeat IPC: 2.217 cumulative IPC: 2.492 (Simulation time: 00 hr 07 min 22 sec)
Heartbeat CPU 0 instructions: 62000413 cycles: 21411233 heartbeat IPC: 2.622 cumulative IPC: 2.497 (Simulation time: 00 hr 07 min 25 sec)
Heartbeat CPU 0 instructions: 62500415 cycles: 21600927 heartbeat IPC: 2.636 cumulative IPC: 2.503 (Simulation time: 00 hr 07 min 29 sec)
Heartbeat CPU 0 instructions: 63000420 cycles: 21790906 heartbeat IPC: 2.632 cumulative IPC: 2.507 (Simulation time: 00 hr 07 min 32 sec)
Heartbeat CPU 0 instructions: 63500427 cycles: 22014143 heartbeat IPC: 2.24 cumulative IPC: 2.496 (Simulation time: 00 hr 07 min 36 sec)
Heartbeat CPU 0 instructions: 64000431 cycles: 22204474 heartbeat IPC: 2.627 cumulative IPC: 2.501 (Simulation time: 00 hr 07 min 40 sec)
Heartbeat CPU 0 instructions: 64500437 cycles: 22394581 heartbeat IPC: 2.63 cumulative IPC: 2.505 (Simulation time: 00 hr 07 min 43 sec)
Heartbeat CPU 0 instructions: 65000443 cycles: 22616798 heartbeat IPC: 2.25 cumulative IPC: 2.496 (Simulation time: 00 hr 07 min 47 sec)
Heartbeat CPU 0 instructions: 65500443 cycles: 22824140 heartbeat IPC: 2.411 cumulative IPC: 2.493 (Simulation time: 00 hr 07 min 50 sec)
Heartbeat CPU 0 instructions: 66000444 cycles: 23034151 heartbeat IPC: 2.381 cumulative IPC: 2.489 (Simulation time: 00 hr 07 min 54 sec)
Heartbeat CPU 0 instructions: 66500449 cycles: 23259333 heartbeat IPC: 2.22 cumulative IPC: 2.48 (Simulation time: 00 hr 07 min 58 sec)
Heartbeat CPU 0 instructions: 67000450 cycles: 23448673 heartbeat IPC: 2.641 cumulative IPC: 2.485 (Simulation time: 00 hr 08 min 01 sec)
Heartbeat CPU 0 instructions: 67500456 cycles: 23638291 heartbeat IPC: 2.637 cumulative IPC: 2.489 (Simulation time: 00 hr 08 min 05 sec)
Heartbeat CPU 0 instructions: 68000459 cycles: 23829255 heartbeat IPC: 2.618 cumulative IPC: 2.492 (Simulation time: 00 hr 08 min 08 sec)
Heartbeat CPU 0 instructions: 68500462 cycles: 24053816 heartbeat IPC: 2.227 cumulative IPC: 2.484 (Simulation time: 00 hr 08 min 12 sec)
Heartbeat CPU 0 instructions: 69000467 cycles: 24243107 heartbeat IPC: 2.641 cumulative IPC: 2.488 (Simulation time: 00 hr 08 min 16 sec)
Heartbeat CPU 0 instructions: 69500473 cycles: 24432399 heartbeat IPC: 2.641 cumulative IPC: 2.492 (Simulation time: 00 hr 08 min 19 sec)
Heartbeat CPU 0 instructions: 70000480 cycles: 24658210 heartbeat IPC: 2.214 cumulative IPC: 2.484 (Simulation time: 00 hr 08 min 23 sec)
Heartbeat CPU 0 instructions: 70500481 cycles: 24848542 heartbeat IPC: 2.627 cumulative IPC: 2.487 (Simulation time: 00 hr 08 min 26 sec)
Heartbeat CPU 0 instructions: 71000481 cycles: 25038969 heartbeat IPC: 2.626 cumulative IPC: 2.49 (Simulation time: 00 hr 08 min 30 sec)
Heartbeat CPU 0 instructions: 71500486 cycles: 25262067 heartbeat IPC: 2.241 cumulative IPC: 2.484 (Simulation time: 00 hr 08 min 34 sec)
Heartbeat CPU 0 instructions: 72000491 cycles: 25451144 heartbeat IPC: 2.644 cumulative IPC: 2.487 (Simulation time: 00 hr 08 min 37 sec)
Heartbeat CPU 0 instructions: 72500496 cycles: 25640449 heartbeat IPC: 2.641 cumulative IPC: 2.491 (Simulation time: 00 hr 08 min 40 sec)
Heartbeat CPU 0 instructions: 73000496 cycles: 25833430 heartbeat IPC: 2.591 cumulative IPC: 2.493 (Simulation time: 00 hr 08 min 44 sec)
Heartbeat CPU 0 instructions: 73500501 cycles: 26055148 heartbeat IPC: 2.255 cumulative IPC: 2.487 (Simulation time: 00 hr 08 min 48 sec)
Heartbeat CPU 0 instructions: 74000506 cycles: 26245341 heartbeat IPC: 2.629 cumulative IPC: 2.49 (Simulation time: 00 hr 08 min 51 sec)
Heartbeat CPU 0 instructions: 74500507 cycles: 26435785 heartbeat IPC: 2.625 cumulative IPC: 2.492 (Simulation time: 00 hr 08 min 55 sec)
Heartbeat CPU 0 instructions: 75000510 cycles: 26661219 heartbeat IPC: 2.218 cumulative IPC: 2.486 (Simulation time: 00 hr 08 min 58 sec)
Heartbeat CPU 0 instructions: 75500515 cycles: 26849617 heartbeat IPC: 2.654 cumulative IPC: 2.489 (Simulation time: 00 hr 09 min 02 sec)
Heartbeat CPU 0 instructions: 76000517 cycles: 27039300 heartbeat IPC: 2.636 cumulative IPC: 2.492 (Simulation time: 00 hr 09 min 05 sec)
Heartbeat CPU 0 instructions: 76500517 cycles: 27263601 heartbeat IPC: 2.229 cumulative IPC: 2.487 (Simulation time: 00 hr 09 min 09 sec)
Heartbeat CPU 0 instructions: 77000522 cycles: 27453941 heartbeat IPC: 2.627 cumulative IPC: 2.489 (Simulation time: 00 hr 09 min 13 sec)
Heartbeat CPU 0 instructions: 77500529 cycles: 27643639 heartbeat IPC: 2.636 cumulative IPC: 2.492 (Simulation time: 00 hr 09 min 16 sec)
Heartbeat CPU 0 instructions: 78000536 cycles: 27845764 heartbeat IPC: 2.474 cumulative IPC: 2.491 (Simulation time: 00 hr 09 min 20 sec)
Heartbeat CPU 0 instructions: 78500542 cycles: 28057048 heartbeat IPC: 2.367 cumulative IPC: 2.489 (Simulation time: 00 hr 09 min 23 sec)
Heartbeat CPU 0 instructions: 79000545 cycles: 28247726 heartbeat IPC: 2.622 cumulative IPC: 2.491 (Simulation time: 00 hr 09 min 27 sec)
Heartbeat CPU 0 instructions: 79500549 cycles: 28437070 heartbeat IPC: 2.641 cumulative IPC: 2.493 (Simulation time: 00 hr 09 min 30 sec)
Heartbeat CPU 0 instructions: 80000550 cycles: 28661862 heartbeat IPC: 2.224 cumulative IPC: 2.488 (Simulation time: 00 hr 09 min 34 sec)
Heartbeat CPU 0 instructions: 80500555 cycles: 28851409 heartbeat IPC: 2.638 cumulative IPC: 2.491 (Simulation time: 00 hr 09 min 37 sec)
Heartbeat CPU 0 instructions: 81000560 cycles: 29042790 heartbeat IPC: 2.613 cumulative IPC: 2.493 (Simulation time: 00 hr 09 min 41 sec)
Heartbeat CPU 0 instructions: 81500565 cycles: 29266672 heartbeat IPC: 2.233 cumulative IPC: 2.488 (Simulation time: 00 hr 09 min 45 sec)
Heartbeat CPU 0 instructions: 82000565 cycles: 29455737 heartbeat IPC: 2.645 cumulative IPC: 2.49 (Simulation time: 00 hr 09 min 48 sec)
Heartbeat CPU 0 instructions: 82500572 cycles: 29644603 heartbeat IPC: 2.647 cumulative IPC: 2.493 (Simulation time: 00 hr 09 min 52 sec)
Heartbeat CPU 0 instructions: 83000574 cycles: 29857697 heartbeat IPC: 2.346 cumulative IPC: 2.49 (Simulation time: 00 hr 09 min 55 sec)
Heartbeat CPU 0 instructions: 83500577 cycles: 30061401 heartbeat IPC: 2.455 cumulative IPC: 2.49 (Simulation time: 00 hr 09 min 59 sec)
Heartbeat CPU 0 instructions: 84000578 cycles: 30251423 heartbeat IPC: 2.631 cumulative IPC: 2.492 (Simulation time: 00 hr 10 min 02 sec)
Heartbeat CPU 0 instructions: 84500579 cycles: 30440835 heartbeat IPC: 2.64 cumulative IPC: 2.494 (Simulation time: 00 hr 10 min 06 sec)
Heartbeat CPU 0 instructions: 85000580 cycles: 30664214 heartbeat IPC: 2.238 cumulative IPC: 2.49 (Simulation time: 00 hr 10 min 10 sec)
Heartbeat CPU 0 instructions: 85500582 cycles: 30854967 heartbeat IPC: 2.621 cumulative IPC: 2.491 (Simulation time: 00 hr 10 min 13 sec)
Heartbeat CPU 0 instructions: 86000587 cycles: 31045944 heartbeat IPC: 2.618 cumulative IPC: 2.493 (Simulation time: 00 hr 10 min 17 sec)
Heartbeat CPU 0 instructions: 86500594 cycles: 31270508 heartbeat IPC: 2.227 cumulative IPC: 2.489 (Simulation time: 00 hr 10 min 20 sec)
Heartbeat CPU 0 instructions: 87000594 cycles: 31460026 heartbeat IPC: 2.638 cumulative IPC: 2.491 (Simulation time: 00 hr 10 min 24 sec)
Heartbeat CPU 0 instructions: 87500601 cycles: 31651378 heartbeat IPC: 2.613 cumulative IPC: 2.493 (Simulation time: 00 hr 10 min 27 sec)
Heartbeat CPU 0 instructions: 88000605 cycles: 31875702 heartbeat IPC: 2.229 cumulative IPC: 2.489 (Simulation time: 00 hr 10 min 31 sec)
Heartbeat CPU 0 instructions: 88500607 cycles: 32067356 heartbeat IPC: 2.609 cumulative IPC: 2.49 (Simulation time: 00 hr 10 min 35 sec)
Heartbeat CPU 0 instructions: 89000610 cycles: 32256919 heartbeat IPC: 2.638 cumulative IPC: 2.492 (Simulation time: 00 hr 10 min 38 sec)
Heartbeat CPU 0 instructions: 89500614 cycles: 32446534 heartbeat IPC: 2.637 cumulative IPC: 2.494 (Simulation time: 00 hr 10 min 41 sec)
Heartbeat CPU 0 instructions: 90000615 cycles: 32670490 heartbeat IPC: 2.233 cumulative IPC: 2.49 (Simulation time: 00 hr 10 min 45 sec)
Heartbeat CPU 0 instructions: 90500621 cycles: 32861765 heartbeat IPC: 2.614 cumulative IPC: 2.491 (Simulation time: 00 hr 10 min 49 sec)
Heartbeat CPU 0 instructions: 91000621 cycles: 33052203 heartbeat IPC: 2.626 cumulative IPC: 2.493 (Simulation time: 00 hr 10 min 52 sec)
Heartbeat CPU 0 instructions: 91500625 cycles: 33276579 heartbeat IPC: 2.228 cumulative IPC: 2.489 (Simulation time: 00 hr 10 min 56 sec)
Heartbeat CPU 0 instructions: 92000626 cycles: 33466799 heartbeat IPC: 2.629 cumulative IPC: 2.491 (Simulation time: 00 hr 11 min 00 sec)
Heartbeat CPU 0 instructions: 92500626 cycles: 33657897 heartbeat IPC: 2.616 cumulative IPC: 2.492 (Simulation time: 00 hr 11 min 03 sec)
Heartbeat CPU 0 instructions: 93000632 cycles: 33883472 heartbeat IPC: 2.217 cumulative IPC: 2.489 (Simulation time: 00 hr 11 min 07 sec)
Heartbeat CPU 0 instructions: 93500632 cycles: 34071175 heartbeat IPC: 2.664 cumulative IPC: 2.491 (Simulation time: 00 hr 11 min 10 sec)
Heartbeat CPU 0 instructions: 94000634 cycles: 34260071 heartbeat IPC: 2.647 cumulative IPC: 2.492 (Simulation time: 00 hr 11 min 14 sec)
Heartbeat CPU 0 instructions: 94500635 cycles: 34450441 heartbeat IPC: 2.626 cumulative IPC: 2.494 (Simulation time: 00 hr 11 min 17 sec)
Heartbeat CPU 0 instructions: 95000636 cycles: 34675571 heartbeat IPC: 2.221 cumulative IPC: 2.49 (Simulation time: 00 hr 11 min 21 sec)
Heartbeat CPU 0 instructions: 95500641 cycles: 34864349 heartbeat IPC: 2.649 cumulative IPC: 2.492 (Simulation time: 00 hr 11 min 24 sec)
Heartbeat CPU 0 instructions: 96000642 cycles: 35053657 heartbeat IPC: 2.641 cumulative IPC: 2.494 (Simulation time: 00 hr 11 min 28 sec)
Heartbeat CPU 0 instructions: 96500646 cycles: 35277677 heartbeat IPC: 2.232 cumulative IPC: 2.49 (Simulation time: 00 hr 11 min 32 sec)
Heartbeat CPU 0 instructions: 97000653 cycles: 35468288 heartbeat IPC: 2.623 cumulative IPC: 2.492 (Simulation time: 00 hr 11 min 35 sec)
Heartbeat CPU 0 instructions: 97500653 cycles: 35657739 heartbeat IPC: 2.639 cumulative IPC: 2.493 (Simulation time: 00 hr 11 min 39 sec)
Heartbeat CPU 0 instructions: 98000658 cycles: 35871379 heartbeat IPC: 2.34 cumulative IPC: 2.492 (Simulation time: 00 hr 11 min 42 sec)
Heartbeat CPU 0 instructions: 98500663 cycles: 36052325 heartbeat IPC: 2.763 cumulative IPC: 2.494 (Simulation time: 00 hr 11 min 46 sec)
Heartbeat CPU 0 instructions: 99000668 cycles: 36232661 heartbeat IPC: 2.773 cumulative IPC: 2.497 (Simulation time: 00 hr 11 min 49 sec)
Heartbeat CPU 0 instructions: 99500670 cycles: 36414127 heartbeat IPC: 2.755 cumulative IPC: 2.499 (Simulation time: 00 hr 11 min 52 sec)
Heartbeat CPU 0 instructions: 100000671 cycles: 36617074 heartbeat IPC: 2.464 cumulative IPC: 2.499 (Simulation time: 00 hr 11 min 56 sec)
Heartbeat CPU 0 instructions: 100500672 cycles: 36796532 heartbeat IPC: 2.786 cumulative IPC: 2.501 (Simulation time: 00 hr 11 min 59 sec)
Heartbeat CPU 0 instructions: 101000679 cycles: 36976446 heartbeat IPC: 2.779 cumulative IPC: 2.504 (Simulation time: 00 hr 12 min 03 sec)
Heartbeat CPU 0 instructions: 101500679 cycles: 37180737 heartbeat IPC: 2.447 cumulative IPC: 2.503 (Simulation time: 00 hr 12 min 06 sec)
Heartbeat CPU 0 instructions: 102000682 cycles: 37361394 heartbeat IPC: 2.768 cumulative IPC: 2.505 (Simulation time: 00 hr 12 min 10 sec)
Heartbeat CPU 0 instructions: 102500684 cycles: 37541885 heartbeat IPC: 2.77 cumulative IPC: 2.508 (Simulation time: 00 hr 12 min 13 sec)
Heartbeat CPU 0 instructions: 103000687 cycles: 37744863 heartbeat IPC: 2.463 cumulative IPC: 2.507 (Simulation time: 00 hr 12 min 17 sec)
Heartbeat CPU 0 instructions: 103500691 cycles: 37926407 heartbeat IPC: 2.754 cumulative IPC: 2.509 (Simulation time: 00 hr 12 min 20 sec)
Heartbeat CPU 0 instructions: 104000693 cycles: 38105592 heartbeat IPC: 2.79 cumulative IPC: 2.512 (Simulation time: 00 hr 12 min 23 sec)
Heartbeat CPU 0 instructions: 104500693 cycles: 38295773 heartbeat IPC: 2.629 cumulative IPC: 2.513 (Simulation time: 00 hr 12 min 27 sec)
Heartbeat CPU 0 instructions: 105000698 cycles: 38489729 heartbeat IPC: 2.578 cumulative IPC: 2.513 (Simulation time: 00 hr 12 min 30 sec)
Heartbeat CPU 0 instructions: 105500705 cycles: 38670831 heartbeat IPC: 2.761 cumulative IPC: 2.515 (Simulation time: 00 hr 12 min 34 sec)
Heartbeat CPU 0 instructions: 106000712 cycles: 38850993 heartbeat IPC: 2.775 cumulative IPC: 2.517 (Simulation time: 00 hr 12 min 37 sec)
Heartbeat CPU 0 instructions: 106500719 cycles: 39055574 heartbeat IPC: 2.444 cumulative IPC: 2.517 (Simulation time: 00 hr 12 min 41 sec)
Heartbeat CPU 0 instructions: 107000723 cycles: 39235600 heartbeat IPC: 2.777 cumulative IPC: 2.519 (Simulation time: 00 hr 12 min 44 sec)
Heartbeat CPU 0 instructions: 107500726 cycles: 39414733 heartbeat IPC: 2.791 cumulative IPC: 2.521 (Simulation time: 00 hr 12 min 47 sec)
Heartbeat CPU 0 instructions: 108000726 cycles: 39619956 heartbeat IPC: 2.436 cumulative IPC: 2.52 (Simulation time: 00 hr 12 min 51 sec)
Heartbeat CPU 0 instructions: 108500731 cycles: 39800036 heartbeat IPC: 2.777 cumulative IPC: 2.522 (Simulation time: 00 hr 12 min 54 sec)
Heartbeat CPU 0 instructions: 109000738 cycles: 39980512 heartbeat IPC: 2.77 cumulative IPC: 2.524 (Simulation time: 00 hr 12 min 58 sec)
Heartbeat CPU 0 instructions: 109500743 cycles: 40176675 heartbeat IPC: 2.549 cumulative IPC: 2.524 (Simulation time: 00 hr 13 min 01 sec)
Heartbeat CPU 0 instructions: 110000743 cycles: 40365608 heartbeat IPC: 2.646 cumulative IPC: 2.525 (Simulation time: 00 hr 13 min 05 sec)
Heartbeat CPU 0 instructions: 110500748 cycles: 40546452 heartbeat IPC: 2.765 cumulative IPC: 2.527 (Simulation time: 00 hr 13 min 08 sec)
Heartbeat CPU 0 instructions: 111000749 cycles: 40725112 heartbeat IPC: 2.799 cumulative IPC: 2.529 (Simulation time: 00 hr 13 min 11 sec)
Heartbeat CPU 0 instructions: 111500754 cycles: 40929362 heartbeat IPC: 2.448 cumulative IPC: 2.528 (Simulation time: 00 hr 13 min 15 sec)
Heartbeat CPU 0 instructions: 112000754 cycles: 41109293 heartbeat IPC: 2.779 cumulative IPC: 2.53 (Simulation time: 00 hr 13 min 18 sec)
Heartbeat CPU 0 instructions: 112500757 cycles: 41289724 heartbeat IPC: 2.771 cumulative IPC: 2.532 (Simulation time: 00 hr 13 min 22 sec)
Heartbeat CPU 0 instructions: 113000764 cycles: 41495012 heartbeat IPC: 2.436 cumulative IPC: 2.531 (Simulation time: 00 hr 13 min 25 sec)
Heartbeat CPU 0 instructions: 113500767 cycles: 41674821 heartbeat IPC: 2.781 cumulative IPC: 2.533 (Simulation time: 00 hr 13 min 29 sec)
Heartbeat CPU 0 instructions: 114000767 cycles: 41855297 heartbeat IPC: 2.77 cumulative IPC: 2.535 (Simulation time: 00 hr 13 min 32 sec)
Heartbeat CPU 0 instructions: 114500772 cycles: 42058487 heartbeat IPC: 2.461 cumulative IPC: 2.534 (Simulation time: 00 hr 13 min 36 sec)
Heartbeat CPU 0 instructions: 115000773 cycles: 42237992 heartbeat IPC: 2.785 cumulative IPC: 2.536 (Simulation time: 00 hr 13 min 39 sec)
Heartbeat CPU 0 instructions: 115500775 cycles: 42419064 heartbeat IPC: 2.761 cumulative IPC: 2.538 (Simulation time: 00 hr 13 min 42 sec)
Heartbeat CPU 0 instructions: 116000778 cycles: 42600097 heartbeat IPC: 2.762 cumulative IPC: 2.539 (Simulation time: 00 hr 13 min 46 sec)
Heartbeat CPU 0 instructions: 116500783 cycles: 42803724 heartbeat IPC: 2.455 cumulative IPC: 2.538 (Simulation time: 00 hr 13 min 49 sec)
Heartbeat CPU 0 instructions: 117000788 cycles: 42983461 heartbeat IPC: 2.782 cumulative IPC: 2.54 (Simulation time: 00 hr 13 min 53 sec)
Heartbeat CPU 0 instructions: 117500793 cycles: 43163671 heartbeat IPC: 2.775 cumulative IPC: 2.542 (Simulation time: 00 hr 13 min 56 sec)
Heartbeat CPU 0 instructions: 118000793 cycles: 43369083 heartbeat IPC: 2.434 cumulative IPC: 2.541 (Simulation time: 00 hr 14 min 00 sec)
Heartbeat CPU 0 instructions: 118500798 cycles: 43549241 heartbeat IPC: 2.775 cumulative IPC: 2.542 (Simulation time: 00 hr 14 min 03 sec)
Heartbeat CPU 0 instructions: 119000800 cycles: 43727988 heartbeat IPC: 2.797 cumulative IPC: 2.544 (Simulation time: 00 hr 14 min 06 sec)
Heartbeat CPU 0 instructions: 119500801 cycles: 43933215 heartbeat IPC: 2.436 cumulative IPC: 2.543 (Simulation time: 00 hr 14 min 10 sec)
Heartbeat CPU 0 instructions: 120000806 cycles: 44113917 heartbeat IPC: 2.767 cumulative IPC: 2.545 (Simulation time: 00 hr 14 min 14 sec)
Heartbeat CPU 0 instructions: 120500807 cycles: 44293663 heartbeat IPC: 2.782 cumulative IPC: 2.546 (Simulation time: 00 hr 14 min 17 sec)
Heartbeat CPU 0 instructions: 121000807 cycles: 44474220 heartbeat IPC: 2.769 cumulative IPC: 2.548 (Simulation time: 00 hr 14 min 20 sec)
Heartbeat CPU 0 instructions: 121500814 cycles: 44677901 heartbeat IPC: 2.455 cumulative IPC: 2.547 (Simulation time: 00 hr 14 min 24 sec)
Heartbeat CPU 0 instructions: 122000819 cycles: 44858865 heartbeat IPC: 2.763 cumulative IPC: 2.548 (Simulation time: 00 hr 14 min 27 sec)
Heartbeat CPU 0 instructions: 122500819 cycles: 45039369 heartbeat IPC: 2.77 cumulative IPC: 2.55 (Simulation time: 00 hr 14 min 31 sec)
Heartbeat CPU 0 instructions: 123000820 cycles: 45242891 heartbeat IPC: 2.457 cumulative IPC: 2.549 (Simulation time: 00 hr 14 min 34 sec)
Heartbeat CPU 0 instructions: 123500823 cycles: 45422849 heartbeat IPC: 2.778 cumulative IPC: 2.551 (Simulation time: 00 hr 14 min 38 sec)
Heartbeat CPU 0 instructions: 124000824 cycles: 45602170 heartbeat IPC: 2.788 cumulative IPC: 2.552 (Simulation time: 00 hr 14 min 41 sec)
Heartbeat CPU 0 instructions: 124500827 cycles: 45807971 heartbeat IPC: 2.43 cumulative IPC: 2.551 (Simulation time: 00 hr 14 min 45 sec)
Heartbeat CPU 0 instructions: 125000831 cycles: 45988565 heartbeat IPC: 2.769 cumulative IPC: 2.553 (Simulation time: 00 hr 14 min 48 sec)
Heartbeat CPU 0 instructions: 125500836 cycles: 46167991 heartbeat IPC: 2.787 cumulative IPC: 2.554 (Simulation time: 00 hr 14 min 51 sec)
Heartbeat CPU 0 instructions: 126000839 cycles: 46349981 heartbeat IPC: 2.747 cumulative IPC: 2.555 (Simulation time: 00 hr 14 min 55 sec)
Heartbeat CPU 0 instructions: 126500840 cycles: 46554074 heartbeat IPC: 2.45 cumulative IPC: 2.554 (Simulation time: 00 hr 14 min 58 sec)
Heartbeat CPU 0 instructions: 127000840 cycles: 46734362 heartbeat IPC: 2.773 cumulative IPC: 2.556 (Simulation time: 00 hr 15 min 02 sec)
Heartbeat CPU 0 instructions: 127500843 cycles: 46914648 heartbeat IPC: 2.773 cumulative IPC: 2.557 (Simulation time: 00 hr 15 min 05 sec)
Heartbeat CPU 0 instructions: 128000845 cycles: 47118025 heartbeat IPC: 2.458 cumulative IPC: 2.556 (Simulation time: 00 hr 15 min 09 sec)
Heartbeat CPU 0 instructions: 128500850 cycles: 47298370 heartbeat IPC: 2.772 cumulative IPC: 2.558 (Simulation time: 00 hr 15 min 12 sec)
Heartbeat CPU 0 instructions: 129000850 cycles: 47478203 heartbeat IPC: 2.78 cumulative IPC: 2.559 (Simulation time: 00 hr 15 min 15 sec)
Heartbeat CPU 0 instructions: 129500850 cycles: 47682162 heartbeat IPC: 2.451 cumulative IPC: 2.558 (Simulation time: 00 hr 15 min 19 sec)
Heartbeat CPU 0 instructions: 130000857 cycles: 47863399 heartbeat IPC: 2.759 cumulative IPC: 2.559 (Simulation time: 00 hr 15 min 22 sec)
Heartbeat CPU 0 instructions: 130500861 cycles: 48042749 heartbeat IPC: 2.788 cumulative IPC: 2.561 (Simulation time: 00 hr 15 min 26 sec)
Heartbeat CPU 0 instructions: 131000868 cycles: 48230733 heartbeat IPC: 2.66 cumulative IPC: 2.561 (Simulation time: 00 hr 15 min 29 sec)
Heartbeat CPU 0 instructions: 131500870 cycles: 48427798 heartbeat IPC: 2.537 cumulative IPC: 2.561 (Simulation time: 00 hr 15 min 33 sec)
Heartbeat CPU 0 instructions: 132000871 cycles: 48606851 heartbeat IPC: 2.792 cumulative IPC: 2.562 (Simulation time: 00 hr 15 min 36 sec)
Heartbeat CPU 0 instructions: 132500876 cycles: 48787744 heartbeat IPC: 2.764 cumulative IPC: 2.564 (Simulation time: 00 hr 15 min 39 sec)
Heartbeat CPU 0 instructions: 133000879 cycles: 48992412 heartbeat IPC: 2.443 cumulative IPC: 2.563 (Simulation time: 00 hr 15 min 43 sec)
Heartbeat CPU 0 instructions: 133500881 cycles: 49172339 heartbeat IPC: 2.779 cumulative IPC: 2.564 (Simulation time: 00 hr 15 min 46 sec)
Heartbeat CPU 0 instructions: 134000884 cycles: 49352886 heartbeat IPC: 2.769 cumulative IPC: 2.565 (Simulation time: 00 hr 15 min 50 sec)
Heartbeat CPU 0 instructions: 134500889 cycles: 49558684 heartbeat IPC: 2.43 cumulative IPC: 2.564 (Simulation time: 00 hr 15 min 53 sec)
Heartbeat CPU 0 instructions: 135000889 cycles: 49739040 heartbeat IPC: 2.772 cumulative IPC: 2.565 (Simulation time: 00 hr 15 min 57 sec)
Heartbeat CPU 0 instructions: 135500890 cycles: 49918873 heartbeat IPC: 2.78 cumulative IPC: 2.567 (Simulation time: 00 hr 16 min 00 sec)
Heartbeat CPU 0 instructions: 136000891 cycles: 50114284 heartbeat IPC: 2.559 cumulative IPC: 2.567 (Simulation time: 00 hr 16 min 03 sec)
Heartbeat CPU 0 instructions: 136500892 cycles: 50303068 heartbeat IPC: 2.649 cumulative IPC: 2.567 (Simulation time: 00 hr 16 min 07 sec)
Heartbeat CPU 0 instructions: 137000898 cycles: 50483391 heartbeat IPC: 2.773 cumulative IPC: 2.568 (Simulation time: 00 hr 16 min 10 sec)
Heartbeat CPU 0 instructions: 137500905 cycles: 50664097 heartbeat IPC: 2.767 cumulative IPC: 2.569 (Simulation time: 00 hr 16 min 14 sec)
Heartbeat CPU 0 instructions: 138000907 cycles: 50868095 heartbeat IPC: 2.451 cumulative IPC: 2.568 (Simulation time: 00 hr 16 min 17 sec)
Heartbeat CPU 0 instructions: 138500910 cycles: 51048733 heartbeat IPC: 2.768 cumulative IPC: 2.57 (Simulation time: 00 hr 16 min 21 sec)
Heartbeat CPU 0 instructions: 139000915 cycles: 51228753 heartbeat IPC: 2.777 cumulative IPC: 2.571 (Simulation time: 00 hr 16 min 24 sec)
Heartbeat CPU 0 instructions: 139500917 cycles: 51433575 heartbeat IPC: 2.441 cumulative IPC: 2.57 (Simulation time: 00 hr 16 min 28 sec)
Heartbeat CPU 0 instructions: 140000919 cycles: 51614069 heartbeat IPC: 2.77 cumulative IPC: 2.571 (Simulation time: 00 hr 16 min 31 sec)
Heartbeat CPU 0 instructions: 140500925 cycles: 51793827 heartbeat IPC: 2.782 cumulative IPC: 2.572 (Simulation time: 00 hr 16 min 34 sec)
Heartbeat CPU 0 instructions: 141000932 cycles: 52001196 heartbeat IPC: 2.411 cumulative IPC: 2.571 (Simulation time: 00 hr 16 min 38 sec)
Heartbeat CPU 0 instructions: 141500935 cycles: 52183736 heartbeat IPC: 2.739 cumulative IPC: 2.572 (Simulation time: 00 hr 16 min 41 sec)
Heartbeat CPU 0 instructions: 142000939 cycles: 52364867 heartbeat IPC: 2.76 cumulative IPC: 2.573 (Simulation time: 00 hr 16 min 45 sec)
Heartbeat CPU 0 instructions: 142500946 cycles: 52545176 heartbeat IPC: 2.773 cumulative IPC: 2.574 (Simulation time: 00 hr 16 min 48 sec)
Heartbeat CPU 0 instructions: 143000952 cycles: 52751147 heartbeat IPC: 2.428 cumulative IPC: 2.573 (Simulation time: 00 hr 16 min 52 sec)
Heartbeat CPU 0 instructions: 143500957 cycles: 52933112 heartbeat IPC: 2.748 cumulative IPC: 2.574 (Simulation time: 00 hr 16 min 55 sec)
Heartbeat CPU 0 instructions: 144000964 cycles: 53112972 heartbeat IPC: 2.78 cumulative IPC: 2.575 (Simulation time: 00 hr 16 min 58 sec)
Heartbeat CPU 0 instructions: 144500965 cycles: 53317104 heartbeat IPC: 2.449 cumulative IPC: 2.574 (Simulation time: 00 hr 17 min 02 sec)
Heartbeat CPU 0 instructions: 145000969 cycles: 53497462 heartbeat IPC: 2.772 cumulative IPC: 2.575 (Simulation time: 00 hr 17 min 05 sec)
Heartbeat CPU 0 instructions: 145500970 cycles: 53678030 heartbeat IPC: 2.769 cumulative IPC: 2.576 (Simulation time: 00 hr 17 min 09 sec)
Heartbeat CPU 0 instructions: 146000977 cycles: 53882994 heartbeat IPC: 2.439 cumulative IPC: 2.575 (Simulation time: 00 hr 17 min 12 sec)
Heartbeat CPU 0 instructions: 146500980 cycles: 54062944 heartbeat IPC: 2.779 cumulative IPC: 2.576 (Simulation time: 00 hr 17 min 16 sec)
Heartbeat CPU 0 instructions: 147000987 cycles: 54243400 heartbeat IPC: 2.771 cumulative IPC: 2.577 (Simulation time: 00 hr 17 min 19 sec)
Heartbeat CPU 0 instructions: 147500989 cycles: 54422986 heartbeat IPC: 2.784 cumulative IPC: 2.578 (Simulation time: 00 hr 17 min 22 sec)
Heartbeat CPU 0 instructions: 148000992 cycles: 54627042 heartbeat IPC: 2.45 cumulative IPC: 2.578 (Simulation time: 00 hr 17 min 26 sec)
Heartbeat CPU 0 instructions: 148500999 cycles: 54806626 heartbeat IPC: 2.784 cumulative IPC: 2.579 (Simulation time: 00 hr 17 min 29 sec)
Heartbeat CPU 0 instructions: 149001002 cycles: 54987937 heartbeat IPC: 2.758 cumulative IPC: 2.579 (Simulation time: 00 hr 17 min 33 sec)
Heartbeat CPU 0 instructions: 149501002 cycles: 55191557 heartbeat IPC: 2.456 cumulative IPC: 2.579 (Simulation time: 00 hr 17 min 36 sec)
Heartbeat CPU 0 instructions: 150001005 cycles: 55372010 heartbeat IPC: 2.771 cumulative IPC: 2.58 (Simulation time: 00 hr 17 min 40 sec)
Heartbeat CPU 0 instructions: 150501008 cycles: 55551616 heartbeat IPC: 2.784 cumulative IPC: 2.581 (Simulation time: 00 hr 17 min 43 sec)
Heartbeat CPU 0 instructions: 151001012 cycles: 55755923 heartbeat IPC: 2.447 cumulative IPC: 2.58 (Simulation time: 00 hr 17 min 47 sec)
Heartbeat CPU 0 instructions: 151501015 cycles: 55937182 heartbeat IPC: 2.759 cumulative IPC: 2.581 (Simulation time: 00 hr 17 min 50 sec)
Heartbeat CPU 0 instructions: 152001018 cycles: 56116322 heartbeat IPC: 2.791 cumulative IPC: 2.582 (Simulation time: 00 hr 17 min 53 sec)
Heartbeat CPU 0 instructions: 152501018 cycles: 56298484 heartbeat IPC: 2.745 cumulative IPC: 2.582 (Simulation time: 00 hr 17 min 57 sec)
Heartbeat CPU 0 instructions: 153001022 cycles: 56501556 heartbeat IPC: 2.462 cumulative IPC: 2.582 (Simulation time: 00 hr 18 min 00 sec)
Heartbeat CPU 0 instructions: 153501028 cycles: 56681824 heartbeat IPC: 2.774 cumulative IPC: 2.583 (Simulation time: 00 hr 18 min 04 sec)
Heartbeat CPU 0 instructions: 154001033 cycles: 56861156 heartbeat IPC: 2.788 cumulative IPC: 2.584 (Simulation time: 00 hr 18 min 07 sec)
Heartbeat CPU 0 instructions: 154501039 cycles: 57065554 heartbeat IPC: 2.446 cumulative IPC: 2.583 (Simulation time: 00 hr 18 min 11 sec)
Heartbeat CPU 0 instructions: 155001040 cycles: 57245010 heartbeat IPC: 2.786 cumulative IPC: 2.584 (Simulation time: 00 hr 18 min 14 sec)
Heartbeat CPU 0 instructions: 155501043 cycles: 57426002 heartbeat IPC: 2.763 cumulative IPC: 2.585 (Simulation time: 00 hr 18 min 17 sec)
Heartbeat CPU 0 instructions: 156001044 cycles: 57630718 heartbeat IPC: 2.442 cumulative IPC: 2.584 (Simulation time: 00 hr 18 min 21 sec)
Heartbeat CPU 0 instructions: 156501044 cycles: 57810582 heartbeat IPC: 2.78 cumulative IPC: 2.585 (Simulation time: 00 hr 18 min 24 sec)
Heartbeat CPU 0 instructions: 157001047 cycles: 57990595 heartbeat IPC: 2.778 cumulative IPC: 2.586 (Simulation time: 00 hr 18 min 28 sec)
Heartbeat CPU 0 instructions: 157501052 cycles: 58179815 heartbeat IPC: 2.642 cumulative IPC: 2.586 (Simulation time: 00 hr 18 min 31 sec)
Heartbeat CPU 0 instructions: 158001052 cycles: 58375668 heartbeat IPC: 2.553 cumulative IPC: 2.586 (Simulation time: 00 hr 18 min 35 sec)
Heartbeat CPU 0 instructions: 158501057 cycles: 58554833 heartbeat IPC: 2.791 cumulative IPC: 2.587 (Simulation time: 00 hr 18 min 38 sec)
Heartbeat CPU 0 instructions: 159001064 cycles: 58736189 heartbeat IPC: 2.757 cumulative IPC: 2.587 (Simulation time: 00 hr 18 min 41 sec)
Heartbeat CPU 0 instructions: 159501066 cycles: 58939913 heartbeat IPC: 2.454 cumulative IPC: 2.587 (Simulation time: 00 hr 18 min 45 sec)
Heartbeat CPU 0 instructions: 160001066 cycles: 59120783 heartbeat IPC: 2.764 cumulative IPC: 2.587 (Simulation time: 00 hr 18 min 48 sec)
Heartbeat CPU 0 instructions: 160501068 cycles: 59301062 heartbeat IPC: 2.773 cumulative IPC: 2.588 (Simulation time: 00 hr 18 min 52 sec)
Heartbeat CPU 0 instructions: 161001069 cycles: 59504405 heartbeat IPC: 2.459 cumulative IPC: 2.588 (Simulation time: 00 hr 18 min 55 sec)
Heartbeat CPU 0 instructions: 161501071 cycles: 59684409 heartbeat IPC: 2.778 cumulative IPC: 2.588 (Simulation time: 00 hr 18 min 59 sec)
Heartbeat CPU 0 instructions: 162001078 cycles: 59864668 heartbeat IPC: 2.774 cumulative IPC: 2.589 (Simulation time: 00 hr 19 min 02 sec)
Heartbeat CPU 0 instructions: 162501080 cycles: 60061379 heartbeat IPC: 2.542 cumulative IPC: 2.589 (Simulation time: 00 hr 19 min 06 sec)
Heartbeat CPU 0 instructions: 163001086 cycles: 60250520 heartbeat IPC: 2.644 cumulative IPC: 2.589 (Simulation time: 00 hr 19 min 09 sec)
Heartbeat CPU 0 instructions: 163501088 cycles: 60430251 heartbeat IPC: 2.782 cumulative IPC: 2.59 (Simulation time: 00 hr 19 min 12 sec)
Heartbeat CPU 0 instructions: 164001093 cycles: 60647561 heartbeat IPC: 2.301 cumulative IPC: 2.588 (Simulation time: 00 hr 19 min 16 sec)
Heartbeat CPU 0 instructions: 164501100 cycles: 60852479 heartbeat IPC: 2.44 cumulative IPC: 2.588 (Simulation time: 00 hr 19 min 20 sec)
Heartbeat CPU 0 instructions: 165001106 cycles: 61032722 heartbeat IPC: 2.774 cumulative IPC: 2.589 (Simulation time: 00 hr 19 min 23 sec)
Heartbeat CPU 0 instructions: 165501113 cycles: 61213414 heartbeat IPC: 2.767 cumulative IPC: 2.589 (Simulation time: 00 hr 19 min 27 sec)
Heartbeat CPU 0 instructions: 166001115 cycles: 61417227 heartbeat IPC: 2.453 cumulative IPC: 2.589 (Simulation time: 00 hr 19 min 30 sec)
Heartbeat CPU 0 instructions: 166501121 cycles: 61597255 heartbeat IPC: 2.777 cumulative IPC: 2.589 (Simulation time: 00 hr 19 min 34 sec)
Heartbeat CPU 0 instructions: 167001127 cycles: 61776603 heartbeat IPC: 2.788 cumulative IPC: 2.59 (Simulation time: 00 hr 19 min 37 sec)
Heartbeat CPU 0 instructions: 167501127 cycles: 61980145 heartbeat IPC: 2.456 cumulative IPC: 2.59 (Simulation time: 00 hr 19 min 40 sec)
Heartbeat CPU 0 instructions: 168001133 cycles: 62160903 heartbeat IPC: 2.766 cumulative IPC: 2.59 (Simulation time: 00 hr 19 min 44 sec)
Heartbeat CPU 0 instructions: 168501133 cycles: 62341964 heartbeat IPC: 2.762 cumulative IPC: 2.591 (Simulation time: 00 hr 19 min 47 sec)
Heartbeat CPU 0 instructions: 169001135 cycles: 62520646 heartbeat IPC: 2.798 cumulative IPC: 2.592 (Simulation time: 00 hr 19 min 50 sec)
Heartbeat CPU 0 instructions: 169501135 cycles: 62725722 heartbeat IPC: 2.438 cumulative IPC: 2.591 (Simulation time: 00 hr 19 min 54 sec)
Heartbeat CPU 0 instructions: 170001137 cycles: 62905942 heartbeat IPC: 2.774 cumulative IPC: 2.592 (Simulation time: 00 hr 19 min 57 sec)
Heartbeat CPU 0 instructions: 170501144 cycles: 63084873 heartbeat IPC: 2.794 cumulative IPC: 2.593 (Simulation time: 00 hr 20 min 01 sec)
Heartbeat CPU 0 instructions: 171001144 cycles: 63289194 heartbeat IPC: 2.447 cumulative IPC: 2.592 (Simulation time: 00 hr 20 min 04 sec)
Heartbeat CPU 0 instructions: 171501144 cycles: 63470537 heartbeat IPC: 2.757 cumulative IPC: 2.593 (Simulation time: 00 hr 20 min 08 sec)
Heartbeat CPU 0 instructions: 172001151 cycles: 63649608 heartbeat IPC: 2.792 cumulative IPC: 2.593 (Simulation time: 00 hr 20 min 11 sec)
Heartbeat CPU 0 instructions: 172501157 cycles: 63854165 heartbeat IPC: 2.444 cumulative IPC: 2.593 (Simulation time: 00 hr 20 min 15 sec)
Heartbeat CPU 0 instructions: 173001162 cycles: 64034866 heartbeat IPC: 2.767 cumulative IPC: 2.593 (Simulation time: 00 hr 20 min 18 sec)
Heartbeat CPU 0 instructions: 173501166 cycles: 64214799 heartbeat IPC: 2.779 cumulative IPC: 2.594 (Simulation time: 00 hr 20 min 21 sec)
Heartbeat CPU 0 instructions: 174001171 cycles: 64394913 heartbeat IPC: 2.776 cumulative IPC: 2.595 (Simulation time: 00 hr 20 min 25 sec)
Heartbeat CPU 0 instructions: 174501171 cycles: 64599837 heartbeat IPC: 2.44 cumulative IPC: 2.594 (Simulation time: 00 hr 20 min 28 sec)
Heartbeat CPU 0 instructions: 175001171 cycles: 64779434 heartbeat IPC: 2.784 cumulative IPC: 2.595 (Simulation time: 00 hr 20 min 32 sec)
Heartbeat CPU 0 instructions: 175501178 cycles: 64959506 heartbeat IPC: 2.777 cumulative IPC: 2.595 (Simulation time: 00 hr 20 min 35 sec)
Heartbeat CPU 0 instructions: 176001178 cycles: 65164753 heartbeat IPC: 2.436 cumulative IPC: 2.595 (Simulation time: 00 hr 20 min 39 sec)
Heartbeat CPU 0 instructions: 176501183 cycles: 65343969 heartbeat IPC: 2.79 cumulative IPC: 2.596 (Simulation time: 00 hr 20 min 42 sec)
Heartbeat CPU 0 instructions: 177001188 cycles: 65524529 heartbeat IPC: 2.769 cumulative IPC: 2.596 (Simulation time: 00 hr 20 min 45 sec)
Heartbeat CPU 0 instructions: 177501191 cycles: 65729316 heartbeat IPC: 2.442 cumulative IPC: 2.596 (Simulation time: 00 hr 20 min 49 sec)
Heartbeat CPU 0 instructions: 178001193 cycles: 65909337 heartbeat IPC: 2.777 cumulative IPC: 2.596 (Simulation time: 00 hr 20 min 52 sec)
Heartbeat CPU 0 instructions: 178501195 cycles: 66088658 heartbeat IPC: 2.788 cumulative IPC: 2.597 (Simulation time: 00 hr 20 min 56 sec)
Heartbeat CPU 0 instructions: 179001200 cycles: 66270838 heartbeat IPC: 2.745 cumulative IPC: 2.597 (Simulation time: 00 hr 20 min 59 sec)
Heartbeat CPU 0 instructions: 179501201 cycles: 66474505 heartbeat IPC: 2.455 cumulative IPC: 2.597 (Simulation time: 00 hr 21 min 03 sec)
Heartbeat CPU 0 instructions: 180001202 cycles: 66654494 heartbeat IPC: 2.778 cumulative IPC: 2.598 (Simulation time: 00 hr 21 min 06 sec)
Heartbeat CPU 0 instructions: 180501209 cycles: 66834827 heartbeat IPC: 2.773 cumulative IPC: 2.598 (Simulation time: 00 hr 21 min 09 sec)
Heartbeat CPU 0 instructions: 181001215 cycles: 67038215 heartbeat IPC: 2.458 cumulative IPC: 2.598 (Simulation time: 00 hr 21 min 13 sec)
Heartbeat CPU 0 instructions: 181501219 cycles: 67219634 heartbeat IPC: 2.756 cumulative IPC: 2.598 (Simulation time: 00 hr 21 min 16 sec)
Heartbeat CPU 0 instructions: 182001222 cycles: 67401143 heartbeat IPC: 2.755 cumulative IPC: 2.599 (Simulation time: 00 hr 21 min 20 sec)
Heartbeat CPU 0 instructions: 182501226 cycles: 67604644 heartbeat IPC: 2.457 cumulative IPC: 2.598 (Simulation time: 00 hr 21 min 23 sec)
Heartbeat CPU 0 instructions: 183001232 cycles: 67783803 heartbeat IPC: 2.791 cumulative IPC: 2.599 (Simulation time: 00 hr 21 min 27 sec)
Heartbeat CPU 0 instructions: 183501237 cycles: 67963770 heartbeat IPC: 2.778 cumulative IPC: 2.599 (Simulation time: 00 hr 21 min 30 sec)
Heartbeat CPU 0 instructions: 184001239 cycles: 68151482 heartbeat IPC: 2.664 cumulative IPC: 2.6 (Simulation time: 00 hr 21 min 33 sec)
Heartbeat CPU 0 instructions: 184501245 cycles: 68347871 heartbeat IPC: 2.546 cumulative IPC: 2.599 (Simulation time: 00 hr 21 min 37 sec)
Heartbeat CPU 0 instructions: 185001249 cycles: 68529678 heartbeat IPC: 2.75 cumulative IPC: 2.6 (Simulation time: 00 hr 21 min 40 sec)
Heartbeat CPU 0 instructions: 185501254 cycles: 68708704 heartbeat IPC: 2.793 cumulative IPC: 2.601 (Simulation time: 00 hr 21 min 44 sec)
Heartbeat CPU 0 instructions: 186001261 cycles: 68913077 heartbeat IPC: 2.447 cumulative IPC: 2.6 (Simulation time: 00 hr 21 min 47 sec)
Heartbeat CPU 0 instructions: 186501267 cycles: 69093271 heartbeat IPC: 2.775 cumulative IPC: 2.601 (Simulation time: 00 hr 21 min 51 sec)
Heartbeat CPU 0 instructions: 187001269 cycles: 69272627 heartbeat IPC: 2.788 cumulative IPC: 2.601 (Simulation time: 00 hr 21 min 54 sec)
Heartbeat CPU 0 instructions: 187501275 cycles: 69477924 heartbeat IPC: 2.436 cumulative IPC: 2.601 (Simulation time: 00 hr 21 min 58 sec)
Heartbeat CPU 0 instructions: 188001282 cycles: 69658603 heartbeat IPC: 2.767 cumulative IPC: 2.601 (Simulation time: 00 hr 22 min 01 sec)
Heartbeat CPU 0 instructions: 188501284 cycles: 69838286 heartbeat IPC: 2.783 cumulative IPC: 2.602 (Simulation time: 00 hr 22 min 04 sec)
Heartbeat CPU 0 instructions: 189001286 cycles: 70035237 heartbeat IPC: 2.539 cumulative IPC: 2.602 (Simulation time: 00 hr 22 min 08 sec)
Heartbeat CPU 0 instructions: 189501286 cycles: 70223705 heartbeat IPC: 2.653 cumulative IPC: 2.602 (Simulation time: 00 hr 22 min 11 sec)
Heartbeat CPU 0 instructions: 190001286 cycles: 70403394 heartbeat IPC: 2.783 cumulative IPC: 2.602 (Simulation time: 00 hr 22 min 15 sec)
Heartbeat CPU 0 instructions: 190501291 cycles: 70583151 heartbeat IPC: 2.782 cumulative IPC: 2.603 (Simulation time: 00 hr 22 min 18 sec)
Heartbeat CPU 0 instructions: 191001292 cycles: 70786951 heartbeat IPC: 2.453 cumulative IPC: 2.602 (Simulation time: 00 hr 22 min 22 sec)
Heartbeat CPU 0 instructions: 191501297 cycles: 70968374 heartbeat IPC: 2.756 cumulative IPC: 2.603 (Simulation time: 00 hr 22 min 25 sec)
Heartbeat CPU 0 instructions: 192001299 cycles: 71147867 heartbeat IPC: 2.786 cumulative IPC: 2.604 (Simulation time: 00 hr 22 min 28 sec)
Heartbeat CPU 0 instructions: 192501300 cycles: 71352730 heartbeat IPC: 2.441 cumulative IPC: 2.603 (Simulation time: 00 hr 22 min 32 sec)
Heartbeat CPU 0 instructions: 193001307 cycles: 71532540 heartbeat IPC: 2.781 cumulative IPC: 2.604 (Simulation time: 00 hr 22 min 35 sec)
Heartbeat CPU 0 instructions: 193501307 cycles: 71712351 heartbeat IPC: 2.781 cumulative IPC: 2.604 (Simulation time: 00 hr 22 min 39 sec)
Heartbeat CPU 0 instructions: 194001310 cycles: 71915877 heartbeat IPC: 2.457 cumulative IPC: 2.604 (Simulation time: 00 hr 22 min 42 sec)
Heartbeat CPU 0 instructions: 194501315 cycles: 72096981 heartbeat IPC: 2.761 cumulative IPC: 2.604 (Simulation time: 00 hr 22 min 46 sec)
Heartbeat CPU 0 instructions: 195001316 cycles: 72275996 heartbeat IPC: 2.793 cumulative IPC: 2.605 (Simulation time: 00 hr 22 min 49 sec)
Heartbeat CPU 0 instructions: 195501322 cycles: 72456806 heartbeat IPC: 2.765 cumulative IPC: 2.605 (Simulation time: 00 hr 22 min 52 sec)
Heartbeat CPU 0 instructions: 196001329 cycles: 72661983 heartbeat IPC: 2.437 cumulative IPC: 2.605 (Simulation time: 00 hr 22 min 56 sec)
Heartbeat CPU 0 instructions: 196501330 cycles: 72841082 heartbeat IPC: 2.792 cumulative IPC: 2.605 (Simulation time: 00 hr 22 min 59 sec)
Heartbeat CPU 0 instructions: 197001332 cycles: 73021950 heartbeat IPC: 2.764 cumulative IPC: 2.606 (Simulation time: 00 hr 23 min 03 sec)
Heartbeat CPU 0 instructions: 197501336 cycles: 73226947 heartbeat IPC: 2.439 cumulative IPC: 2.605 (Simulation time: 00 hr 23 min 06 sec)
Heartbeat CPU 0 instructions: 198001342 cycles: 73406697 heartbeat IPC: 2.782 cumulative IPC: 2.606 (Simulation time: 00 hr 23 min 10 sec)
Heartbeat CPU 0 instructions: 198501347 cycles: 73586425 heartbeat IPC: 2.782 cumulative IPC: 2.606 (Simulation time: 00 hr 23 min 13 sec)
Heartbeat CPU 0 instructions: 199001347 cycles: 73791097 heartbeat IPC: 2.443 cumulative IPC: 2.606 (Simulation time: 00 hr 23 min 16 sec)
Heartbeat CPU 0 instructions: 199501354 cycles: 73971307 heartbeat IPC: 2.775 cumulative IPC: 2.606 (Simulation time: 00 hr 23 min 20 sec)
Heartbeat CPU 0 instructions: 200001359 cycles: 74151497 heartbeat IPC: 2.775 cumulative IPC: 2.607 (Simulation time: 00 hr 23 min 23 sec)
Heartbeat CPU 0 instructions: 200501359 cycles: 74331693 heartbeat IPC: 2.775 cumulative IPC: 2.607 (Simulation time: 00 hr 23 min 26 sec)
Heartbeat CPU 0 instructions: 201001366 cycles: 74536450 heartbeat IPC: 2.442 cumulative IPC: 2.607 (Simulation time: 00 hr 23 min 30 sec)
Heartbeat CPU 0 instructions: 201501366 cycles: 74715906 heartbeat IPC: 2.786 cumulative IPC: 2.607 (Simulation time: 00 hr 23 min 33 sec)
Heartbeat CPU 0 instructions: 202001371 cycles: 74896620 heartbeat IPC: 2.767 cumulative IPC: 2.608 (Simulation time: 00 hr 23 min 37 sec)
Heartbeat CPU 0 instructions: 202501374 cycles: 75101153 heartbeat IPC: 2.445 cumulative IPC: 2.607 (Simulation time: 00 hr 23 min 40 sec)
Heartbeat CPU 0 instructions: 203001381 cycles: 75281465 heartbeat IPC: 2.773 cumulative IPC: 2.608 (Simulation time: 00 hr 23 min 44 sec)
Heartbeat CPU 0 instructions: 203501386 cycles: 75461439 heartbeat IPC: 2.778 cumulative IPC: 2.608 (Simulation time: 00 hr 23 min 47 sec)
Heartbeat CPU 0 instructions: 204001391 cycles: 75666397 heartbeat IPC: 2.44 cumulative IPC: 2.608 (Simulation time: 00 hr 23 min 51 sec)
Heartbeat CPU 0 instructions: 204501393 cycles: 75845549 heartbeat IPC: 2.791 cumulative IPC: 2.608 (Simulation time: 00 hr 23 min 54 sec)
Heartbeat CPU 0 instructions: 205001396 cycles: 76026602 heartbeat IPC: 2.762 cumulative IPC: 2.609 (Simulation time: 00 hr 23 min 57 sec)
Heartbeat CPU 0 instructions: 205501399 cycles: 76207618 heartbeat IPC: 2.762 cumulative IPC: 2.609 (Simulation time: 00 hr 24 min 00 sec)
Heartbeat CPU 0 instructions: 206001400 cycles: 76410778 heartbeat IPC: 2.461 cumulative IPC: 2.609 (Simulation time: 00 hr 24 min 04 sec)
Heartbeat CPU 0 instructions: 206501400 cycles: 76591179 heartbeat IPC: 2.772 cumulative IPC: 2.609 (Simulation time: 00 hr 24 min 07 sec)
Heartbeat CPU 0 instructions: 207001405 cycles: 76770494 heartbeat IPC: 2.788 cumulative IPC: 2.61 (Simulation time: 00 hr 24 min 11 sec)
Heartbeat CPU 0 instructions: 207501408 cycles: 76974878 heartbeat IPC: 2.446 cumulative IPC: 2.609 (Simulation time: 00 hr 24 min 14 sec)
Heartbeat CPU 0 instructions: 208001412 cycles: 77154947 heartbeat IPC: 2.777 cumulative IPC: 2.609 (Simulation time: 00 hr 24 min 18 sec)
Heartbeat CPU 0 instructions: 208501419 cycles: 77335936 heartbeat IPC: 2.763 cumulative IPC: 2.61 (Simulation time: 00 hr 24 min 21 sec)
Heartbeat CPU 0 instructions: 209001422 cycles: 77540059 heartbeat IPC: 2.45 cumulative IPC: 2.609 (Simulation time: 00 hr 24 min 25 sec)
Heartbeat CPU 0 instructions: 209501422 cycles: 77720540 heartbeat IPC: 2.77 cumulative IPC: 2.61 (Simulation time: 00 hr 24 min 28 sec)
Heartbeat CPU 0 instructions: 210001427 cycles: 77900826 heartbeat IPC: 2.773 cumulative IPC: 2.61 (Simulation time: 00 hr 24 min 31 sec)
Heartbeat CPU 0 instructions: 210501432 cycles: 78088188 heartbeat IPC: 2.669 cumulative IPC: 2.611 (Simulation time: 00 hr 24 min 35 sec)
Heartbeat CPU 0 instructions: 211001432 cycles: 78284815 heartbeat IPC: 2.543 cumulative IPC: 2.61 (Simulation time: 00 hr 24 min 38 sec)
Heartbeat CPU 0 instructions: 211501433 cycles: 78464751 heartbeat IPC: 2.779 cumulative IPC: 2.611 (Simulation time: 00 hr 24 min 41 sec)
Heartbeat CPU 0 instructions: 212001438 cycles: 78644907 heartbeat IPC: 2.775 cumulative IPC: 2.611 (Simulation time: 00 hr 24 min 45 sec)
Heartbeat CPU 0 instructions: 212501438 cycles: 78850038 heartbeat IPC: 2.437 cumulative IPC: 2.611 (Simulation time: 00 hr 24 min 48 sec)
Heartbeat CPU 0 instructions: 213001444 cycles: 79030002 heartbeat IPC: 2.778 cumulative IPC: 2.611 (Simulation time: 00 hr 24 min 51 sec)
Heartbeat CPU 0 instructions: 213501446 cycles: 79210878 heartbeat IPC: 2.764 cumulative IPC: 2.612 (Simulation time: 00 hr 24 min 55 sec)
Heartbeat CPU 0 instructions: 214001449 cycles: 79414079 heartbeat IPC: 2.461 cumulative IPC: 2.611 (Simulation time: 00 hr 24 min 58 sec)
Heartbeat CPU 0 instructions: 214501450 cycles: 79594897 heartbeat IPC: 2.765 cumulative IPC: 2.612 (Simulation time: 00 hr 25 min 02 sec)
Heartbeat CPU 0 instructions: 215001454 cycles: 79774219 heartbeat IPC: 2.788 cumulative IPC: 2.612 (Simulation time: 00 hr 25 min 05 sec)
Heartbeat CPU 0 instructions: 215501461 cycles: 79971001 heartbeat IPC: 2.541 cumulative IPC: 2.612 (Simulation time: 00 hr 25 min 08 sec)
Heartbeat CPU 0 instructions: 216001468 cycles: 80158919 heartbeat IPC: 2.661 cumulative IPC: 2.612 (Simulation time: 00 hr 25 min 12 sec)
Heartbeat CPU 0 instructions: 216501474 cycles: 80340216 heartbeat IPC: 2.758 cumulative IPC: 2.612 (Simulation time: 00 hr 25 min 15 sec)
Heartbeat CPU 0 instructions: 217001481 cycles: 80519904 heartbeat IPC: 2.783 cumulative IPC: 2.613 (Simulation time: 00 hr 25 min 18 sec)
Heartbeat CPU 0 instructions: 217501482 cycles: 80724197 heartbeat IPC: 2.447 cumulative IPC: 2.612 (Simulation time: 00 hr 25 min 22 sec)
Heartbeat CPU 0 instructions: 218001485 cycles: 80904522 heartbeat IPC: 2.773 cumulative IPC: 2.613 (Simulation time: 00 hr 25 min 25 sec)
Heartbeat CPU 0 instructions: 218501487 cycles: 81084238 heartbeat IPC: 2.782 cumulative IPC: 2.613 (Simulation time: 00 hr 25 min 28 sec)
Heartbeat CPU 0 instructions: 219001488 cycles: 81288354 heartbeat IPC: 2.45 cumulative IPC: 2.613 (Simulation time: 00 hr 25 min 32 sec)
Heartbeat CPU 0 instructions: 219501489 cycles: 81467909 heartbeat IPC: 2.785 cumulative IPC: 2.613 (Simulation time: 00 hr 25 min 35 sec)
Heartbeat CPU 0 instructions: 220001493 cycles: 81648796 heartbeat IPC: 2.764 cumulative IPC: 2.614 (Simulation time: 00 hr 25 min 39 sec)
Heartbeat CPU 0 instructions: 220501499 cycles: 81852590 heartbeat IPC: 2.453 cumulative IPC: 2.613 (Simulation time: 00 hr 25 min 42 sec)
Heartbeat CPU 0 instructions: 221001500 cycles: 82033223 heartbeat IPC: 2.768 cumulative IPC: 2.614 (Simulation time: 00 hr 25 min 45 sec)
Heartbeat CPU 0 instructions: 221501502 cycles: 82213576 heartbeat IPC: 2.772 cumulative IPC: 2.614 (Simulation time: 00 hr 25 min 49 sec)
Heartbeat CPU 0 instructions: 222001504 cycles: 82393435 heartbeat IPC: 2.78 cumulative IPC: 2.615 (Simulation time: 00 hr 25 min 52 sec)
Heartbeat CPU 0 instructions: 222501507 cycles: 82598568 heartbeat IPC: 2.437 cumulative IPC: 2.614 (Simulation time: 00 hr 25 min 55 sec)
Heartbeat CPU 0 instructions: 223001509 cycles: 82778064 heartbeat IPC: 2.786 cumulative IPC: 2.614 (Simulation time: 00 hr 25 min 59 sec)
Heartbeat CPU 0 instructions: 223501510 cycles: 82959230 heartbeat IPC: 2.76 cumulative IPC: 2.615 (Simulation time: 00 hr 26 min 02 sec)
Heartbeat CPU 0 instructions: 224001511 cycles: 83163571 heartbeat IPC: 2.447 cumulative IPC: 2.614 (Simulation time: 00 hr 26 min 06 sec)
Heartbeat CPU 0 instructions: 224501516 cycles: 83343171 heartbeat IPC: 2.784 cumulative IPC: 2.615 (Simulation time: 00 hr 26 min 09 sec)
Heartbeat CPU 0 instructions: 225001521 cycles: 83522735 heartbeat IPC: 2.785 cumulative IPC: 2.615 (Simulation time: 00 hr 26 min 12 sec)
Heartbeat CPU 0 instructions: 225501527 cycles: 83726664 heartbeat IPC: 2.452 cumulative IPC: 2.615 (Simulation time: 00 hr 26 min 16 sec)
Heartbeat CPU 0 instructions: 226001534 cycles: 83907718 heartbeat IPC: 2.762 cumulative IPC: 2.615 (Simulation time: 00 hr 26 min 19 sec)
Heartbeat CPU 0 instructions: 226501538 cycles: 84087846 heartbeat IPC: 2.776 cumulative IPC: 2.616 (Simulation time: 00 hr 26 min 22 sec)
Heartbeat CPU 0 instructions: 227001538 cycles: 84266453 heartbeat IPC: 2.799 cumulative IPC: 2.616 (Simulation time: 00 hr 26 min 25 sec)
Heartbeat CPU 0 instructions: 227501542 cycles: 84468340 heartbeat IPC: 2.477 cumulative IPC: 2.616 (Simulation time: 00 hr 26 min 29 sec)
Heartbeat CPU 0 instructions: 228001543 cycles: 84646166 heartbeat IPC: 2.812 cumulative IPC: 2.616 (Simulation time: 00 hr 26 min 32 sec)
Heartbeat CPU 0 instructions: 228501544 cycles: 84822244 heartbeat IPC: 2.84 cumulative IPC: 2.617 (Simulation time: 00 hr 26 min 35 sec)
Heartbeat CPU 0 instructions: 229001547 cycles: 85016275 heartbeat IPC: 2.577 cumulative IPC: 2.617 (Simulation time: 00 hr 26 min 39 sec)
Heartbeat CPU 0 instructions: 229501552 cycles: 85190602 heartbeat IPC: 2.868 cumulative IPC: 2.617 (Simulation time: 00 hr 26 min 42 sec)
Heartbeat CPU 0 instructions: 230001554 cycles: 85366294 heartbeat IPC: 2.846 cumulative IPC: 2.618 (Simulation time: 00 hr 26 min 45 sec)
Heartbeat CPU 0 instructions: 230501555 cycles: 85559820 heartbeat IPC: 2.584 cumulative IPC: 2.618 (Simulation time: 00 hr 26 min 48 sec)
Heartbeat CPU 0 instructions: 231001557 cycles: 85733348 heartbeat IPC: 2.881 cumulative IPC: 2.618 (Simulation time: 00 hr 26 min 51 sec)
Heartbeat CPU 0 instructions: 231501564 cycles: 85907811 heartbeat IPC: 2.866 cumulative IPC: 2.619 (Simulation time: 00 hr 26 min 55 sec)
Heartbeat CPU 0 instructions: 232001565 cycles: 86080880 heartbeat IPC: 2.889 cumulative IPC: 2.62 (Simulation time: 00 hr 26 min 58 sec)
Heartbeat CPU 0 instructions: 232501567 cycles: 86284361 heartbeat IPC: 2.457 cumulative IPC: 2.619 (Simulation time: 00 hr 27 min 01 sec)
Heartbeat CPU 0 instructions: 233001571 cycles: 86466025 heartbeat IPC: 2.752 cumulative IPC: 2.62 (Simulation time: 00 hr 27 min 04 sec)
Heartbeat CPU 0 instructions: 233501575 cycles: 86647168 heartbeat IPC: 2.76 cumulative IPC: 2.62 (Simulation time: 00 hr 27 min 08 sec)
Heartbeat CPU 0 instructions: 234001578 cycles: 86851853 heartbeat IPC: 2.443 cumulative IPC: 2.619 (Simulation time: 00 hr 27 min 11 sec)
Heartbeat CPU 0 instructions: 234501584 cycles: 87032694 heartbeat IPC: 2.765 cumulative IPC: 2.62 (Simulation time: 00 hr 27 min 14 sec)
Heartbeat CPU 0 instructions: 235001591 cycles: 87213017 heartbeat IPC: 2.773 cumulative IPC: 2.62 (Simulation time: 00 hr 27 min 18 sec)
Heartbeat CPU 0 instructions: 235501596 cycles: 87418122 heartbeat IPC: 2.438 cumulative IPC: 2.62 (Simulation time: 00 hr 27 min 21 sec)
Heartbeat CPU 0 instructions: 236001602 cycles: 87598702 heartbeat IPC: 2.769 cumulative IPC: 2.62 (Simulation time: 00 hr 27 min 24 sec)
Heartbeat CPU 0 instructions: 236501609 cycles: 87778415 heartbeat IPC: 2.782 cumulative IPC: 2.62 (Simulation time: 00 hr 27 min 27 sec)
Heartbeat CPU 0 instructions: 237001611 cycles: 87967041 heartbeat IPC: 2.651 cumulative IPC: 2.621 (Simulation time: 00 hr 27 min 31 sec)
Heartbeat CPU 0 instructions: 237501613 cycles: 88162164 heartbeat IPC: 2.562 cumulative IPC: 2.62 (Simulation time: 00 hr 27 min 34 sec)
Heartbeat CPU 0 instructions: 238001619 cycles: 88342686 heartbeat IPC: 2.77 cumulative IPC: 2.621 (Simulation time: 00 hr 27 min 37 sec)
Heartbeat CPU 0 instructions: 238501620 cycles: 88522072 heartbeat IPC: 2.787 cumulative IPC: 2.621 (Simulation time: 00 hr 27 min 40 sec)
Heartbeat CPU 0 instructions: 239001625 cycles: 88726733 heartbeat IPC: 2.443 cumulative IPC: 2.621 (Simulation time: 00 hr 27 min 44 sec)
Heartbeat CPU 0 instructions: 239501630 cycles: 88906985 heartbeat IPC: 2.774 cumulative IPC: 2.621 (Simulation time: 00 hr 27 min 47 sec)
Heartbeat CPU 0 instructions: 240001630 cycles: 89087046 heartbeat IPC: 2.777 cumulative IPC: 2.621 (Simulation time: 00 hr 27 min 50 sec)
Heartbeat CPU 0 instructions: 240501630 cycles: 89291347 heartbeat IPC: 2.447 cumulative IPC: 2.621 (Simulation time: 00 hr 27 min 54 sec)
Heartbeat CPU 0 instructions: 241001634 cycles: 89471860 heartbeat IPC: 2.77 cumulative IPC: 2.621 (Simulation time: 00 hr 27 min 57 sec)
Heartbeat CPU 0 instructions: 241501639 cycles: 89652017 heartbeat IPC: 2.775 cumulative IPC: 2.622 (Simulation time: 00 hr 28 min 00 sec)
Heartbeat CPU 0 instructions: 242001643 cycles: 89847413 heartbeat IPC: 2.559 cumulative IPC: 2.621 (Simulation time: 00 hr 28 min 03 sec)
Heartbeat CPU 0 instructions: 242501648 cycles: 90035964 heartbeat IPC: 2.652 cumulative IPC: 2.622 (Simulation time: 00 hr 28 min 07 sec)
Heartbeat CPU 0 instructions: 243001653 cycles: 90215459 heartbeat IPC: 2.786 cumulative IPC: 2.622 (Simulation time: 00 hr 28 min 10 sec)
Heartbeat CPU 0 instructions: 243501655 cycles: 90395609 heartbeat IPC: 2.775 cumulative IPC: 2.622 (Simulation time: 00 hr 28 min 13 sec)
Heartbeat CPU 0 instructions: 244001662 cycles: 90600713 heartbeat IPC: 2.438 cumulative IPC: 2.622 (Simulation time: 00 hr 28 min 16 sec)
Heartbeat CPU 0 instructions: 244501669 cycles: 90780358 heartbeat IPC: 2.783 cumulative IPC: 2.622 (Simulation time: 00 hr 28 min 19 sec)
Heartbeat CPU 0 instructions: 245001669 cycles: 90960417 heartbeat IPC: 2.777 cumulative IPC: 2.623 (Simulation time: 00 hr 28 min 23 sec)
Heartbeat CPU 0 instructions: 245501672 cycles: 91164796 heartbeat IPC: 2.446 cumulative IPC: 2.622 (Simulation time: 00 hr 28 min 26 sec)
Heartbeat CPU 0 instructions: 246001675 cycles: 91345762 heartbeat IPC: 2.763 cumulative IPC: 2.622 (Simulation time: 00 hr 28 min 29 sec)
Heartbeat CPU 0 instructions: 246501682 cycles: 91526925 heartbeat IPC: 2.76 cumulative IPC: 2.623 (Simulation time: 00 hr 28 min 32 sec)
Heartbeat CPU 0 instructions: 247001682 cycles: 91729349 heartbeat IPC: 2.47 cumulative IPC: 2.622 (Simulation time: 00 hr 28 min 36 sec)
Heartbeat CPU 0 instructions: 247501687 cycles: 91910280 heartbeat IPC: 2.764 cumulative IPC: 2.623 (Simulation time: 00 hr 28 min 39 sec)
Heartbeat CPU 0 instructions: 248001688 cycles: 92091081 heartbeat IPC: 2.765 cumulative IPC: 2.623 (Simulation time: 00 hr 28 min 42 sec)
Heartbeat CPU 0 instructions: 248501688 cycles: 92271050 heartbeat IPC: 2.778 cumulative IPC: 2.623 (Simulation time: 00 hr 28 min 45 sec)
Heartbeat CPU 0 instructions: 249001689 cycles: 92475318 heartbeat IPC: 2.448 cumulative IPC: 2.623 (Simulation time: 00 hr 28 min 48 sec)
Heartbeat CPU 0 instructions: 249501694 cycles: 92654654 heartbeat IPC: 2.788 cumulative IPC: 2.623 (Simulation time: 00 hr 28 min 52 sec)
Simulation finished CPU 0 instructions: 200000005 cycles: 76228932 cumulative IPC: 2.624 (Simulation time: 00 hr 28 min 55 sec)
Simulation complete CPU 0 instructions: 200000005 cycles: 76228932 cumulative IPC: 2.624 (Simulation time: 00 hr 28 min 55 sec)

ChampSim completed all CPUs

=== Simulation ===
CPU 0 runs /local-ssd/ben/dpc4-traces/ai-ml/stable-diffusion.cpp-v2-1_768-nonema-pruned.3.champsimtrace.gz

Region of Interest Statistics

CPU 0 cumulative IPC: 2.624 instructions: 200000005 cycles: 76228932
CPU 0 Branch Prediction Accuracy: 98.9% MPKI: 0.7108 Average ROB Occupancy at Mispredict: 528.5
Branch type MPKI
BRANCH_DIRECT_JUMP: 0
BRANCH_INDIRECT: 0
BRANCH_CONDITIONAL: 0.7108
BRANCH_DIRECT_CALL: 0
BRANCH_INDIRECT_CALL: 0
BRANCH_RETURN: 0

cpu0->cpu0_STLB TOTAL        ACCESS:      95730 HIT:      72073 MISS:      23657 MSHR_MERGE:          0
cpu0->cpu0_STLB LOAD         ACCESS:      95730 HIT:      72073 MISS:      23657 MSHR_MERGE:          0
cpu0->cpu0_STLB RFO          ACCESS:          0 HIT:          0 MISS:          0 MSHR_MERGE:          0
cpu0->cpu0_STLB PREFETCH     ACCESS:          0 HIT:          0 MISS:          0 MSHR_MERGE:          0
cpu0->cpu0_STLB WRITE        ACCESS:          0 HIT:          0 MISS:          0 MSHR_MERGE:          0
cpu0->cpu0_STLB TRANSLATION  ACCESS:          0 HIT:          0 MISS:          0 MSHR_MERGE:          0
cpu0->cpu0_STLB PREFETCH REQUESTED:          0 ISSUED:          0 USEFUL:          0 USELESS:          0
cpu0->cpu0_STLB AVERAGE MISS LATENCY: 94.71 cycles
cpu0->cpu0_L2C TOTAL        ACCESS:   28696394 HIT:   26655044 MISS:    2041350 MSHR_MERGE:     526306
cpu0->cpu0_L2C LOAD         ACCESS:   19267036 HIT:   17954000 MISS:    1313036 MSHR_MERGE:     399088
cpu0->cpu0_L2C RFO          ACCESS:      47347 HIT:      39015 MISS:       8332 MSHR_MERGE:          0
cpu0->cpu0_L2C PREFETCH     ACCESS:    9311665 HIT:    8594703 MISS:     716962 MSHR_MERGE:     127218
cpu0->cpu0_L2C WRITE        ACCESS:      66751 HIT:      66751 MISS:          0 MSHR_MERGE:          0
cpu0->cpu0_L2C TRANSLATION  ACCESS:       3595 HIT:        575 MISS:       3020 MSHR_MERGE:          0
cpu0->cpu0_L2C PREFETCH REQUESTED:    4644081 ISSUED:    2972276 USEFUL:     477166 USELESS:         35
cpu0->cpu0_L2C AVERAGE MISS LATENCY: 157.8 cycles
cpu0->cpu0_L1I TOTAL        ACCESS:   43948266 HIT:   43948266 MISS:          0 MSHR_MERGE:          0
cpu0->cpu0_L1I LOAD         ACCESS:   43948266 HIT:   43948266 MISS:          0 MSHR_MERGE:          0
cpu0->cpu0_L1I RFO          ACCESS:          0 HIT:          0 MISS:          0 MSHR_MERGE:          0
cpu0->cpu0_L1I PREFETCH     ACCESS:          0 HIT:          0 MISS:          0 MSHR_MERGE:          0
cpu0->cpu0_L1I WRITE        ACCESS:          0 HIT:          0 MISS:          0 MSHR_MERGE:          0
cpu0->cpu0_L1I TRANSLATION  ACCESS:          0 HIT:          0 MISS:          0 MSHR_MERGE:          0
cpu0->cpu0_L1I PREFETCH REQUESTED:          0 ISSUED:          0 USEFUL:          0 USELESS:          0
cpu0->cpu0_L1I AVERAGE MISS LATENCY: - cycles
cpu0->cpu0_L1D TOTAL        ACCESS:   74301909 HIT:   42802969 MISS:   31498940 MSHR_MERGE:    5841491
cpu0->cpu0_L1D LOAD         ACCESS:   58327354 HIT:   36425372 MISS:   21901982 MSHR_MERGE:    2634945
cpu0->cpu0_L1D RFO          ACCESS:          0 HIT:          0 MISS:          0 MSHR_MERGE:          0
cpu0->cpu0_L1D PREFETCH     ACCESS:   15301221 HIT:    5765894 MISS:    9535327 MSHR_MERGE:    3195938
cpu0->cpu0_L1D WRITE        ACCESS:     626011 HIT:     567977 MISS:      58034 MSHR_MERGE:      10606
cpu0->cpu0_L1D TRANSLATION  ACCESS:      47323 HIT:      43726 MISS:       3597 MSHR_MERGE:          2
cpu0->cpu0_L1D PREFETCH REQUESTED:   23320520 ISSUED:   15301220 USEFUL:    6296493 USELESS:      42895
cpu0->cpu0_L1D AVERAGE MISS LATENCY: 18.43 cycles
cpu0->cpu0_ITLB TOTAL        ACCESS:   27232029 HIT:   27232029 MISS:          0 MSHR_MERGE:          0
cpu0->cpu0_ITLB LOAD         ACCESS:   27232029 HIT:   27232029 MISS:          0 MSHR_MERGE:          0
cpu0->cpu0_ITLB RFO          ACCESS:          0 HIT:          0 MISS:          0 MSHR_MERGE:          0
cpu0->cpu0_ITLB PREFETCH     ACCESS:          0 HIT:          0 MISS:          0 MSHR_MERGE:          0
cpu0->cpu0_ITLB WRITE        ACCESS:          0 HIT:          0 MISS:          0 MSHR_MERGE:          0
cpu0->cpu0_ITLB TRANSLATION  ACCESS:          0 HIT:          0 MISS:          0 MSHR_MERGE:          0
cpu0->cpu0_ITLB PREFETCH REQUESTED:          0 ISSUED:          0 USEFUL:          0 USELESS:          0
cpu0->cpu0_ITLB AVERAGE MISS LATENCY: - cycles
cpu0->cpu0_DTLB TOTAL        ACCESS:   60360849 HIT:   59961352 MISS:     399497 MSHR_MERGE:     303767
cpu0->cpu0_DTLB LOAD         ACCESS:   60360849 HIT:   59961352 MISS:     399497 MSHR_MERGE:     303767
cpu0->cpu0_DTLB RFO          ACCESS:          0 HIT:          0 MISS:          0 MSHR_MERGE:          0
cpu0->cpu0_DTLB PREFETCH     ACCESS:          0 HIT:          0 MISS:          0 MSHR_MERGE:          0
cpu0->cpu0_DTLB WRITE        ACCESS:          0 HIT:          0 MISS:          0 MSHR_MERGE:          0
cpu0->cpu0_DTLB TRANSLATION  ACCESS:          0 HIT:          0 MISS:          0 MSHR_MERGE:          0
cpu0->cpu0_DTLB PREFETCH REQUESTED:          0 ISSUED:          0 USEFUL:          0 USELESS:          0
cpu0->cpu0_DTLB AVERAGE MISS LATENCY: 28.66 cycles
cpu0->LLC TOTAL        ACCESS:    2479475 HIT:      96073 MISS:    2383402 MSHR_MERGE:     886247
cpu0->LLC LOAD         ACCESS:     913948 HIT:      47090 MISS:     866858 MSHR_MERGE:     405965
cpu0->LLC RFO          ACCESS:       8332 HIT:          0 MISS:       8332 MSHR_MERGE:          0
cpu0->LLC PREFETCH     ACCESS:    1545848 HIT:      45519 MISS:    1500329 MSHR_MERGE:     480282
cpu0->LLC WRITE        ACCESS:       8327 HIT:       3433 MISS:       4894 MSHR_MERGE:          0
cpu0->LLC TRANSLATION  ACCESS:       3020 HIT:         31 MISS:       2989 MSHR_MERGE:          0
cpu0->LLC PREFETCH REQUESTED:     956611 ISSUED:     956104 USEFUL:     458094 USELESS:     201798
cpu0->LLC AVERAGE MISS LATENCY: 165.3 cycles

DRAM Statistics

Channel 0 RQ ROW_BUFFER_HIT:     708729
  ROW_BUFFER_MISS:     783532
  AVG DBUS CONGESTED CYCLE: 4.385
Channel 0 WQ ROW_BUFFER_HIT:       2959
  ROW_BUFFER_MISS:       3476
  FULL:          0
Channel 0 REFRESHES ISSUED:       6352
