[VMEM] WARNING: physical memory size is smaller than virtual memory size.

*** ChampSim Multicore Out-of-Order Simulator ***
Warmup Instructions: 50000000
Simulation Instructions: 200000000
Number of CPUs: 1
Page size: 4096
Core 0: /local-ssd/ben/dpc4-traces/Graph/Ligra/ligra_MIS.com-lj.ungraph.gcc_6.3.0_O3.drop_21250M.length_250M.champsimtrace.xz
 L1D Berti prefetcher
 L1D Berti prefetcher
Off-chip DRAM Size: 64 GiB Channels: 1 Width: 64-bit Data Rate: 4807 MT/s
Heartbeat CPU 0 instructions: 500004 cycles: 236209 heartbeat IPC: 2.117 cumulative IPC: 2.117 (Simulation time: 00 hr 00 min 04 sec)
Heartbeat CPU 0 instructions: 1000007 cycles: 470049 heartbeat IPC: 2.138 cumulative IPC: 2.127 (Simulation time: 00 hr 00 min 07 sec)
Heartbeat CPU 0 instructions: 1500007 cycles: 704768 heartbeat IPC: 2.13 cumulative IPC: 2.128 (Simulation time: 00 hr 00 min 11 sec)
Heartbeat CPU 0 instructions: 2000009 cycles: 938843 heartbeat IPC: 2.136 cumulative IPC: 2.13 (Simulation time: 00 hr 00 min 14 sec)
Heartbeat CPU 0 instructions: 2500012 cycles: 1172837 heartbeat IPC: 2.137 cumulative IPC: 2.132 (Simulation time: 00 hr 00 min 18 sec)
Heartbeat CPU 0 instructions: 3000016 cycles: 1407585 heartbeat IPC: 2.13 cumulative IPC: 2.131 (Simulation time: 00 hr 00 min 21 sec)
Heartbeat CPU 0 instructions: 3500023 cycles: 1641703 heartbeat IPC: 2.136 cumulative IPC: 2.132 (Simulation time: 00 hr 00 min 24 sec)
Heartbeat CPU 0 instructions: 4000023 cycles: 1875938 heartbeat IPC: 2.135 cumulative IPC: 2.132 (Simulation time: 00 hr 00 min 28 sec)
Heartbeat CPU 0 instructions: 4500023 cycles: 2110614 heartbeat IPC: 2.131 cumulative IPC: 2.132 (Simulation time: 00 hr 00 min 31 sec)
Heartbeat CPU 0 instructions: 5000028 cycles: 2345127 heartbeat IPC: 2.132 cumulative IPC: 2.132 (Simulation time: 00 hr 00 min 35 sec)
Heartbeat CPU 0 instructions: 5500028 cycles: 2579039 heartbeat IPC: 2.138 cumulative IPC: 2.133 (Simulation time: 00 hr 00 min 38 sec)
Heartbeat CPU 0 instructions: 6000029 cycles: 2812881 heartbeat IPC: 2.138 cumulative IPC: 2.133 (Simulation time: 00 hr 00 min 42 sec)
Heartbeat CPU 0 instructions: 6500036 cycles: 3045792 heartbeat IPC: 2.147 cumulative IPC: 2.134 (Simulation time: 00 hr 00 min 45 sec)
Heartbeat CPU 0 instructions: 7000039 cycles: 3277303 heartbeat IPC: 2.16 cumulative IPC: 2.136 (Simulation time: 00 hr 00 min 49 sec)
Heartbeat CPU 0 instructions: 7500041 cycles: 3511036 heartbeat IPC: 2.139 cumulative IPC: 2.136 (Simulation time: 00 hr 00 min 52 sec)
Heartbeat CPU 0 instructions: 8000044 cycles: 3745380 heartbeat IPC: 2.134 cumulative IPC: 2.136 (Simulation time: 00 hr 00 min 55 sec)
Heartbeat CPU 0 instructions: 8500049 cycles: 3979653 heartbeat IPC: 2.134 cumulative IPC: 2.136 (Simulation time: 00 hr 00 min 59 sec)
Heartbeat CPU 0 instructions: 9000055 cycles: 4213787 heartbeat IPC: 2.136 cumulative IPC: 2.136 (Simulation time: 00 hr 01 min 02 sec)
Heartbeat CPU 0 instructions: 9500060 cycles: 4448062 heartbeat IPC: 2.134 cumulative IPC: 2.136 (Simulation time: 00 hr 01 min 06 sec)
Heartbeat CPU 0 instructions: 10000060 cycles: 4682051 heartbeat IPC: 2.137 cumulative IPC: 2.136 (Simulation time: 00 hr 01 min 09 sec)
Heartbeat CPU 0 instructions: 10500065 cycles: 4916657 heartbeat IPC: 2.131 cumulative IPC: 2.136 (Simulation time: 00 hr 01 min 13 sec)
Heartbeat CPU 0 instructions: 11000071 cycles: 5150733 heartbeat IPC: 2.136 cumulative IPC: 2.136 (Simulation time: 00 hr 01 min 16 sec)
Heartbeat CPU 0 instructions: 11500071 cycles: 5385026 heartbeat IPC: 2.134 cumulative IPC: 2.136 (Simulation time: 00 hr 01 min 20 sec)
Heartbeat CPU 0 instructions: 12000074 cycles: 5619410 heartbeat IPC: 2.133 cumulative IPC: 2.135 (Simulation time: 00 hr 01 min 23 sec)
Heartbeat CPU 0 instructions: 12500081 cycles: 5853397 heartbeat IPC: 2.137 cumulative IPC: 2.136 (Simulation time: 00 hr 01 min 27 sec)
Heartbeat CPU 0 instructions: 13000081 cycles: 6087563 heartbeat IPC: 2.135 cumulative IPC: 2.136 (Simulation time: 00 hr 01 min 30 sec)
Heartbeat CPU 0 instructions: 13500081 cycles: 6322273 heartbeat IPC: 2.13 cumulative IPC: 2.135 (Simulation time: 00 hr 01 min 34 sec)
Heartbeat CPU 0 instructions: 14000086 cycles: 6556659 heartbeat IPC: 2.133 cumulative IPC: 2.135 (Simulation time: 00 hr 01 min 37 sec)
Heartbeat CPU 0 instructions: 14500092 cycles: 6790688 heartbeat IPC: 2.137 cumulative IPC: 2.135 (Simulation time: 00 hr 01 min 41 sec)
Heartbeat CPU 0 instructions: 15000097 cycles: 7024627 heartbeat IPC: 2.137 cumulative IPC: 2.135 (Simulation time: 00 hr 01 min 44 sec)
Heartbeat CPU 0 instructions: 15500097 cycles: 7257229 heartbeat IPC: 2.15 cumulative IPC: 2.136 (Simulation time: 00 hr 01 min 48 sec)
Heartbeat CPU 0 instructions: 16000103 cycles: 7489592 heartbeat IPC: 2.152 cumulative IPC: 2.136 (Simulation time: 00 hr 01 min 52 sec)
Heartbeat CPU 0 instructions: 16500108 cycles: 7724059 heartbeat IPC: 2.133 cumulative IPC: 2.136 (Simulation time: 00 hr 01 min 55 sec)
Heartbeat CPU 0 instructions: 17000111 cycles: 7958407 heartbeat IPC: 2.134 cumulative IPC: 2.136 (Simulation time: 00 hr 01 min 59 sec)
Heartbeat CPU 0 instructions: 17500113 cycles: 8192278 heartbeat IPC: 2.138 cumulative IPC: 2.136 (Simulation time: 00 hr 02 min 02 sec)
Heartbeat CPU 0 instructions: 18000116 cycles: 8426394 heartbeat IPC: 2.136 cumulative IPC: 2.136 (Simulation time: 00 hr 02 min 06 sec)
Heartbeat CPU 0 instructions: 18500119 cycles: 8660482 heartbeat IPC: 2.136 cumulative IPC: 2.136 (Simulation time: 00 hr 02 min 09 sec)
Heartbeat CPU 0 instructions: 19000124 cycles: 8895004 heartbeat IPC: 2.132 cumulative IPC: 2.136 (Simulation time: 00 hr 02 min 13 sec)
Heartbeat CPU 0 instructions: 19500129 cycles: 9128955 heartbeat IPC: 2.137 cumulative IPC: 2.136 (Simulation time: 00 hr 02 min 16 sec)
Heartbeat CPU 0 instructions: 20000132 cycles: 9363156 heartbeat IPC: 2.135 cumulative IPC: 2.136 (Simulation time: 00 hr 02 min 20 sec)
Heartbeat CPU 0 instructions: 20500135 cycles: 9597373 heartbeat IPC: 2.135 cumulative IPC: 2.136 (Simulation time: 00 hr 02 min 24 sec)
Heartbeat CPU 0 instructions: 21000140 cycles: 9831508 heartbeat IPC: 2.136 cumulative IPC: 2.136 (Simulation time: 00 hr 02 min 27 sec)
Heartbeat CPU 0 instructions: 21500143 cycles: 10065618 heartbeat IPC: 2.136 cumulative IPC: 2.136 (Simulation time: 00 hr 02 min 31 sec)
Heartbeat CPU 0 instructions: 22000145 cycles: 10300298 heartbeat IPC: 2.131 cumulative IPC: 2.136 (Simulation time: 00 hr 02 min 34 sec)
Heartbeat CPU 0 instructions: 22500148 cycles: 10534596 heartbeat IPC: 2.134 cumulative IPC: 2.136 (Simulation time: 00 hr 02 min 38 sec)
Heartbeat CPU 0 instructions: 23000148 cycles: 10768924 heartbeat IPC: 2.134 cumulative IPC: 2.136 (Simulation time: 00 hr 02 min 41 sec)
Heartbeat CPU 0 instructions: 23500148 cycles: 11003247 heartbeat IPC: 2.134 cumulative IPC: 2.136 (Simulation time: 00 hr 02 min 45 sec)
Heartbeat CPU 0 instructions: 24000153 cycles: 11236791 heartbeat IPC: 2.141 cumulative IPC: 2.136 (Simulation time: 00 hr 02 min 48 sec)
Heartbeat CPU 0 instructions: 24500159 cycles: 11468874 heartbeat IPC: 2.154 cumulative IPC: 2.136 (Simulation time: 00 hr 02 min 52 sec)
Heartbeat CPU 0 instructions: 25000159 cycles: 11701161 heartbeat IPC: 2.153 cumulative IPC: 2.137 (Simulation time: 00 hr 02 min 55 sec)
Heartbeat CPU 0 instructions: 25500159 cycles: 11934795 heartbeat IPC: 2.14 cumulative IPC: 2.137 (Simulation time: 00 hr 02 min 59 sec)
Heartbeat CPU 0 instructions: 26000164 cycles: 12168722 heartbeat IPC: 2.137 cumulative IPC: 2.137 (Simulation time: 00 hr 03 min 02 sec)
Heartbeat CPU 0 instructions: 26500169 cycles: 12403005 heartbeat IPC: 2.134 cumulative IPC: 2.137 (Simulation time: 00 hr 03 min 06 sec)
Heartbeat CPU 0 instructions: 27000172 cycles: 12636669 heartbeat IPC: 2.14 cumulative IPC: 2.137 (Simulation time: 00 hr 03 min 09 sec)
Heartbeat CPU 0 instructions: 27500177 cycles: 12870925 heartbeat IPC: 2.134 cumulative IPC: 2.137 (Simulation time: 00 hr 03 min 13 sec)
Heartbeat CPU 0 instructions: 28000180 cycles: 13105237 heartbeat IPC: 2.134 cumulative IPC: 2.137 (Simulation time: 00 hr 03 min 16 sec)
Heartbeat CPU 0 instructions: 28500185 cycles: 13339083 heartbeat IPC: 2.138 cumulative IPC: 2.137 (Simulation time: 00 hr 03 min 20 sec)
Heartbeat CPU 0 instructions: 29000185 cycles: 13573249 heartbeat IPC: 2.135 cumulative IPC: 2.137 (Simulation time: 00 hr 03 min 23 sec)
Heartbeat CPU 0 instructions: 29500191 cycles: 13807558 heartbeat IPC: 2.134 cumulative IPC: 2.137 (Simulation time: 00 hr 03 min 27 sec)
Heartbeat CPU 0 instructions: 30000196 cycles: 14041583 heartbeat IPC: 2.137 cumulative IPC: 2.137 (Simulation time: 00 hr 03 min 30 sec)
Heartbeat CPU 0 instructions: 30500199 cycles: 14275525 heartbeat IPC: 2.137 cumulative IPC: 2.137 (Simulation time: 00 hr 03 min 34 sec)
Heartbeat CPU 0 instructions: 31000201 cycles: 14510046 heartbeat IPC: 2.132 cumulative IPC: 2.136 (Simulation time: 00 hr 03 min 37 sec)
Heartbeat CPU 0 instructions: 31500207 cycles: 14743983 heartbeat IPC: 2.137 cumulative IPC: 2.136 (Simulation time: 00 hr 03 min 41 sec)
Heartbeat CPU 0 instructions: 32000207 cycles: 14978278 heartbeat IPC: 2.134 cumulative IPC: 2.136 (Simulation time: 00 hr 03 min 44 sec)
Heartbeat CPU 0 instructions: 32500212 cycles: 15212348 heartbeat IPC: 2.136 cumulative IPC: 2.136 (Simulation time: 00 hr 03 min 48 sec)
Heartbeat CPU 0 instructions: 33000212 cycles: 15444657 heartbeat IPC: 2.152 cumulative IPC: 2.137 (Simulation time: 00 hr 03 min 51 sec)
Heartbeat CPU 0 instructions: 33500215 cycles: 15677228 heartbeat IPC: 2.15 cumulative IPC: 2.137 (Simulation time: 00 hr 03 min 54 sec)
Heartbeat CPU 0 instructions: 34000215 cycles: 15909784 heartbeat IPC: 2.15 cumulative IPC: 2.137 (Simulation time: 00 hr 03 min 58 sec)
Heartbeat CPU 0 instructions: 34500215 cycles: 16144132 heartbeat IPC: 2.134 cumulative IPC: 2.137 (Simulation time: 00 hr 04 min 01 sec)
Heartbeat CPU 0 instructions: 35000215 cycles: 16378179 heartbeat IPC: 2.136 cumulative IPC: 2.137 (Simulation time: 00 hr 04 min 05 sec)
Heartbeat CPU 0 instructions: 35500217 cycles: 16612708 heartbeat IPC: 2.132 cumulative IPC: 2.137 (Simulation time: 00 hr 04 min 08 sec)
Heartbeat CPU 0 instructions: 36000223 cycles: 16846608 heartbeat IPC: 2.138 cumulative IPC: 2.137 (Simulation time: 00 hr 04 min 12 sec)
Heartbeat CPU 0 instructions: 36500223 cycles: 17080499 heartbeat IPC: 2.138 cumulative IPC: 2.137 (Simulation time: 00 hr 04 min 15 sec)
Heartbeat CPU 0 instructions: 37000228 cycles: 17314989 heartbeat IPC: 2.132 cumulative IPC: 2.137 (Simulation time: 00 hr 04 min 19 sec)
Heartbeat CPU 0 instructions: 37500231 cycles: 17549102 heartbeat IPC: 2.136 cumulative IPC: 2.137 (Simulation time: 00 hr 04 min 22 sec)
Heartbeat CPU 0 instructions: 38000231 cycles: 17783525 heartbeat IPC: 2.133 cumulative IPC: 2.137 (Simulation time: 00 hr 04 min 26 sec)
Heartbeat CPU 0 instructions: 38500231 cycles: 18018048 heartbeat IPC: 2.132 cumulative IPC: 2.137 (Simulation time: 00 hr 04 min 29 sec)
Heartbeat CPU 0 instructions: 39000233 cycles: 18252636 heartbeat IPC: 2.131 cumulative IPC: 2.137 (Simulation time: 00 hr 04 min 33 sec)
Heartbeat CPU 0 instructions: 39500236 cycles: 18486722 heartbeat IPC: 2.136 cumulative IPC: 2.137 (Simulation time: 00 hr 04 min 36 sec)
Heartbeat CPU 0 instructions: 40000241 cycles: 18721144 heartbeat IPC: 2.133 cumulative IPC: 2.137 (Simulation time: 00 hr 04 min 40 sec)
Heartbeat CPU 0 instructions: 40500241 cycles: 18955361 heartbeat IPC: 2.135 cumulative IPC: 2.137 (Simulation time: 00 hr 04 min 43 sec)
Heartbeat CPU 0 instructions: 41000244 cycles: 19189392 heartbeat IPC: 2.136 cumulative IPC: 2.137 (Simulation time: 00 hr 04 min 47 sec)
Heartbeat CPU 0 instructions: 41500244 cycles: 19423679 heartbeat IPC: 2.134 cumulative IPC: 2.137 (Simulation time: 00 hr 04 min 50 sec)
Heartbeat CPU 0 instructions: 42000249 cycles: 19577931 heartbeat IPC: 3.241 cumulative IPC: 2.145 (Simulation time: 00 hr 04 min 53 sec)
Heartbeat CPU 0 instructions: 42500255 cycles: 19712915 heartbeat IPC: 3.704 cumulative IPC: 2.156 (Simulation time: 00 hr 04 min 55 sec)
Heartbeat CPU 0 instructions: 43000255 cycles: 19847878 heartbeat IPC: 3.705 cumulative IPC: 2.166 (Simulation time: 00 hr 04 min 58 sec)
Heartbeat CPU 0 instructions: 43500261 cycles: 19982650 heartbeat IPC: 3.71 cumulative IPC: 2.177 (Simulation time: 00 hr 05 min 00 sec)
Heartbeat CPU 0 instructions: 44000263 cycles: 20095198 heartbeat IPC: 4.443 cumulative IPC: 2.19 (Simulation time: 00 hr 05 min 02 sec)
Heartbeat CPU 0 instructions: 44500269 cycles: 20195199 heartbeat IPC: 5 cumulative IPC: 2.204 (Simulation time: 00 hr 05 min 04 sec)
Heartbeat CPU 0 instructions: 45000273 cycles: 20295200 heartbeat IPC: 5 cumulative IPC: 2.217 (Simulation time: 00 hr 05 min 05 sec)
Heartbeat CPU 0 instructions: 45500279 cycles: 20395202 heartbeat IPC: 5 cumulative IPC: 2.231 (Simulation time: 00 hr 05 min 07 sec)
Heartbeat CPU 0 instructions: 46000279 cycles: 20495201 heartbeat IPC: 5 cumulative IPC: 2.244 (Simulation time: 00 hr 05 min 09 sec)
Heartbeat CPU 0 instructions: 46500285 cycles: 20595202 heartbeat IPC: 5 cumulative IPC: 2.258 (Simulation time: 00 hr 05 min 10 sec)
Heartbeat CPU 0 instructions: 47000289 cycles: 20697491 heartbeat IPC: 4.888 cumulative IPC: 2.271 (Simulation time: 00 hr 05 min 12 sec)
Heartbeat CPU 0 instructions: 47500295 cycles: 20802716 heartbeat IPC: 4.752 cumulative IPC: 2.283 (Simulation time: 00 hr 05 min 13 sec)
Heartbeat CPU 0 instructions: 48000298 cycles: 20907706 heartbeat IPC: 4.762 cumulative IPC: 2.296 (Simulation time: 00 hr 05 min 15 sec)
Heartbeat CPU 0 instructions: 48500300 cycles: 21012964 heartbeat IPC: 4.75 cumulative IPC: 2.308 (Simulation time: 00 hr 05 min 17 sec)
Heartbeat CPU 0 instructions: 49000301 cycles: 21118836 heartbeat IPC: 4.723 cumulative IPC: 2.32 (Simulation time: 00 hr 05 min 18 sec)
Heartbeat CPU 0 instructions: 49500305 cycles: 21224600 heartbeat IPC: 4.728 cumulative IPC: 2.332 (Simulation time: 00 hr 05 min 20 sec)
Warmup halting CPU 0 at instruction 50000003 cycle 21330631 for remainder of phase
Warmup finished CPU 0 instructions: 50000003 cycles: 21330631 cumulative IPC: 2.344 (Simulation time: 00 hr 05 min 22 sec)
Warmup complete CPU 0 instructions: 50000003 cycles: 21330631 cumulative IPC: 2.344 (Simulation time: 00 hr 05 min 22 sec)
Heartbeat CPU 0 instructions: 50000307 cycles: 21330669 heartbeat IPC: 4.714 cumulative IPC: 8 (Simulation time: 00 hr 05 min 22 sec)
Heartbeat CPU 0 instructions: 50500309 cycles: 21624231 heartbeat IPC: 1.703 cumulative IPC: 1.704 (Simulation time: 00 hr 05 min 25 sec)
Heartbeat CPU 0 instructions: 51000310 cycles: 21939180 heartbeat IPC: 1.588 cumulative IPC: 1.644 (Simulation time: 00 hr 05 min 28 sec)
Heartbeat CPU 0 instructions: 51500311 cycles: 22240385 heartbeat IPC: 1.66 cumulative IPC: 1.649 (Simulation time: 00 hr 05 min 30 sec)
Heartbeat CPU 0 instructions: 52000312 cycles: 22538752 heartbeat IPC: 1.676 cumulative IPC: 1.656 (Simulation time: 00 hr 05 min 33 sec)
Heartbeat CPU 0 instructions: 52500313 cycles: 22831145 heartbeat IPC: 1.71 cumulative IPC: 1.666 (Simulation time: 00 hr 05 min 36 sec)
Heartbeat CPU 0 instructions: 53000314 cycles: 23100486 heartbeat IPC: 1.856 cumulative IPC: 1.695 (Simulation time: 00 hr 05 min 39 sec)
Heartbeat CPU 0 instructions: 53500320 cycles: 23337460 heartbeat IPC: 2.11 cumulative IPC: 1.744 (Simulation time: 00 hr 05 min 42 sec)
Heartbeat CPU 0 instructions: 54000320 cycles: 23586813 heartbeat IPC: 2.005 cumulative IPC: 1.773 (Simulation time: 00 hr 05 min 45 sec)
Heartbeat CPU 0 instructions: 54500321 cycles: 23875595 heartbeat IPC: 1.731 cumulative IPC: 1.768 (Simulation time: 00 hr 05 min 48 sec)
Heartbeat CPU 0 instructions: 55000321 cycles: 24144997 heartbeat IPC: 1.856 cumulative IPC: 1.777 (Simulation time: 00 hr 05 min 51 sec)
Heartbeat CPU 0 instructions: 55500322 cycles: 24368181 heartbeat IPC: 2.24 cumulative IPC: 1.811 (Simulation time: 00 hr 05 min 53 sec)
Heartbeat CPU 0 instructions: 56000323 cycles: 24588923 heartbeat IPC: 2.265 cumulative IPC: 1.842 (Simulation time: 00 hr 05 min 56 sec)
Heartbeat CPU 0 instructions: 56500324 cycles: 24812396 heartbeat IPC: 2.237 cumulative IPC: 1.867 (Simulation time: 00 hr 05 min 59 sec)
Heartbeat CPU 0 instructions: 57000325 cycles: 25038098 heartbeat IPC: 2.215 cumulative IPC: 1.888 (Simulation time: 00 hr 06 min 02 sec)
Heartbeat CPU 0 instructions: 57500326 cycles: 25249106 heartbeat IPC: 2.37 cumulative IPC: 1.914 (Simulation time: 00 hr 06 min 04 sec)
Heartbeat CPU 0 instructions: 58000327 cycles: 25470005 heartbeat IPC: 2.263 cumulative IPC: 1.933 (Simulation time: 00 hr 06 min 07 sec)
Heartbeat CPU 0 instructions: 58500328 cycles: 25676664 heartbeat IPC: 2.419 cumulative IPC: 1.956 (Simulation time: 00 hr 06 min 10 sec)
Heartbeat CPU 0 instructions: 59000330 cycles: 25882820 heartbeat IPC: 2.425 cumulative IPC: 1.977 (Simulation time: 00 hr 06 min 13 sec)
Heartbeat CPU 0 instructions: 59500330 cycles: 26093859 heartbeat IPC: 2.369 cumulative IPC: 1.995 (Simulation time: 00 hr 06 min 15 sec)
Heartbeat CPU 0 instructions: 60000331 cycles: 26310760 heartbeat IPC: 2.305 cumulative IPC: 2.008 (Simulation time: 00 hr 06 min 18 sec)
Heartbeat CPU 0 instructions: 60500333 cycles: 26519598 heartbeat IPC: 2.394 cumulative IPC: 2.024 (Simulation time: 00 hr 06 min 21 sec)
Heartbeat CPU 0 instructions: 61000334 cycles: 26729000 heartbeat IPC: 2.388 cumulative IPC: 2.038 (Simulation time: 00 hr 06 min 24 sec)
Heartbeat CPU 0 instructions: 61500334 cycles: 26942029 heartbeat IPC: 2.347 cumulative IPC: 2.049 (Simulation time: 00 hr 06 min 27 sec)
Heartbeat CPU 0 instructions: 62000335 cycles: 27158410 heartbeat IPC: 2.311 cumulative IPC: 2.059 (Simulation time: 00 hr 06 min 29 sec)
Heartbeat CPU 0 instructions: 62500336 cycles: 27380576 heartbeat IPC: 2.251 cumulative IPC: 2.066 (Simulation time: 00 hr 06 min 32 sec)
Heartbeat CPU 0 instructions: 63000338 cycles: 27581976 heartbeat IPC: 2.483 cumulative IPC: 2.08 (Simulation time: 00 hr 06 min 35 sec)
Heartbeat CPU 0 instructions: 63500338 cycles: 27798884 heartbeat IPC: 2.305 cumulative IPC: 2.087 (Simulation time: 00 hr 06 min 38 sec)
Heartbeat CPU 0 instructions: 64000340 cycles: 28007010 heartbeat IPC: 2.402 cumulative IPC: 2.097 (Simulation time: 00 hr 06 min 41 sec)
Heartbeat CPU 0 instructions: 64500340 cycles: 28223556 heartbeat IPC: 2.309 cumulative IPC: 2.104 (Simulation time: 00 hr 06 min 43 sec)
Heartbeat CPU 0 instructions: 65000340 cycles: 28439361 heartbeat IPC: 2.317 cumulative IPC: 2.11 (Simulation time: 00 hr 06 min 46 sec)
Heartbeat CPU 0 instructions: 65500340 cycles: 28652608 heartbeat IPC: 2.345 cumulative IPC: 2.117 (Simulation time: 00 hr 06 min 49 sec)
Heartbeat CPU 0 instructions: 66000340 cycles: 28861633 heartbeat IPC: 2.392 cumulative IPC: 2.125 (Simulation time: 00 hr 06 min 52 sec)
Heartbeat CPU 0 instructions: 66500341 cycles: 29072463 heartbeat IPC: 2.372 cumulative IPC: 2.131 (Simulation time: 00 hr 06 min 55 sec)
Heartbeat CPU 0 instructions: 67000342 cycles: 29286010 heartbeat IPC: 2.341 cumulative IPC: 2.137 (Simulation time: 00 hr 06 min 58 sec)
Heartbeat CPU 0 instructions: 67500343 cycles: 29494930 heartbeat IPC: 2.393 cumulative IPC: 2.144 (Simulation time: 00 hr 07 min 01 sec)
Heartbeat CPU 0 instructions: 68000344 cycles: 29748901 heartbeat IPC: 1.969 cumulative IPC: 2.138 (Simulation time: 00 hr 07 min 04 sec)
Heartbeat CPU 0 instructions: 68500345 cycles: 29983820 heartbeat IPC: 2.128 cumulative IPC: 2.138 (Simulation time: 00 hr 07 min 06 sec)
Heartbeat CPU 0 instructions: 69000346 cycles: 30207567 heartbeat IPC: 2.235 cumulative IPC: 2.14 (Simulation time: 00 hr 07 min 09 sec)
Heartbeat CPU 0 instructions: 69500347 cycles: 30417498 heartbeat IPC: 2.382 cumulative IPC: 2.146 (Simulation time: 00 hr 07 min 12 sec)
Heartbeat CPU 0 instructions: 70000348 cycles: 30634175 heartbeat IPC: 2.308 cumulative IPC: 2.15 (Simulation time: 00 hr 07 min 15 sec)
Heartbeat CPU 0 instructions: 70500349 cycles: 30854373 heartbeat IPC: 2.271 cumulative IPC: 2.153 (Simulation time: 00 hr 07 min 18 sec)
Heartbeat CPU 0 instructions: 71000350 cycles: 31069629 heartbeat IPC: 2.323 cumulative IPC: 2.156 (Simulation time: 00 hr 07 min 21 sec)
Heartbeat CPU 0 instructions: 71500351 cycles: 31305480 heartbeat IPC: 2.12 cumulative IPC: 2.155 (Simulation time: 00 hr 07 min 24 sec)
Heartbeat CPU 0 instructions: 72000352 cycles: 31531105 heartbeat IPC: 2.216 cumulative IPC: 2.157 (Simulation time: 00 hr 07 min 27 sec)
Heartbeat CPU 0 instructions: 72500353 cycles: 31754163 heartbeat IPC: 2.242 cumulative IPC: 2.159 (Simulation time: 00 hr 07 min 30 sec)
Heartbeat CPU 0 instructions: 73000354 cycles: 31980226 heartbeat IPC: 2.212 cumulative IPC: 2.16 (Simulation time: 00 hr 07 min 33 sec)
Heartbeat CPU 0 instructions: 73500356 cycles: 32215000 heartbeat IPC: 2.13 cumulative IPC: 2.159 (Simulation time: 00 hr 07 min 36 sec)
Heartbeat CPU 0 instructions: 74000356 cycles: 32438115 heartbeat IPC: 2.241 cumulative IPC: 2.161 (Simulation time: 00 hr 07 min 38 sec)
Heartbeat CPU 0 instructions: 74500357 cycles: 32668176 heartbeat IPC: 2.173 cumulative IPC: 2.161 (Simulation time: 00 hr 07 min 41 sec)
Heartbeat CPU 0 instructions: 75000359 cycles: 32881220 heartbeat IPC: 2.347 cumulative IPC: 2.164 (Simulation time: 00 hr 07 min 44 sec)
Heartbeat CPU 0 instructions: 75500359 cycles: 33113224 heartbeat IPC: 2.155 cumulative IPC: 2.164 (Simulation time: 00 hr 07 min 47 sec)
Heartbeat CPU 0 instructions: 76000360 cycles: 33348665 heartbeat IPC: 2.124 cumulative IPC: 2.163 (Simulation time: 00 hr 07 min 50 sec)
Heartbeat CPU 0 instructions: 76500364 cycles: 33571393 heartbeat IPC: 2.245 cumulative IPC: 2.165 (Simulation time: 00 hr 07 min 53 sec)
Heartbeat CPU 0 instructions: 77000365 cycles: 33796268 heartbeat IPC: 2.223 cumulative IPC: 2.166 (Simulation time: 00 hr 07 min 56 sec)
Heartbeat CPU 0 instructions: 77500367 cycles: 34015079 heartbeat IPC: 2.285 cumulative IPC: 2.168 (Simulation time: 00 hr 07 min 59 sec)
Heartbeat CPU 0 instructions: 78000367 cycles: 34233056 heartbeat IPC: 2.294 cumulative IPC: 2.17 (Simulation time: 00 hr 08 min 02 sec)
Heartbeat CPU 0 instructions: 78500368 cycles: 34447493 heartbeat IPC: 2.332 cumulative IPC: 2.173 (Simulation time: 00 hr 08 min 05 sec)
Heartbeat CPU 0 instructions: 79000370 cycles: 34684841 heartbeat IPC: 2.107 cumulative IPC: 2.172 (Simulation time: 00 hr 08 min 08 sec)
Heartbeat CPU 0 instructions: 79500370 cycles: 34921244 heartbeat IPC: 2.115 cumulative IPC: 2.171 (Simulation time: 00 hr 08 min 11 sec)
Heartbeat CPU 0 instructions: 80000371 cycles: 35148432 heartbeat IPC: 2.201 cumulative IPC: 2.171 (Simulation time: 00 hr 08 min 14 sec)
Heartbeat CPU 0 instructions: 80500372 cycles: 35383262 heartbeat IPC: 2.129 cumulative IPC: 2.17 (Simulation time: 00 hr 08 min 17 sec)
Heartbeat CPU 0 instructions: 81000373 cycles: 35610239 heartbeat IPC: 2.203 cumulative IPC: 2.171 (Simulation time: 00 hr 08 min 20 sec)
Heartbeat CPU 0 instructions: 81500374 cycles: 35851878 heartbeat IPC: 2.069 cumulative IPC: 2.169 (Simulation time: 00 hr 08 min 23 sec)
Heartbeat CPU 0 instructions: 82000375 cycles: 36097241 heartbeat IPC: 2.038 cumulative IPC: 2.167 (Simulation time: 00 hr 08 min 26 sec)
Heartbeat CPU 0 instructions: 82500376 cycles: 36341037 heartbeat IPC: 2.051 cumulative IPC: 2.165 (Simulation time: 00 hr 08 min 29 sec)
Heartbeat CPU 0 instructions: 83000377 cycles: 36578403 heartbeat IPC: 2.106 cumulative IPC: 2.164 (Simulation time: 00 hr 08 min 32 sec)
Heartbeat CPU 0 instructions: 83500378 cycles: 36812866 heartbeat IPC: 2.133 cumulative IPC: 2.164 (Simulation time: 00 hr 08 min 35 sec)
Heartbeat CPU 0 instructions: 84000379 cycles: 37045566 heartbeat IPC: 2.149 cumulative IPC: 2.164 (Simulation time: 00 hr 08 min 38 sec)
Heartbeat CPU 0 instructions: 84500380 cycles: 37296889 heartbeat IPC: 1.989 cumulative IPC: 2.161 (Simulation time: 00 hr 08 min 41 sec)
Heartbeat CPU 0 instructions: 85000381 cycles: 37541787 heartbeat IPC: 2.042 cumulative IPC: 2.159 (Simulation time: 00 hr 08 min 44 sec)
Heartbeat CPU 0 instructions: 85500382 cycles: 37786561 heartbeat IPC: 2.043 cumulative IPC: 2.157 (Simulation time: 00 hr 08 min 47 sec)
Heartbeat CPU 0 instructions: 86000384 cycles: 38007759 heartbeat IPC: 2.26 cumulative IPC: 2.159 (Simulation time: 00 hr 08 min 50 sec)
Heartbeat CPU 0 instructions: 86500384 cycles: 38237936 heartbeat IPC: 2.172 cumulative IPC: 2.159 (Simulation time: 00 hr 08 min 53 sec)
Heartbeat CPU 0 instructions: 87000384 cycles: 38464965 heartbeat IPC: 2.202 cumulative IPC: 2.159 (Simulation time: 00 hr 08 min 56 sec)
Heartbeat CPU 0 instructions: 87500386 cycles: 38699760 heartbeat IPC: 2.13 cumulative IPC: 2.159 (Simulation time: 00 hr 08 min 59 sec)
Heartbeat CPU 0 instructions: 88000387 cycles: 38933925 heartbeat IPC: 2.135 cumulative IPC: 2.159 (Simulation time: 00 hr 09 min 02 sec)
Heartbeat CPU 0 instructions: 88500389 cycles: 39177618 heartbeat IPC: 2.052 cumulative IPC: 2.157 (Simulation time: 00 hr 09 min 05 sec)
Heartbeat CPU 0 instructions: 89000389 cycles: 39414397 heartbeat IPC: 2.112 cumulative IPC: 2.157 (Simulation time: 00 hr 09 min 08 sec)
Heartbeat CPU 0 instructions: 89500391 cycles: 39658700 heartbeat IPC: 2.047 cumulative IPC: 2.155 (Simulation time: 00 hr 09 min 12 sec)
Heartbeat CPU 0 instructions: 90000391 cycles: 39895348 heartbeat IPC: 2.113 cumulative IPC: 2.155 (Simulation time: 00 hr 09 min 15 sec)
Heartbeat CPU 0 instructions: 90500392 cycles: 40115452 heartbeat IPC: 2.272 cumulative IPC: 2.156 (Simulation time: 00 hr 09 min 18 sec)
Heartbeat CPU 0 instructions: 91000392 cycles: 40357819 heartbeat IPC: 2.063 cumulative IPC: 2.155 (Simulation time: 00 hr 09 min 21 sec)
Heartbeat CPU 0 instructions: 91500394 cycles: 40598461 heartbeat IPC: 2.078 cumulative IPC: 2.154 (Simulation time: 00 hr 09 min 24 sec)
Heartbeat CPU 0 instructions: 92000396 cycles: 40834499 heartbeat IPC: 2.118 cumulative IPC: 2.153 (Simulation time: 00 hr 09 min 27 sec)
Heartbeat CPU 0 instructions: 92500396 cycles: 41069494 heartbeat IPC: 2.128 cumulative IPC: 2.153 (Simulation time: 00 hr 09 min 30 sec)
Heartbeat CPU 0 instructions: 93000397 cycles: 41307409 heartbeat IPC: 2.102 cumulative IPC: 2.153 (Simulation time: 00 hr 09 min 33 sec)
Heartbeat CPU 0 instructions: 93500399 cycles: 41553037 heartbeat IPC: 2.036 cumulative IPC: 2.151 (Simulation time: 00 hr 09 min 36 sec)
Heartbeat CPU 0 instructions: 94000399 cycles: 41797980 heartbeat IPC: 2.041 cumulative IPC: 2.15 (Simulation time: 00 hr 09 min 39 sec)
Heartbeat CPU 0 instructions: 94500403 cycles: 42048473 heartbeat IPC: 1.996 cumulative IPC: 2.148 (Simulation time: 00 hr 09 min 42 sec)
Heartbeat CPU 0 instructions: 95000404 cycles: 42297129 heartbeat IPC: 2.011 cumulative IPC: 2.146 (Simulation time: 00 hr 09 min 45 sec)
Heartbeat CPU 0 instructions: 95500405 cycles: 42548316 heartbeat IPC: 1.991 cumulative IPC: 2.144 (Simulation time: 00 hr 09 min 48 sec)
Heartbeat CPU 0 instructions: 96000406 cycles: 42817459 heartbeat IPC: 1.858 cumulative IPC: 2.141 (Simulation time: 00 hr 09 min 51 sec)
Heartbeat CPU 0 instructions: 96500408 cycles: 43062764 heartbeat IPC: 2.038 cumulative IPC: 2.14 (Simulation time: 00 hr 09 min 55 sec)
Heartbeat CPU 0 instructions: 97000408 cycles: 43309411 heartbeat IPC: 2.027 cumulative IPC: 2.138 (Simulation time: 00 hr 09 min 58 sec)
Heartbeat CPU 0 instructions: 97500409 cycles: 43550718 heartbeat IPC: 2.072 cumulative IPC: 2.138 (Simulation time: 00 hr 10 min 01 sec)
Heartbeat CPU 0 instructions: 98000410 cycles: 43795015 heartbeat IPC: 2.047 cumulative IPC: 2.137 (Simulation time: 00 hr 10 min 04 sec)
Heartbeat CPU 0 instructions: 98500412 cycles: 44040944 heartbeat IPC: 2.033 cumulative IPC: 2.136 (Simulation time: 00 hr 10 min 07 sec)
Heartbeat CPU 0 instructions: 99000412 cycles: 44301567 heartbeat IPC: 1.918 cumulative IPC: 2.133 (Simulation time: 00 hr 10 min 10 sec)
Heartbeat CPU 0 instructions: 99500413 cycles: 44548597 heartbeat IPC: 2.024 cumulative IPC: 2.132 (Simulation time: 00 hr 10 min 13 sec)
Heartbeat CPU 0 instructions: 100000414 cycles: 44824895 heartbeat IPC: 1.81 cumulative IPC: 2.128 (Simulation time: 00 hr 10 min 16 sec)
Heartbeat CPU 0 instructions: 100500415 cycles: 45103526 heartbeat IPC: 1.794 cumulative IPC: 2.124 (Simulation time: 00 hr 10 min 20 sec)
Heartbeat CPU 0 instructions: 101000416 cycles: 45369054 heartbeat IPC: 1.883 cumulative IPC: 2.122 (Simulation time: 00 hr 10 min 23 sec)
Heartbeat CPU 0 instructions: 101500417 cycles: 45609630 heartbeat IPC: 2.078 cumulative IPC: 2.121 (Simulation time: 00 hr 10 min 26 sec)
Heartbeat CPU 0 instructions: 102000421 cycles: 45861180 heartbeat IPC: 1.988 cumulative IPC: 2.12 (Simulation time: 00 hr 10 min 29 sec)
Heartbeat CPU 0 instructions: 102500422 cycles: 46111425 heartbeat IPC: 1.998 cumulative IPC: 2.119 (Simulation time: 00 hr 10 min 32 sec)
Heartbeat CPU 0 instructions: 103000423 cycles: 46372505 heartbeat IPC: 1.915 cumulative IPC: 2.116 (Simulation time: 00 hr 10 min 35 sec)
Heartbeat CPU 0 instructions: 103500424 cycles: 46621237 heartbeat IPC: 2.01 cumulative IPC: 2.115 (Simulation time: 00 hr 10 min 38 sec)
Heartbeat CPU 0 instructions: 104000426 cycles: 46876959 heartbeat IPC: 1.955 cumulative IPC: 2.114 (Simulation time: 00 hr 10 min 42 sec)
Heartbeat CPU 0 instructions: 104500427 cycles: 47133998 heartbeat IPC: 1.945 cumulative IPC: 2.112 (Simulation time: 00 hr 10 min 45 sec)
Heartbeat CPU 0 instructions: 105000427 cycles: 47384918 heartbeat IPC: 1.993 cumulative IPC: 2.111 (Simulation time: 00 hr 10 min 48 sec)
Heartbeat CPU 0 instructions: 105500427 cycles: 47658760 heartbeat IPC: 1.826 cumulative IPC: 2.108 (Simulation time: 00 hr 10 min 51 sec)
Heartbeat CPU 0 instructions: 106000428 cycles: 47935522 heartbeat IPC: 1.807 cumulative IPC: 2.105 (Simulation time: 00 hr 10 min 54 sec)
Heartbeat CPU 0 instructions: 106500429 cycles: 48194443 heartbeat IPC: 1.931 cumulative IPC: 2.103 (Simulation time: 00 hr 10 min 58 sec)
Heartbeat CPU 0 instructions: 107000430 cycles: 48464221 heartbeat IPC: 1.853 cumulative IPC: 2.101 (Simulation time: 00 hr 11 min 01 sec)
Heartbeat CPU 0 instructions: 107500431 cycles: 48744411 heartbeat IPC: 1.785 cumulative IPC: 2.098 (Simulation time: 00 hr 11 min 04 sec)
Heartbeat CPU 0 instructions: 108000432 cycles: 49008211 heartbeat IPC: 1.895 cumulative IPC: 2.096 (Simulation time: 00 hr 11 min 07 sec)
Heartbeat CPU 0 instructions: 108500436 cycles: 49283795 heartbeat IPC: 1.814 cumulative IPC: 2.093 (Simulation time: 00 hr 11 min 10 sec)
Heartbeat CPU 0 instructions: 109000437 cycles: 49563526 heartbeat IPC: 1.787 cumulative IPC: 2.09 (Simulation time: 00 hr 11 min 13 sec)
Heartbeat CPU 0 instructions: 109500439 cycles: 49853104 heartbeat IPC: 1.727 cumulative IPC: 2.086 (Simulation time: 00 hr 11 min 17 sec)
Heartbeat CPU 0 instructions: 110000439 cycles: 50138502 heartbeat IPC: 1.752 cumulative IPC: 2.083 (Simulation time: 00 hr 11 min 20 sec)
Heartbeat CPU 0 instructions: 110500440 cycles: 50429160 heartbeat IPC: 1.72 cumulative IPC: 2.079 (Simulation time: 00 hr 11 min 23 sec)
Heartbeat CPU 0 instructions: 111000441 cycles: 50725959 heartbeat IPC: 1.685 cumulative IPC: 2.075 (Simulation time: 00 hr 11 min 26 sec)
Heartbeat CPU 0 instructions: 111500443 cycles: 51042431 heartbeat IPC: 1.58 cumulative IPC: 2.07 (Simulation time: 00 hr 11 min 29 sec)
Heartbeat CPU 0 instructions: 112000443 cycles: 51339706 heartbeat IPC: 1.682 cumulative IPC: 2.066 (Simulation time: 00 hr 11 min 32 sec)
Heartbeat CPU 0 instructions: 112500445 cycles: 51612491 heartbeat IPC: 1.833 cumulative IPC: 2.064 (Simulation time: 00 hr 11 min 35 sec)
Heartbeat CPU 0 instructions: 113000445 cycles: 51897674 heartbeat IPC: 1.753 cumulative IPC: 2.061 (Simulation time: 00 hr 11 min 38 sec)
Heartbeat CPU 0 instructions: 113500446 cycles: 52140072 heartbeat IPC: 2.063 cumulative IPC: 2.061 (Simulation time: 00 hr 11 min 41 sec)
Heartbeat CPU 0 instructions: 114000447 cycles: 52397140 heartbeat IPC: 1.945 cumulative IPC: 2.06 (Simulation time: 00 hr 11 min 44 sec)
Heartbeat CPU 0 instructions: 114500449 cycles: 52686059 heartbeat IPC: 1.731 cumulative IPC: 2.057 (Simulation time: 00 hr 11 min 47 sec)
Heartbeat CPU 0 instructions: 115000450 cycles: 52967318 heartbeat IPC: 1.778 cumulative IPC: 2.055 (Simulation time: 00 hr 11 min 51 sec)
Heartbeat CPU 0 instructions: 115500450 cycles: 53258117 heartbeat IPC: 1.719 cumulative IPC: 2.052 (Simulation time: 00 hr 11 min 54 sec)
Heartbeat CPU 0 instructions: 116000451 cycles: 53553684 heartbeat IPC: 1.692 cumulative IPC: 2.048 (Simulation time: 00 hr 11 min 57 sec)
Heartbeat CPU 0 instructions: 116500452 cycles: 53844332 heartbeat IPC: 1.72 cumulative IPC: 2.045 (Simulation time: 00 hr 12 min 00 sec)
Heartbeat CPU 0 instructions: 117000453 cycles: 54122963 heartbeat IPC: 1.794 cumulative IPC: 2.043 (Simulation time: 00 hr 12 min 03 sec)
Heartbeat CPU 0 instructions: 117500454 cycles: 54422099 heartbeat IPC: 1.671 cumulative IPC: 2.04 (Simulation time: 00 hr 12 min 07 sec)
Heartbeat CPU 0 instructions: 118000455 cycles: 54732996 heartbeat IPC: 1.608 cumulative IPC: 2.036 (Simulation time: 00 hr 12 min 10 sec)
Heartbeat CPU 0 instructions: 118500456 cycles: 55037146 heartbeat IPC: 1.644 cumulative IPC: 2.032 (Simulation time: 00 hr 12 min 13 sec)
Heartbeat CPU 0 instructions: 119000456 cycles: 55327821 heartbeat IPC: 1.72 cumulative IPC: 2.03 (Simulation time: 00 hr 12 min 16 sec)
Heartbeat CPU 0 instructions: 119500456 cycles: 55628292 heartbeat IPC: 1.664 cumulative IPC: 2.026 (Simulation time: 00 hr 12 min 20 sec)
Heartbeat CPU 0 instructions: 120000456 cycles: 55942247 heartbeat IPC: 1.593 cumulative IPC: 2.022 (Simulation time: 00 hr 12 min 23 sec)
Heartbeat CPU 0 instructions: 120500457 cycles: 56250464 heartbeat IPC: 1.622 cumulative IPC: 2.019 (Simulation time: 00 hr 12 min 26 sec)
Heartbeat CPU 0 instructions: 121000458 cycles: 56579280 heartbeat IPC: 1.521 cumulative IPC: 2.014 (Simulation time: 00 hr 12 min 30 sec)
Heartbeat CPU 0 instructions: 121500459 cycles: 56899057 heartbeat IPC: 1.564 cumulative IPC: 2.01 (Simulation time: 00 hr 12 min 33 sec)
Heartbeat CPU 0 instructions: 122000459 cycles: 57181234 heartbeat IPC: 1.772 cumulative IPC: 2.008 (Simulation time: 00 hr 12 min 36 sec)
Heartbeat CPU 0 instructions: 122500462 cycles: 57439692 heartbeat IPC: 1.935 cumulative IPC: 2.008 (Simulation time: 00 hr 12 min 39 sec)
Heartbeat CPU 0 instructions: 123000462 cycles: 57692965 heartbeat IPC: 1.974 cumulative IPC: 2.008 (Simulation time: 00 hr 12 min 42 sec)
Heartbeat CPU 0 instructions: 123500463 cycles: 57959309 heartbeat IPC: 1.877 cumulative IPC: 2.007 (Simulation time: 00 hr 12 min 46 sec)
Heartbeat CPU 0 instructions: 124000464 cycles: 58215421 heartbeat IPC: 1.952 cumulative IPC: 2.006 (Simulation time: 00 hr 12 min 49 sec)
Heartbeat CPU 0 instructions: 124500465 cycles: 58481491 heartbeat IPC: 1.879 cumulative IPC: 2.005 (Simulation time: 00 hr 12 min 52 sec)
Heartbeat CPU 0 instructions: 125000466 cycles: 58755900 heartbeat IPC: 1.822 cumulative IPC: 2.004 (Simulation time: 00 hr 12 min 55 sec)
Heartbeat CPU 0 instructions: 125500466 cycles: 59039774 heartbeat IPC: 1.761 cumulative IPC: 2.002 (Simulation time: 00 hr 12 min 58 sec)
Heartbeat CPU 0 instructions: 126000468 cycles: 59323354 heartbeat IPC: 1.763 cumulative IPC: 2 (Simulation time: 00 hr 13 min 01 sec)
Heartbeat CPU 0 instructions: 126500469 cycles: 59614187 heartbeat IPC: 1.719 cumulative IPC: 1.998 (Simulation time: 00 hr 13 min 04 sec)
Heartbeat CPU 0 instructions: 127000470 cycles: 59873502 heartbeat IPC: 1.928 cumulative IPC: 1.998 (Simulation time: 00 hr 13 min 07 sec)
Heartbeat CPU 0 instructions: 127500472 cycles: 60118601 heartbeat IPC: 2.04 cumulative IPC: 1.998 (Simulation time: 00 hr 13 min 10 sec)
Heartbeat CPU 0 instructions: 128000472 cycles: 60362144 heartbeat IPC: 2.053 cumulative IPC: 1.998 (Simulation time: 00 hr 13 min 13 sec)
Heartbeat CPU 0 instructions: 128500473 cycles: 60618029 heartbeat IPC: 1.954 cumulative IPC: 1.998 (Simulation time: 00 hr 13 min 16 sec)
Heartbeat CPU 0 instructions: 129000474 cycles: 60899909 heartbeat IPC: 1.774 cumulative IPC: 1.997 (Simulation time: 00 hr 13 min 19 sec)
Heartbeat CPU 0 instructions: 129500475 cycles: 61174627 heartbeat IPC: 1.82 cumulative IPC: 1.995 (Simulation time: 00 hr 13 min 22 sec)
Heartbeat CPU 0 instructions: 130000477 cycles: 61453592 heartbeat IPC: 1.792 cumulative IPC: 1.994 (Simulation time: 00 hr 13 min 25 sec)
Heartbeat CPU 0 instructions: 130500477 cycles: 61733269 heartbeat IPC: 1.788 cumulative IPC: 1.992 (Simulation time: 00 hr 13 min 28 sec)
Heartbeat CPU 0 instructions: 131000478 cycles: 62027471 heartbeat IPC: 1.7 cumulative IPC: 1.99 (Simulation time: 00 hr 13 min 32 sec)
Heartbeat CPU 0 instructions: 131500479 cycles: 62322666 heartbeat IPC: 1.694 cumulative IPC: 1.988 (Simulation time: 00 hr 13 min 35 sec)
Heartbeat CPU 0 instructions: 132000480 cycles: 62606155 heartbeat IPC: 1.764 cumulative IPC: 1.987 (Simulation time: 00 hr 13 min 38 sec)
Heartbeat CPU 0 instructions: 132500481 cycles: 62900468 heartbeat IPC: 1.699 cumulative IPC: 1.985 (Simulation time: 00 hr 13 min 41 sec)
Heartbeat CPU 0 instructions: 133000482 cycles: 63174751 heartbeat IPC: 1.823 cumulative IPC: 1.984 (Simulation time: 00 hr 13 min 44 sec)
Heartbeat CPU 0 instructions: 133500483 cycles: 63452751 heartbeat IPC: 1.799 cumulative IPC: 1.982 (Simulation time: 00 hr 13 min 48 sec)
Heartbeat CPU 0 instructions: 134000484 cycles: 63737697 heartbeat IPC: 1.755 cumulative IPC: 1.981 (Simulation time: 00 hr 13 min 51 sec)
Heartbeat CPU 0 instructions: 134500485 cycles: 64027130 heartbeat IPC: 1.728 cumulative IPC: 1.979 (Simulation time: 00 hr 13 min 55 sec)
Heartbeat CPU 0 instructions: 135000486 cycles: 64293390 heartbeat IPC: 1.878 cumulative IPC: 1.978 (Simulation time: 00 hr 13 min 57 sec)
Heartbeat CPU 0 instructions: 135500486 cycles: 64579271 heartbeat IPC: 1.749 cumulative IPC: 1.977 (Simulation time: 00 hr 14 min 01 sec)
Heartbeat CPU 0 instructions: 136000489 cycles: 64878206 heartbeat IPC: 1.673 cumulative IPC: 1.975 (Simulation time: 00 hr 14 min 04 sec)
Heartbeat CPU 0 instructions: 136500490 cycles: 65165784 heartbeat IPC: 1.739 cumulative IPC: 1.973 (Simulation time: 00 hr 14 min 07 sec)
Heartbeat CPU 0 instructions: 137000490 cycles: 65440408 heartbeat IPC: 1.821 cumulative IPC: 1.972 (Simulation time: 00 hr 14 min 10 sec)
Heartbeat CPU 0 instructions: 137500491 cycles: 65729762 heartbeat IPC: 1.728 cumulative IPC: 1.971 (Simulation time: 00 hr 14 min 13 sec)
Heartbeat CPU 0 instructions: 138000491 cycles: 66029860 heartbeat IPC: 1.666 cumulative IPC: 1.969 (Simulation time: 00 hr 14 min 17 sec)
Heartbeat CPU 0 instructions: 138500492 cycles: 66323274 heartbeat IPC: 1.704 cumulative IPC: 1.967 (Simulation time: 00 hr 14 min 20 sec)
Heartbeat CPU 0 instructions: 139000493 cycles: 66610494 heartbeat IPC: 1.741 cumulative IPC: 1.966 (Simulation time: 00 hr 14 min 23 sec)
Heartbeat CPU 0 instructions: 139500494 cycles: 66896966 heartbeat IPC: 1.745 cumulative IPC: 1.964 (Simulation time: 00 hr 14 min 26 sec)
Heartbeat CPU 0 instructions: 140000495 cycles: 67189366 heartbeat IPC: 1.71 cumulative IPC: 1.963 (Simulation time: 00 hr 14 min 30 sec)
Heartbeat CPU 0 instructions: 140500496 cycles: 67472194 heartbeat IPC: 1.768 cumulative IPC: 1.961 (Simulation time: 00 hr 14 min 33 sec)
Heartbeat CPU 0 instructions: 141000497 cycles: 67755431 heartbeat IPC: 1.765 cumulative IPC: 1.96 (Simulation time: 00 hr 14 min 36 sec)
Heartbeat CPU 0 instructions: 141500497 cycles: 68041502 heartbeat IPC: 1.748 cumulative IPC: 1.959 (Simulation time: 00 hr 14 min 39 sec)
Heartbeat CPU 0 instructions: 142000499 cycles: 68328231 heartbeat IPC: 1.744 cumulative IPC: 1.958 (Simulation time: 00 hr 14 min 42 sec)
Heartbeat CPU 0 instructions: 142500503 cycles: 68623421 heartbeat IPC: 1.694 cumulative IPC: 1.956 (Simulation time: 00 hr 14 min 46 sec)
Heartbeat CPU 0 instructions: 143000504 cycles: 68912026 heartbeat IPC: 1.732 cumulative IPC: 1.955 (Simulation time: 00 hr 14 min 49 sec)
Heartbeat CPU 0 instructions: 143500505 cycles: 69203104 heartbeat IPC: 1.718 cumulative IPC: 1.953 (Simulation time: 00 hr 14 min 52 sec)
Heartbeat CPU 0 instructions: 144000506 cycles: 69482501 heartbeat IPC: 1.79 cumulative IPC: 1.952 (Simulation time: 00 hr 14 min 55 sec)
Heartbeat CPU 0 instructions: 144500508 cycles: 69739059 heartbeat IPC: 1.949 cumulative IPC: 1.952 (Simulation time: 00 hr 14 min 59 sec)
Heartbeat CPU 0 instructions: 145000509 cycles: 70004825 heartbeat IPC: 1.881 cumulative IPC: 1.952 (Simulation time: 00 hr 15 min 02 sec)
Heartbeat CPU 0 instructions: 145500509 cycles: 70298455 heartbeat IPC: 1.703 cumulative IPC: 1.95 (Simulation time: 00 hr 15 min 07 sec)
Heartbeat CPU 0 instructions: 146000510 cycles: 70593416 heartbeat IPC: 1.695 cumulative IPC: 1.949 (Simulation time: 00 hr 15 min 11 sec)
Heartbeat CPU 0 instructions: 146500512 cycles: 70883185 heartbeat IPC: 1.726 cumulative IPC: 1.947 (Simulation time: 00 hr 15 min 14 sec)
Heartbeat CPU 0 instructions: 147000512 cycles: 71170852 heartbeat IPC: 1.738 cumulative IPC: 1.946 (Simulation time: 00 hr 15 min 17 sec)
Heartbeat CPU 0 instructions: 147500513 cycles: 71439945 heartbeat IPC: 1.858 cumulative IPC: 1.946 (Simulation time: 00 hr 15 min 21 sec)
Heartbeat CPU 0 instructions: 148000513 cycles: 71726675 heartbeat IPC: 1.744 cumulative IPC: 1.945 (Simulation time: 00 hr 15 min 24 sec)
Heartbeat CPU 0 instructions: 148500515 cycles: 72007460 heartbeat IPC: 1.781 cumulative IPC: 1.944 (Simulation time: 00 hr 15 min 27 sec)
Heartbeat CPU 0 instructions: 149000516 cycles: 72286881 heartbeat IPC: 1.789 cumulative IPC: 1.943 (Simulation time: 00 hr 15 min 30 sec)
Heartbeat CPU 0 instructions: 149500517 cycles: 72572893 heartbeat IPC: 1.748 cumulative IPC: 1.942 (Simulation time: 00 hr 15 min 34 sec)
Heartbeat CPU 0 instructions: 150000519 cycles: 72849855 heartbeat IPC: 1.805 cumulative IPC: 1.941 (Simulation time: 00 hr 15 min 37 sec)
Heartbeat CPU 0 instructions: 150500519 cycles: 73127668 heartbeat IPC: 1.8 cumulative IPC: 1.94 (Simulation time: 00 hr 15 min 40 sec)
Heartbeat CPU 0 instructions: 151000520 cycles: 73399293 heartbeat IPC: 1.841 cumulative IPC: 1.94 (Simulation time: 00 hr 15 min 43 sec)
Heartbeat CPU 0 instructions: 151500521 cycles: 73666271 heartbeat IPC: 1.873 cumulative IPC: 1.939 (Simulation time: 00 hr 15 min 47 sec)
Heartbeat CPU 0 instructions: 152000523 cycles: 73927949 heartbeat IPC: 1.911 cumulative IPC: 1.939 (Simulation time: 00 hr 15 min 50 sec)
Heartbeat CPU 0 instructions: 152500523 cycles: 74207029 heartbeat IPC: 1.792 cumulative IPC: 1.938 (Simulation time: 00 hr 15 min 53 sec)
Heartbeat CPU 0 instructions: 153000524 cycles: 74504189 heartbeat IPC: 1.683 cumulative IPC: 1.937 (Simulation time: 00 hr 15 min 56 sec)
Heartbeat CPU 0 instructions: 153500525 cycles: 74800377 heartbeat IPC: 1.688 cumulative IPC: 1.936 (Simulation time: 00 hr 16 min 00 sec)
Heartbeat CPU 0 instructions: 154000526 cycles: 75100143 heartbeat IPC: 1.668 cumulative IPC: 1.934 (Simulation time: 00 hr 16 min 03 sec)
Heartbeat CPU 0 instructions: 154500527 cycles: 75374815 heartbeat IPC: 1.82 cumulative IPC: 1.934 (Simulation time: 00 hr 16 min 06 sec)
Heartbeat CPU 0 instructions: 155000528 cycles: 75672375 heartbeat IPC: 1.68 cumulative IPC: 1.932 (Simulation time: 00 hr 16 min 10 sec)
Heartbeat CPU 0 instructions: 155500530 cycles: 75973784 heartbeat IPC: 1.659 cumulative IPC: 1.931 (Simulation time: 00 hr 16 min 13 sec)
Heartbeat CPU 0 instructions: 156000530 cycles: 76270395 heartbeat IPC: 1.686 cumulative IPC: 1.929 (Simulation time: 00 hr 16 min 17 sec)
Heartbeat CPU 0 instructions: 156500532 cycles: 76547105 heartbeat IPC: 1.807 cumulative IPC: 1.929 (Simulation time: 00 hr 16 min 20 sec)
Heartbeat CPU 0 instructions: 157000532 cycles: 76799012 heartbeat IPC: 1.985 cumulative IPC: 1.929 (Simulation time: 00 hr 16 min 23 sec)
Heartbeat CPU 0 instructions: 157500532 cycles: 77050153 heartbeat IPC: 1.991 cumulative IPC: 1.929 (Simulation time: 00 hr 16 min 26 sec)
Heartbeat CPU 0 instructions: 158000535 cycles: 77323434 heartbeat IPC: 1.83 cumulative IPC: 1.929 (Simulation time: 00 hr 16 min 30 sec)
Heartbeat CPU 0 instructions: 158500535 cycles: 77605901 heartbeat IPC: 1.77 cumulative IPC: 1.928 (Simulation time: 00 hr 16 min 33 sec)
Heartbeat CPU 0 instructions: 159000537 cycles: 77903454 heartbeat IPC: 1.68 cumulative IPC: 1.927 (Simulation time: 00 hr 16 min 36 sec)
Heartbeat CPU 0 instructions: 159500537 cycles: 78206076 heartbeat IPC: 1.652 cumulative IPC: 1.925 (Simulation time: 00 hr 16 min 40 sec)
Heartbeat CPU 0 instructions: 160000539 cycles: 78503043 heartbeat IPC: 1.684 cumulative IPC: 1.924 (Simulation time: 00 hr 16 min 43 sec)
Heartbeat CPU 0 instructions: 160500539 cycles: 78802324 heartbeat IPC: 1.671 cumulative IPC: 1.923 (Simulation time: 00 hr 16 min 46 sec)
Heartbeat CPU 0 instructions: 161000540 cycles: 79111744 heartbeat IPC: 1.616 cumulative IPC: 1.921 (Simulation time: 00 hr 16 min 50 sec)
Heartbeat CPU 0 instructions: 161500542 cycles: 79364463 heartbeat IPC: 1.978 cumulative IPC: 1.921 (Simulation time: 00 hr 16 min 53 sec)
Heartbeat CPU 0 instructions: 162000542 cycles: 79613662 heartbeat IPC: 2.006 cumulative IPC: 1.922 (Simulation time: 00 hr 16 min 56 sec)
Heartbeat CPU 0 instructions: 162500544 cycles: 79925154 heartbeat IPC: 1.605 cumulative IPC: 1.92 (Simulation time: 00 hr 16 min 59 sec)
Heartbeat CPU 0 instructions: 163000544 cycles: 80206989 heartbeat IPC: 1.774 cumulative IPC: 1.919 (Simulation time: 00 hr 17 min 03 sec)
Heartbeat CPU 0 instructions: 163500544 cycles: 80511573 heartbeat IPC: 1.642 cumulative IPC: 1.918 (Simulation time: 00 hr 17 min 06 sec)
Heartbeat CPU 0 instructions: 164000545 cycles: 80815227 heartbeat IPC: 1.647 cumulative IPC: 1.916 (Simulation time: 00 hr 17 min 10 sec)
Heartbeat CPU 0 instructions: 164500546 cycles: 81116173 heartbeat IPC: 1.661 cumulative IPC: 1.915 (Simulation time: 00 hr 17 min 13 sec)
Heartbeat CPU 0 instructions: 165000547 cycles: 81405548 heartbeat IPC: 1.728 cumulative IPC: 1.914 (Simulation time: 00 hr 17 min 16 sec)
Heartbeat CPU 0 instructions: 165500548 cycles: 81687430 heartbeat IPC: 1.774 cumulative IPC: 1.914 (Simulation time: 00 hr 17 min 20 sec)
Heartbeat CPU 0 instructions: 166000549 cycles: 81976753 heartbeat IPC: 1.728 cumulative IPC: 1.913 (Simulation time: 00 hr 17 min 23 sec)
Heartbeat CPU 0 instructions: 166500551 cycles: 82276700 heartbeat IPC: 1.667 cumulative IPC: 1.912 (Simulation time: 00 hr 17 min 26 sec)
Heartbeat CPU 0 instructions: 167000551 cycles: 82575380 heartbeat IPC: 1.674 cumulative IPC: 1.91 (Simulation time: 00 hr 17 min 30 sec)
Heartbeat CPU 0 instructions: 167500552 cycles: 82878664 heartbeat IPC: 1.649 cumulative IPC: 1.909 (Simulation time: 00 hr 17 min 33 sec)
Heartbeat CPU 0 instructions: 168000553 cycles: 83163609 heartbeat IPC: 1.755 cumulative IPC: 1.908 (Simulation time: 00 hr 17 min 36 sec)
Heartbeat CPU 0 instructions: 168500554 cycles: 83457281 heartbeat IPC: 1.703 cumulative IPC: 1.907 (Simulation time: 00 hr 17 min 40 sec)
Heartbeat CPU 0 instructions: 169000555 cycles: 83739236 heartbeat IPC: 1.773 cumulative IPC: 1.907 (Simulation time: 00 hr 17 min 43 sec)
Heartbeat CPU 0 instructions: 169500555 cycles: 84019542 heartbeat IPC: 1.784 cumulative IPC: 1.906 (Simulation time: 00 hr 17 min 46 sec)
Heartbeat CPU 0 instructions: 170000558 cycles: 84303104 heartbeat IPC: 1.763 cumulative IPC: 1.906 (Simulation time: 00 hr 17 min 50 sec)
Heartbeat CPU 0 instructions: 170500558 cycles: 84586651 heartbeat IPC: 1.763 cumulative IPC: 1.905 (Simulation time: 00 hr 17 min 53 sec)
Heartbeat CPU 0 instructions: 171000560 cycles: 84876918 heartbeat IPC: 1.723 cumulative IPC: 1.904 (Simulation time: 00 hr 17 min 56 sec)
Heartbeat CPU 0 instructions: 171500560 cycles: 85217437 heartbeat IPC: 1.468 cumulative IPC: 1.902 (Simulation time: 00 hr 18 min 00 sec)
Heartbeat CPU 0 instructions: 172000560 cycles: 85523117 heartbeat IPC: 1.636 cumulative IPC: 1.901 (Simulation time: 00 hr 18 min 03 sec)
Heartbeat CPU 0 instructions: 172500560 cycles: 85794947 heartbeat IPC: 1.839 cumulative IPC: 1.9 (Simulation time: 00 hr 18 min 07 sec)
Heartbeat CPU 0 instructions: 173000560 cycles: 86066573 heartbeat IPC: 1.841 cumulative IPC: 1.9 (Simulation time: 00 hr 18 min 10 sec)
Heartbeat CPU 0 instructions: 173500561 cycles: 86332975 heartbeat IPC: 1.877 cumulative IPC: 1.9 (Simulation time: 00 hr 18 min 13 sec)
Heartbeat CPU 0 instructions: 174000562 cycles: 86609239 heartbeat IPC: 1.81 cumulative IPC: 1.9 (Simulation time: 00 hr 18 min 17 sec)
Heartbeat CPU 0 instructions: 174500564 cycles: 86885429 heartbeat IPC: 1.81 cumulative IPC: 1.899 (Simulation time: 00 hr 18 min 20 sec)
Heartbeat CPU 0 instructions: 175000564 cycles: 87177331 heartbeat IPC: 1.713 cumulative IPC: 1.898 (Simulation time: 00 hr 18 min 23 sec)
Heartbeat CPU 0 instructions: 175500565 cycles: 87472583 heartbeat IPC: 1.693 cumulative IPC: 1.897 (Simulation time: 00 hr 18 min 27 sec)
Heartbeat CPU 0 instructions: 176000566 cycles: 87773568 heartbeat IPC: 1.661 cumulative IPC: 1.896 (Simulation time: 00 hr 18 min 30 sec)
Heartbeat CPU 0 instructions: 176500567 cycles: 88060096 heartbeat IPC: 1.745 cumulative IPC: 1.896 (Simulation time: 00 hr 18 min 34 sec)
Heartbeat CPU 0 instructions: 177000569 cycles: 88340967 heartbeat IPC: 1.78 cumulative IPC: 1.895 (Simulation time: 00 hr 18 min 37 sec)
Heartbeat CPU 0 instructions: 177500569 cycles: 88632691 heartbeat IPC: 1.714 cumulative IPC: 1.894 (Simulation time: 00 hr 18 min 40 sec)
Heartbeat CPU 0 instructions: 178000570 cycles: 88916597 heartbeat IPC: 1.761 cumulative IPC: 1.894 (Simulation time: 00 hr 18 min 44 sec)
Heartbeat CPU 0 instructions: 178500571 cycles: 89184684 heartbeat IPC: 1.865 cumulative IPC: 1.894 (Simulation time: 00 hr 18 min 47 sec)
Heartbeat CPU 0 instructions: 179000573 cycles: 89450891 heartbeat IPC: 1.878 cumulative IPC: 1.894 (Simulation time: 00 hr 18 min 50 sec)
Heartbeat CPU 0 instructions: 179500573 cycles: 89743918 heartbeat IPC: 1.706 cumulative IPC: 1.893 (Simulation time: 00 hr 18 min 53 sec)
Heartbeat CPU 0 instructions: 180000574 cycles: 90029776 heartbeat IPC: 1.749 cumulative IPC: 1.892 (Simulation time: 00 hr 18 min 57 sec)
Heartbeat CPU 0 instructions: 180500575 cycles: 90322559 heartbeat IPC: 1.708 cumulative IPC: 1.892 (Simulation time: 00 hr 19 min 00 sec)
Heartbeat CPU 0 instructions: 181000576 cycles: 90623475 heartbeat IPC: 1.662 cumulative IPC: 1.891 (Simulation time: 00 hr 19 min 04 sec)
Heartbeat CPU 0 instructions: 181500577 cycles: 90934662 heartbeat IPC: 1.607 cumulative IPC: 1.889 (Simulation time: 00 hr 19 min 07 sec)
Heartbeat CPU 0 instructions: 182000578 cycles: 91234808 heartbeat IPC: 1.666 cumulative IPC: 1.888 (Simulation time: 00 hr 19 min 11 sec)
Heartbeat CPU 0 instructions: 182500580 cycles: 91534104 heartbeat IPC: 1.671 cumulative IPC: 1.887 (Simulation time: 00 hr 19 min 14 sec)
Heartbeat CPU 0 instructions: 183000580 cycles: 91827521 heartbeat IPC: 1.704 cumulative IPC: 1.887 (Simulation time: 00 hr 19 min 17 sec)
Heartbeat CPU 0 instructions: 183500581 cycles: 92133363 heartbeat IPC: 1.635 cumulative IPC: 1.886 (Simulation time: 00 hr 19 min 21 sec)
Heartbeat CPU 0 instructions: 184000583 cycles: 92439151 heartbeat IPC: 1.635 cumulative IPC: 1.884 (Simulation time: 00 hr 19 min 24 sec)
Heartbeat CPU 0 instructions: 184500583 cycles: 92727463 heartbeat IPC: 1.734 cumulative IPC: 1.884 (Simulation time: 00 hr 19 min 28 sec)
Heartbeat CPU 0 instructions: 185000584 cycles: 93075421 heartbeat IPC: 1.437 cumulative IPC: 1.882 (Simulation time: 00 hr 19 min 31 sec)
Heartbeat CPU 0 instructions: 185500585 cycles: 93348697 heartbeat IPC: 1.83 cumulative IPC: 1.881 (Simulation time: 00 hr 19 min 35 sec)
Heartbeat CPU 0 instructions: 186000586 cycles: 93585745 heartbeat IPC: 2.109 cumulative IPC: 1.882 (Simulation time: 00 hr 19 min 38 sec)
Heartbeat CPU 0 instructions: 186500588 cycles: 93824485 heartbeat IPC: 2.094 cumulative IPC: 1.883 (Simulation time: 00 hr 19 min 41 sec)
Heartbeat CPU 0 instructions: 187000588 cycles: 94075542 heartbeat IPC: 1.992 cumulative IPC: 1.883 (Simulation time: 00 hr 19 min 44 sec)
Heartbeat CPU 0 instructions: 187500590 cycles: 94321239 heartbeat IPC: 2.035 cumulative IPC: 1.884 (Simulation time: 00 hr 19 min 47 sec)
Heartbeat CPU 0 instructions: 188000590 cycles: 94560946 heartbeat IPC: 2.086 cumulative IPC: 1.884 (Simulation time: 00 hr 19 min 51 sec)
Heartbeat CPU 0 instructions: 188500592 cycles: 94811405 heartbeat IPC: 1.996 cumulative IPC: 1.885 (Simulation time: 00 hr 19 min 54 sec)
Heartbeat CPU 0 instructions: 189000592 cycles: 95090628 heartbeat IPC: 1.791 cumulative IPC: 1.884 (Simulation time: 00 hr 19 min 57 sec)
Heartbeat CPU 0 instructions: 189500593 cycles: 95360752 heartbeat IPC: 1.851 cumulative IPC: 1.884 (Simulation time: 00 hr 20 min 01 sec)
Heartbeat CPU 0 instructions: 190000594 cycles: 95641760 heartbeat IPC: 1.779 cumulative IPC: 1.884 (Simulation time: 00 hr 20 min 04 sec)
Heartbeat CPU 0 instructions: 190500595 cycles: 95915663 heartbeat IPC: 1.825 cumulative IPC: 1.884 (Simulation time: 00 hr 20 min 07 sec)
Heartbeat CPU 0 instructions: 191000597 cycles: 96218211 heartbeat IPC: 1.653 cumulative IPC: 1.883 (Simulation time: 00 hr 20 min 11 sec)
Heartbeat CPU 0 instructions: 191500597 cycles: 96512608 heartbeat IPC: 1.698 cumulative IPC: 1.882 (Simulation time: 00 hr 20 min 14 sec)
Heartbeat CPU 0 instructions: 192000598 cycles: 96748379 heartbeat IPC: 2.121 cumulative IPC: 1.883 (Simulation time: 00 hr 20 min 17 sec)
Heartbeat CPU 0 instructions: 192500599 cycles: 97008207 heartbeat IPC: 1.924 cumulative IPC: 1.883 (Simulation time: 00 hr 20 min 20 sec)
Heartbeat CPU 0 instructions: 193000600 cycles: 97283438 heartbeat IPC: 1.817 cumulative IPC: 1.883 (Simulation time: 00 hr 20 min 24 sec)
Heartbeat CPU 0 instructions: 193500601 cycles: 97572263 heartbeat IPC: 1.731 cumulative IPC: 1.882 (Simulation time: 00 hr 20 min 27 sec)
Heartbeat CPU 0 instructions: 194000602 cycles: 97875935 heartbeat IPC: 1.647 cumulative IPC: 1.881 (Simulation time: 00 hr 20 min 31 sec)
Heartbeat CPU 0 instructions: 194500603 cycles: 98166347 heartbeat IPC: 1.722 cumulative IPC: 1.881 (Simulation time: 00 hr 20 min 34 sec)
Heartbeat CPU 0 instructions: 195000605 cycles: 98436710 heartbeat IPC: 1.849 cumulative IPC: 1.881 (Simulation time: 00 hr 20 min 37 sec)
Heartbeat CPU 0 instructions: 195500606 cycles: 98746571 heartbeat IPC: 1.614 cumulative IPC: 1.879 (Simulation time: 00 hr 20 min 41 sec)
Heartbeat CPU 0 instructions: 196000606 cycles: 99050911 heartbeat IPC: 1.643 cumulative IPC: 1.879 (Simulation time: 00 hr 20 min 44 sec)
Heartbeat CPU 0 instructions: 196500607 cycles: 99331839 heartbeat IPC: 1.78 cumulative IPC: 1.878 (Simulation time: 00 hr 20 min 47 sec)
Heartbeat CPU 0 instructions: 197000608 cycles: 99639292 heartbeat IPC: 1.626 cumulative IPC: 1.877 (Simulation time: 00 hr 20 min 51 sec)
Heartbeat CPU 0 instructions: 197500609 cycles: 99929603 heartbeat IPC: 1.722 cumulative IPC: 1.877 (Simulation time: 00 hr 20 min 54 sec)
Heartbeat CPU 0 instructions: 198000610 cycles: 100242665 heartbeat IPC: 1.597 cumulative IPC: 1.876 (Simulation time: 00 hr 20 min 57 sec)
Heartbeat CPU 0 instructions: 198500611 cycles: 100547228 heartbeat IPC: 1.642 cumulative IPC: 1.875 (Simulation time: 00 hr 21 min 02 sec)
Heartbeat CPU 0 instructions: 199000617 cycles: 100860905 heartbeat IPC: 1.594 cumulative IPC: 1.874 (Simulation time: 00 hr 21 min 05 sec)
Heartbeat CPU 0 instructions: 199500617 cycles: 101162822 heartbeat IPC: 1.656 cumulative IPC: 1.873 (Simulation time: 00 hr 21 min 09 sec)
Heartbeat CPU 0 instructions: 200000617 cycles: 101459739 heartbeat IPC: 1.684 cumulative IPC: 1.872 (Simulation time: 00 hr 21 min 12 sec)
Heartbeat CPU 0 instructions: 200500619 cycles: 101768535 heartbeat IPC: 1.619 cumulative IPC: 1.871 (Simulation time: 00 hr 21 min 16 sec)
Heartbeat CPU 0 instructions: 201000619 cycles: 102077018 heartbeat IPC: 1.621 cumulative IPC: 1.87 (Simulation time: 00 hr 21 min 19 sec)
Heartbeat CPU 0 instructions: 201500620 cycles: 102383700 heartbeat IPC: 1.63 cumulative IPC: 1.869 (Simulation time: 00 hr 21 min 22 sec)
Heartbeat CPU 0 instructions: 202000621 cycles: 102684354 heartbeat IPC: 1.663 cumulative IPC: 1.868 (Simulation time: 00 hr 21 min 26 sec)
Heartbeat CPU 0 instructions: 202500621 cycles: 102987031 heartbeat IPC: 1.652 cumulative IPC: 1.868 (Simulation time: 00 hr 21 min 29 sec)
Heartbeat CPU 0 instructions: 203000624 cycles: 103278273 heartbeat IPC: 1.717 cumulative IPC: 1.867 (Simulation time: 00 hr 21 min 33 sec)
Heartbeat CPU 0 instructions: 203500624 cycles: 103580867 heartbeat IPC: 1.652 cumulative IPC: 1.866 (Simulation time: 00 hr 21 min 36 sec)
Heartbeat CPU 0 instructions: 204000625 cycles: 103878162 heartbeat IPC: 1.682 cumulative IPC: 1.866 (Simulation time: 00 hr 21 min 40 sec)
Heartbeat CPU 0 instructions: 204500626 cycles: 104193652 heartbeat IPC: 1.585 cumulative IPC: 1.865 (Simulation time: 00 hr 21 min 43 sec)
Heartbeat CPU 0 instructions: 205000630 cycles: 104500743 heartbeat IPC: 1.628 cumulative IPC: 1.864 (Simulation time: 00 hr 21 min 47 sec)
Heartbeat CPU 0 instructions: 205500631 cycles: 104812240 heartbeat IPC: 1.605 cumulative IPC: 1.863 (Simulation time: 00 hr 21 min 51 sec)
Heartbeat CPU 0 instructions: 206000632 cycles: 105121445 heartbeat IPC: 1.617 cumulative IPC: 1.862 (Simulation time: 00 hr 21 min 56 sec)
Heartbeat CPU 0 instructions: 206500633 cycles: 105429511 heartbeat IPC: 1.623 cumulative IPC: 1.861 (Simulation time: 00 hr 21 min 59 sec)
Heartbeat CPU 0 instructions: 207000634 cycles: 105707177 heartbeat IPC: 1.801 cumulative IPC: 1.861 (Simulation time: 00 hr 22 min 02 sec)
Heartbeat CPU 0 instructions: 207500635 cycles: 106018611 heartbeat IPC: 1.605 cumulative IPC: 1.86 (Simulation time: 00 hr 22 min 05 sec)
Heartbeat CPU 0 instructions: 208000636 cycles: 106326204 heartbeat IPC: 1.626 cumulative IPC: 1.859 (Simulation time: 00 hr 22 min 09 sec)
Heartbeat CPU 0 instructions: 208500638 cycles: 106641674 heartbeat IPC: 1.585 cumulative IPC: 1.858 (Simulation time: 00 hr 22 min 12 sec)
Heartbeat CPU 0 instructions: 209000638 cycles: 106947631 heartbeat IPC: 1.634 cumulative IPC: 1.857 (Simulation time: 00 hr 22 min 16 sec)
Heartbeat CPU 0 instructions: 209500639 cycles: 107258559 heartbeat IPC: 1.608 cumulative IPC: 1.856 (Simulation time: 00 hr 22 min 19 sec)
Heartbeat CPU 0 instructions: 210000640 cycles: 107498692 heartbeat IPC: 2.082 cumulative IPC: 1.857 (Simulation time: 00 hr 22 min 22 sec)
Heartbeat CPU 0 instructions: 210500641 cycles: 107722758 heartbeat IPC: 2.231 cumulative IPC: 1.858 (Simulation time: 00 hr 22 min 26 sec)
Heartbeat CPU 0 instructions: 211000645 cycles: 108018129 heartbeat IPC: 1.693 cumulative IPC: 1.857 (Simulation time: 00 hr 22 min 29 sec)
Heartbeat CPU 0 instructions: 211500646 cycles: 108310563 heartbeat IPC: 1.71 cumulative IPC: 1.857 (Simulation time: 00 hr 22 min 33 sec)
Heartbeat CPU 0 instructions: 212000647 cycles: 108581355 heartbeat IPC: 1.846 cumulative IPC: 1.857 (Simulation time: 00 hr 22 min 36 sec)
Heartbeat CPU 0 instructions: 212500648 cycles: 108864465 heartbeat IPC: 1.766 cumulative IPC: 1.856 (Simulation time: 00 hr 22 min 39 sec)
Heartbeat CPU 0 instructions: 213000654 cycles: 109175472 heartbeat IPC: 1.608 cumulative IPC: 1.856 (Simulation time: 00 hr 22 min 43 sec)
Heartbeat CPU 0 instructions: 213500657 cycles: 109491051 heartbeat IPC: 1.584 cumulative IPC: 1.855 (Simulation time: 00 hr 22 min 46 sec)
Heartbeat CPU 0 instructions: 214000657 cycles: 109807565 heartbeat IPC: 1.58 cumulative IPC: 1.854 (Simulation time: 00 hr 22 min 50 sec)
Heartbeat CPU 0 instructions: 214500658 cycles: 110124333 heartbeat IPC: 1.578 cumulative IPC: 1.853 (Simulation time: 00 hr 22 min 53 sec)
Heartbeat CPU 0 instructions: 215000659 cycles: 110414792 heartbeat IPC: 1.721 cumulative IPC: 1.852 (Simulation time: 00 hr 22 min 57 sec)
Heartbeat CPU 0 instructions: 215500661 cycles: 110723219 heartbeat IPC: 1.621 cumulative IPC: 1.851 (Simulation time: 00 hr 23 min 00 sec)
Heartbeat CPU 0 instructions: 216000661 cycles: 111025077 heartbeat IPC: 1.656 cumulative IPC: 1.851 (Simulation time: 00 hr 23 min 04 sec)
Heartbeat CPU 0 instructions: 216500662 cycles: 111323116 heartbeat IPC: 1.678 cumulative IPC: 1.85 (Simulation time: 00 hr 23 min 07 sec)
Heartbeat CPU 0 instructions: 217000664 cycles: 111633654 heartbeat IPC: 1.61 cumulative IPC: 1.849 (Simulation time: 00 hr 23 min 11 sec)
Heartbeat CPU 0 instructions: 217500664 cycles: 111949487 heartbeat IPC: 1.583 cumulative IPC: 1.848 (Simulation time: 00 hr 23 min 14 sec)
Heartbeat CPU 0 instructions: 218000666 cycles: 112274764 heartbeat IPC: 1.537 cumulative IPC: 1.847 (Simulation time: 00 hr 23 min 18 sec)
Heartbeat CPU 0 instructions: 218500666 cycles: 112625670 heartbeat IPC: 1.425 cumulative IPC: 1.846 (Simulation time: 00 hr 23 min 21 sec)
Heartbeat CPU 0 instructions: 219000667 cycles: 112965538 heartbeat IPC: 1.471 cumulative IPC: 1.844 (Simulation time: 00 hr 23 min 25 sec)
Heartbeat CPU 0 instructions: 219500672 cycles: 113319997 heartbeat IPC: 1.411 cumulative IPC: 1.843 (Simulation time: 00 hr 23 min 29 sec)
Heartbeat CPU 0 instructions: 220000672 cycles: 113662127 heartbeat IPC: 1.461 cumulative IPC: 1.841 (Simulation time: 00 hr 23 min 32 sec)
Heartbeat CPU 0 instructions: 220500673 cycles: 114018886 heartbeat IPC: 1.402 cumulative IPC: 1.84 (Simulation time: 00 hr 23 min 36 sec)
Heartbeat CPU 0 instructions: 221000674 cycles: 114390201 heartbeat IPC: 1.347 cumulative IPC: 1.838 (Simulation time: 00 hr 23 min 39 sec)
Heartbeat CPU 0 instructions: 221500675 cycles: 114782931 heartbeat IPC: 1.273 cumulative IPC: 1.835 (Simulation time: 00 hr 23 min 43 sec)
Heartbeat CPU 0 instructions: 222000676 cycles: 115170913 heartbeat IPC: 1.289 cumulative IPC: 1.833 (Simulation time: 00 hr 23 min 47 sec)
Heartbeat CPU 0 instructions: 222500677 cycles: 115507352 heartbeat IPC: 1.486 cumulative IPC: 1.832 (Simulation time: 00 hr 23 min 51 sec)
Heartbeat CPU 0 instructions: 223000678 cycles: 115824273 heartbeat IPC: 1.578 cumulative IPC: 1.831 (Simulation time: 00 hr 23 min 54 sec)
Heartbeat CPU 0 instructions: 223500679 cycles: 116139401 heartbeat IPC: 1.587 cumulative IPC: 1.83 (Simulation time: 00 hr 23 min 58 sec)
Heartbeat CPU 0 instructions: 224000681 cycles: 116439176 heartbeat IPC: 1.668 cumulative IPC: 1.829 (Simulation time: 00 hr 24 min 01 sec)
Heartbeat CPU 0 instructions: 224500681 cycles: 116763997 heartbeat IPC: 1.539 cumulative IPC: 1.829 (Simulation time: 00 hr 24 min 05 sec)
Heartbeat CPU 0 instructions: 225000682 cycles: 117050876 heartbeat IPC: 1.743 cumulative IPC: 1.828 (Simulation time: 00 hr 24 min 08 sec)
Heartbeat CPU 0 instructions: 225500684 cycles: 117347057 heartbeat IPC: 1.688 cumulative IPC: 1.828 (Simulation time: 00 hr 24 min 11 sec)
Heartbeat CPU 0 instructions: 226000684 cycles: 117603136 heartbeat IPC: 1.953 cumulative IPC: 1.828 (Simulation time: 00 hr 24 min 14 sec)
Heartbeat CPU 0 instructions: 226500685 cycles: 117879817 heartbeat IPC: 1.807 cumulative IPC: 1.828 (Simulation time: 00 hr 24 min 17 sec)
Heartbeat CPU 0 instructions: 227000686 cycles: 118177535 heartbeat IPC: 1.679 cumulative IPC: 1.828 (Simulation time: 00 hr 24 min 20 sec)
Heartbeat CPU 0 instructions: 227500688 cycles: 118501259 heartbeat IPC: 1.545 cumulative IPC: 1.827 (Simulation time: 00 hr 24 min 23 sec)
Heartbeat CPU 0 instructions: 228000688 cycles: 118817725 heartbeat IPC: 1.58 cumulative IPC: 1.826 (Simulation time: 00 hr 24 min 27 sec)
Heartbeat CPU 0 instructions: 228500689 cycles: 119152519 heartbeat IPC: 1.493 cumulative IPC: 1.825 (Simulation time: 00 hr 24 min 31 sec)
Heartbeat CPU 0 instructions: 229000689 cycles: 119463410 heartbeat IPC: 1.608 cumulative IPC: 1.824 (Simulation time: 00 hr 24 min 34 sec)
Heartbeat CPU 0 instructions: 229500691 cycles: 119788226 heartbeat IPC: 1.539 cumulative IPC: 1.823 (Simulation time: 00 hr 24 min 38 sec)
Heartbeat CPU 0 instructions: 230000691 cycles: 120174547 heartbeat IPC: 1.294 cumulative IPC: 1.821 (Simulation time: 00 hr 24 min 42 sec)
Heartbeat CPU 0 instructions: 230500693 cycles: 120582589 heartbeat IPC: 1.225 cumulative IPC: 1.819 (Simulation time: 00 hr 24 min 45 sec)
Heartbeat CPU 0 instructions: 231000693 cycles: 120931377 heartbeat IPC: 1.434 cumulative IPC: 1.817 (Simulation time: 00 hr 24 min 49 sec)
Heartbeat CPU 0 instructions: 231500694 cycles: 121235353 heartbeat IPC: 1.645 cumulative IPC: 1.817 (Simulation time: 00 hr 24 min 52 sec)
Heartbeat CPU 0 instructions: 232000696 cycles: 121547435 heartbeat IPC: 1.602 cumulative IPC: 1.816 (Simulation time: 00 hr 24 min 56 sec)
Heartbeat CPU 0 instructions: 232500696 cycles: 121858498 heartbeat IPC: 1.607 cumulative IPC: 1.815 (Simulation time: 00 hr 24 min 59 sec)
Heartbeat CPU 0 instructions: 233000697 cycles: 122146862 heartbeat IPC: 1.734 cumulative IPC: 1.815 (Simulation time: 00 hr 25 min 02 sec)
Heartbeat CPU 0 instructions: 233500698 cycles: 122453295 heartbeat IPC: 1.632 cumulative IPC: 1.815 (Simulation time: 00 hr 25 min 06 sec)
Heartbeat CPU 0 instructions: 234000699 cycles: 122776881 heartbeat IPC: 1.545 cumulative IPC: 1.814 (Simulation time: 00 hr 25 min 09 sec)
Heartbeat CPU 0 instructions: 234500700 cycles: 123087076 heartbeat IPC: 1.612 cumulative IPC: 1.813 (Simulation time: 00 hr 25 min 12 sec)
Heartbeat CPU 0 instructions: 235000704 cycles: 123382931 heartbeat IPC: 1.69 cumulative IPC: 1.813 (Simulation time: 00 hr 25 min 16 sec)
Heartbeat CPU 0 instructions: 235500706 cycles: 123709672 heartbeat IPC: 1.53 cumulative IPC: 1.812 (Simulation time: 00 hr 25 min 19 sec)
Heartbeat CPU 0 instructions: 236000706 cycles: 123987397 heartbeat IPC: 1.8 cumulative IPC: 1.812 (Simulation time: 00 hr 25 min 22 sec)
Heartbeat CPU 0 instructions: 236500708 cycles: 124297029 heartbeat IPC: 1.615 cumulative IPC: 1.811 (Simulation time: 00 hr 25 min 26 sec)
Heartbeat CPU 0 instructions: 237000709 cycles: 124602180 heartbeat IPC: 1.639 cumulative IPC: 1.811 (Simulation time: 00 hr 25 min 29 sec)
Heartbeat CPU 0 instructions: 237500711 cycles: 124909874 heartbeat IPC: 1.625 cumulative IPC: 1.81 (Simulation time: 00 hr 25 min 33 sec)
Heartbeat CPU 0 instructions: 238000711 cycles: 125234805 heartbeat IPC: 1.539 cumulative IPC: 1.809 (Simulation time: 00 hr 25 min 36 sec)
Heartbeat CPU 0 instructions: 238500712 cycles: 125561426 heartbeat IPC: 1.531 cumulative IPC: 1.808 (Simulation time: 00 hr 25 min 40 sec)
Heartbeat CPU 0 instructions: 239000713 cycles: 125880799 heartbeat IPC: 1.566 cumulative IPC: 1.808 (Simulation time: 00 hr 25 min 43 sec)
Heartbeat CPU 0 instructions: 239500714 cycles: 126184201 heartbeat IPC: 1.648 cumulative IPC: 1.807 (Simulation time: 00 hr 25 min 47 sec)
Heartbeat CPU 0 instructions: 240000715 cycles: 126492840 heartbeat IPC: 1.62 cumulative IPC: 1.807 (Simulation time: 00 hr 25 min 51 sec)
Heartbeat CPU 0 instructions: 240500716 cycles: 126795628 heartbeat IPC: 1.651 cumulative IPC: 1.806 (Simulation time: 00 hr 25 min 54 sec)
Heartbeat CPU 0 instructions: 241000717 cycles: 127104617 heartbeat IPC: 1.618 cumulative IPC: 1.806 (Simulation time: 00 hr 25 min 57 sec)
Heartbeat CPU 0 instructions: 241500718 cycles: 127383293 heartbeat IPC: 1.794 cumulative IPC: 1.806 (Simulation time: 00 hr 26 min 01 sec)
Heartbeat CPU 0 instructions: 242000719 cycles: 127683590 heartbeat IPC: 1.665 cumulative IPC: 1.805 (Simulation time: 00 hr 26 min 04 sec)
Heartbeat CPU 0 instructions: 242500721 cycles: 128009490 heartbeat IPC: 1.534 cumulative IPC: 1.804 (Simulation time: 00 hr 26 min 08 sec)
Heartbeat CPU 0 instructions: 243000721 cycles: 128332280 heartbeat IPC: 1.549 cumulative IPC: 1.804 (Simulation time: 00 hr 26 min 12 sec)
Heartbeat CPU 0 instructions: 243500722 cycles: 128665422 heartbeat IPC: 1.501 cumulative IPC: 1.803 (Simulation time: 00 hr 26 min 15 sec)
Heartbeat CPU 0 instructions: 244000723 cycles: 128959487 heartbeat IPC: 1.7 cumulative IPC: 1.802 (Simulation time: 00 hr 26 min 19 sec)
Heartbeat CPU 0 instructions: 244500724 cycles: 129270732 heartbeat IPC: 1.606 cumulative IPC: 1.802 (Simulation time: 00 hr 26 min 22 sec)
Heartbeat CPU 0 instructions: 245000725 cycles: 129589465 heartbeat IPC: 1.569 cumulative IPC: 1.801 (Simulation time: 00 hr 26 min 26 sec)
Heartbeat CPU 0 instructions: 245500726 cycles: 129910954 heartbeat IPC: 1.555 cumulative IPC: 1.801 (Simulation time: 00 hr 26 min 29 sec)
Heartbeat CPU 0 instructions: 246000727 cycles: 130246200 heartbeat IPC: 1.491 cumulative IPC: 1.8 (Simulation time: 00 hr 26 min 33 sec)
Heartbeat CPU 0 instructions: 246500728 cycles: 130598197 heartbeat IPC: 1.42 cumulative IPC: 1.798 (Simulation time: 00 hr 26 min 36 sec)
Heartbeat CPU 0 instructions: 247000729 cycles: 130911343 heartbeat IPC: 1.597 cumulative IPC: 1.798 (Simulation time: 00 hr 26 min 40 sec)
Heartbeat CPU 0 instructions: 247500730 cycles: 131217917 heartbeat IPC: 1.631 cumulative IPC: 1.797 (Simulation time: 00 hr 26 min 43 sec)
Heartbeat CPU 0 instructions: 248000731 cycles: 131555245 heartbeat IPC: 1.482 cumulative IPC: 1.796 (Simulation time: 00 hr 26 min 47 sec)
Heartbeat CPU 0 instructions: 248500733 cycles: 131870604 heartbeat IPC: 1.586 cumulative IPC: 1.796 (Simulation time: 00 hr 26 min 50 sec)
Heartbeat CPU 0 instructions: 249000733 cycles: 132190146 heartbeat IPC: 1.565 cumulative IPC: 1.795 (Simulation time: 00 hr 26 min 54 sec)
Heartbeat CPU 0 instructions: 249500734 cycles: 132495274 heartbeat IPC: 1.639 cumulative IPC: 1.795 (Simulation time: 00 hr 26 min 57 sec)
*** Reached end of trace: (0, "/local-ssd/ben/dpc4-traces/Graph/Ligra/ligra_MIS.com-lj.ungraph.gcc_6.3.0_O3.drop_21250M.length_250M.champsimtrace.xz")
Simulation finished CPU 0 instructions: 200000003 cycles: 111481888 cumulative IPC: 1.794 (Simulation time: 00 hr 27 min 01 sec)
Simulation complete CPU 0 instructions: 200000003 cycles: 111481888 cumulative IPC: 1.794 (Simulation time: 00 hr 27 min 01 sec)

ChampSim completed all CPUs

=== Simulation ===
CPU 0 runs /local-ssd/ben/dpc4-traces/Graph/Ligra/ligra_MIS.com-lj.ungraph.gcc_6.3.0_O3.drop_21250M.length_250M.champsimtrace.xz

Region of Interest Statistics

CPU 0 cumulative IPC: 1.794 instructions: 200000003 cycles: 111481888
CPU 0 Branch Prediction Accuracy: 98.59% MPKI: 4.627 Average ROB Occupancy at Mispredict: 107.1
Branch type MPKI
BRANCH_DIRECT_JUMP: 0
BRANCH_INDIRECT: 0
BRANCH_CONDITIONAL: 4.627
BRANCH_DIRECT_CALL: 0
BRANCH_INDIRECT_CALL: 0
BRANCH_RETURN: 0

cpu0->cpu0_STLB TOTAL        ACCESS:    1953300 HIT:    1931568 MISS:      21732 MSHR_MERGE:          0
cpu0->cpu0_STLB LOAD         ACCESS:    1953300 HIT:    1931568 MISS:      21732 MSHR_MERGE:          0
cpu0->cpu0_STLB RFO          ACCESS:          0 HIT:          0 MISS:          0 MSHR_MERGE:          0
cpu0->cpu0_STLB PREFETCH     ACCESS:          0 HIT:          0 MISS:          0 MSHR_MERGE:          0
cpu0->cpu0_STLB WRITE        ACCESS:          0 HIT:          0 MISS:          0 MSHR_MERGE:          0
cpu0->cpu0_STLB TRANSLATION  ACCESS:          0 HIT:          0 MISS:          0 MSHR_MERGE:          0
cpu0->cpu0_STLB PREFETCH REQUESTED:          0 ISSUED:          0 USEFUL:          0 USELESS:          0
cpu0->cpu0_STLB AVERAGE MISS LATENCY: 248.3 cycles
cpu0->cpu0_L2C TOTAL        ACCESS:    9441849 HIT:    7700086 MISS:    1741763 MSHR_MERGE:     309701
cpu0->cpu0_L2C LOAD         ACCESS:    4923201 HIT:    4824955 MISS:      98246 MSHR_MERGE:      10879
cpu0->cpu0_L2C RFO          ACCESS:          0 HIT:          0 MISS:          0 MSHR_MERGE:          0
cpu0->cpu0_L2C PREFETCH     ACCESS:    4505145 HIT:    2864398 MISS:    1640747 MSHR_MERGE:     298822
cpu0->cpu0_L2C WRITE        ACCESS:          0 HIT:          0 MISS:          0 MSHR_MERGE:          0
cpu0->cpu0_L2C TRANSLATION  ACCESS:      13503 HIT:      10733 MISS:       2770 MSHR_MERGE:          0
cpu0->cpu0_L2C PREFETCH REQUESTED:    1709076 ISSUED:    1708938 USEFUL:     881692 USELESS:     271176
cpu0->cpu0_L2C AVERAGE MISS LATENCY: 147.2 cycles
cpu0->cpu0_L1I TOTAL        ACCESS:   15819523 HIT:   15819523 MISS:          0 MSHR_MERGE:          0
cpu0->cpu0_L1I LOAD         ACCESS:   15819523 HIT:   15819523 MISS:          0 MSHR_MERGE:          0
cpu0->cpu0_L1I RFO          ACCESS:          0 HIT:          0 MISS:          0 MSHR_MERGE:          0
cpu0->cpu0_L1I PREFETCH     ACCESS:          0 HIT:          0 MISS:          0 MSHR_MERGE:          0
cpu0->cpu0_L1I WRITE        ACCESS:          0 HIT:          0 MISS:          0 MSHR_MERGE:          0
cpu0->cpu0_L1I TRANSLATION  ACCESS:          0 HIT:          0 MISS:          0 MSHR_MERGE:          0
cpu0->cpu0_L1I PREFETCH REQUESTED:          0 ISSUED:          0 USEFUL:          0 USELESS:          0
cpu0->cpu0_L1I AVERAGE MISS LATENCY: - cycles
cpu0->cpu0_L1D TOTAL        ACCESS:   47411056 HIT:   38812244 MISS:    8598812 MSHR_MERGE:     865903
cpu0->cpu0_L1D LOAD         ACCESS:   42538735 HIT:   36784532 MISS:    5754203 MSHR_MERGE:     831002
cpu0->cpu0_L1D RFO          ACCESS:          0 HIT:          0 MISS:          0 MSHR_MERGE:          0
cpu0->cpu0_L1D PREFETCH     ACCESS:    4828814 HIT:    1997708 MISS:    2831106 MSHR_MERGE:      34901
cpu0->cpu0_L1D WRITE        ACCESS:          0 HIT:          0 MISS:          0 MSHR_MERGE:          0
cpu0->cpu0_L1D TRANSLATION  ACCESS:      43507 HIT:      30004 MISS:      13503 MSHR_MERGE:          0
cpu0->cpu0_L1D PREFETCH REQUESTED:    4984035 ISSUED:    4828809 USEFUL:    1457596 USELESS:    1338507
cpu0->cpu0_L1D AVERAGE MISS LATENCY: 13.41 cycles
cpu0->cpu0_ITLB TOTAL        ACCESS:    9558147 HIT:    9558147 MISS:          0 MSHR_MERGE:          0
cpu0->cpu0_ITLB LOAD         ACCESS:    9558147 HIT:    9558147 MISS:          0 MSHR_MERGE:          0
cpu0->cpu0_ITLB RFO          ACCESS:          0 HIT:          0 MISS:          0 MSHR_MERGE:          0
cpu0->cpu0_ITLB PREFETCH     ACCESS:          0 HIT:          0 MISS:          0 MSHR_MERGE:          0
cpu0->cpu0_ITLB WRITE        ACCESS:          0 HIT:          0 MISS:          0 MSHR_MERGE:          0
cpu0->cpu0_ITLB TRANSLATION  ACCESS:          0 HIT:          0 MISS:          0 MSHR_MERGE:          0
cpu0->cpu0_ITLB PREFETCH REQUESTED:          0 ISSUED:          0 USEFUL:          0 USELESS:          0
cpu0->cpu0_ITLB AVERAGE MISS LATENCY: - cycles
cpu0->cpu0_DTLB TOTAL        ACCESS:   46374572 HIT:   44016893 MISS:    2357679 MSHR_MERGE:     404379
cpu0->cpu0_DTLB LOAD         ACCESS:   46374572 HIT:   44016893 MISS:    2357679 MSHR_MERGE:     404379
cpu0->cpu0_DTLB RFO          ACCESS:          0 HIT:          0 MISS:          0 MSHR_MERGE:          0
cpu0->cpu0_DTLB PREFETCH     ACCESS:          0 HIT:          0 MISS:          0 MSHR_MERGE:          0
cpu0->cpu0_DTLB WRITE        ACCESS:          0 HIT:          0 MISS:          0 MSHR_MERGE:          0
cpu0->cpu0_DTLB TRANSLATION  ACCESS:          0 HIT:          0 MISS:          0 MSHR_MERGE:          0
cpu0->cpu0_DTLB PREFETCH REQUESTED:          0 ISSUED:          0 USEFUL:          0 USELESS:          0
cpu0->cpu0_DTLB AVERAGE MISS LATENCY: 7.777 cycles
cpu0->LLC TOTAL        ACCESS:    1682774 HIT:     220431 MISS:    1462343 MSHR_MERGE:      39545
cpu0->LLC LOAD         ACCESS:      87367 HIT:      41217 MISS:      46150 MSHR_MERGE:        181
cpu0->LLC RFO          ACCESS:          0 HIT:          0 MISS:          0 MSHR_MERGE:          0
cpu0->LLC PREFETCH     ACCESS:    1592602 HIT:     179179 MISS:    1413423 MSHR_MERGE:      39364
cpu0->LLC WRITE        ACCESS:         35 HIT:         20 MISS:         15 MSHR_MERGE:          0
cpu0->LLC TRANSLATION  ACCESS:       2770 HIT:         15 MISS:       2755 MSHR_MERGE:          0
cpu0->LLC PREFETCH REQUESTED:     250695 ISSUED:     250677 USEFUL:     170245 USELESS:      16335
cpu0->LLC AVERAGE MISS LATENCY: 231.1 cycles

DRAM Statistics

Channel 0 RQ ROW_BUFFER_HIT:     235056
  ROW_BUFFER_MISS:    1187720
  AVG DBUS CONGESTED CYCLE: 5.297
Channel 0 WQ ROW_BUFFER_HIT:        165
  ROW_BUFFER_MISS:        448
  FULL:          0
Channel 0 REFRESHES ISSUED:       9290
