[VMEM] WARNING: physical memory size is smaller than virtual memory size.

*** ChampSim Multicore Out-of-Order Simulator ***
Warmup Instructions: 50000000
Simulation Instructions: 200000000
Number of CPUs: 1
Page size: 4096
Core 0: /local-ssd/ben/dpc4-traces/Graph/GMS/gms.triangle_count.soc-pokec-relationships.slice-137.champsimtrace.gz
 L1D Berti prefetcher
 L1D Berti prefetcher
Off-chip DRAM Size: 64 GiB Channels: 1 Width: 64-bit Data Rate: 4807 MT/s
Heartbeat CPU 0 instructions: 500002 cycles: 203134 heartbeat IPC: 2.461 cumulative IPC: 2.461 (Simulation time: 00 hr 00 min 04 sec)
Heartbeat CPU 0 instructions: 1000009 cycles: 365411 heartbeat IPC: 3.081 cumulative IPC: 2.737 (Simulation time: 00 hr 00 min 07 sec)
Heartbeat CPU 0 instructions: 1500011 cycles: 518581 heartbeat IPC: 3.264 cumulative IPC: 2.893 (Simulation time: 00 hr 00 min 09 sec)
Heartbeat CPU 0 instructions: 2000011 cycles: 669954 heartbeat IPC: 3.303 cumulative IPC: 2.985 (Simulation time: 00 hr 00 min 12 sec)
Heartbeat CPU 0 instructions: 2500018 cycles: 818720 heartbeat IPC: 3.361 cumulative IPC: 3.054 (Simulation time: 00 hr 00 min 15 sec)
Heartbeat CPU 0 instructions: 3000022 cycles: 967448 heartbeat IPC: 3.362 cumulative IPC: 3.101 (Simulation time: 00 hr 00 min 18 sec)
Heartbeat CPU 0 instructions: 3500026 cycles: 1113695 heartbeat IPC: 3.419 cumulative IPC: 3.143 (Simulation time: 00 hr 00 min 20 sec)
Heartbeat CPU 0 instructions: 4000033 cycles: 1260029 heartbeat IPC: 3.417 cumulative IPC: 3.175 (Simulation time: 00 hr 00 min 23 sec)
Heartbeat CPU 0 instructions: 4500037 cycles: 1408114 heartbeat IPC: 3.376 cumulative IPC: 3.196 (Simulation time: 00 hr 00 min 26 sec)
Heartbeat CPU 0 instructions: 5000043 cycles: 1555314 heartbeat IPC: 3.397 cumulative IPC: 3.215 (Simulation time: 00 hr 00 min 28 sec)
Heartbeat CPU 0 instructions: 5500047 cycles: 1700291 heartbeat IPC: 3.449 cumulative IPC: 3.235 (Simulation time: 00 hr 00 min 31 sec)
Heartbeat CPU 0 instructions: 6000048 cycles: 1848628 heartbeat IPC: 3.371 cumulative IPC: 3.246 (Simulation time: 00 hr 00 min 34 sec)
Heartbeat CPU 0 instructions: 6500053 cycles: 1994630 heartbeat IPC: 3.425 cumulative IPC: 3.259 (Simulation time: 00 hr 00 min 36 sec)
Heartbeat CPU 0 instructions: 7000053 cycles: 2139930 heartbeat IPC: 3.441 cumulative IPC: 3.271 (Simulation time: 00 hr 00 min 39 sec)
Heartbeat CPU 0 instructions: 7500056 cycles: 2284933 heartbeat IPC: 3.448 cumulative IPC: 3.282 (Simulation time: 00 hr 00 min 42 sec)
Heartbeat CPU 0 instructions: 8000063 cycles: 2431487 heartbeat IPC: 3.412 cumulative IPC: 3.29 (Simulation time: 00 hr 00 min 44 sec)
Heartbeat CPU 0 instructions: 8500066 cycles: 2577691 heartbeat IPC: 3.42 cumulative IPC: 3.298 (Simulation time: 00 hr 00 min 47 sec)
Heartbeat CPU 0 instructions: 9000067 cycles: 2725309 heartbeat IPC: 3.387 cumulative IPC: 3.302 (Simulation time: 00 hr 00 min 50 sec)
Heartbeat CPU 0 instructions: 9500070 cycles: 2870919 heartbeat IPC: 3.434 cumulative IPC: 3.309 (Simulation time: 00 hr 00 min 53 sec)
Heartbeat CPU 0 instructions: 10000072 cycles: 3017517 heartbeat IPC: 3.411 cumulative IPC: 3.314 (Simulation time: 00 hr 00 min 55 sec)
Heartbeat CPU 0 instructions: 10500075 cycles: 3163834 heartbeat IPC: 3.417 cumulative IPC: 3.319 (Simulation time: 00 hr 00 min 58 sec)
Heartbeat CPU 0 instructions: 11000076 cycles: 3311129 heartbeat IPC: 3.395 cumulative IPC: 3.322 (Simulation time: 00 hr 01 min 01 sec)
Heartbeat CPU 0 instructions: 11500081 cycles: 3454525 heartbeat IPC: 3.487 cumulative IPC: 3.329 (Simulation time: 00 hr 01 min 03 sec)
Heartbeat CPU 0 instructions: 12000085 cycles: 3599096 heartbeat IPC: 3.459 cumulative IPC: 3.334 (Simulation time: 00 hr 01 min 06 sec)
Heartbeat CPU 0 instructions: 12500085 cycles: 3744236 heartbeat IPC: 3.445 cumulative IPC: 3.338 (Simulation time: 00 hr 01 min 09 sec)
Heartbeat CPU 0 instructions: 13000091 cycles: 3889833 heartbeat IPC: 3.434 cumulative IPC: 3.342 (Simulation time: 00 hr 01 min 11 sec)
Heartbeat CPU 0 instructions: 13500097 cycles: 4036083 heartbeat IPC: 3.419 cumulative IPC: 3.345 (Simulation time: 00 hr 01 min 14 sec)
Heartbeat CPU 0 instructions: 14000098 cycles: 4180413 heartbeat IPC: 3.464 cumulative IPC: 3.349 (Simulation time: 00 hr 01 min 17 sec)
Heartbeat CPU 0 instructions: 14500098 cycles: 4325036 heartbeat IPC: 3.457 cumulative IPC: 3.353 (Simulation time: 00 hr 01 min 19 sec)
Heartbeat CPU 0 instructions: 15000099 cycles: 4469394 heartbeat IPC: 3.464 cumulative IPC: 3.356 (Simulation time: 00 hr 01 min 22 sec)
Heartbeat CPU 0 instructions: 15500100 cycles: 4612312 heartbeat IPC: 3.499 cumulative IPC: 3.361 (Simulation time: 00 hr 01 min 25 sec)
Heartbeat CPU 0 instructions: 16000100 cycles: 4757489 heartbeat IPC: 3.444 cumulative IPC: 3.363 (Simulation time: 00 hr 01 min 27 sec)
Heartbeat CPU 0 instructions: 16500102 cycles: 4902066 heartbeat IPC: 3.458 cumulative IPC: 3.366 (Simulation time: 00 hr 01 min 30 sec)
Heartbeat CPU 0 instructions: 17000106 cycles: 5048336 heartbeat IPC: 3.418 cumulative IPC: 3.367 (Simulation time: 00 hr 01 min 33 sec)
Heartbeat CPU 0 instructions: 17500108 cycles: 5190359 heartbeat IPC: 3.521 cumulative IPC: 3.372 (Simulation time: 00 hr 01 min 35 sec)
Heartbeat CPU 0 instructions: 18000109 cycles: 5332073 heartbeat IPC: 3.528 cumulative IPC: 3.376 (Simulation time: 00 hr 01 min 38 sec)
Heartbeat CPU 0 instructions: 18500114 cycles: 5473948 heartbeat IPC: 3.524 cumulative IPC: 3.38 (Simulation time: 00 hr 01 min 40 sec)
Heartbeat CPU 0 instructions: 19000121 cycles: 5618724 heartbeat IPC: 3.454 cumulative IPC: 3.382 (Simulation time: 00 hr 01 min 43 sec)
Heartbeat CPU 0 instructions: 19500122 cycles: 5762934 heartbeat IPC: 3.467 cumulative IPC: 3.384 (Simulation time: 00 hr 01 min 46 sec)
Heartbeat CPU 0 instructions: 20000124 cycles: 5904608 heartbeat IPC: 3.529 cumulative IPC: 3.387 (Simulation time: 00 hr 01 min 48 sec)
Heartbeat CPU 0 instructions: 20500127 cycles: 6047724 heartbeat IPC: 3.494 cumulative IPC: 3.39 (Simulation time: 00 hr 01 min 51 sec)
Heartbeat CPU 0 instructions: 21000129 cycles: 6190047 heartbeat IPC: 3.513 cumulative IPC: 3.393 (Simulation time: 00 hr 01 min 54 sec)
Heartbeat CPU 0 instructions: 21500136 cycles: 6330564 heartbeat IPC: 3.558 cumulative IPC: 3.396 (Simulation time: 00 hr 01 min 56 sec)
Heartbeat CPU 0 instructions: 22000143 cycles: 6474984 heartbeat IPC: 3.462 cumulative IPC: 3.398 (Simulation time: 00 hr 01 min 59 sec)
Heartbeat CPU 0 instructions: 22500146 cycles: 6613337 heartbeat IPC: 3.614 cumulative IPC: 3.402 (Simulation time: 00 hr 02 min 01 sec)
Heartbeat CPU 0 instructions: 23000148 cycles: 6752412 heartbeat IPC: 3.595 cumulative IPC: 3.406 (Simulation time: 00 hr 02 min 04 sec)
Heartbeat CPU 0 instructions: 23500155 cycles: 6894464 heartbeat IPC: 3.52 cumulative IPC: 3.409 (Simulation time: 00 hr 02 min 07 sec)
Heartbeat CPU 0 instructions: 24000157 cycles: 7035484 heartbeat IPC: 3.546 cumulative IPC: 3.411 (Simulation time: 00 hr 02 min 09 sec)
Heartbeat CPU 0 instructions: 24500163 cycles: 7177871 heartbeat IPC: 3.512 cumulative IPC: 3.413 (Simulation time: 00 hr 02 min 12 sec)
Heartbeat CPU 0 instructions: 25000167 cycles: 7319878 heartbeat IPC: 3.521 cumulative IPC: 3.415 (Simulation time: 00 hr 02 min 14 sec)
Heartbeat CPU 0 instructions: 25500173 cycles: 7460157 heartbeat IPC: 3.564 cumulative IPC: 3.418 (Simulation time: 00 hr 02 min 17 sec)
Heartbeat CPU 0 instructions: 26000177 cycles: 7601155 heartbeat IPC: 3.546 cumulative IPC: 3.421 (Simulation time: 00 hr 02 min 20 sec)
Heartbeat CPU 0 instructions: 26500180 cycles: 7739573 heartbeat IPC: 3.612 cumulative IPC: 3.424 (Simulation time: 00 hr 02 min 22 sec)
Heartbeat CPU 0 instructions: 27000185 cycles: 7880314 heartbeat IPC: 3.553 cumulative IPC: 3.426 (Simulation time: 00 hr 02 min 25 sec)
Heartbeat CPU 0 instructions: 27500185 cycles: 8020349 heartbeat IPC: 3.571 cumulative IPC: 3.429 (Simulation time: 00 hr 02 min 27 sec)
Heartbeat CPU 0 instructions: 28000190 cycles: 8159796 heartbeat IPC: 3.586 cumulative IPC: 3.431 (Simulation time: 00 hr 02 min 30 sec)
Heartbeat CPU 0 instructions: 28500194 cycles: 8300702 heartbeat IPC: 3.548 cumulative IPC: 3.433 (Simulation time: 00 hr 02 min 32 sec)
Heartbeat CPU 0 instructions: 29000194 cycles: 8439945 heartbeat IPC: 3.591 cumulative IPC: 3.436 (Simulation time: 00 hr 02 min 35 sec)
Heartbeat CPU 0 instructions: 29500197 cycles: 8579297 heartbeat IPC: 3.588 cumulative IPC: 3.439 (Simulation time: 00 hr 02 min 38 sec)
Heartbeat CPU 0 instructions: 30000203 cycles: 8718726 heartbeat IPC: 3.586 cumulative IPC: 3.441 (Simulation time: 00 hr 02 min 40 sec)
Heartbeat CPU 0 instructions: 30500204 cycles: 8858980 heartbeat IPC: 3.565 cumulative IPC: 3.443 (Simulation time: 00 hr 02 min 43 sec)
Heartbeat CPU 0 instructions: 31000204 cycles: 8997347 heartbeat IPC: 3.614 cumulative IPC: 3.445 (Simulation time: 00 hr 02 min 45 sec)
Heartbeat CPU 0 instructions: 31500208 cycles: 9137316 heartbeat IPC: 3.572 cumulative IPC: 3.447 (Simulation time: 00 hr 02 min 48 sec)
Heartbeat CPU 0 instructions: 32000210 cycles: 9276827 heartbeat IPC: 3.584 cumulative IPC: 3.449 (Simulation time: 00 hr 02 min 50 sec)
Heartbeat CPU 0 instructions: 32500210 cycles: 9416530 heartbeat IPC: 3.579 cumulative IPC: 3.451 (Simulation time: 00 hr 02 min 53 sec)
Heartbeat CPU 0 instructions: 33000214 cycles: 9558254 heartbeat IPC: 3.528 cumulative IPC: 3.453 (Simulation time: 00 hr 02 min 56 sec)
Heartbeat CPU 0 instructions: 33500214 cycles: 9699395 heartbeat IPC: 3.543 cumulative IPC: 3.454 (Simulation time: 00 hr 02 min 58 sec)
Heartbeat CPU 0 instructions: 34000214 cycles: 9838577 heartbeat IPC: 3.592 cumulative IPC: 3.456 (Simulation time: 00 hr 03 min 01 sec)
Heartbeat CPU 0 instructions: 34500214 cycles: 9977238 heartbeat IPC: 3.606 cumulative IPC: 3.458 (Simulation time: 00 hr 03 min 03 sec)
Heartbeat CPU 0 instructions: 35000217 cycles: 10115106 heartbeat IPC: 3.627 cumulative IPC: 3.46 (Simulation time: 00 hr 03 min 06 sec)
Heartbeat CPU 0 instructions: 35500219 cycles: 10256359 heartbeat IPC: 3.54 cumulative IPC: 3.461 (Simulation time: 00 hr 03 min 08 sec)
Heartbeat CPU 0 instructions: 36000222 cycles: 10398212 heartbeat IPC: 3.525 cumulative IPC: 3.462 (Simulation time: 00 hr 03 min 11 sec)
Heartbeat CPU 0 instructions: 36500222 cycles: 10539279 heartbeat IPC: 3.544 cumulative IPC: 3.463 (Simulation time: 00 hr 03 min 14 sec)
Heartbeat CPU 0 instructions: 37000223 cycles: 10677085 heartbeat IPC: 3.628 cumulative IPC: 3.465 (Simulation time: 00 hr 03 min 16 sec)
Heartbeat CPU 0 instructions: 37500225 cycles: 10815471 heartbeat IPC: 3.613 cumulative IPC: 3.467 (Simulation time: 00 hr 03 min 19 sec)
Heartbeat CPU 0 instructions: 38000229 cycles: 10955278 heartbeat IPC: 3.576 cumulative IPC: 3.469 (Simulation time: 00 hr 03 min 21 sec)
Heartbeat CPU 0 instructions: 38500234 cycles: 11094926 heartbeat IPC: 3.58 cumulative IPC: 3.47 (Simulation time: 00 hr 03 min 24 sec)
Heartbeat CPU 0 instructions: 39000240 cycles: 11233758 heartbeat IPC: 3.602 cumulative IPC: 3.472 (Simulation time: 00 hr 03 min 26 sec)
Heartbeat CPU 0 instructions: 39500240 cycles: 11371706 heartbeat IPC: 3.625 cumulative IPC: 3.474 (Simulation time: 00 hr 03 min 29 sec)
Heartbeat CPU 0 instructions: 40000245 cycles: 11509701 heartbeat IPC: 3.623 cumulative IPC: 3.475 (Simulation time: 00 hr 03 min 31 sec)
Heartbeat CPU 0 instructions: 40500252 cycles: 11649499 heartbeat IPC: 3.577 cumulative IPC: 3.477 (Simulation time: 00 hr 03 min 34 sec)
Heartbeat CPU 0 instructions: 41000252 cycles: 11785809 heartbeat IPC: 3.668 cumulative IPC: 3.479 (Simulation time: 00 hr 03 min 37 sec)
Heartbeat CPU 0 instructions: 41500258 cycles: 11922390 heartbeat IPC: 3.661 cumulative IPC: 3.481 (Simulation time: 00 hr 03 min 39 sec)
Heartbeat CPU 0 instructions: 42000265 cycles: 12062119 heartbeat IPC: 3.578 cumulative IPC: 3.482 (Simulation time: 00 hr 03 min 42 sec)
Heartbeat CPU 0 instructions: 42500266 cycles: 12198750 heartbeat IPC: 3.659 cumulative IPC: 3.484 (Simulation time: 00 hr 03 min 44 sec)
Heartbeat CPU 0 instructions: 43000269 cycles: 12337428 heartbeat IPC: 3.605 cumulative IPC: 3.485 (Simulation time: 00 hr 03 min 47 sec)
Heartbeat CPU 0 instructions: 43500271 cycles: 12473293 heartbeat IPC: 3.68 cumulative IPC: 3.487 (Simulation time: 00 hr 03 min 49 sec)
Heartbeat CPU 0 instructions: 44000272 cycles: 12609851 heartbeat IPC: 3.661 cumulative IPC: 3.489 (Simulation time: 00 hr 03 min 52 sec)
Heartbeat CPU 0 instructions: 44500274 cycles: 12747249 heartbeat IPC: 3.639 cumulative IPC: 3.491 (Simulation time: 00 hr 03 min 54 sec)
Heartbeat CPU 0 instructions: 45000276 cycles: 12885081 heartbeat IPC: 3.628 cumulative IPC: 3.492 (Simulation time: 00 hr 03 min 57 sec)
Heartbeat CPU 0 instructions: 45500276 cycles: 13020009 heartbeat IPC: 3.706 cumulative IPC: 3.495 (Simulation time: 00 hr 03 min 59 sec)
Heartbeat CPU 0 instructions: 46000277 cycles: 13158314 heartbeat IPC: 3.615 cumulative IPC: 3.496 (Simulation time: 00 hr 04 min 02 sec)
Heartbeat CPU 0 instructions: 46500277 cycles: 13294650 heartbeat IPC: 3.667 cumulative IPC: 3.498 (Simulation time: 00 hr 04 min 04 sec)
Heartbeat CPU 0 instructions: 47000279 cycles: 13431764 heartbeat IPC: 3.647 cumulative IPC: 3.499 (Simulation time: 00 hr 04 min 07 sec)
Heartbeat CPU 0 instructions: 47500284 cycles: 13569269 heartbeat IPC: 3.636 cumulative IPC: 3.501 (Simulation time: 00 hr 04 min 09 sec)
Heartbeat CPU 0 instructions: 48000285 cycles: 13707050 heartbeat IPC: 3.629 cumulative IPC: 3.502 (Simulation time: 00 hr 04 min 12 sec)
Heartbeat CPU 0 instructions: 48500289 cycles: 13844567 heartbeat IPC: 3.636 cumulative IPC: 3.503 (Simulation time: 00 hr 04 min 14 sec)
Heartbeat CPU 0 instructions: 49000296 cycles: 13981128 heartbeat IPC: 3.661 cumulative IPC: 3.505 (Simulation time: 00 hr 04 min 17 sec)
Heartbeat CPU 0 instructions: 49500300 cycles: 14118550 heartbeat IPC: 3.638 cumulative IPC: 3.506 (Simulation time: 00 hr 04 min 19 sec)
Warmup halting CPU 0 at instruction 50000005 cycle 14253564 for remainder of phase
Warmup finished CPU 0 instructions: 50000005 cycles: 14253564 cumulative IPC: 3.508 (Simulation time: 00 hr 04 min 22 sec)
Warmup complete CPU 0 instructions: 50000005 cycles: 14253564 cumulative IPC: 3.508 (Simulation time: 00 hr 04 min 22 sec)
Heartbeat CPU 0 instructions: 50000301 cycles: 14253601 heartbeat IPC: 3.702 cumulative IPC: 8 (Simulation time: 00 hr 04 min 22 sec)
Heartbeat CPU 0 instructions: 50500305 cycles: 15294628 heartbeat IPC: 0.4803 cumulative IPC: 0.4806 (Simulation time: 00 hr 04 min 29 sec)
Heartbeat CPU 0 instructions: 51000307 cycles: 16318227 heartbeat IPC: 0.4885 cumulative IPC: 0.4845 (Simulation time: 00 hr 04 min 37 sec)
Heartbeat CPU 0 instructions: 51500309 cycles: 17372225 heartbeat IPC: 0.4744 cumulative IPC: 0.4811 (Simulation time: 00 hr 04 min 45 sec)
Heartbeat CPU 0 instructions: 52000309 cycles: 18390174 heartbeat IPC: 0.4912 cumulative IPC: 0.4836 (Simulation time: 00 hr 04 min 52 sec)
Heartbeat CPU 0 instructions: 52500309 cycles: 19422759 heartbeat IPC: 0.4842 cumulative IPC: 0.4837 (Simulation time: 00 hr 05 min 00 sec)
Heartbeat CPU 0 instructions: 53000312 cycles: 20447366 heartbeat IPC: 0.488 cumulative IPC: 0.4844 (Simulation time: 00 hr 05 min 07 sec)
Heartbeat CPU 0 instructions: 53500313 cycles: 21470635 heartbeat IPC: 0.4886 cumulative IPC: 0.485 (Simulation time: 00 hr 05 min 15 sec)
Heartbeat CPU 0 instructions: 54000320 cycles: 22501199 heartbeat IPC: 0.4852 cumulative IPC: 0.485 (Simulation time: 00 hr 05 min 22 sec)
Heartbeat CPU 0 instructions: 54500321 cycles: 23535290 heartbeat IPC: 0.4835 cumulative IPC: 0.4849 (Simulation time: 00 hr 05 min 30 sec)
Heartbeat CPU 0 instructions: 55000321 cycles: 24549783 heartbeat IPC: 0.4929 cumulative IPC: 0.4856 (Simulation time: 00 hr 05 min 37 sec)
Heartbeat CPU 0 instructions: 55500326 cycles: 25596032 heartbeat IPC: 0.4779 cumulative IPC: 0.4849 (Simulation time: 00 hr 05 min 45 sec)
Heartbeat CPU 0 instructions: 56000330 cycles: 26601202 heartbeat IPC: 0.4974 cumulative IPC: 0.4859 (Simulation time: 00 hr 05 min 52 sec)
Heartbeat CPU 0 instructions: 56500336 cycles: 27616249 heartbeat IPC: 0.4926 cumulative IPC: 0.4865 (Simulation time: 00 hr 05 min 59 sec)
Heartbeat CPU 0 instructions: 57000342 cycles: 28645378 heartbeat IPC: 0.4859 cumulative IPC: 0.4864 (Simulation time: 00 hr 06 min 07 sec)
Heartbeat CPU 0 instructions: 57500342 cycles: 29673509 heartbeat IPC: 0.4863 cumulative IPC: 0.4864 (Simulation time: 00 hr 06 min 14 sec)
Heartbeat CPU 0 instructions: 58000342 cycles: 30689223 heartbeat IPC: 0.4923 cumulative IPC: 0.4868 (Simulation time: 00 hr 06 min 22 sec)
Heartbeat CPU 0 instructions: 58500342 cycles: 31701744 heartbeat IPC: 0.4938 cumulative IPC: 0.4872 (Simulation time: 00 hr 06 min 29 sec)
Heartbeat CPU 0 instructions: 59000344 cycles: 32720481 heartbeat IPC: 0.4908 cumulative IPC: 0.4874 (Simulation time: 00 hr 06 min 37 sec)
Heartbeat CPU 0 instructions: 59500351 cycles: 33744203 heartbeat IPC: 0.4884 cumulative IPC: 0.4874 (Simulation time: 00 hr 06 min 44 sec)
Heartbeat CPU 0 instructions: 60000351 cycles: 34772057 heartbeat IPC: 0.4865 cumulative IPC: 0.4874 (Simulation time: 00 hr 06 min 52 sec)
Heartbeat CPU 0 instructions: 60500353 cycles: 35768499 heartbeat IPC: 0.5018 cumulative IPC: 0.488 (Simulation time: 00 hr 06 min 59 sec)
Heartbeat CPU 0 instructions: 61000353 cycles: 36805206 heartbeat IPC: 0.4823 cumulative IPC: 0.4878 (Simulation time: 00 hr 07 min 07 sec)
Heartbeat CPU 0 instructions: 61500354 cycles: 37853251 heartbeat IPC: 0.4771 cumulative IPC: 0.4873 (Simulation time: 00 hr 07 min 14 sec)
Heartbeat CPU 0 instructions: 62000356 cycles: 38853306 heartbeat IPC: 0.5 cumulative IPC: 0.4878 (Simulation time: 00 hr 07 min 21 sec)
Heartbeat CPU 0 instructions: 62500357 cycles: 39857270 heartbeat IPC: 0.498 cumulative IPC: 0.4882 (Simulation time: 00 hr 07 min 29 sec)
Heartbeat CPU 0 instructions: 63000357 cycles: 40837337 heartbeat IPC: 0.5102 cumulative IPC: 0.489 (Simulation time: 00 hr 07 min 36 sec)
Heartbeat CPU 0 instructions: 63500358 cycles: 41831556 heartbeat IPC: 0.5029 cumulative IPC: 0.4895 (Simulation time: 00 hr 07 min 43 sec)
Heartbeat CPU 0 instructions: 64000360 cycles: 42836217 heartbeat IPC: 0.4977 cumulative IPC: 0.4898 (Simulation time: 00 hr 07 min 51 sec)
Heartbeat CPU 0 instructions: 64500363 cycles: 43861248 heartbeat IPC: 0.4878 cumulative IPC: 0.4897 (Simulation time: 00 hr 07 min 58 sec)
Heartbeat CPU 0 instructions: 65000364 cycles: 44846707 heartbeat IPC: 0.5074 cumulative IPC: 0.4903 (Simulation time: 00 hr 08 min 06 sec)
Heartbeat CPU 0 instructions: 65500364 cycles: 45864537 heartbeat IPC: 0.4912 cumulative IPC: 0.4903 (Simulation time: 00 hr 08 min 13 sec)
Heartbeat CPU 0 instructions: 66000365 cycles: 46896347 heartbeat IPC: 0.4846 cumulative IPC: 0.4902 (Simulation time: 00 hr 08 min 21 sec)
Heartbeat CPU 0 instructions: 66500372 cycles: 47915988 heartbeat IPC: 0.4904 cumulative IPC: 0.4902 (Simulation time: 00 hr 08 min 28 sec)
Heartbeat CPU 0 instructions: 67000377 cycles: 48935946 heartbeat IPC: 0.4902 cumulative IPC: 0.4902 (Simulation time: 00 hr 08 min 35 sec)
Heartbeat CPU 0 instructions: 67500377 cycles: 49931419 heartbeat IPC: 0.5023 cumulative IPC: 0.4905 (Simulation time: 00 hr 08 min 43 sec)
Heartbeat CPU 0 instructions: 68000377 cycles: 50917878 heartbeat IPC: 0.5069 cumulative IPC: 0.491 (Simulation time: 00 hr 08 min 50 sec)
Heartbeat CPU 0 instructions: 68500377 cycles: 51922173 heartbeat IPC: 0.4979 cumulative IPC: 0.4911 (Simulation time: 00 hr 08 min 57 sec)
Heartbeat CPU 0 instructions: 69000378 cycles: 52955709 heartbeat IPC: 0.4838 cumulative IPC: 0.4909 (Simulation time: 00 hr 09 min 05 sec)
Heartbeat CPU 0 instructions: 69500381 cycles: 53949043 heartbeat IPC: 0.5034 cumulative IPC: 0.4912 (Simulation time: 00 hr 09 min 12 sec)
Heartbeat CPU 0 instructions: 70000385 cycles: 54961604 heartbeat IPC: 0.4938 cumulative IPC: 0.4913 (Simulation time: 00 hr 09 min 20 sec)
Heartbeat CPU 0 instructions: 70500387 cycles: 55970780 heartbeat IPC: 0.4955 cumulative IPC: 0.4914 (Simulation time: 00 hr 09 min 27 sec)
Heartbeat CPU 0 instructions: 71000391 cycles: 56989714 heartbeat IPC: 0.4907 cumulative IPC: 0.4914 (Simulation time: 00 hr 09 min 34 sec)
Heartbeat CPU 0 instructions: 71500391 cycles: 57995769 heartbeat IPC: 0.497 cumulative IPC: 0.4915 (Simulation time: 00 hr 09 min 42 sec)
Heartbeat CPU 0 instructions: 72000391 cycles: 58988015 heartbeat IPC: 0.5039 cumulative IPC: 0.4918 (Simulation time: 00 hr 09 min 49 sec)
Heartbeat CPU 0 instructions: 72500392 cycles: 60005769 heartbeat IPC: 0.4913 cumulative IPC: 0.4918 (Simulation time: 00 hr 09 min 57 sec)
Heartbeat CPU 0 instructions: 73000394 cycles: 61026354 heartbeat IPC: 0.4899 cumulative IPC: 0.4917 (Simulation time: 00 hr 10 min 04 sec)
Heartbeat CPU 0 instructions: 73500397 cycles: 62018205 heartbeat IPC: 0.5041 cumulative IPC: 0.492 (Simulation time: 00 hr 10 min 11 sec)
Heartbeat CPU 0 instructions: 74000397 cycles: 62993432 heartbeat IPC: 0.5127 cumulative IPC: 0.4924 (Simulation time: 00 hr 10 min 19 sec)
Heartbeat CPU 0 instructions: 74500398 cycles: 64006026 heartbeat IPC: 0.4938 cumulative IPC: 0.4924 (Simulation time: 00 hr 10 min 26 sec)
Heartbeat CPU 0 instructions: 75000399 cycles: 64986386 heartbeat IPC: 0.51 cumulative IPC: 0.4928 (Simulation time: 00 hr 10 min 33 sec)
Heartbeat CPU 0 instructions: 75500402 cycles: 66006614 heartbeat IPC: 0.4901 cumulative IPC: 0.4927 (Simulation time: 00 hr 10 min 41 sec)
Heartbeat CPU 0 instructions: 76000405 cycles: 67017289 heartbeat IPC: 0.4947 cumulative IPC: 0.4928 (Simulation time: 00 hr 10 min 48 sec)
Heartbeat CPU 0 instructions: 76500407 cycles: 68016940 heartbeat IPC: 0.5002 cumulative IPC: 0.4929 (Simulation time: 00 hr 10 min 55 sec)
Heartbeat CPU 0 instructions: 77000407 cycles: 69018425 heartbeat IPC: 0.4993 cumulative IPC: 0.493 (Simulation time: 00 hr 11 min 03 sec)
Heartbeat CPU 0 instructions: 77500410 cycles: 70027055 heartbeat IPC: 0.4957 cumulative IPC: 0.4931 (Simulation time: 00 hr 11 min 10 sec)
Heartbeat CPU 0 instructions: 78000412 cycles: 71044199 heartbeat IPC: 0.4916 cumulative IPC: 0.493 (Simulation time: 00 hr 11 min 18 sec)
Heartbeat CPU 0 instructions: 78500413 cycles: 72054661 heartbeat IPC: 0.4948 cumulative IPC: 0.4931 (Simulation time: 00 hr 11 min 25 sec)
Heartbeat CPU 0 instructions: 79000416 cycles: 73054600 heartbeat IPC: 0.5 cumulative IPC: 0.4932 (Simulation time: 00 hr 11 min 32 sec)
Heartbeat CPU 0 instructions: 79500417 cycles: 74078876 heartbeat IPC: 0.4882 cumulative IPC: 0.4931 (Simulation time: 00 hr 11 min 40 sec)
Heartbeat CPU 0 instructions: 80000417 cycles: 75047024 heartbeat IPC: 0.5164 cumulative IPC: 0.4935 (Simulation time: 00 hr 11 min 47 sec)
Heartbeat CPU 0 instructions: 80500422 cycles: 76048020 heartbeat IPC: 0.4995 cumulative IPC: 0.4936 (Simulation time: 00 hr 11 min 54 sec)
Heartbeat CPU 0 instructions: 81000424 cycles: 77071284 heartbeat IPC: 0.4886 cumulative IPC: 0.4935 (Simulation time: 00 hr 12 min 02 sec)
Heartbeat CPU 0 instructions: 81500427 cycles: 78071427 heartbeat IPC: 0.4999 cumulative IPC: 0.4936 (Simulation time: 00 hr 12 min 09 sec)
Heartbeat CPU 0 instructions: 82000431 cycles: 79083727 heartbeat IPC: 0.4939 cumulative IPC: 0.4936 (Simulation time: 00 hr 12 min 17 sec)
Heartbeat CPU 0 instructions: 82500431 cycles: 80070994 heartbeat IPC: 0.5064 cumulative IPC: 0.4938 (Simulation time: 00 hr 12 min 24 sec)
Heartbeat CPU 0 instructions: 83000432 cycles: 81127191 heartbeat IPC: 0.4734 cumulative IPC: 0.4935 (Simulation time: 00 hr 12 min 32 sec)
Heartbeat CPU 0 instructions: 83500435 cycles: 82159685 heartbeat IPC: 0.4843 cumulative IPC: 0.4933 (Simulation time: 00 hr 12 min 39 sec)
Heartbeat CPU 0 instructions: 84000437 cycles: 83173456 heartbeat IPC: 0.4932 cumulative IPC: 0.4933 (Simulation time: 00 hr 12 min 47 sec)
Heartbeat CPU 0 instructions: 84500438 cycles: 84202230 heartbeat IPC: 0.486 cumulative IPC: 0.4932 (Simulation time: 00 hr 12 min 56 sec)
Heartbeat CPU 0 instructions: 85000441 cycles: 85201143 heartbeat IPC: 0.5005 cumulative IPC: 0.4933 (Simulation time: 00 hr 13 min 03 sec)
Heartbeat CPU 0 instructions: 85500441 cycles: 86217606 heartbeat IPC: 0.4919 cumulative IPC: 0.4933 (Simulation time: 00 hr 13 min 10 sec)
Heartbeat CPU 0 instructions: 86000441 cycles: 87220123 heartbeat IPC: 0.4987 cumulative IPC: 0.4934 (Simulation time: 00 hr 13 min 18 sec)
Heartbeat CPU 0 instructions: 86500448 cycles: 88210138 heartbeat IPC: 0.505 cumulative IPC: 0.4935 (Simulation time: 00 hr 13 min 25 sec)
Heartbeat CPU 0 instructions: 87000454 cycles: 89193058 heartbeat IPC: 0.5087 cumulative IPC: 0.4937 (Simulation time: 00 hr 13 min 32 sec)
Heartbeat CPU 0 instructions: 87500454 cycles: 90185578 heartbeat IPC: 0.5038 cumulative IPC: 0.4939 (Simulation time: 00 hr 13 min 39 sec)
Heartbeat CPU 0 instructions: 88000457 cycles: 91201718 heartbeat IPC: 0.4921 cumulative IPC: 0.4938 (Simulation time: 00 hr 13 min 47 sec)
Heartbeat CPU 0 instructions: 88500458 cycles: 92216960 heartbeat IPC: 0.4925 cumulative IPC: 0.4938 (Simulation time: 00 hr 13 min 54 sec)
Heartbeat CPU 0 instructions: 89000461 cycles: 93214206 heartbeat IPC: 0.5014 cumulative IPC: 0.4939 (Simulation time: 00 hr 14 min 01 sec)
Heartbeat CPU 0 instructions: 89500461 cycles: 94208995 heartbeat IPC: 0.5026 cumulative IPC: 0.494 (Simulation time: 00 hr 14 min 08 sec)
Heartbeat CPU 0 instructions: 90000464 cycles: 95188486 heartbeat IPC: 0.5105 cumulative IPC: 0.4942 (Simulation time: 00 hr 14 min 15 sec)
Heartbeat CPU 0 instructions: 90500469 cycles: 96176180 heartbeat IPC: 0.5062 cumulative IPC: 0.4944 (Simulation time: 00 hr 14 min 23 sec)
Heartbeat CPU 0 instructions: 91000470 cycles: 97164363 heartbeat IPC: 0.506 cumulative IPC: 0.4945 (Simulation time: 00 hr 14 min 30 sec)
Heartbeat CPU 0 instructions: 91500471 cycles: 98159051 heartbeat IPC: 0.5027 cumulative IPC: 0.4946 (Simulation time: 00 hr 14 min 37 sec)
Heartbeat CPU 0 instructions: 92000475 cycles: 99183609 heartbeat IPC: 0.488 cumulative IPC: 0.4945 (Simulation time: 00 hr 14 min 44 sec)
Heartbeat CPU 0 instructions: 92500477 cycles: 100157338 heartbeat IPC: 0.5135 cumulative IPC: 0.4947 (Simulation time: 00 hr 14 min 52 sec)
Heartbeat CPU 0 instructions: 93000479 cycles: 101165640 heartbeat IPC: 0.4959 cumulative IPC: 0.4948 (Simulation time: 00 hr 14 min 59 sec)
Heartbeat CPU 0 instructions: 93500480 cycles: 102163761 heartbeat IPC: 0.5009 cumulative IPC: 0.4948 (Simulation time: 00 hr 15 min 06 sec)
Heartbeat CPU 0 instructions: 94000487 cycles: 103160881 heartbeat IPC: 0.5015 cumulative IPC: 0.4949 (Simulation time: 00 hr 15 min 13 sec)
Heartbeat CPU 0 instructions: 94500491 cycles: 104142783 heartbeat IPC: 0.5092 cumulative IPC: 0.4951 (Simulation time: 00 hr 15 min 21 sec)
Heartbeat CPU 0 instructions: 95000496 cycles: 105140175 heartbeat IPC: 0.5013 cumulative IPC: 0.4951 (Simulation time: 00 hr 15 min 28 sec)
Heartbeat CPU 0 instructions: 95500496 cycles: 106126957 heartbeat IPC: 0.5067 cumulative IPC: 0.4953 (Simulation time: 00 hr 15 min 35 sec)
Heartbeat CPU 0 instructions: 96000496 cycles: 107133131 heartbeat IPC: 0.4969 cumulative IPC: 0.4953 (Simulation time: 00 hr 15 min 42 sec)
Heartbeat CPU 0 instructions: 96500498 cycles: 108131136 heartbeat IPC: 0.501 cumulative IPC: 0.4953 (Simulation time: 00 hr 15 min 49 sec)
Heartbeat CPU 0 instructions: 97000499 cycles: 109114970 heartbeat IPC: 0.5082 cumulative IPC: 0.4955 (Simulation time: 00 hr 15 min 57 sec)
Heartbeat CPU 0 instructions: 97500500 cycles: 110136164 heartbeat IPC: 0.4896 cumulative IPC: 0.4954 (Simulation time: 00 hr 16 min 04 sec)
Heartbeat CPU 0 instructions: 98000503 cycles: 111114163 heartbeat IPC: 0.5113 cumulative IPC: 0.4956 (Simulation time: 00 hr 16 min 11 sec)
Heartbeat CPU 0 instructions: 98500504 cycles: 112112944 heartbeat IPC: 0.5006 cumulative IPC: 0.4956 (Simulation time: 00 hr 16 min 18 sec)
Heartbeat CPU 0 instructions: 99000505 cycles: 113095170 heartbeat IPC: 0.509 cumulative IPC: 0.4957 (Simulation time: 00 hr 16 min 26 sec)
Heartbeat CPU 0 instructions: 99500506 cycles: 114107966 heartbeat IPC: 0.4937 cumulative IPC: 0.4957 (Simulation time: 00 hr 16 min 33 sec)
Heartbeat CPU 0 instructions: 100000506 cycles: 115108014 heartbeat IPC: 0.5 cumulative IPC: 0.4958 (Simulation time: 00 hr 16 min 40 sec)
Heartbeat CPU 0 instructions: 100500506 cycles: 116106087 heartbeat IPC: 0.501 cumulative IPC: 0.4958 (Simulation time: 00 hr 16 min 47 sec)
Heartbeat CPU 0 instructions: 101000506 cycles: 117105184 heartbeat IPC: 0.5005 cumulative IPC: 0.4959 (Simulation time: 00 hr 16 min 55 sec)
Heartbeat CPU 0 instructions: 101500507 cycles: 118103088 heartbeat IPC: 0.5011 cumulative IPC: 0.4959 (Simulation time: 00 hr 17 min 02 sec)
Heartbeat CPU 0 instructions: 102000508 cycles: 119098204 heartbeat IPC: 0.5025 cumulative IPC: 0.496 (Simulation time: 00 hr 17 min 09 sec)
Heartbeat CPU 0 instructions: 102500508 cycles: 120083360 heartbeat IPC: 0.5075 cumulative IPC: 0.4961 (Simulation time: 00 hr 17 min 17 sec)
Heartbeat CPU 0 instructions: 103000509 cycles: 121094662 heartbeat IPC: 0.4944 cumulative IPC: 0.4961 (Simulation time: 00 hr 17 min 24 sec)
Heartbeat CPU 0 instructions: 103500509 cycles: 122078212 heartbeat IPC: 0.5084 cumulative IPC: 0.4962 (Simulation time: 00 hr 17 min 31 sec)
Heartbeat CPU 0 instructions: 104000510 cycles: 123072509 heartbeat IPC: 0.5029 cumulative IPC: 0.4962 (Simulation time: 00 hr 17 min 39 sec)
Heartbeat CPU 0 instructions: 104500510 cycles: 124064121 heartbeat IPC: 0.5042 cumulative IPC: 0.4963 (Simulation time: 00 hr 17 min 46 sec)
Heartbeat CPU 0 instructions: 105000513 cycles: 125054001 heartbeat IPC: 0.5051 cumulative IPC: 0.4964 (Simulation time: 00 hr 17 min 53 sec)
Heartbeat CPU 0 instructions: 105500513 cycles: 126061708 heartbeat IPC: 0.4962 cumulative IPC: 0.4964 (Simulation time: 00 hr 18 min 01 sec)
Heartbeat CPU 0 instructions: 106000520 cycles: 127044282 heartbeat IPC: 0.5089 cumulative IPC: 0.4965 (Simulation time: 00 hr 18 min 08 sec)
Heartbeat CPU 0 instructions: 106500527 cycles: 128026851 heartbeat IPC: 0.5089 cumulative IPC: 0.4966 (Simulation time: 00 hr 18 min 15 sec)
Heartbeat CPU 0 instructions: 107000531 cycles: 128986927 heartbeat IPC: 0.5208 cumulative IPC: 0.4968 (Simulation time: 00 hr 18 min 22 sec)
Heartbeat CPU 0 instructions: 107500533 cycles: 129958180 heartbeat IPC: 0.5148 cumulative IPC: 0.497 (Simulation time: 00 hr 18 min 29 sec)
Heartbeat CPU 0 instructions: 108000534 cycles: 130934696 heartbeat IPC: 0.512 cumulative IPC: 0.4971 (Simulation time: 00 hr 18 min 37 sec)
Heartbeat CPU 0 instructions: 108500536 cycles: 131928489 heartbeat IPC: 0.5031 cumulative IPC: 0.4971 (Simulation time: 00 hr 18 min 44 sec)
Heartbeat CPU 0 instructions: 109000541 cycles: 132924612 heartbeat IPC: 0.502 cumulative IPC: 0.4972 (Simulation time: 00 hr 18 min 52 sec)
Heartbeat CPU 0 instructions: 109500547 cycles: 133917839 heartbeat IPC: 0.5034 cumulative IPC: 0.4972 (Simulation time: 00 hr 18 min 59 sec)
Heartbeat CPU 0 instructions: 110000547 cycles: 134914629 heartbeat IPC: 0.5016 cumulative IPC: 0.4973 (Simulation time: 00 hr 19 min 06 sec)
Heartbeat CPU 0 instructions: 110500548 cycles: 135916094 heartbeat IPC: 0.4993 cumulative IPC: 0.4973 (Simulation time: 00 hr 19 min 13 sec)
Heartbeat CPU 0 instructions: 111000548 cycles: 136884051 heartbeat IPC: 0.5166 cumulative IPC: 0.4974 (Simulation time: 00 hr 19 min 20 sec)
Heartbeat CPU 0 instructions: 111500548 cycles: 137879157 heartbeat IPC: 0.5025 cumulative IPC: 0.4975 (Simulation time: 00 hr 19 min 28 sec)
Heartbeat CPU 0 instructions: 112000550 cycles: 138860859 heartbeat IPC: 0.5093 cumulative IPC: 0.4976 (Simulation time: 00 hr 19 min 35 sec)
Heartbeat CPU 0 instructions: 112500553 cycles: 139819388 heartbeat IPC: 0.5216 cumulative IPC: 0.4978 (Simulation time: 00 hr 19 min 42 sec)
Heartbeat CPU 0 instructions: 113000558 cycles: 140797336 heartbeat IPC: 0.5113 cumulative IPC: 0.4979 (Simulation time: 00 hr 19 min 49 sec)
Heartbeat CPU 0 instructions: 113500558 cycles: 141808758 heartbeat IPC: 0.4944 cumulative IPC: 0.4978 (Simulation time: 00 hr 19 min 56 sec)
Heartbeat CPU 0 instructions: 114000558 cycles: 142801596 heartbeat IPC: 0.5036 cumulative IPC: 0.4979 (Simulation time: 00 hr 20 min 03 sec)
Heartbeat CPU 0 instructions: 114500559 cycles: 143786311 heartbeat IPC: 0.5078 cumulative IPC: 0.4979 (Simulation time: 00 hr 20 min 11 sec)
Heartbeat CPU 0 instructions: 115000559 cycles: 144762159 heartbeat IPC: 0.5124 cumulative IPC: 0.4981 (Simulation time: 00 hr 20 min 18 sec)
Heartbeat CPU 0 instructions: 115500564 cycles: 145767789 heartbeat IPC: 0.4972 cumulative IPC: 0.498 (Simulation time: 00 hr 20 min 25 sec)
Heartbeat CPU 0 instructions: 116000565 cycles: 146774349 heartbeat IPC: 0.4967 cumulative IPC: 0.498 (Simulation time: 00 hr 20 min 32 sec)
Heartbeat CPU 0 instructions: 116500566 cycles: 147761929 heartbeat IPC: 0.5063 cumulative IPC: 0.4981 (Simulation time: 00 hr 20 min 39 sec)
Heartbeat CPU 0 instructions: 117000566 cycles: 148758478 heartbeat IPC: 0.5017 cumulative IPC: 0.4981 (Simulation time: 00 hr 20 min 47 sec)
Heartbeat CPU 0 instructions: 117500573 cycles: 149754240 heartbeat IPC: 0.5021 cumulative IPC: 0.4982 (Simulation time: 00 hr 20 min 54 sec)
Heartbeat CPU 0 instructions: 118000580 cycles: 150741378 heartbeat IPC: 0.5065 cumulative IPC: 0.4982 (Simulation time: 00 hr 21 min 01 sec)
Heartbeat CPU 0 instructions: 118500583 cycles: 151736511 heartbeat IPC: 0.5024 cumulative IPC: 0.4982 (Simulation time: 00 hr 21 min 08 sec)
Heartbeat CPU 0 instructions: 119000584 cycles: 152717716 heartbeat IPC: 0.5096 cumulative IPC: 0.4983 (Simulation time: 00 hr 21 min 15 sec)
Heartbeat CPU 0 instructions: 119500584 cycles: 153696065 heartbeat IPC: 0.5111 cumulative IPC: 0.4984 (Simulation time: 00 hr 21 min 22 sec)
Heartbeat CPU 0 instructions: 120000584 cycles: 154684256 heartbeat IPC: 0.506 cumulative IPC: 0.4985 (Simulation time: 00 hr 21 min 30 sec)
Heartbeat CPU 0 instructions: 120500585 cycles: 155666991 heartbeat IPC: 0.5088 cumulative IPC: 0.4985 (Simulation time: 00 hr 21 min 37 sec)
Heartbeat CPU 0 instructions: 121000585 cycles: 156651041 heartbeat IPC: 0.5081 cumulative IPC: 0.4986 (Simulation time: 00 hr 21 min 44 sec)
Heartbeat CPU 0 instructions: 121500591 cycles: 157639583 heartbeat IPC: 0.5058 cumulative IPC: 0.4987 (Simulation time: 00 hr 21 min 51 sec)
Heartbeat CPU 0 instructions: 122000591 cycles: 158578440 heartbeat IPC: 0.5326 cumulative IPC: 0.4989 (Simulation time: 00 hr 21 min 58 sec)
Heartbeat CPU 0 instructions: 122500593 cycles: 159569752 heartbeat IPC: 0.5044 cumulative IPC: 0.4989 (Simulation time: 00 hr 22 min 05 sec)
Heartbeat CPU 0 instructions: 123000593 cycles: 160560475 heartbeat IPC: 0.5047 cumulative IPC: 0.499 (Simulation time: 00 hr 22 min 12 sec)
Heartbeat CPU 0 instructions: 123500593 cycles: 161536475 heartbeat IPC: 0.5123 cumulative IPC: 0.499 (Simulation time: 00 hr 22 min 19 sec)
Heartbeat CPU 0 instructions: 124000594 cycles: 162523342 heartbeat IPC: 0.5067 cumulative IPC: 0.4991 (Simulation time: 00 hr 22 min 26 sec)
Heartbeat CPU 0 instructions: 124500594 cycles: 163484548 heartbeat IPC: 0.5202 cumulative IPC: 0.4992 (Simulation time: 00 hr 22 min 33 sec)
Heartbeat CPU 0 instructions: 125000601 cycles: 164467288 heartbeat IPC: 0.5088 cumulative IPC: 0.4993 (Simulation time: 00 hr 22 min 40 sec)
Heartbeat CPU 0 instructions: 125500604 cycles: 165440306 heartbeat IPC: 0.5139 cumulative IPC: 0.4994 (Simulation time: 00 hr 22 min 47 sec)
Heartbeat CPU 0 instructions: 126000604 cycles: 166393577 heartbeat IPC: 0.5245 cumulative IPC: 0.4995 (Simulation time: 00 hr 22 min 54 sec)
Heartbeat CPU 0 instructions: 126500606 cycles: 167361301 heartbeat IPC: 0.5167 cumulative IPC: 0.4997 (Simulation time: 00 hr 23 min 01 sec)
Heartbeat CPU 0 instructions: 127000607 cycles: 168352117 heartbeat IPC: 0.5046 cumulative IPC: 0.4997 (Simulation time: 00 hr 23 min 08 sec)
Heartbeat CPU 0 instructions: 127500609 cycles: 169337192 heartbeat IPC: 0.5076 cumulative IPC: 0.4997 (Simulation time: 00 hr 23 min 15 sec)
Heartbeat CPU 0 instructions: 128000613 cycles: 170313536 heartbeat IPC: 0.5121 cumulative IPC: 0.4998 (Simulation time: 00 hr 23 min 23 sec)
Heartbeat CPU 0 instructions: 128500613 cycles: 171278626 heartbeat IPC: 0.5181 cumulative IPC: 0.4999 (Simulation time: 00 hr 23 min 30 sec)
Heartbeat CPU 0 instructions: 129000617 cycles: 172264125 heartbeat IPC: 0.5074 cumulative IPC: 0.5 (Simulation time: 00 hr 23 min 37 sec)
Heartbeat CPU 0 instructions: 129500618 cycles: 173233818 heartbeat IPC: 0.5156 cumulative IPC: 0.5001 (Simulation time: 00 hr 23 min 44 sec)
Heartbeat CPU 0 instructions: 130000621 cycles: 174228942 heartbeat IPC: 0.5025 cumulative IPC: 0.5001 (Simulation time: 00 hr 23 min 51 sec)
Heartbeat CPU 0 instructions: 130500626 cycles: 175236472 heartbeat IPC: 0.4963 cumulative IPC: 0.5001 (Simulation time: 00 hr 23 min 58 sec)
Heartbeat CPU 0 instructions: 131000626 cycles: 176246648 heartbeat IPC: 0.495 cumulative IPC: 0.5 (Simulation time: 00 hr 24 min 05 sec)
Heartbeat CPU 0 instructions: 131500633 cycles: 177227063 heartbeat IPC: 0.51 cumulative IPC: 0.5001 (Simulation time: 00 hr 24 min 12 sec)
Heartbeat CPU 0 instructions: 132000634 cycles: 178218682 heartbeat IPC: 0.5042 cumulative IPC: 0.5001 (Simulation time: 00 hr 24 min 20 sec)
Heartbeat CPU 0 instructions: 132500634 cycles: 179157594 heartbeat IPC: 0.5325 cumulative IPC: 0.5003 (Simulation time: 00 hr 24 min 26 sec)
Heartbeat CPU 0 instructions: 133000636 cycles: 180123408 heartbeat IPC: 0.5177 cumulative IPC: 0.5004 (Simulation time: 00 hr 24 min 33 sec)
Heartbeat CPU 0 instructions: 133500640 cycles: 181107632 heartbeat IPC: 0.508 cumulative IPC: 0.5004 (Simulation time: 00 hr 24 min 40 sec)
Heartbeat CPU 0 instructions: 134000646 cycles: 182080576 heartbeat IPC: 0.5139 cumulative IPC: 0.5005 (Simulation time: 00 hr 24 min 47 sec)
Heartbeat CPU 0 instructions: 134500647 cycles: 183049717 heartbeat IPC: 0.5159 cumulative IPC: 0.5006 (Simulation time: 00 hr 24 min 54 sec)
Heartbeat CPU 0 instructions: 135000649 cycles: 184031768 heartbeat IPC: 0.5091 cumulative IPC: 0.5007 (Simulation time: 00 hr 25 min 01 sec)
Heartbeat CPU 0 instructions: 135500649 cycles: 185013971 heartbeat IPC: 0.5091 cumulative IPC: 0.5007 (Simulation time: 00 hr 25 min 08 sec)
Heartbeat CPU 0 instructions: 136000651 cycles: 185967689 heartbeat IPC: 0.5243 cumulative IPC: 0.5008 (Simulation time: 00 hr 25 min 15 sec)
Heartbeat CPU 0 instructions: 136500652 cycles: 186938496 heartbeat IPC: 0.515 cumulative IPC: 0.5009 (Simulation time: 00 hr 25 min 22 sec)
Heartbeat CPU 0 instructions: 137000657 cycles: 187912245 heartbeat IPC: 0.5135 cumulative IPC: 0.501 (Simulation time: 00 hr 25 min 29 sec)
Heartbeat CPU 0 instructions: 137500658 cycles: 188878024 heartbeat IPC: 0.5177 cumulative IPC: 0.5011 (Simulation time: 00 hr 25 min 36 sec)
Heartbeat CPU 0 instructions: 138000658 cycles: 189834681 heartbeat IPC: 0.5227 cumulative IPC: 0.5012 (Simulation time: 00 hr 25 min 43 sec)
Heartbeat CPU 0 instructions: 138500662 cycles: 190793745 heartbeat IPC: 0.5213 cumulative IPC: 0.5013 (Simulation time: 00 hr 25 min 49 sec)
Heartbeat CPU 0 instructions: 139000663 cycles: 191751381 heartbeat IPC: 0.5221 cumulative IPC: 0.5014 (Simulation time: 00 hr 25 min 56 sec)
Heartbeat CPU 0 instructions: 139500667 cycles: 192735067 heartbeat IPC: 0.5083 cumulative IPC: 0.5015 (Simulation time: 00 hr 26 min 03 sec)
Heartbeat CPU 0 instructions: 140000670 cycles: 193706538 heartbeat IPC: 0.5147 cumulative IPC: 0.5015 (Simulation time: 00 hr 26 min 10 sec)
Heartbeat CPU 0 instructions: 140500676 cycles: 194685720 heartbeat IPC: 0.5106 cumulative IPC: 0.5016 (Simulation time: 00 hr 26 min 17 sec)
Heartbeat CPU 0 instructions: 141000676 cycles: 195652196 heartbeat IPC: 0.5173 cumulative IPC: 0.5017 (Simulation time: 00 hr 26 min 24 sec)
Heartbeat CPU 0 instructions: 141500679 cycles: 196610215 heartbeat IPC: 0.5219 cumulative IPC: 0.5018 (Simulation time: 00 hr 26 min 30 sec)
Heartbeat CPU 0 instructions: 142000685 cycles: 197575311 heartbeat IPC: 0.5181 cumulative IPC: 0.5019 (Simulation time: 00 hr 26 min 37 sec)
Heartbeat CPU 0 instructions: 142500687 cycles: 198548210 heartbeat IPC: 0.5139 cumulative IPC: 0.5019 (Simulation time: 00 hr 26 min 44 sec)
Heartbeat CPU 0 instructions: 143000688 cycles: 199513346 heartbeat IPC: 0.5181 cumulative IPC: 0.502 (Simulation time: 00 hr 26 min 51 sec)
Heartbeat CPU 0 instructions: 143500688 cycles: 200483426 heartbeat IPC: 0.5154 cumulative IPC: 0.5021 (Simulation time: 00 hr 26 min 58 sec)
Heartbeat CPU 0 instructions: 144000693 cycles: 201453791 heartbeat IPC: 0.5153 cumulative IPC: 0.5021 (Simulation time: 00 hr 27 min 04 sec)
Heartbeat CPU 0 instructions: 144500697 cycles: 202415623 heartbeat IPC: 0.5198 cumulative IPC: 0.5022 (Simulation time: 00 hr 27 min 11 sec)
Heartbeat CPU 0 instructions: 145000702 cycles: 203371585 heartbeat IPC: 0.523 cumulative IPC: 0.5023 (Simulation time: 00 hr 27 min 18 sec)
Heartbeat CPU 0 instructions: 145500703 cycles: 204341184 heartbeat IPC: 0.5157 cumulative IPC: 0.5024 (Simulation time: 00 hr 27 min 25 sec)
Heartbeat CPU 0 instructions: 146000704 cycles: 205304573 heartbeat IPC: 0.519 cumulative IPC: 0.5025 (Simulation time: 00 hr 27 min 31 sec)
Heartbeat CPU 0 instructions: 146500708 cycles: 206276612 heartbeat IPC: 0.5144 cumulative IPC: 0.5025 (Simulation time: 00 hr 27 min 38 sec)
Heartbeat CPU 0 instructions: 147000715 cycles: 207226288 heartbeat IPC: 0.5265 cumulative IPC: 0.5027 (Simulation time: 00 hr 27 min 45 sec)
Heartbeat CPU 0 instructions: 147500721 cycles: 208163592 heartbeat IPC: 0.5335 cumulative IPC: 0.5028 (Simulation time: 00 hr 27 min 51 sec)
Heartbeat CPU 0 instructions: 148000728 cycles: 209154675 heartbeat IPC: 0.5045 cumulative IPC: 0.5028 (Simulation time: 00 hr 27 min 58 sec)
Heartbeat CPU 0 instructions: 148500733 cycles: 210112051 heartbeat IPC: 0.5223 cumulative IPC: 0.5029 (Simulation time: 00 hr 28 min 05 sec)
Heartbeat CPU 0 instructions: 149000738 cycles: 211097843 heartbeat IPC: 0.5072 cumulative IPC: 0.5029 (Simulation time: 00 hr 28 min 11 sec)
Heartbeat CPU 0 instructions: 149500740 cycles: 212067014 heartbeat IPC: 0.5159 cumulative IPC: 0.503 (Simulation time: 00 hr 28 min 18 sec)
Heartbeat CPU 0 instructions: 150000740 cycles: 213021084 heartbeat IPC: 0.5241 cumulative IPC: 0.5031 (Simulation time: 00 hr 28 min 25 sec)
Heartbeat CPU 0 instructions: 150500741 cycles: 213953129 heartbeat IPC: 0.5365 cumulative IPC: 0.5033 (Simulation time: 00 hr 28 min 31 sec)
Heartbeat CPU 0 instructions: 151000743 cycles: 214905022 heartbeat IPC: 0.5253 cumulative IPC: 0.5034 (Simulation time: 00 hr 28 min 37 sec)
Heartbeat CPU 0 instructions: 151500743 cycles: 215873403 heartbeat IPC: 0.5163 cumulative IPC: 0.5034 (Simulation time: 00 hr 28 min 44 sec)
Heartbeat CPU 0 instructions: 152000745 cycles: 216852346 heartbeat IPC: 0.5108 cumulative IPC: 0.5035 (Simulation time: 00 hr 28 min 51 sec)
Heartbeat CPU 0 instructions: 152500746 cycles: 217796264 heartbeat IPC: 0.5297 cumulative IPC: 0.5036 (Simulation time: 00 hr 28 min 57 sec)
Heartbeat CPU 0 instructions: 153000746 cycles: 218770058 heartbeat IPC: 0.5135 cumulative IPC: 0.5036 (Simulation time: 00 hr 29 min 04 sec)
Heartbeat CPU 0 instructions: 153500747 cycles: 219737170 heartbeat IPC: 0.517 cumulative IPC: 0.5037 (Simulation time: 00 hr 29 min 10 sec)
Heartbeat CPU 0 instructions: 154000747 cycles: 220698838 heartbeat IPC: 0.5199 cumulative IPC: 0.5038 (Simulation time: 00 hr 29 min 17 sec)
Heartbeat CPU 0 instructions: 154500753 cycles: 221671196 heartbeat IPC: 0.5142 cumulative IPC: 0.5038 (Simulation time: 00 hr 29 min 23 sec)
Heartbeat CPU 0 instructions: 155000756 cycles: 222598044 heartbeat IPC: 0.5395 cumulative IPC: 0.504 (Simulation time: 00 hr 29 min 30 sec)
Heartbeat CPU 0 instructions: 155500758 cycles: 223553381 heartbeat IPC: 0.5234 cumulative IPC: 0.5041 (Simulation time: 00 hr 29 min 36 sec)
Heartbeat CPU 0 instructions: 156000762 cycles: 224490512 heartbeat IPC: 0.5335 cumulative IPC: 0.5042 (Simulation time: 00 hr 29 min 42 sec)
Heartbeat CPU 0 instructions: 156500766 cycles: 225445692 heartbeat IPC: 0.5235 cumulative IPC: 0.5043 (Simulation time: 00 hr 29 min 49 sec)
Heartbeat CPU 0 instructions: 157000766 cycles: 226402961 heartbeat IPC: 0.5223 cumulative IPC: 0.5044 (Simulation time: 00 hr 29 min 55 sec)
Heartbeat CPU 0 instructions: 157500766 cycles: 227364502 heartbeat IPC: 0.52 cumulative IPC: 0.5044 (Simulation time: 00 hr 30 min 02 sec)
Heartbeat CPU 0 instructions: 158000768 cycles: 228296385 heartbeat IPC: 0.5366 cumulative IPC: 0.5046 (Simulation time: 00 hr 30 min 08 sec)
Heartbeat CPU 0 instructions: 158500769 cycles: 229240663 heartbeat IPC: 0.5295 cumulative IPC: 0.5047 (Simulation time: 00 hr 30 min 14 sec)
Heartbeat CPU 0 instructions: 159000769 cycles: 230209844 heartbeat IPC: 0.5159 cumulative IPC: 0.5047 (Simulation time: 00 hr 30 min 21 sec)
Heartbeat CPU 0 instructions: 159500774 cycles: 231168987 heartbeat IPC: 0.5213 cumulative IPC: 0.5048 (Simulation time: 00 hr 30 min 27 sec)
Heartbeat CPU 0 instructions: 160000776 cycles: 232127086 heartbeat IPC: 0.5219 cumulative IPC: 0.5049 (Simulation time: 00 hr 30 min 33 sec)
Heartbeat CPU 0 instructions: 160500776 cycles: 233077045 heartbeat IPC: 0.5263 cumulative IPC: 0.505 (Simulation time: 00 hr 30 min 40 sec)
Heartbeat CPU 0 instructions: 161000776 cycles: 234004960 heartbeat IPC: 0.5388 cumulative IPC: 0.5051 (Simulation time: 00 hr 30 min 46 sec)
Heartbeat CPU 0 instructions: 161500777 cycles: 234954659 heartbeat IPC: 0.5265 cumulative IPC: 0.5052 (Simulation time: 00 hr 30 min 52 sec)
Heartbeat CPU 0 instructions: 162000781 cycles: 235913500 heartbeat IPC: 0.5215 cumulative IPC: 0.5053 (Simulation time: 00 hr 30 min 58 sec)
Heartbeat CPU 0 instructions: 162500782 cycles: 236843610 heartbeat IPC: 0.5376 cumulative IPC: 0.5054 (Simulation time: 00 hr 31 min 05 sec)
Heartbeat CPU 0 instructions: 163000784 cycles: 237779384 heartbeat IPC: 0.5343 cumulative IPC: 0.5055 (Simulation time: 00 hr 31 min 11 sec)
Heartbeat CPU 0 instructions: 163500785 cycles: 238680545 heartbeat IPC: 0.5548 cumulative IPC: 0.5057 (Simulation time: 00 hr 31 min 17 sec)
Heartbeat CPU 0 instructions: 164000785 cycles: 239585791 heartbeat IPC: 0.5523 cumulative IPC: 0.5059 (Simulation time: 00 hr 31 min 23 sec)
Heartbeat CPU 0 instructions: 164500791 cycles: 240477951 heartbeat IPC: 0.5604 cumulative IPC: 0.5061 (Simulation time: 00 hr 31 min 29 sec)
Heartbeat CPU 0 instructions: 165000793 cycles: 241388239 heartbeat IPC: 0.5493 cumulative IPC: 0.5063 (Simulation time: 00 hr 31 min 34 sec)
Heartbeat CPU 0 instructions: 165500796 cycles: 242302094 heartbeat IPC: 0.5471 cumulative IPC: 0.5065 (Simulation time: 00 hr 31 min 40 sec)
Heartbeat CPU 0 instructions: 166000798 cycles: 243215678 heartbeat IPC: 0.5473 cumulative IPC: 0.5066 (Simulation time: 00 hr 31 min 47 sec)
Heartbeat CPU 0 instructions: 166500799 cycles: 244110700 heartbeat IPC: 0.5586 cumulative IPC: 0.5068 (Simulation time: 00 hr 31 min 52 sec)
Heartbeat CPU 0 instructions: 167000799 cycles: 245022178 heartbeat IPC: 0.5486 cumulative IPC: 0.507 (Simulation time: 00 hr 31 min 58 sec)
Heartbeat CPU 0 instructions: 167500803 cycles: 245938237 heartbeat IPC: 0.5458 cumulative IPC: 0.5072 (Simulation time: 00 hr 32 min 04 sec)
Heartbeat CPU 0 instructions: 168000805 cycles: 246871284 heartbeat IPC: 0.5359 cumulative IPC: 0.5073 (Simulation time: 00 hr 32 min 10 sec)
Heartbeat CPU 0 instructions: 168500805 cycles: 247771307 heartbeat IPC: 0.5555 cumulative IPC: 0.5075 (Simulation time: 00 hr 32 min 16 sec)
Heartbeat CPU 0 instructions: 169000807 cycles: 248705431 heartbeat IPC: 0.5353 cumulative IPC: 0.5076 (Simulation time: 00 hr 32 min 22 sec)
Heartbeat CPU 0 instructions: 169500807 cycles: 249623966 heartbeat IPC: 0.5443 cumulative IPC: 0.5077 (Simulation time: 00 hr 32 min 28 sec)
Heartbeat CPU 0 instructions: 170000808 cycles: 250512588 heartbeat IPC: 0.5627 cumulative IPC: 0.5079 (Simulation time: 00 hr 32 min 34 sec)
Heartbeat CPU 0 instructions: 170500808 cycles: 251398500 heartbeat IPC: 0.5644 cumulative IPC: 0.5081 (Simulation time: 00 hr 32 min 40 sec)
Heartbeat CPU 0 instructions: 171000808 cycles: 252250520 heartbeat IPC: 0.5868 cumulative IPC: 0.5084 (Simulation time: 00 hr 32 min 46 sec)
Heartbeat CPU 0 instructions: 171500809 cycles: 253355616 heartbeat IPC: 0.4525 cumulative IPC: 0.5082 (Simulation time: 00 hr 32 min 53 sec)
Heartbeat CPU 0 instructions: 172000812 cycles: 254428289 heartbeat IPC: 0.4661 cumulative IPC: 0.508 (Simulation time: 00 hr 33 min 00 sec)
Heartbeat CPU 0 instructions: 172500815 cycles: 255460119 heartbeat IPC: 0.4846 cumulative IPC: 0.5079 (Simulation time: 00 hr 33 min 06 sec)
Heartbeat CPU 0 instructions: 173000817 cycles: 256482338 heartbeat IPC: 0.4891 cumulative IPC: 0.5078 (Simulation time: 00 hr 33 min 13 sec)
Heartbeat CPU 0 instructions: 173500823 cycles: 257513927 heartbeat IPC: 0.4847 cumulative IPC: 0.5077 (Simulation time: 00 hr 33 min 19 sec)
Heartbeat CPU 0 instructions: 174000827 cycles: 258542063 heartbeat IPC: 0.4863 cumulative IPC: 0.5076 (Simulation time: 00 hr 33 min 26 sec)
Heartbeat CPU 0 instructions: 174500828 cycles: 259583727 heartbeat IPC: 0.48 cumulative IPC: 0.5075 (Simulation time: 00 hr 33 min 33 sec)
Heartbeat CPU 0 instructions: 175000828 cycles: 260604647 heartbeat IPC: 0.4898 cumulative IPC: 0.5074 (Simulation time: 00 hr 33 min 39 sec)
Heartbeat CPU 0 instructions: 175500828 cycles: 261609323 heartbeat IPC: 0.4977 cumulative IPC: 0.5074 (Simulation time: 00 hr 33 min 46 sec)
Heartbeat CPU 0 instructions: 176000830 cycles: 262633595 heartbeat IPC: 0.4882 cumulative IPC: 0.5073 (Simulation time: 00 hr 33 min 52 sec)
Heartbeat CPU 0 instructions: 176500831 cycles: 263656389 heartbeat IPC: 0.4889 cumulative IPC: 0.5072 (Simulation time: 00 hr 33 min 59 sec)
Heartbeat CPU 0 instructions: 177000835 cycles: 264683155 heartbeat IPC: 0.487 cumulative IPC: 0.5071 (Simulation time: 00 hr 34 min 05 sec)
Heartbeat CPU 0 instructions: 177500835 cycles: 265715388 heartbeat IPC: 0.4844 cumulative IPC: 0.507 (Simulation time: 00 hr 34 min 11 sec)
Heartbeat CPU 0 instructions: 178000840 cycles: 266680917 heartbeat IPC: 0.5179 cumulative IPC: 0.5071 (Simulation time: 00 hr 34 min 18 sec)
Heartbeat CPU 0 instructions: 178500841 cycles: 267685685 heartbeat IPC: 0.4976 cumulative IPC: 0.507 (Simulation time: 00 hr 34 min 24 sec)
Heartbeat CPU 0 instructions: 179000841 cycles: 268703313 heartbeat IPC: 0.4913 cumulative IPC: 0.507 (Simulation time: 00 hr 34 min 30 sec)
Heartbeat CPU 0 instructions: 179500848 cycles: 269713007 heartbeat IPC: 0.4952 cumulative IPC: 0.5069 (Simulation time: 00 hr 34 min 37 sec)
Heartbeat CPU 0 instructions: 180000848 cycles: 270676338 heartbeat IPC: 0.519 cumulative IPC: 0.507 (Simulation time: 00 hr 34 min 43 sec)
Heartbeat CPU 0 instructions: 180500848 cycles: 271673608 heartbeat IPC: 0.5014 cumulative IPC: 0.507 (Simulation time: 00 hr 34 min 49 sec)
Heartbeat CPU 0 instructions: 181000849 cycles: 272662118 heartbeat IPC: 0.5058 cumulative IPC: 0.507 (Simulation time: 00 hr 34 min 55 sec)
Heartbeat CPU 0 instructions: 181500853 cycles: 273690713 heartbeat IPC: 0.4861 cumulative IPC: 0.5069 (Simulation time: 00 hr 35 min 02 sec)
Heartbeat CPU 0 instructions: 182000853 cycles: 274713944 heartbeat IPC: 0.4886 cumulative IPC: 0.5068 (Simulation time: 00 hr 35 min 08 sec)
Heartbeat CPU 0 instructions: 182500855 cycles: 275703596 heartbeat IPC: 0.5052 cumulative IPC: 0.5068 (Simulation time: 00 hr 35 min 14 sec)
Heartbeat CPU 0 instructions: 183000855 cycles: 276696319 heartbeat IPC: 0.5037 cumulative IPC: 0.5068 (Simulation time: 00 hr 35 min 20 sec)
Heartbeat CPU 0 instructions: 183500857 cycles: 277697452 heartbeat IPC: 0.4994 cumulative IPC: 0.5068 (Simulation time: 00 hr 35 min 26 sec)
Heartbeat CPU 0 instructions: 184000857 cycles: 278708145 heartbeat IPC: 0.4947 cumulative IPC: 0.5067 (Simulation time: 00 hr 35 min 33 sec)
Heartbeat CPU 0 instructions: 184500861 cycles: 279692895 heartbeat IPC: 0.5077 cumulative IPC: 0.5067 (Simulation time: 00 hr 35 min 39 sec)
Heartbeat CPU 0 instructions: 185000868 cycles: 280671100 heartbeat IPC: 0.5111 cumulative IPC: 0.5067 (Simulation time: 00 hr 35 min 45 sec)
Heartbeat CPU 0 instructions: 185500873 cycles: 281693821 heartbeat IPC: 0.4889 cumulative IPC: 0.5067 (Simulation time: 00 hr 35 min 51 sec)
Heartbeat CPU 0 instructions: 186000873 cycles: 282682037 heartbeat IPC: 0.506 cumulative IPC: 0.5067 (Simulation time: 00 hr 35 min 57 sec)
Heartbeat CPU 0 instructions: 186500874 cycles: 283649640 heartbeat IPC: 0.5167 cumulative IPC: 0.5067 (Simulation time: 00 hr 36 min 03 sec)
Heartbeat CPU 0 instructions: 187000879 cycles: 284641177 heartbeat IPC: 0.5043 cumulative IPC: 0.5067 (Simulation time: 00 hr 36 min 09 sec)
Heartbeat CPU 0 instructions: 187500879 cycles: 285626595 heartbeat IPC: 0.5074 cumulative IPC: 0.5067 (Simulation time: 00 hr 36 min 15 sec)
Heartbeat CPU 0 instructions: 188000880 cycles: 286605013 heartbeat IPC: 0.511 cumulative IPC: 0.5067 (Simulation time: 00 hr 36 min 21 sec)
Heartbeat CPU 0 instructions: 188500883 cycles: 287604080 heartbeat IPC: 0.5005 cumulative IPC: 0.5067 (Simulation time: 00 hr 36 min 27 sec)
Heartbeat CPU 0 instructions: 189000883 cycles: 288577395 heartbeat IPC: 0.5137 cumulative IPC: 0.5067 (Simulation time: 00 hr 36 min 33 sec)
Heartbeat CPU 0 instructions: 189500885 cycles: 289553008 heartbeat IPC: 0.5125 cumulative IPC: 0.5067 (Simulation time: 00 hr 36 min 39 sec)
Heartbeat CPU 0 instructions: 190000885 cycles: 290534798 heartbeat IPC: 0.5093 cumulative IPC: 0.5067 (Simulation time: 00 hr 36 min 45 sec)
Heartbeat CPU 0 instructions: 190500886 cycles: 291507158 heartbeat IPC: 0.5142 cumulative IPC: 0.5068 (Simulation time: 00 hr 36 min 51 sec)
Heartbeat CPU 0 instructions: 191000887 cycles: 292501946 heartbeat IPC: 0.5026 cumulative IPC: 0.5067 (Simulation time: 00 hr 36 min 57 sec)
Heartbeat CPU 0 instructions: 191500887 cycles: 293461255 heartbeat IPC: 0.5212 cumulative IPC: 0.5068 (Simulation time: 00 hr 37 min 02 sec)
Heartbeat CPU 0 instructions: 192000892 cycles: 294443023 heartbeat IPC: 0.5093 cumulative IPC: 0.5068 (Simulation time: 00 hr 37 min 08 sec)
Heartbeat CPU 0 instructions: 192500897 cycles: 295419518 heartbeat IPC: 0.512 cumulative IPC: 0.5068 (Simulation time: 00 hr 37 min 14 sec)
Heartbeat CPU 0 instructions: 193000897 cycles: 296416820 heartbeat IPC: 0.5014 cumulative IPC: 0.5068 (Simulation time: 00 hr 37 min 20 sec)
Heartbeat CPU 0 instructions: 193500897 cycles: 297399159 heartbeat IPC: 0.509 cumulative IPC: 0.5068 (Simulation time: 00 hr 37 min 26 sec)
Heartbeat CPU 0 instructions: 194000897 cycles: 298396048 heartbeat IPC: 0.5016 cumulative IPC: 0.5068 (Simulation time: 00 hr 37 min 32 sec)
Heartbeat CPU 0 instructions: 194500899 cycles: 299390192 heartbeat IPC: 0.5029 cumulative IPC: 0.5068 (Simulation time: 00 hr 37 min 38 sec)
Heartbeat CPU 0 instructions: 195000901 cycles: 300373006 heartbeat IPC: 0.5087 cumulative IPC: 0.5068 (Simulation time: 00 hr 37 min 44 sec)
Heartbeat CPU 0 instructions: 195500905 cycles: 301362096 heartbeat IPC: 0.5055 cumulative IPC: 0.5068 (Simulation time: 00 hr 37 min 50 sec)
Heartbeat CPU 0 instructions: 196000906 cycles: 302341598 heartbeat IPC: 0.5105 cumulative IPC: 0.5068 (Simulation time: 00 hr 37 min 56 sec)
Heartbeat CPU 0 instructions: 196500910 cycles: 303308210 heartbeat IPC: 0.5173 cumulative IPC: 0.5068 (Simulation time: 00 hr 38 min 02 sec)
Heartbeat CPU 0 instructions: 197000912 cycles: 304282333 heartbeat IPC: 0.5133 cumulative IPC: 0.5068 (Simulation time: 00 hr 38 min 08 sec)
Heartbeat CPU 0 instructions: 197500916 cycles: 305250561 heartbeat IPC: 0.5164 cumulative IPC: 0.5069 (Simulation time: 00 hr 38 min 14 sec)
Heartbeat CPU 0 instructions: 198000918 cycles: 306245025 heartbeat IPC: 0.5028 cumulative IPC: 0.5069 (Simulation time: 00 hr 38 min 20 sec)
Heartbeat CPU 0 instructions: 198500925 cycles: 307232882 heartbeat IPC: 0.5062 cumulative IPC: 0.5069 (Simulation time: 00 hr 38 min 25 sec)
Heartbeat CPU 0 instructions: 199000925 cycles: 308242498 heartbeat IPC: 0.4952 cumulative IPC: 0.5068 (Simulation time: 00 hr 38 min 31 sec)
Heartbeat CPU 0 instructions: 199500928 cycles: 309214133 heartbeat IPC: 0.5146 cumulative IPC: 0.5069 (Simulation time: 00 hr 38 min 37 sec)
Heartbeat CPU 0 instructions: 200000929 cycles: 310183258 heartbeat IPC: 0.5159 cumulative IPC: 0.5069 (Simulation time: 00 hr 38 min 43 sec)
Heartbeat CPU 0 instructions: 200500929 cycles: 311176840 heartbeat IPC: 0.5032 cumulative IPC: 0.5069 (Simulation time: 00 hr 38 min 49 sec)
Heartbeat CPU 0 instructions: 201000932 cycles: 312165173 heartbeat IPC: 0.5059 cumulative IPC: 0.5069 (Simulation time: 00 hr 38 min 55 sec)
Heartbeat CPU 0 instructions: 201500934 cycles: 313146989 heartbeat IPC: 0.5093 cumulative IPC: 0.5069 (Simulation time: 00 hr 39 min 01 sec)
Heartbeat CPU 0 instructions: 202000938 cycles: 314159230 heartbeat IPC: 0.494 cumulative IPC: 0.5068 (Simulation time: 00 hr 39 min 07 sec)
Heartbeat CPU 0 instructions: 202500939 cycles: 315125288 heartbeat IPC: 0.5176 cumulative IPC: 0.5069 (Simulation time: 00 hr 39 min 12 sec)
Heartbeat CPU 0 instructions: 203000939 cycles: 316113563 heartbeat IPC: 0.5059 cumulative IPC: 0.5069 (Simulation time: 00 hr 39 min 18 sec)
Heartbeat CPU 0 instructions: 203500939 cycles: 317094370 heartbeat IPC: 0.5098 cumulative IPC: 0.5069 (Simulation time: 00 hr 39 min 24 sec)
Heartbeat CPU 0 instructions: 204000939 cycles: 318103377 heartbeat IPC: 0.4955 cumulative IPC: 0.5068 (Simulation time: 00 hr 39 min 30 sec)
Heartbeat CPU 0 instructions: 204500939 cycles: 319081464 heartbeat IPC: 0.5112 cumulative IPC: 0.5068 (Simulation time: 00 hr 39 min 36 sec)
Heartbeat CPU 0 instructions: 205000944 cycles: 320072109 heartbeat IPC: 0.5047 cumulative IPC: 0.5068 (Simulation time: 00 hr 39 min 42 sec)
Heartbeat CPU 0 instructions: 205500948 cycles: 321085652 heartbeat IPC: 0.4933 cumulative IPC: 0.5068 (Simulation time: 00 hr 39 min 48 sec)
Heartbeat CPU 0 instructions: 206000948 cycles: 322061913 heartbeat IPC: 0.5122 cumulative IPC: 0.5068 (Simulation time: 00 hr 39 min 53 sec)
Heartbeat CPU 0 instructions: 206500948 cycles: 323040809 heartbeat IPC: 0.5108 cumulative IPC: 0.5068 (Simulation time: 00 hr 39 min 59 sec)
Heartbeat CPU 0 instructions: 207000950 cycles: 324038193 heartbeat IPC: 0.5013 cumulative IPC: 0.5068 (Simulation time: 00 hr 40 min 05 sec)
Heartbeat CPU 0 instructions: 207500950 cycles: 325036419 heartbeat IPC: 0.5009 cumulative IPC: 0.5068 (Simulation time: 00 hr 40 min 11 sec)
Heartbeat CPU 0 instructions: 208000951 cycles: 326006470 heartbeat IPC: 0.5154 cumulative IPC: 0.5068 (Simulation time: 00 hr 40 min 16 sec)
Heartbeat CPU 0 instructions: 208500952 cycles: 326978332 heartbeat IPC: 0.5145 cumulative IPC: 0.5068 (Simulation time: 00 hr 40 min 22 sec)
Heartbeat CPU 0 instructions: 209000957 cycles: 327962373 heartbeat IPC: 0.5081 cumulative IPC: 0.5068 (Simulation time: 00 hr 40 min 28 sec)
Heartbeat CPU 0 instructions: 209500962 cycles: 328978774 heartbeat IPC: 0.4919 cumulative IPC: 0.5068 (Simulation time: 00 hr 40 min 34 sec)
Heartbeat CPU 0 instructions: 210000963 cycles: 329967317 heartbeat IPC: 0.5058 cumulative IPC: 0.5068 (Simulation time: 00 hr 40 min 39 sec)
Heartbeat CPU 0 instructions: 210500966 cycles: 330992583 heartbeat IPC: 0.4877 cumulative IPC: 0.5067 (Simulation time: 00 hr 40 min 45 sec)
Heartbeat CPU 0 instructions: 211000968 cycles: 331981572 heartbeat IPC: 0.5056 cumulative IPC: 0.5067 (Simulation time: 00 hr 40 min 51 sec)
Heartbeat CPU 0 instructions: 211500972 cycles: 332990748 heartbeat IPC: 0.4955 cumulative IPC: 0.5067 (Simulation time: 00 hr 40 min 57 sec)
Heartbeat CPU 0 instructions: 212000973 cycles: 333964213 heartbeat IPC: 0.5136 cumulative IPC: 0.5067 (Simulation time: 00 hr 41 min 03 sec)
Heartbeat CPU 0 instructions: 212500976 cycles: 334937461 heartbeat IPC: 0.5137 cumulative IPC: 0.5067 (Simulation time: 00 hr 41 min 08 sec)
Heartbeat CPU 0 instructions: 213000978 cycles: 335937044 heartbeat IPC: 0.5002 cumulative IPC: 0.5067 (Simulation time: 00 hr 41 min 14 sec)
Heartbeat CPU 0 instructions: 213500978 cycles: 336921594 heartbeat IPC: 0.5078 cumulative IPC: 0.5067 (Simulation time: 00 hr 41 min 20 sec)
Heartbeat CPU 0 instructions: 214000981 cycles: 337916446 heartbeat IPC: 0.5026 cumulative IPC: 0.5067 (Simulation time: 00 hr 41 min 25 sec)
Heartbeat CPU 0 instructions: 214500981 cycles: 338892671 heartbeat IPC: 0.5122 cumulative IPC: 0.5067 (Simulation time: 00 hr 41 min 31 sec)
Heartbeat CPU 0 instructions: 215000983 cycles: 339860234 heartbeat IPC: 0.5168 cumulative IPC: 0.5067 (Simulation time: 00 hr 41 min 37 sec)
Heartbeat CPU 0 instructions: 215500988 cycles: 340832237 heartbeat IPC: 0.5144 cumulative IPC: 0.5068 (Simulation time: 00 hr 41 min 42 sec)
Heartbeat CPU 0 instructions: 216000993 cycles: 341825592 heartbeat IPC: 0.5033 cumulative IPC: 0.5068 (Simulation time: 00 hr 41 min 48 sec)
Heartbeat CPU 0 instructions: 216500995 cycles: 342809762 heartbeat IPC: 0.508 cumulative IPC: 0.5068 (Simulation time: 00 hr 41 min 54 sec)
Heartbeat CPU 0 instructions: 217000995 cycles: 343782361 heartbeat IPC: 0.5141 cumulative IPC: 0.5068 (Simulation time: 00 hr 41 min 59 sec)
Heartbeat CPU 0 instructions: 217500999 cycles: 344781646 heartbeat IPC: 0.5004 cumulative IPC: 0.5068 (Simulation time: 00 hr 42 min 05 sec)
Heartbeat CPU 0 instructions: 218000999 cycles: 345742257 heartbeat IPC: 0.5205 cumulative IPC: 0.5068 (Simulation time: 00 hr 42 min 10 sec)
Heartbeat CPU 0 instructions: 218501004 cycles: 346728144 heartbeat IPC: 0.5072 cumulative IPC: 0.5068 (Simulation time: 00 hr 42 min 16 sec)
Heartbeat CPU 0 instructions: 219001005 cycles: 347697001 heartbeat IPC: 0.5161 cumulative IPC: 0.5068 (Simulation time: 00 hr 42 min 22 sec)
Heartbeat CPU 0 instructions: 219501005 cycles: 348701486 heartbeat IPC: 0.4978 cumulative IPC: 0.5068 (Simulation time: 00 hr 42 min 27 sec)
Heartbeat CPU 0 instructions: 220001006 cycles: 349674750 heartbeat IPC: 0.5137 cumulative IPC: 0.5068 (Simulation time: 00 hr 42 min 33 sec)
Heartbeat CPU 0 instructions: 220501008 cycles: 350660808 heartbeat IPC: 0.5071 cumulative IPC: 0.5068 (Simulation time: 00 hr 42 min 39 sec)
Heartbeat CPU 0 instructions: 221001008 cycles: 351626609 heartbeat IPC: 0.5177 cumulative IPC: 0.5069 (Simulation time: 00 hr 42 min 44 sec)
Heartbeat CPU 0 instructions: 221501009 cycles: 352606844 heartbeat IPC: 0.5101 cumulative IPC: 0.5069 (Simulation time: 00 hr 42 min 50 sec)
Heartbeat CPU 0 instructions: 222001014 cycles: 353606540 heartbeat IPC: 0.5002 cumulative IPC: 0.5068 (Simulation time: 00 hr 42 min 55 sec)
Heartbeat CPU 0 instructions: 222501015 cycles: 354601951 heartbeat IPC: 0.5023 cumulative IPC: 0.5068 (Simulation time: 00 hr 43 min 01 sec)
Heartbeat CPU 0 instructions: 223001017 cycles: 355569578 heartbeat IPC: 0.5167 cumulative IPC: 0.5069 (Simulation time: 00 hr 43 min 07 sec)
Heartbeat CPU 0 instructions: 223501018 cycles: 356584028 heartbeat IPC: 0.4929 cumulative IPC: 0.5068 (Simulation time: 00 hr 43 min 12 sec)
Heartbeat CPU 0 instructions: 224001021 cycles: 357549602 heartbeat IPC: 0.5178 cumulative IPC: 0.5069 (Simulation time: 00 hr 43 min 18 sec)
Heartbeat CPU 0 instructions: 224501026 cycles: 358536466 heartbeat IPC: 0.5067 cumulative IPC: 0.5069 (Simulation time: 00 hr 43 min 24 sec)
Heartbeat CPU 0 instructions: 225001029 cycles: 359493691 heartbeat IPC: 0.5223 cumulative IPC: 0.5069 (Simulation time: 00 hr 43 min 29 sec)
Heartbeat CPU 0 instructions: 225501029 cycles: 360451300 heartbeat IPC: 0.5221 cumulative IPC: 0.5069 (Simulation time: 00 hr 43 min 35 sec)
Heartbeat CPU 0 instructions: 226001031 cycles: 361447215 heartbeat IPC: 0.5021 cumulative IPC: 0.5069 (Simulation time: 00 hr 43 min 40 sec)
Heartbeat CPU 0 instructions: 226501032 cycles: 362419409 heartbeat IPC: 0.5143 cumulative IPC: 0.5069 (Simulation time: 00 hr 43 min 46 sec)
Heartbeat CPU 0 instructions: 227001032 cycles: 363414010 heartbeat IPC: 0.5027 cumulative IPC: 0.5069 (Simulation time: 00 hr 43 min 51 sec)
Heartbeat CPU 0 instructions: 227501032 cycles: 364399276 heartbeat IPC: 0.5075 cumulative IPC: 0.5069 (Simulation time: 00 hr 43 min 57 sec)
Heartbeat CPU 0 instructions: 228001038 cycles: 365386188 heartbeat IPC: 0.5066 cumulative IPC: 0.5069 (Simulation time: 00 hr 44 min 03 sec)
Heartbeat CPU 0 instructions: 228501038 cycles: 366383262 heartbeat IPC: 0.5015 cumulative IPC: 0.5069 (Simulation time: 00 hr 44 min 08 sec)
Heartbeat CPU 0 instructions: 229001039 cycles: 367391185 heartbeat IPC: 0.4961 cumulative IPC: 0.5069 (Simulation time: 00 hr 44 min 14 sec)
Heartbeat CPU 0 instructions: 229501045 cycles: 368375450 heartbeat IPC: 0.508 cumulative IPC: 0.5069 (Simulation time: 00 hr 44 min 19 sec)
Heartbeat CPU 0 instructions: 230001048 cycles: 369350170 heartbeat IPC: 0.513 cumulative IPC: 0.5069 (Simulation time: 00 hr 44 min 25 sec)
Heartbeat CPU 0 instructions: 230501055 cycles: 370329337 heartbeat IPC: 0.5106 cumulative IPC: 0.5069 (Simulation time: 00 hr 44 min 30 sec)
Heartbeat CPU 0 instructions: 231001055 cycles: 371286851 heartbeat IPC: 0.5222 cumulative IPC: 0.507 (Simulation time: 00 hr 44 min 36 sec)
Heartbeat CPU 0 instructions: 231501056 cycles: 372257401 heartbeat IPC: 0.5152 cumulative IPC: 0.507 (Simulation time: 00 hr 44 min 41 sec)
Heartbeat CPU 0 instructions: 232001063 cycles: 373220644 heartbeat IPC: 0.5191 cumulative IPC: 0.507 (Simulation time: 00 hr 44 min 47 sec)
Heartbeat CPU 0 instructions: 232501063 cycles: 374190245 heartbeat IPC: 0.5157 cumulative IPC: 0.507 (Simulation time: 00 hr 44 min 52 sec)
Heartbeat CPU 0 instructions: 233001064 cycles: 375164546 heartbeat IPC: 0.5132 cumulative IPC: 0.5071 (Simulation time: 00 hr 44 min 58 sec)
Heartbeat CPU 0 instructions: 233501068 cycles: 376135050 heartbeat IPC: 0.5152 cumulative IPC: 0.5071 (Simulation time: 00 hr 45 min 03 sec)
Heartbeat CPU 0 instructions: 234001071 cycles: 377111652 heartbeat IPC: 0.512 cumulative IPC: 0.5071 (Simulation time: 00 hr 45 min 09 sec)
Heartbeat CPU 0 instructions: 234501077 cycles: 378075058 heartbeat IPC: 0.519 cumulative IPC: 0.5071 (Simulation time: 00 hr 45 min 14 sec)
Heartbeat CPU 0 instructions: 235001077 cycles: 379034275 heartbeat IPC: 0.5213 cumulative IPC: 0.5072 (Simulation time: 00 hr 45 min 20 sec)
Heartbeat CPU 0 instructions: 235501077 cycles: 380011065 heartbeat IPC: 0.5119 cumulative IPC: 0.5072 (Simulation time: 00 hr 45 min 25 sec)
Heartbeat CPU 0 instructions: 236001077 cycles: 380965670 heartbeat IPC: 0.5238 cumulative IPC: 0.5072 (Simulation time: 00 hr 45 min 30 sec)
Heartbeat CPU 0 instructions: 236501077 cycles: 381928107 heartbeat IPC: 0.5195 cumulative IPC: 0.5072 (Simulation time: 00 hr 45 min 36 sec)
Heartbeat CPU 0 instructions: 237001081 cycles: 382909886 heartbeat IPC: 0.5093 cumulative IPC: 0.5073 (Simulation time: 00 hr 45 min 41 sec)
Heartbeat CPU 0 instructions: 237501082 cycles: 383906007 heartbeat IPC: 0.5019 cumulative IPC: 0.5072 (Simulation time: 00 hr 45 min 47 sec)
Heartbeat CPU 0 instructions: 238001087 cycles: 384872007 heartbeat IPC: 0.5176 cumulative IPC: 0.5073 (Simulation time: 00 hr 45 min 52 sec)
Heartbeat CPU 0 instructions: 238501088 cycles: 385832369 heartbeat IPC: 0.5206 cumulative IPC: 0.5073 (Simulation time: 00 hr 45 min 58 sec)
Heartbeat CPU 0 instructions: 239001091 cycles: 386818274 heartbeat IPC: 0.5072 cumulative IPC: 0.5073 (Simulation time: 00 hr 46 min 03 sec)
Heartbeat CPU 0 instructions: 239501092 cycles: 387797320 heartbeat IPC: 0.5107 cumulative IPC: 0.5073 (Simulation time: 00 hr 46 min 09 sec)
Heartbeat CPU 0 instructions: 240001093 cycles: 388783040 heartbeat IPC: 0.5072 cumulative IPC: 0.5073 (Simulation time: 00 hr 46 min 14 sec)
Heartbeat CPU 0 instructions: 240501095 cycles: 389781910 heartbeat IPC: 0.5006 cumulative IPC: 0.5073 (Simulation time: 00 hr 46 min 20 sec)
Heartbeat CPU 0 instructions: 241001095 cycles: 390760535 heartbeat IPC: 0.5109 cumulative IPC: 0.5073 (Simulation time: 00 hr 46 min 25 sec)
Heartbeat CPU 0 instructions: 241501095 cycles: 391726226 heartbeat IPC: 0.5178 cumulative IPC: 0.5073 (Simulation time: 00 hr 46 min 31 sec)
Heartbeat CPU 0 instructions: 242001100 cycles: 392705035 heartbeat IPC: 0.5108 cumulative IPC: 0.5073 (Simulation time: 00 hr 46 min 36 sec)
Heartbeat CPU 0 instructions: 242501101 cycles: 393687299 heartbeat IPC: 0.509 cumulative IPC: 0.5073 (Simulation time: 00 hr 46 min 42 sec)
Heartbeat CPU 0 instructions: 243001102 cycles: 394681438 heartbeat IPC: 0.5029 cumulative IPC: 0.5073 (Simulation time: 00 hr 46 min 47 sec)
Heartbeat CPU 0 instructions: 243501105 cycles: 395660071 heartbeat IPC: 0.5109 cumulative IPC: 0.5073 (Simulation time: 00 hr 46 min 53 sec)
Heartbeat CPU 0 instructions: 244001112 cycles: 396630031 heartbeat IPC: 0.5155 cumulative IPC: 0.5074 (Simulation time: 00 hr 46 min 58 sec)
Heartbeat CPU 0 instructions: 244501115 cycles: 397613296 heartbeat IPC: 0.5085 cumulative IPC: 0.5074 (Simulation time: 00 hr 47 min 04 sec)
Heartbeat CPU 0 instructions: 245001116 cycles: 398565726 heartbeat IPC: 0.525 cumulative IPC: 0.5074 (Simulation time: 00 hr 47 min 09 sec)
Heartbeat CPU 0 instructions: 245501116 cycles: 399528696 heartbeat IPC: 0.5192 cumulative IPC: 0.5074 (Simulation time: 00 hr 47 min 15 sec)
Heartbeat CPU 0 instructions: 246001118 cycles: 400506168 heartbeat IPC: 0.5115 cumulative IPC: 0.5074 (Simulation time: 00 hr 47 min 20 sec)
Heartbeat CPU 0 instructions: 246501121 cycles: 401491402 heartbeat IPC: 0.5075 cumulative IPC: 0.5074 (Simulation time: 00 hr 47 min 26 sec)
Heartbeat CPU 0 instructions: 247001124 cycles: 402455710 heartbeat IPC: 0.5185 cumulative IPC: 0.5075 (Simulation time: 00 hr 47 min 31 sec)
Heartbeat CPU 0 instructions: 247501125 cycles: 403424052 heartbeat IPC: 0.5163 cumulative IPC: 0.5075 (Simulation time: 00 hr 47 min 37 sec)
Heartbeat CPU 0 instructions: 248001126 cycles: 404408712 heartbeat IPC: 0.5078 cumulative IPC: 0.5075 (Simulation time: 00 hr 47 min 42 sec)
Heartbeat CPU 0 instructions: 248501129 cycles: 405390073 heartbeat IPC: 0.5095 cumulative IPC: 0.5075 (Simulation time: 00 hr 47 min 48 sec)
Heartbeat CPU 0 instructions: 249001129 cycles: 406353390 heartbeat IPC: 0.519 cumulative IPC: 0.5075 (Simulation time: 00 hr 47 min 53 sec)
Heartbeat CPU 0 instructions: 249501129 cycles: 407342266 heartbeat IPC: 0.5056 cumulative IPC: 0.5075 (Simulation time: 00 hr 47 min 59 sec)
Simulation finished CPU 0 instructions: 200000004 cycles: 394042902 cumulative IPC: 0.5076 (Simulation time: 00 hr 48 min 04 sec)
Simulation complete CPU 0 instructions: 200000004 cycles: 394042902 cumulative IPC: 0.5076 (Simulation time: 00 hr 48 min 04 sec)

ChampSim completed all CPUs

=== Simulation ===
CPU 0 runs /local-ssd/ben/dpc4-traces/Graph/GMS/gms.triangle_count.soc-pokec-relationships.slice-137.champsimtrace.gz

Region of Interest Statistics

CPU 0 cumulative IPC: 0.5076 instructions: 200000004 cycles: 394042902
CPU 0 Branch Prediction Accuracy: 85.99% MPKI: 38.72 Average ROB Occupancy at Mispredict: 21.54
Branch type MPKI
BRANCH_DIRECT_JUMP: 0.0272
BRANCH_INDIRECT: 0.002705
BRANCH_CONDITIONAL: 38.69
BRANCH_DIRECT_CALL: 0
BRANCH_INDIRECT_CALL: 0
BRANCH_RETURN: 1e-05

cpu0->cpu0_STLB TOTAL        ACCESS:     403277 HIT:      29723 MISS:     373554 MSHR_MERGE:          0
cpu0->cpu0_STLB LOAD         ACCESS:     403277 HIT:      29723 MISS:     373554 MSHR_MERGE:          0
cpu0->cpu0_STLB RFO          ACCESS:          0 HIT:          0 MISS:          0 MSHR_MERGE:          0
cpu0->cpu0_STLB PREFETCH     ACCESS:          0 HIT:          0 MISS:          0 MSHR_MERGE:          0
cpu0->cpu0_STLB WRITE        ACCESS:          0 HIT:          0 MISS:          0 MSHR_MERGE:          0
cpu0->cpu0_STLB TRANSLATION  ACCESS:          0 HIT:          0 MISS:          0 MSHR_MERGE:          0
cpu0->cpu0_STLB PREFETCH REQUESTED:          0 ISSUED:          0 USEFUL:          0 USELESS:          0
cpu0->cpu0_STLB AVERAGE MISS LATENCY: 208.6 cycles
cpu0->cpu0_L2C TOTAL        ACCESS:    5624209 HIT:     891695 MISS:    4732514 MSHR_MERGE:     412834
cpu0->cpu0_L2C LOAD         ACCESS:    1433106 HIT:     220761 MISS:    1212345 MSHR_MERGE:      32186
cpu0->cpu0_L2C RFO          ACCESS:         60 HIT:         16 MISS:         44 MSHR_MERGE:          0
cpu0->cpu0_L2C PREFETCH     ACCESS:    3791805 HIT:     476995 MISS:    3314810 MSHR_MERGE:     380648
cpu0->cpu0_L2C WRITE        ACCESS:         44 HIT:         44 MISS:          0 MSHR_MERGE:          0
cpu0->cpu0_L2C TRANSLATION  ACCESS:     399194 HIT:     193879 MISS:     205315 MSHR_MERGE:          0
cpu0->cpu0_L2C PREFETCH REQUESTED:    1999009 ISSUED:    1999009 USEFUL:     581196 USELESS:    1076000
cpu0->cpu0_L2C AVERAGE MISS LATENCY: 198.5 cycles
cpu0->cpu0_L1I TOTAL        ACCESS:      19495 HIT:      19495 MISS:          0 MSHR_MERGE:          0
cpu0->cpu0_L1I LOAD         ACCESS:      19495 HIT:      19495 MISS:          0 MSHR_MERGE:          0
cpu0->cpu0_L1I RFO          ACCESS:          0 HIT:          0 MISS:          0 MSHR_MERGE:          0
cpu0->cpu0_L1I PREFETCH     ACCESS:          0 HIT:          0 MISS:          0 MSHR_MERGE:          0
cpu0->cpu0_L1I WRITE        ACCESS:          0 HIT:          0 MISS:          0 MSHR_MERGE:          0
cpu0->cpu0_L1I TRANSLATION  ACCESS:          0 HIT:          0 MISS:          0 MSHR_MERGE:          0
cpu0->cpu0_L1I PREFETCH REQUESTED:          0 ISSUED:          0 USEFUL:          0 USELESS:          0
cpu0->cpu0_L1I AVERAGE MISS LATENCY: - cycles
cpu0->cpu0_L1D TOTAL        ACCESS:   51665946 HIT:   46802182 MISS:    4863764 MSHR_MERGE:    1238609
cpu0->cpu0_L1D LOAD         ACCESS:   38217688 HIT:   35608030 MISS:    2609658 MSHR_MERGE:    1176553
cpu0->cpu0_L1D RFO          ACCESS:          0 HIT:          0 MISS:          0 MSHR_MERGE:          0
cpu0->cpu0_L1D PREFETCH     ACCESS:    2419367 HIT:     568396 MISS:    1850971 MSHR_MERGE:      58175
cpu0->cpu0_L1D WRITE        ACCESS:   10081899 HIT:   10081779 MISS:        120 MSHR_MERGE:         60
cpu0->cpu0_L1D TRANSLATION  ACCESS:     946992 HIT:     543977 MISS:     403015 MSHR_MERGE:       3821
cpu0->cpu0_L1D PREFETCH REQUESTED:    2419567 ISSUED:    2419367 USEFUL:    1096286 USELESS:     696467
cpu0->cpu0_L1D AVERAGE MISS LATENCY: 154.3 cycles
cpu0->cpu0_ITLB TOTAL        ACCESS:      19286 HIT:      19286 MISS:          0 MSHR_MERGE:          0
cpu0->cpu0_ITLB LOAD         ACCESS:      19286 HIT:      19286 MISS:          0 MSHR_MERGE:          0
cpu0->cpu0_ITLB RFO          ACCESS:          0 HIT:          0 MISS:          0 MSHR_MERGE:          0
cpu0->cpu0_ITLB PREFETCH     ACCESS:          0 HIT:          0 MISS:          0 MSHR_MERGE:          0
cpu0->cpu0_ITLB WRITE        ACCESS:          0 HIT:          0 MISS:          0 MSHR_MERGE:          0
cpu0->cpu0_ITLB TRANSLATION  ACCESS:          0 HIT:          0 MISS:          0 MSHR_MERGE:          0
cpu0->cpu0_ITLB PREFETCH REQUESTED:          0 ISSUED:          0 USEFUL:          0 USELESS:          0
cpu0->cpu0_ITLB AVERAGE MISS LATENCY: - cycles
cpu0->cpu0_DTLB TOTAL        ACCESS:   48662341 HIT:   47715146 MISS:     947195 MSHR_MERGE:     543918
cpu0->cpu0_DTLB LOAD         ACCESS:   48662341 HIT:   47715146 MISS:     947195 MSHR_MERGE:     543918
cpu0->cpu0_DTLB RFO          ACCESS:          0 HIT:          0 MISS:          0 MSHR_MERGE:          0
cpu0->cpu0_DTLB PREFETCH     ACCESS:          0 HIT:          0 MISS:          0 MSHR_MERGE:          0
cpu0->cpu0_DTLB WRITE        ACCESS:          0 HIT:          0 MISS:          0 MSHR_MERGE:          0
cpu0->cpu0_DTLB TRANSLATION  ACCESS:          0 HIT:          0 MISS:          0 MSHR_MERGE:          0
cpu0->cpu0_DTLB PREFETCH REQUESTED:          0 ISSUED:          0 USEFUL:          0 USELESS:          0
cpu0->cpu0_DTLB AVERAGE MISS LATENCY: 199.2 cycles
cpu0->LLC TOTAL        ACCESS:    6485631 HIT:     805603 MISS:    5680028 MSHR_MERGE:     755566
cpu0->LLC LOAD         ACCESS:    1180159 HIT:     233091 MISS:     947068 MSHR_MERGE:      32312
cpu0->LLC RFO          ACCESS:         44 HIT:         27 MISS:         17 MSHR_MERGE:          0
cpu0->LLC PREFETCH     ACCESS:    5100083 HIT:     571012 MISS:    4529071 MSHR_MERGE:     723254
cpu0->LLC WRITE        ACCESS:         30 HIT:         19 MISS:         11 MSHR_MERGE:          0
cpu0->LLC TRANSLATION  ACCESS:     205315 HIT:       1454 MISS:     203861 MSHR_MERGE:          0
cpu0->LLC PREFETCH REQUESTED:    2165921 ISSUED:    2165921 USEFUL:     783271 USELESS:     702760
cpu0->LLC AVERAGE MISS LATENCY: 214.7 cycles

DRAM Statistics

Channel 0 RQ ROW_BUFFER_HIT:     208568
  ROW_BUFFER_MISS:    4715882
  AVG DBUS CONGESTED CYCLE: 3.942
Channel 0 WQ ROW_BUFFER_HIT:          2
  ROW_BUFFER_MISS:          9
  FULL:          0
Channel 0 REFRESHES ISSUED:      32835
