[VMEM] WARNING: physical memory size is smaller than virtual memory size.

*** ChampSim Multicore Out-of-Order Simulator ***
Warmup Instructions: 50000000
Simulation Instructions: 200000000
Number of CPUs: 1
Page size: 4096
Core 0: /local-ssd/ben/dpc4-traces/Graph/GMS/gms.triangle_count.soc-pokec-relationships.slice-360.champsimtrace.gz
 L1D Berti prefetcher
 L1D Berti prefetcher
Off-chip DRAM Size: 64 GiB Channels: 1 Width: 64-bit Data Rate: 4807 MT/s
Heartbeat CPU 0 instructions: 500001 cycles: 198049 heartbeat IPC: 2.525 cumulative IPC: 2.525 (Simulation time: 00 hr 00 min 04 sec)
Heartbeat CPU 0 instructions: 1000007 cycles: 364002 heartbeat IPC: 3.013 cumulative IPC: 2.747 (Simulation time: 00 hr 00 min 07 sec)
Heartbeat CPU 0 instructions: 1500008 cycles: 520975 heartbeat IPC: 3.185 cumulative IPC: 2.879 (Simulation time: 00 hr 00 min 09 sec)
Heartbeat CPU 0 instructions: 2000014 cycles: 676550 heartbeat IPC: 3.214 cumulative IPC: 2.956 (Simulation time: 00 hr 00 min 12 sec)
Heartbeat CPU 0 instructions: 2500016 cycles: 828699 heartbeat IPC: 3.286 cumulative IPC: 3.017 (Simulation time: 00 hr 00 min 15 sec)
Heartbeat CPU 0 instructions: 3000018 cycles: 979182 heartbeat IPC: 3.323 cumulative IPC: 3.064 (Simulation time: 00 hr 00 min 18 sec)
Heartbeat CPU 0 instructions: 3500025 cycles: 1128577 heartbeat IPC: 3.347 cumulative IPC: 3.101 (Simulation time: 00 hr 00 min 21 sec)
Heartbeat CPU 0 instructions: 4000026 cycles: 1276990 heartbeat IPC: 3.369 cumulative IPC: 3.132 (Simulation time: 00 hr 00 min 23 sec)
Heartbeat CPU 0 instructions: 4500030 cycles: 1425286 heartbeat IPC: 3.372 cumulative IPC: 3.157 (Simulation time: 00 hr 00 min 26 sec)
Heartbeat CPU 0 instructions: 5000031 cycles: 1573125 heartbeat IPC: 3.382 cumulative IPC: 3.178 (Simulation time: 00 hr 00 min 29 sec)
Heartbeat CPU 0 instructions: 5500035 cycles: 1721175 heartbeat IPC: 3.377 cumulative IPC: 3.196 (Simulation time: 00 hr 00 min 31 sec)
Heartbeat CPU 0 instructions: 6000039 cycles: 1870707 heartbeat IPC: 3.344 cumulative IPC: 3.207 (Simulation time: 00 hr 00 min 34 sec)
Heartbeat CPU 0 instructions: 6500043 cycles: 2017793 heartbeat IPC: 3.399 cumulative IPC: 3.221 (Simulation time: 00 hr 00 min 37 sec)
Heartbeat CPU 0 instructions: 7000045 cycles: 2163943 heartbeat IPC: 3.421 cumulative IPC: 3.235 (Simulation time: 00 hr 00 min 40 sec)
Heartbeat CPU 0 instructions: 7500049 cycles: 2311585 heartbeat IPC: 3.387 cumulative IPC: 3.245 (Simulation time: 00 hr 00 min 42 sec)
Heartbeat CPU 0 instructions: 8000053 cycles: 2456543 heartbeat IPC: 3.449 cumulative IPC: 3.257 (Simulation time: 00 hr 00 min 45 sec)
Heartbeat CPU 0 instructions: 8500056 cycles: 2605656 heartbeat IPC: 3.353 cumulative IPC: 3.262 (Simulation time: 00 hr 00 min 48 sec)
Heartbeat CPU 0 instructions: 9000058 cycles: 2755054 heartbeat IPC: 3.347 cumulative IPC: 3.267 (Simulation time: 00 hr 00 min 50 sec)
Heartbeat CPU 0 instructions: 9500062 cycles: 2902243 heartbeat IPC: 3.397 cumulative IPC: 3.273 (Simulation time: 00 hr 00 min 53 sec)
Heartbeat CPU 0 instructions: 10000066 cycles: 3049639 heartbeat IPC: 3.392 cumulative IPC: 3.279 (Simulation time: 00 hr 00 min 56 sec)
Heartbeat CPU 0 instructions: 10500071 cycles: 3195657 heartbeat IPC: 3.424 cumulative IPC: 3.286 (Simulation time: 00 hr 00 min 58 sec)
Heartbeat CPU 0 instructions: 11000076 cycles: 3341679 heartbeat IPC: 3.424 cumulative IPC: 3.292 (Simulation time: 00 hr 01 min 01 sec)
Heartbeat CPU 0 instructions: 11500080 cycles: 3488407 heartbeat IPC: 3.408 cumulative IPC: 3.297 (Simulation time: 00 hr 01 min 04 sec)
Heartbeat CPU 0 instructions: 12000082 cycles: 3635140 heartbeat IPC: 3.408 cumulative IPC: 3.301 (Simulation time: 00 hr 01 min 07 sec)
Heartbeat CPU 0 instructions: 12500086 cycles: 3781710 heartbeat IPC: 3.411 cumulative IPC: 3.305 (Simulation time: 00 hr 01 min 09 sec)
Heartbeat CPU 0 instructions: 13000092 cycles: 3925168 heartbeat IPC: 3.485 cumulative IPC: 3.312 (Simulation time: 00 hr 01 min 12 sec)
Heartbeat CPU 0 instructions: 13500098 cycles: 4073460 heartbeat IPC: 3.372 cumulative IPC: 3.314 (Simulation time: 00 hr 01 min 15 sec)
Heartbeat CPU 0 instructions: 14000102 cycles: 4219426 heartbeat IPC: 3.425 cumulative IPC: 3.318 (Simulation time: 00 hr 01 min 17 sec)
Heartbeat CPU 0 instructions: 14500105 cycles: 4362363 heartbeat IPC: 3.498 cumulative IPC: 3.324 (Simulation time: 00 hr 01 min 20 sec)
Heartbeat CPU 0 instructions: 15000112 cycles: 4507106 heartbeat IPC: 3.454 cumulative IPC: 3.328 (Simulation time: 00 hr 01 min 23 sec)
Heartbeat CPU 0 instructions: 15500115 cycles: 4651773 heartbeat IPC: 3.456 cumulative IPC: 3.332 (Simulation time: 00 hr 01 min 25 sec)
Heartbeat CPU 0 instructions: 16000118 cycles: 4793752 heartbeat IPC: 3.522 cumulative IPC: 3.338 (Simulation time: 00 hr 01 min 28 sec)
Heartbeat CPU 0 instructions: 16500118 cycles: 4938027 heartbeat IPC: 3.466 cumulative IPC: 3.341 (Simulation time: 00 hr 01 min 30 sec)
Heartbeat CPU 0 instructions: 17000122 cycles: 5083267 heartbeat IPC: 3.443 cumulative IPC: 3.344 (Simulation time: 00 hr 01 min 33 sec)
Heartbeat CPU 0 instructions: 17500125 cycles: 5228932 heartbeat IPC: 3.433 cumulative IPC: 3.347 (Simulation time: 00 hr 01 min 36 sec)
Heartbeat CPU 0 instructions: 18000130 cycles: 5372528 heartbeat IPC: 3.482 cumulative IPC: 3.35 (Simulation time: 00 hr 01 min 38 sec)
Heartbeat CPU 0 instructions: 18500131 cycles: 5517509 heartbeat IPC: 3.449 cumulative IPC: 3.353 (Simulation time: 00 hr 01 min 41 sec)
Heartbeat CPU 0 instructions: 19000133 cycles: 5662629 heartbeat IPC: 3.445 cumulative IPC: 3.355 (Simulation time: 00 hr 01 min 44 sec)
Heartbeat CPU 0 instructions: 19500134 cycles: 5807454 heartbeat IPC: 3.452 cumulative IPC: 3.358 (Simulation time: 00 hr 01 min 46 sec)
Heartbeat CPU 0 instructions: 20000140 cycles: 5949984 heartbeat IPC: 3.508 cumulative IPC: 3.361 (Simulation time: 00 hr 01 min 49 sec)
Heartbeat CPU 0 instructions: 20500143 cycles: 6096094 heartbeat IPC: 3.422 cumulative IPC: 3.363 (Simulation time: 00 hr 01 min 52 sec)
Heartbeat CPU 0 instructions: 21000143 cycles: 6241491 heartbeat IPC: 3.439 cumulative IPC: 3.365 (Simulation time: 00 hr 01 min 54 sec)
Heartbeat CPU 0 instructions: 21500148 cycles: 6386292 heartbeat IPC: 3.453 cumulative IPC: 3.367 (Simulation time: 00 hr 01 min 57 sec)
Heartbeat CPU 0 instructions: 22000149 cycles: 6531690 heartbeat IPC: 3.439 cumulative IPC: 3.368 (Simulation time: 00 hr 02 min 00 sec)
Heartbeat CPU 0 instructions: 22500151 cycles: 6673388 heartbeat IPC: 3.529 cumulative IPC: 3.372 (Simulation time: 00 hr 02 min 02 sec)
Heartbeat CPU 0 instructions: 23000156 cycles: 6820138 heartbeat IPC: 3.407 cumulative IPC: 3.372 (Simulation time: 00 hr 02 min 05 sec)
Heartbeat CPU 0 instructions: 23500162 cycles: 6962096 heartbeat IPC: 3.522 cumulative IPC: 3.375 (Simulation time: 00 hr 02 min 08 sec)
Heartbeat CPU 0 instructions: 24000165 cycles: 7105617 heartbeat IPC: 3.484 cumulative IPC: 3.378 (Simulation time: 00 hr 02 min 11 sec)
Heartbeat CPU 0 instructions: 24500167 cycles: 7249391 heartbeat IPC: 3.478 cumulative IPC: 3.38 (Simulation time: 00 hr 02 min 13 sec)
Heartbeat CPU 0 instructions: 25000172 cycles: 7390586 heartbeat IPC: 3.541 cumulative IPC: 3.383 (Simulation time: 00 hr 02 min 16 sec)
Heartbeat CPU 0 instructions: 25500172 cycles: 7533939 heartbeat IPC: 3.488 cumulative IPC: 3.385 (Simulation time: 00 hr 02 min 18 sec)
Heartbeat CPU 0 instructions: 26000178 cycles: 7675841 heartbeat IPC: 3.524 cumulative IPC: 3.387 (Simulation time: 00 hr 02 min 21 sec)
Heartbeat CPU 0 instructions: 26500179 cycles: 7816419 heartbeat IPC: 3.557 cumulative IPC: 3.39 (Simulation time: 00 hr 02 min 24 sec)
Heartbeat CPU 0 instructions: 27000185 cycles: 7955913 heartbeat IPC: 3.584 cumulative IPC: 3.394 (Simulation time: 00 hr 02 min 26 sec)
Heartbeat CPU 0 instructions: 27500187 cycles: 8096850 heartbeat IPC: 3.548 cumulative IPC: 3.396 (Simulation time: 00 hr 02 min 29 sec)
Heartbeat CPU 0 instructions: 28000189 cycles: 8238723 heartbeat IPC: 3.524 cumulative IPC: 3.399 (Simulation time: 00 hr 02 min 31 sec)
Heartbeat CPU 0 instructions: 28500191 cycles: 8377349 heartbeat IPC: 3.607 cumulative IPC: 3.402 (Simulation time: 00 hr 02 min 34 sec)
Heartbeat CPU 0 instructions: 29000196 cycles: 8518843 heartbeat IPC: 3.534 cumulative IPC: 3.404 (Simulation time: 00 hr 02 min 36 sec)
Heartbeat CPU 0 instructions: 29500196 cycles: 8657543 heartbeat IPC: 3.605 cumulative IPC: 3.407 (Simulation time: 00 hr 02 min 39 sec)
Heartbeat CPU 0 instructions: 30000198 cycles: 8797132 heartbeat IPC: 3.582 cumulative IPC: 3.41 (Simulation time: 00 hr 02 min 41 sec)
Heartbeat CPU 0 instructions: 30500202 cycles: 8935975 heartbeat IPC: 3.601 cumulative IPC: 3.413 (Simulation time: 00 hr 02 min 44 sec)
Heartbeat CPU 0 instructions: 31000206 cycles: 9075842 heartbeat IPC: 3.575 cumulative IPC: 3.416 (Simulation time: 00 hr 02 min 46 sec)
Heartbeat CPU 0 instructions: 31500212 cycles: 9216318 heartbeat IPC: 3.559 cumulative IPC: 3.418 (Simulation time: 00 hr 02 min 49 sec)
Heartbeat CPU 0 instructions: 32000215 cycles: 9356150 heartbeat IPC: 3.576 cumulative IPC: 3.42 (Simulation time: 00 hr 02 min 51 sec)
Heartbeat CPU 0 instructions: 32500222 cycles: 9498067 heartbeat IPC: 3.523 cumulative IPC: 3.422 (Simulation time: 00 hr 02 min 54 sec)
Heartbeat CPU 0 instructions: 33000228 cycles: 9637937 heartbeat IPC: 3.575 cumulative IPC: 3.424 (Simulation time: 00 hr 02 min 56 sec)
Heartbeat CPU 0 instructions: 33500230 cycles: 9773881 heartbeat IPC: 3.678 cumulative IPC: 3.428 (Simulation time: 00 hr 02 min 59 sec)
Heartbeat CPU 0 instructions: 34000230 cycles: 9909934 heartbeat IPC: 3.675 cumulative IPC: 3.431 (Simulation time: 00 hr 03 min 01 sec)
Heartbeat CPU 0 instructions: 34500232 cycles: 10047497 heartbeat IPC: 3.635 cumulative IPC: 3.434 (Simulation time: 00 hr 03 min 04 sec)
Heartbeat CPU 0 instructions: 35000239 cycles: 10184576 heartbeat IPC: 3.648 cumulative IPC: 3.437 (Simulation time: 00 hr 03 min 06 sec)
Heartbeat CPU 0 instructions: 35500239 cycles: 10323988 heartbeat IPC: 3.586 cumulative IPC: 3.439 (Simulation time: 00 hr 03 min 09 sec)
Heartbeat CPU 0 instructions: 36000239 cycles: 10460863 heartbeat IPC: 3.653 cumulative IPC: 3.441 (Simulation time: 00 hr 03 min 11 sec)
Heartbeat CPU 0 instructions: 36500245 cycles: 10596903 heartbeat IPC: 3.675 cumulative IPC: 3.444 (Simulation time: 00 hr 03 min 14 sec)
Heartbeat CPU 0 instructions: 37000248 cycles: 10736307 heartbeat IPC: 3.587 cumulative IPC: 3.446 (Simulation time: 00 hr 03 min 16 sec)
Heartbeat CPU 0 instructions: 37500250 cycles: 10876646 heartbeat IPC: 3.563 cumulative IPC: 3.448 (Simulation time: 00 hr 03 min 19 sec)
Heartbeat CPU 0 instructions: 38000257 cycles: 11010981 heartbeat IPC: 3.722 cumulative IPC: 3.451 (Simulation time: 00 hr 03 min 21 sec)
Heartbeat CPU 0 instructions: 38500257 cycles: 11148063 heartbeat IPC: 3.647 cumulative IPC: 3.454 (Simulation time: 00 hr 03 min 24 sec)
Heartbeat CPU 0 instructions: 39000262 cycles: 11283454 heartbeat IPC: 3.693 cumulative IPC: 3.456 (Simulation time: 00 hr 03 min 26 sec)
Heartbeat CPU 0 instructions: 39500268 cycles: 11418124 heartbeat IPC: 3.713 cumulative IPC: 3.459 (Simulation time: 00 hr 03 min 29 sec)
Heartbeat CPU 0 instructions: 40000269 cycles: 11551891 heartbeat IPC: 3.738 cumulative IPC: 3.463 (Simulation time: 00 hr 03 min 31 sec)
Heartbeat CPU 0 instructions: 40500272 cycles: 11686749 heartbeat IPC: 3.708 cumulative IPC: 3.465 (Simulation time: 00 hr 03 min 33 sec)
Heartbeat CPU 0 instructions: 41000274 cycles: 11822863 heartbeat IPC: 3.673 cumulative IPC: 3.468 (Simulation time: 00 hr 03 min 36 sec)
Heartbeat CPU 0 instructions: 41500278 cycles: 11959575 heartbeat IPC: 3.657 cumulative IPC: 3.47 (Simulation time: 00 hr 03 min 38 sec)
Heartbeat CPU 0 instructions: 42000281 cycles: 12097651 heartbeat IPC: 3.621 cumulative IPC: 3.472 (Simulation time: 00 hr 03 min 41 sec)
Heartbeat CPU 0 instructions: 42500285 cycles: 12229290 heartbeat IPC: 3.798 cumulative IPC: 3.475 (Simulation time: 00 hr 03 min 43 sec)
Heartbeat CPU 0 instructions: 43000289 cycles: 12365452 heartbeat IPC: 3.672 cumulative IPC: 3.477 (Simulation time: 00 hr 03 min 46 sec)
Heartbeat CPU 0 instructions: 43500292 cycles: 12502382 heartbeat IPC: 3.652 cumulative IPC: 3.479 (Simulation time: 00 hr 03 min 48 sec)
Heartbeat CPU 0 instructions: 44000296 cycles: 12637326 heartbeat IPC: 3.705 cumulative IPC: 3.482 (Simulation time: 00 hr 03 min 50 sec)
Heartbeat CPU 0 instructions: 44500297 cycles: 12771245 heartbeat IPC: 3.734 cumulative IPC: 3.484 (Simulation time: 00 hr 03 min 53 sec)
Heartbeat CPU 0 instructions: 45000301 cycles: 12908364 heartbeat IPC: 3.646 cumulative IPC: 3.486 (Simulation time: 00 hr 03 min 55 sec)
Heartbeat CPU 0 instructions: 45500306 cycles: 13043336 heartbeat IPC: 3.705 cumulative IPC: 3.488 (Simulation time: 00 hr 03 min 58 sec)
Heartbeat CPU 0 instructions: 46000312 cycles: 13178925 heartbeat IPC: 3.688 cumulative IPC: 3.49 (Simulation time: 00 hr 04 min 00 sec)
Heartbeat CPU 0 instructions: 46500317 cycles: 13314459 heartbeat IPC: 3.689 cumulative IPC: 3.492 (Simulation time: 00 hr 04 min 03 sec)
Heartbeat CPU 0 instructions: 47000323 cycles: 13447168 heartbeat IPC: 3.768 cumulative IPC: 3.495 (Simulation time: 00 hr 04 min 05 sec)
Heartbeat CPU 0 instructions: 47500323 cycles: 13582226 heartbeat IPC: 3.702 cumulative IPC: 3.497 (Simulation time: 00 hr 04 min 08 sec)
Heartbeat CPU 0 instructions: 48000329 cycles: 13718362 heartbeat IPC: 3.673 cumulative IPC: 3.499 (Simulation time: 00 hr 04 min 10 sec)
Heartbeat CPU 0 instructions: 48500333 cycles: 13855057 heartbeat IPC: 3.658 cumulative IPC: 3.501 (Simulation time: 00 hr 04 min 13 sec)
Heartbeat CPU 0 instructions: 49000337 cycles: 13989508 heartbeat IPC: 3.719 cumulative IPC: 3.503 (Simulation time: 00 hr 04 min 15 sec)
Heartbeat CPU 0 instructions: 49500341 cycles: 14129153 heartbeat IPC: 3.581 cumulative IPC: 3.503 (Simulation time: 00 hr 04 min 18 sec)
Warmup halting CPU 0 at instruction 50000003 cycle 14262802 for remainder of phase
Warmup finished CPU 0 instructions: 50000003 cycles: 14262802 cumulative IPC: 3.506 (Simulation time: 00 hr 04 min 20 sec)
Warmup complete CPU 0 instructions: 50000003 cycles: 14262802 cumulative IPC: 3.506 (Simulation time: 00 hr 04 min 20 sec)
Heartbeat CPU 0 instructions: 50000342 cycles: 14262865 heartbeat IPC: 3.739 cumulative IPC: 5.381 (Simulation time: 00 hr 04 min 20 sec)
Heartbeat CPU 0 instructions: 50500342 cycles: 15271980 heartbeat IPC: 0.4955 cumulative IPC: 0.4958 (Simulation time: 00 hr 04 min 27 sec)
Heartbeat CPU 0 instructions: 51000343 cycles: 16270275 heartbeat IPC: 0.5009 cumulative IPC: 0.4983 (Simulation time: 00 hr 04 min 35 sec)
Heartbeat CPU 0 instructions: 51500345 cycles: 17272808 heartbeat IPC: 0.4987 cumulative IPC: 0.4985 (Simulation time: 00 hr 04 min 42 sec)
Heartbeat CPU 0 instructions: 52000345 cycles: 18277217 heartbeat IPC: 0.4978 cumulative IPC: 0.4983 (Simulation time: 00 hr 04 min 49 sec)
Heartbeat CPU 0 instructions: 52500348 cycles: 19269955 heartbeat IPC: 0.5037 cumulative IPC: 0.4994 (Simulation time: 00 hr 04 min 57 sec)
Heartbeat CPU 0 instructions: 53000355 cycles: 20258556 heartbeat IPC: 0.5058 cumulative IPC: 0.5004 (Simulation time: 00 hr 05 min 04 sec)
Heartbeat CPU 0 instructions: 53500358 cycles: 21241083 heartbeat IPC: 0.5089 cumulative IPC: 0.5016 (Simulation time: 00 hr 05 min 11 sec)
Heartbeat CPU 0 instructions: 54000358 cycles: 22237040 heartbeat IPC: 0.502 cumulative IPC: 0.5017 (Simulation time: 00 hr 05 min 19 sec)
Heartbeat CPU 0 instructions: 54500358 cycles: 23199190 heartbeat IPC: 0.5197 cumulative IPC: 0.5036 (Simulation time: 00 hr 05 min 26 sec)
Heartbeat CPU 0 instructions: 55000358 cycles: 24189759 heartbeat IPC: 0.5048 cumulative IPC: 0.5037 (Simulation time: 00 hr 05 min 33 sec)
Heartbeat CPU 0 instructions: 55500365 cycles: 25163358 heartbeat IPC: 0.5136 cumulative IPC: 0.5046 (Simulation time: 00 hr 05 min 40 sec)
Heartbeat CPU 0 instructions: 56000367 cycles: 26145137 heartbeat IPC: 0.5093 cumulative IPC: 0.505 (Simulation time: 00 hr 05 min 48 sec)
Heartbeat CPU 0 instructions: 56500374 cycles: 27099425 heartbeat IPC: 0.524 cumulative IPC: 0.5064 (Simulation time: 00 hr 05 min 55 sec)
Heartbeat CPU 0 instructions: 57000379 cycles: 28052497 heartbeat IPC: 0.5246 cumulative IPC: 0.5077 (Simulation time: 00 hr 06 min 02 sec)
Heartbeat CPU 0 instructions: 57500381 cycles: 29028595 heartbeat IPC: 0.5122 cumulative IPC: 0.508 (Simulation time: 00 hr 06 min 09 sec)
Heartbeat CPU 0 instructions: 58000381 cycles: 29964174 heartbeat IPC: 0.5344 cumulative IPC: 0.5095 (Simulation time: 00 hr 06 min 16 sec)
Heartbeat CPU 0 instructions: 58500383 cycles: 30908983 heartbeat IPC: 0.5292 cumulative IPC: 0.5107 (Simulation time: 00 hr 06 min 23 sec)
Heartbeat CPU 0 instructions: 59000384 cycles: 31899429 heartbeat IPC: 0.5048 cumulative IPC: 0.5103 (Simulation time: 00 hr 06 min 30 sec)
Heartbeat CPU 0 instructions: 59500387 cycles: 32885476 heartbeat IPC: 0.5071 cumulative IPC: 0.5102 (Simulation time: 00 hr 06 min 38 sec)
Heartbeat CPU 0 instructions: 60000388 cycles: 33835147 heartbeat IPC: 0.5265 cumulative IPC: 0.5109 (Simulation time: 00 hr 06 min 45 sec)
Heartbeat CPU 0 instructions: 60500390 cycles: 34806736 heartbeat IPC: 0.5146 cumulative IPC: 0.5111 (Simulation time: 00 hr 06 min 52 sec)
Heartbeat CPU 0 instructions: 61000392 cycles: 35699814 heartbeat IPC: 0.5599 cumulative IPC: 0.5131 (Simulation time: 00 hr 06 min 59 sec)
Heartbeat CPU 0 instructions: 61500393 cycles: 36592902 heartbeat IPC: 0.5599 cumulative IPC: 0.515 (Simulation time: 00 hr 07 min 05 sec)
Heartbeat CPU 0 instructions: 62000393 cycles: 37836930 heartbeat IPC: 0.4019 cumulative IPC: 0.509 (Simulation time: 00 hr 07 min 14 sec)
Heartbeat CPU 0 instructions: 62500397 cycles: 38939546 heartbeat IPC: 0.4535 cumulative IPC: 0.5066 (Simulation time: 00 hr 07 min 22 sec)
Heartbeat CPU 0 instructions: 63000398 cycles: 40054017 heartbeat IPC: 0.4486 cumulative IPC: 0.5041 (Simulation time: 00 hr 07 min 31 sec)
Heartbeat CPU 0 instructions: 63500399 cycles: 41147065 heartbeat IPC: 0.4574 cumulative IPC: 0.5022 (Simulation time: 00 hr 07 min 39 sec)
Heartbeat CPU 0 instructions: 64000399 cycles: 42224963 heartbeat IPC: 0.4639 cumulative IPC: 0.5007 (Simulation time: 00 hr 07 min 46 sec)
Heartbeat CPU 0 instructions: 64500404 cycles: 43322938 heartbeat IPC: 0.4554 cumulative IPC: 0.499 (Simulation time: 00 hr 07 min 55 sec)
Heartbeat CPU 0 instructions: 65000404 cycles: 44388066 heartbeat IPC: 0.4694 cumulative IPC: 0.4979 (Simulation time: 00 hr 08 min 02 sec)
Heartbeat CPU 0 instructions: 65500404 cycles: 45475281 heartbeat IPC: 0.4599 cumulative IPC: 0.4966 (Simulation time: 00 hr 08 min 10 sec)
Heartbeat CPU 0 instructions: 66000404 cycles: 46548428 heartbeat IPC: 0.4659 cumulative IPC: 0.4956 (Simulation time: 00 hr 08 min 18 sec)
Heartbeat CPU 0 instructions: 66500406 cycles: 47659224 heartbeat IPC: 0.4501 cumulative IPC: 0.4941 (Simulation time: 00 hr 08 min 26 sec)
Heartbeat CPU 0 instructions: 67000406 cycles: 48768270 heartbeat IPC: 0.4508 cumulative IPC: 0.4927 (Simulation time: 00 hr 08 min 34 sec)
Heartbeat CPU 0 instructions: 67500406 cycles: 49843385 heartbeat IPC: 0.4651 cumulative IPC: 0.4919 (Simulation time: 00 hr 08 min 42 sec)
Heartbeat CPU 0 instructions: 68000410 cycles: 50926787 heartbeat IPC: 0.4615 cumulative IPC: 0.491 (Simulation time: 00 hr 08 min 50 sec)
Heartbeat CPU 0 instructions: 68500414 cycles: 51979688 heartbeat IPC: 0.4749 cumulative IPC: 0.4905 (Simulation time: 00 hr 08 min 58 sec)
Heartbeat CPU 0 instructions: 69000418 cycles: 53063779 heartbeat IPC: 0.4612 cumulative IPC: 0.4897 (Simulation time: 00 hr 09 min 06 sec)
Heartbeat CPU 0 instructions: 69500421 cycles: 54122780 heartbeat IPC: 0.4721 cumulative IPC: 0.4892 (Simulation time: 00 hr 09 min 14 sec)
Heartbeat CPU 0 instructions: 70000421 cycles: 55190915 heartbeat IPC: 0.4681 cumulative IPC: 0.4887 (Simulation time: 00 hr 09 min 21 sec)
Heartbeat CPU 0 instructions: 70500421 cycles: 56266320 heartbeat IPC: 0.4649 cumulative IPC: 0.4881 (Simulation time: 00 hr 09 min 29 sec)
Heartbeat CPU 0 instructions: 71000423 cycles: 57322549 heartbeat IPC: 0.4734 cumulative IPC: 0.4877 (Simulation time: 00 hr 09 min 37 sec)
Heartbeat CPU 0 instructions: 71500423 cycles: 58369955 heartbeat IPC: 0.4774 cumulative IPC: 0.4875 (Simulation time: 00 hr 09 min 45 sec)
Heartbeat CPU 0 instructions: 72000423 cycles: 59448586 heartbeat IPC: 0.4636 cumulative IPC: 0.4869 (Simulation time: 00 hr 09 min 53 sec)
Heartbeat CPU 0 instructions: 72500423 cycles: 60506515 heartbeat IPC: 0.4726 cumulative IPC: 0.4866 (Simulation time: 00 hr 10 min 01 sec)
Heartbeat CPU 0 instructions: 73000423 cycles: 61532861 heartbeat IPC: 0.4872 cumulative IPC: 0.4866 (Simulation time: 00 hr 10 min 08 sec)
Heartbeat CPU 0 instructions: 73500430 cycles: 62599845 heartbeat IPC: 0.4686 cumulative IPC: 0.4862 (Simulation time: 00 hr 10 min 16 sec)
Heartbeat CPU 0 instructions: 74000435 cycles: 63630264 heartbeat IPC: 0.4852 cumulative IPC: 0.4862 (Simulation time: 00 hr 10 min 24 sec)
Heartbeat CPU 0 instructions: 74500438 cycles: 64707542 heartbeat IPC: 0.4641 cumulative IPC: 0.4857 (Simulation time: 00 hr 10 min 32 sec)
Heartbeat CPU 0 instructions: 75000438 cycles: 65732600 heartbeat IPC: 0.4878 cumulative IPC: 0.4857 (Simulation time: 00 hr 10 min 40 sec)
Heartbeat CPU 0 instructions: 75500442 cycles: 66789715 heartbeat IPC: 0.473 cumulative IPC: 0.4855 (Simulation time: 00 hr 10 min 47 sec)
Heartbeat CPU 0 instructions: 76000444 cycles: 67837847 heartbeat IPC: 0.477 cumulative IPC: 0.4853 (Simulation time: 00 hr 10 min 55 sec)
Heartbeat CPU 0 instructions: 76500447 cycles: 68893826 heartbeat IPC: 0.4735 cumulative IPC: 0.4851 (Simulation time: 00 hr 11 min 05 sec)
Heartbeat CPU 0 instructions: 77000453 cycles: 69930143 heartbeat IPC: 0.4825 cumulative IPC: 0.485 (Simulation time: 00 hr 11 min 12 sec)
Heartbeat CPU 0 instructions: 77500455 cycles: 70981503 heartbeat IPC: 0.4756 cumulative IPC: 0.4849 (Simulation time: 00 hr 11 min 20 sec)
Heartbeat CPU 0 instructions: 78000457 cycles: 72023038 heartbeat IPC: 0.4801 cumulative IPC: 0.4848 (Simulation time: 00 hr 11 min 28 sec)
Heartbeat CPU 0 instructions: 78500458 cycles: 73099871 heartbeat IPC: 0.4643 cumulative IPC: 0.4844 (Simulation time: 00 hr 11 min 36 sec)
Heartbeat CPU 0 instructions: 79000459 cycles: 74127053 heartbeat IPC: 0.4868 cumulative IPC: 0.4844 (Simulation time: 00 hr 11 min 43 sec)
Heartbeat CPU 0 instructions: 79500466 cycles: 75167149 heartbeat IPC: 0.4807 cumulative IPC: 0.4844 (Simulation time: 00 hr 11 min 51 sec)
Heartbeat CPU 0 instructions: 80000466 cycles: 76207298 heartbeat IPC: 0.4807 cumulative IPC: 0.4843 (Simulation time: 00 hr 11 min 58 sec)
Heartbeat CPU 0 instructions: 80500470 cycles: 77263346 heartbeat IPC: 0.4735 cumulative IPC: 0.4841 (Simulation time: 00 hr 12 min 06 sec)
Heartbeat CPU 0 instructions: 81000475 cycles: 78291208 heartbeat IPC: 0.4865 cumulative IPC: 0.4842 (Simulation time: 00 hr 12 min 14 sec)
Heartbeat CPU 0 instructions: 81500476 cycles: 79332777 heartbeat IPC: 0.48 cumulative IPC: 0.4841 (Simulation time: 00 hr 12 min 22 sec)
Heartbeat CPU 0 instructions: 82000476 cycles: 80374548 heartbeat IPC: 0.48 cumulative IPC: 0.484 (Simulation time: 00 hr 12 min 30 sec)
Heartbeat CPU 0 instructions: 82500476 cycles: 81384275 heartbeat IPC: 0.4952 cumulative IPC: 0.4842 (Simulation time: 00 hr 12 min 37 sec)
Heartbeat CPU 0 instructions: 83000476 cycles: 82422627 heartbeat IPC: 0.4815 cumulative IPC: 0.4842 (Simulation time: 00 hr 12 min 45 sec)
Heartbeat CPU 0 instructions: 83500478 cycles: 83470973 heartbeat IPC: 0.4769 cumulative IPC: 0.4841 (Simulation time: 00 hr 12 min 53 sec)
Heartbeat CPU 0 instructions: 84000478 cycles: 84499889 heartbeat IPC: 0.4859 cumulative IPC: 0.4841 (Simulation time: 00 hr 13 min 01 sec)
Heartbeat CPU 0 instructions: 84500478 cycles: 85514573 heartbeat IPC: 0.4928 cumulative IPC: 0.4842 (Simulation time: 00 hr 13 min 08 sec)
Heartbeat CPU 0 instructions: 85000478 cycles: 86578261 heartbeat IPC: 0.4701 cumulative IPC: 0.484 (Simulation time: 00 hr 13 min 16 sec)
Heartbeat CPU 0 instructions: 85500479 cycles: 87622868 heartbeat IPC: 0.4786 cumulative IPC: 0.4839 (Simulation time: 00 hr 13 min 24 sec)
Heartbeat CPU 0 instructions: 86000481 cycles: 88631732 heartbeat IPC: 0.4956 cumulative IPC: 0.4841 (Simulation time: 00 hr 13 min 32 sec)
Heartbeat CPU 0 instructions: 86500481 cycles: 89670958 heartbeat IPC: 0.4811 cumulative IPC: 0.484 (Simulation time: 00 hr 13 min 39 sec)
Heartbeat CPU 0 instructions: 87000481 cycles: 90715619 heartbeat IPC: 0.4786 cumulative IPC: 0.484 (Simulation time: 00 hr 13 min 47 sec)
Heartbeat CPU 0 instructions: 87500488 cycles: 91712063 heartbeat IPC: 0.5018 cumulative IPC: 0.4842 (Simulation time: 00 hr 13 min 54 sec)
Heartbeat CPU 0 instructions: 88000494 cycles: 92748641 heartbeat IPC: 0.4824 cumulative IPC: 0.4842 (Simulation time: 00 hr 14 min 02 sec)
Heartbeat CPU 0 instructions: 88500497 cycles: 93771535 heartbeat IPC: 0.4888 cumulative IPC: 0.4842 (Simulation time: 00 hr 14 min 10 sec)
Heartbeat CPU 0 instructions: 89000501 cycles: 94830129 heartbeat IPC: 0.4723 cumulative IPC: 0.4841 (Simulation time: 00 hr 14 min 17 sec)
Heartbeat CPU 0 instructions: 89500502 cycles: 95836237 heartbeat IPC: 0.497 cumulative IPC: 0.4842 (Simulation time: 00 hr 14 min 25 sec)
Heartbeat CPU 0 instructions: 90000502 cycles: 96864542 heartbeat IPC: 0.4862 cumulative IPC: 0.4843 (Simulation time: 00 hr 14 min 32 sec)
Heartbeat CPU 0 instructions: 90500508 cycles: 97888825 heartbeat IPC: 0.4882 cumulative IPC: 0.4843 (Simulation time: 00 hr 14 min 40 sec)
Heartbeat CPU 0 instructions: 91000512 cycles: 98913984 heartbeat IPC: 0.4877 cumulative IPC: 0.4843 (Simulation time: 00 hr 14 min 47 sec)
Heartbeat CPU 0 instructions: 91500512 cycles: 99957309 heartbeat IPC: 0.4792 cumulative IPC: 0.4843 (Simulation time: 00 hr 14 min 55 sec)
Heartbeat CPU 0 instructions: 92000514 cycles: 100982758 heartbeat IPC: 0.4876 cumulative IPC: 0.4843 (Simulation time: 00 hr 15 min 03 sec)
Heartbeat CPU 0 instructions: 92500514 cycles: 102008534 heartbeat IPC: 0.4874 cumulative IPC: 0.4844 (Simulation time: 00 hr 15 min 10 sec)
Heartbeat CPU 0 instructions: 93000516 cycles: 103058456 heartbeat IPC: 0.4762 cumulative IPC: 0.4843 (Simulation time: 00 hr 15 min 18 sec)
Heartbeat CPU 0 instructions: 93500517 cycles: 104101630 heartbeat IPC: 0.4793 cumulative IPC: 0.4842 (Simulation time: 00 hr 15 min 26 sec)
Heartbeat CPU 0 instructions: 94000518 cycles: 105135181 heartbeat IPC: 0.4838 cumulative IPC: 0.4842 (Simulation time: 00 hr 15 min 33 sec)
Heartbeat CPU 0 instructions: 94500523 cycles: 106200871 heartbeat IPC: 0.4692 cumulative IPC: 0.484 (Simulation time: 00 hr 15 min 41 sec)
Heartbeat CPU 0 instructions: 95000527 cycles: 107236860 heartbeat IPC: 0.4826 cumulative IPC: 0.484 (Simulation time: 00 hr 15 min 49 sec)
Heartbeat CPU 0 instructions: 95500531 cycles: 108306398 heartbeat IPC: 0.4675 cumulative IPC: 0.4838 (Simulation time: 00 hr 15 min 57 sec)
Heartbeat CPU 0 instructions: 96000531 cycles: 109357952 heartbeat IPC: 0.4755 cumulative IPC: 0.4837 (Simulation time: 00 hr 16 min 04 sec)
Heartbeat CPU 0 instructions: 96500534 cycles: 110411101 heartbeat IPC: 0.4748 cumulative IPC: 0.4836 (Simulation time: 00 hr 16 min 12 sec)
Heartbeat CPU 0 instructions: 97000535 cycles: 111438244 heartbeat IPC: 0.4868 cumulative IPC: 0.4837 (Simulation time: 00 hr 16 min 20 sec)
Heartbeat CPU 0 instructions: 97500536 cycles: 112471123 heartbeat IPC: 0.4841 cumulative IPC: 0.4837 (Simulation time: 00 hr 16 min 27 sec)
Heartbeat CPU 0 instructions: 98000536 cycles: 113518147 heartbeat IPC: 0.4775 cumulative IPC: 0.4836 (Simulation time: 00 hr 16 min 35 sec)
Heartbeat CPU 0 instructions: 98500536 cycles: 114557260 heartbeat IPC: 0.4812 cumulative IPC: 0.4836 (Simulation time: 00 hr 16 min 43 sec)
Heartbeat CPU 0 instructions: 99000536 cycles: 115583088 heartbeat IPC: 0.4874 cumulative IPC: 0.4836 (Simulation time: 00 hr 16 min 50 sec)
Heartbeat CPU 0 instructions: 99500539 cycles: 116602429 heartbeat IPC: 0.4905 cumulative IPC: 0.4837 (Simulation time: 00 hr 16 min 58 sec)
Heartbeat CPU 0 instructions: 100000540 cycles: 117605233 heartbeat IPC: 0.4986 cumulative IPC: 0.4838 (Simulation time: 00 hr 17 min 05 sec)
Heartbeat CPU 0 instructions: 100500545 cycles: 118617159 heartbeat IPC: 0.4941 cumulative IPC: 0.4839 (Simulation time: 00 hr 17 min 13 sec)
Heartbeat CPU 0 instructions: 101000546 cycles: 119612865 heartbeat IPC: 0.5022 cumulative IPC: 0.4841 (Simulation time: 00 hr 17 min 20 sec)
Heartbeat CPU 0 instructions: 101500547 cycles: 120604653 heartbeat IPC: 0.5041 cumulative IPC: 0.4843 (Simulation time: 00 hr 17 min 27 sec)
Heartbeat CPU 0 instructions: 102000550 cycles: 121621922 heartbeat IPC: 0.4915 cumulative IPC: 0.4844 (Simulation time: 00 hr 17 min 35 sec)
Heartbeat CPU 0 instructions: 102500551 cycles: 122658189 heartbeat IPC: 0.4825 cumulative IPC: 0.4843 (Simulation time: 00 hr 17 min 42 sec)
Heartbeat CPU 0 instructions: 103000554 cycles: 123643735 heartbeat IPC: 0.5073 cumulative IPC: 0.4846 (Simulation time: 00 hr 17 min 50 sec)
Heartbeat CPU 0 instructions: 103500557 cycles: 124668759 heartbeat IPC: 0.4878 cumulative IPC: 0.4846 (Simulation time: 00 hr 17 min 57 sec)
Heartbeat CPU 0 instructions: 104000557 cycles: 125713213 heartbeat IPC: 0.4787 cumulative IPC: 0.4845 (Simulation time: 00 hr 18 min 05 sec)
Heartbeat CPU 0 instructions: 104500562 cycles: 126742859 heartbeat IPC: 0.4856 cumulative IPC: 0.4845 (Simulation time: 00 hr 18 min 12 sec)
Heartbeat CPU 0 instructions: 105000566 cycles: 127769207 heartbeat IPC: 0.4872 cumulative IPC: 0.4846 (Simulation time: 00 hr 18 min 20 sec)
Heartbeat CPU 0 instructions: 105500567 cycles: 128795015 heartbeat IPC: 0.4874 cumulative IPC: 0.4846 (Simulation time: 00 hr 18 min 27 sec)
Heartbeat CPU 0 instructions: 106000567 cycles: 129807581 heartbeat IPC: 0.4938 cumulative IPC: 0.4847 (Simulation time: 00 hr 18 min 35 sec)
Heartbeat CPU 0 instructions: 106500567 cycles: 130848970 heartbeat IPC: 0.4801 cumulative IPC: 0.4846 (Simulation time: 00 hr 18 min 43 sec)
Heartbeat CPU 0 instructions: 107000567 cycles: 131902704 heartbeat IPC: 0.4745 cumulative IPC: 0.4845 (Simulation time: 00 hr 18 min 50 sec)
Heartbeat CPU 0 instructions: 107500573 cycles: 132926911 heartbeat IPC: 0.4882 cumulative IPC: 0.4846 (Simulation time: 00 hr 18 min 58 sec)
Heartbeat CPU 0 instructions: 108000573 cycles: 133933186 heartbeat IPC: 0.4969 cumulative IPC: 0.4847 (Simulation time: 00 hr 19 min 05 sec)
Heartbeat CPU 0 instructions: 108500574 cycles: 134948660 heartbeat IPC: 0.4924 cumulative IPC: 0.4847 (Simulation time: 00 hr 19 min 13 sec)
Heartbeat CPU 0 instructions: 109000580 cycles: 135965875 heartbeat IPC: 0.4915 cumulative IPC: 0.4848 (Simulation time: 00 hr 19 min 20 sec)
Heartbeat CPU 0 instructions: 109500583 cycles: 136982467 heartbeat IPC: 0.4918 cumulative IPC: 0.4848 (Simulation time: 00 hr 19 min 28 sec)
Heartbeat CPU 0 instructions: 110000583 cycles: 137988283 heartbeat IPC: 0.4971 cumulative IPC: 0.4849 (Simulation time: 00 hr 19 min 35 sec)
Heartbeat CPU 0 instructions: 110500585 cycles: 139028559 heartbeat IPC: 0.4806 cumulative IPC: 0.4849 (Simulation time: 00 hr 19 min 43 sec)
Heartbeat CPU 0 instructions: 111000585 cycles: 140031886 heartbeat IPC: 0.4983 cumulative IPC: 0.485 (Simulation time: 00 hr 19 min 50 sec)
Heartbeat CPU 0 instructions: 111500591 cycles: 141042486 heartbeat IPC: 0.4948 cumulative IPC: 0.4851 (Simulation time: 00 hr 19 min 58 sec)
Heartbeat CPU 0 instructions: 112000593 cycles: 142062176 heartbeat IPC: 0.4903 cumulative IPC: 0.4851 (Simulation time: 00 hr 20 min 05 sec)
Heartbeat CPU 0 instructions: 112500593 cycles: 143063240 heartbeat IPC: 0.4995 cumulative IPC: 0.4853 (Simulation time: 00 hr 20 min 12 sec)
Heartbeat CPU 0 instructions: 113000595 cycles: 144074542 heartbeat IPC: 0.4944 cumulative IPC: 0.4853 (Simulation time: 00 hr 20 min 20 sec)
Heartbeat CPU 0 instructions: 113500596 cycles: 145091311 heartbeat IPC: 0.4918 cumulative IPC: 0.4854 (Simulation time: 00 hr 20 min 27 sec)
Heartbeat CPU 0 instructions: 114000596 cycles: 146079134 heartbeat IPC: 0.5062 cumulative IPC: 0.4855 (Simulation time: 00 hr 20 min 35 sec)
Heartbeat CPU 0 instructions: 114500596 cycles: 147104699 heartbeat IPC: 0.4875 cumulative IPC: 0.4855 (Simulation time: 00 hr 20 min 42 sec)
Heartbeat CPU 0 instructions: 115000597 cycles: 148124303 heartbeat IPC: 0.4904 cumulative IPC: 0.4856 (Simulation time: 00 hr 20 min 50 sec)
Heartbeat CPU 0 instructions: 115500599 cycles: 149155033 heartbeat IPC: 0.4851 cumulative IPC: 0.4856 (Simulation time: 00 hr 20 min 57 sec)
Heartbeat CPU 0 instructions: 116000605 cycles: 150155535 heartbeat IPC: 0.4998 cumulative IPC: 0.4857 (Simulation time: 00 hr 21 min 05 sec)
Heartbeat CPU 0 instructions: 116500611 cycles: 151176744 heartbeat IPC: 0.4896 cumulative IPC: 0.4857 (Simulation time: 00 hr 21 min 12 sec)
Heartbeat CPU 0 instructions: 117000614 cycles: 152187090 heartbeat IPC: 0.4949 cumulative IPC: 0.4858 (Simulation time: 00 hr 21 min 20 sec)
Heartbeat CPU 0 instructions: 117500615 cycles: 153198428 heartbeat IPC: 0.4944 cumulative IPC: 0.4858 (Simulation time: 00 hr 21 min 27 sec)
Heartbeat CPU 0 instructions: 118000616 cycles: 154239805 heartbeat IPC: 0.4801 cumulative IPC: 0.4858 (Simulation time: 00 hr 21 min 35 sec)
Heartbeat CPU 0 instructions: 118500617 cycles: 155256390 heartbeat IPC: 0.4918 cumulative IPC: 0.4858 (Simulation time: 00 hr 21 min 42 sec)
Heartbeat CPU 0 instructions: 119000618 cycles: 156271353 heartbeat IPC: 0.4926 cumulative IPC: 0.4859 (Simulation time: 00 hr 21 min 50 sec)
Heartbeat CPU 0 instructions: 119500619 cycles: 157282066 heartbeat IPC: 0.4947 cumulative IPC: 0.486 (Simulation time: 00 hr 21 min 57 sec)
Heartbeat CPU 0 instructions: 120000623 cycles: 158328631 heartbeat IPC: 0.4778 cumulative IPC: 0.4859 (Simulation time: 00 hr 22 min 05 sec)
Heartbeat CPU 0 instructions: 120500623 cycles: 159359497 heartbeat IPC: 0.485 cumulative IPC: 0.4859 (Simulation time: 00 hr 22 min 12 sec)
Heartbeat CPU 0 instructions: 121000625 cycles: 160359663 heartbeat IPC: 0.4999 cumulative IPC: 0.486 (Simulation time: 00 hr 22 min 20 sec)
Heartbeat CPU 0 instructions: 121500628 cycles: 161378995 heartbeat IPC: 0.4905 cumulative IPC: 0.486 (Simulation time: 00 hr 22 min 27 sec)
Heartbeat CPU 0 instructions: 122000634 cycles: 162401957 heartbeat IPC: 0.4888 cumulative IPC: 0.486 (Simulation time: 00 hr 22 min 35 sec)
Heartbeat CPU 0 instructions: 122500634 cycles: 163401935 heartbeat IPC: 0.5 cumulative IPC: 0.4861 (Simulation time: 00 hr 22 min 42 sec)
Heartbeat CPU 0 instructions: 123000634 cycles: 164429841 heartbeat IPC: 0.4864 cumulative IPC: 0.4861 (Simulation time: 00 hr 22 min 49 sec)
Heartbeat CPU 0 instructions: 123500638 cycles: 165433339 heartbeat IPC: 0.4983 cumulative IPC: 0.4862 (Simulation time: 00 hr 22 min 57 sec)
Heartbeat CPU 0 instructions: 124000638 cycles: 166456629 heartbeat IPC: 0.4886 cumulative IPC: 0.4862 (Simulation time: 00 hr 23 min 04 sec)
Heartbeat CPU 0 instructions: 124500643 cycles: 167452838 heartbeat IPC: 0.5019 cumulative IPC: 0.4863 (Simulation time: 00 hr 23 min 12 sec)
Heartbeat CPU 0 instructions: 125000643 cycles: 168452572 heartbeat IPC: 0.5001 cumulative IPC: 0.4864 (Simulation time: 00 hr 23 min 19 sec)
Heartbeat CPU 0 instructions: 125500645 cycles: 169467854 heartbeat IPC: 0.4925 cumulative IPC: 0.4865 (Simulation time: 00 hr 23 min 26 sec)
Heartbeat CPU 0 instructions: 126000646 cycles: 170455711 heartbeat IPC: 0.5061 cumulative IPC: 0.4866 (Simulation time: 00 hr 23 min 34 sec)
Heartbeat CPU 0 instructions: 126500649 cycles: 171464849 heartbeat IPC: 0.4955 cumulative IPC: 0.4866 (Simulation time: 00 hr 23 min 41 sec)
Heartbeat CPU 0 instructions: 127000649 cycles: 172464570 heartbeat IPC: 0.5001 cumulative IPC: 0.4867 (Simulation time: 00 hr 23 min 48 sec)
Heartbeat CPU 0 instructions: 127500650 cycles: 173449572 heartbeat IPC: 0.5076 cumulative IPC: 0.4869 (Simulation time: 00 hr 23 min 56 sec)
Heartbeat CPU 0 instructions: 128000652 cycles: 174452900 heartbeat IPC: 0.4983 cumulative IPC: 0.4869 (Simulation time: 00 hr 24 min 03 sec)
Heartbeat CPU 0 instructions: 128500655 cycles: 175459189 heartbeat IPC: 0.4969 cumulative IPC: 0.487 (Simulation time: 00 hr 24 min 10 sec)
Heartbeat CPU 0 instructions: 129000655 cycles: 176446670 heartbeat IPC: 0.5063 cumulative IPC: 0.4871 (Simulation time: 00 hr 24 min 18 sec)
Heartbeat CPU 0 instructions: 129500655 cycles: 177445437 heartbeat IPC: 0.5006 cumulative IPC: 0.4872 (Simulation time: 00 hr 24 min 25 sec)
Heartbeat CPU 0 instructions: 130000656 cycles: 178462148 heartbeat IPC: 0.4918 cumulative IPC: 0.4872 (Simulation time: 00 hr 24 min 32 sec)
Heartbeat CPU 0 instructions: 130500661 cycles: 179468865 heartbeat IPC: 0.4967 cumulative IPC: 0.4873 (Simulation time: 00 hr 24 min 40 sec)
Heartbeat CPU 0 instructions: 131000666 cycles: 180481893 heartbeat IPC: 0.4936 cumulative IPC: 0.4873 (Simulation time: 00 hr 24 min 47 sec)
Heartbeat CPU 0 instructions: 131500669 cycles: 181484074 heartbeat IPC: 0.4989 cumulative IPC: 0.4874 (Simulation time: 00 hr 24 min 54 sec)
Heartbeat CPU 0 instructions: 132000674 cycles: 182500667 heartbeat IPC: 0.4918 cumulative IPC: 0.4874 (Simulation time: 00 hr 25 min 01 sec)
Heartbeat CPU 0 instructions: 132500676 cycles: 183530085 heartbeat IPC: 0.4857 cumulative IPC: 0.4874 (Simulation time: 00 hr 25 min 09 sec)
Heartbeat CPU 0 instructions: 133000678 cycles: 184547486 heartbeat IPC: 0.4915 cumulative IPC: 0.4874 (Simulation time: 00 hr 25 min 16 sec)
Heartbeat CPU 0 instructions: 133500680 cycles: 185551904 heartbeat IPC: 0.4978 cumulative IPC: 0.4875 (Simulation time: 00 hr 25 min 24 sec)
Heartbeat CPU 0 instructions: 134000684 cycles: 186587493 heartbeat IPC: 0.4828 cumulative IPC: 0.4875 (Simulation time: 00 hr 25 min 31 sec)
Heartbeat CPU 0 instructions: 134500684 cycles: 187607238 heartbeat IPC: 0.4903 cumulative IPC: 0.4875 (Simulation time: 00 hr 25 min 38 sec)
Heartbeat CPU 0 instructions: 135000689 cycles: 188621666 heartbeat IPC: 0.4929 cumulative IPC: 0.4875 (Simulation time: 00 hr 25 min 46 sec)
Heartbeat CPU 0 instructions: 135500689 cycles: 189639670 heartbeat IPC: 0.4912 cumulative IPC: 0.4875 (Simulation time: 00 hr 25 min 53 sec)
Heartbeat CPU 0 instructions: 136000689 cycles: 190646065 heartbeat IPC: 0.4968 cumulative IPC: 0.4876 (Simulation time: 00 hr 26 min 00 sec)
Heartbeat CPU 0 instructions: 136500695 cycles: 191656565 heartbeat IPC: 0.4948 cumulative IPC: 0.4876 (Simulation time: 00 hr 26 min 08 sec)
Heartbeat CPU 0 instructions: 137000699 cycles: 192675324 heartbeat IPC: 0.4908 cumulative IPC: 0.4876 (Simulation time: 00 hr 26 min 15 sec)
Heartbeat CPU 0 instructions: 137500699 cycles: 193692696 heartbeat IPC: 0.4915 cumulative IPC: 0.4877 (Simulation time: 00 hr 26 min 22 sec)
Heartbeat CPU 0 instructions: 138000703 cycles: 194699572 heartbeat IPC: 0.4966 cumulative IPC: 0.4877 (Simulation time: 00 hr 26 min 29 sec)
Heartbeat CPU 0 instructions: 138500705 cycles: 195710129 heartbeat IPC: 0.4948 cumulative IPC: 0.4877 (Simulation time: 00 hr 26 min 37 sec)
Heartbeat CPU 0 instructions: 139000707 cycles: 196699890 heartbeat IPC: 0.5052 cumulative IPC: 0.4878 (Simulation time: 00 hr 26 min 44 sec)
Heartbeat CPU 0 instructions: 139500708 cycles: 197688383 heartbeat IPC: 0.5058 cumulative IPC: 0.4879 (Simulation time: 00 hr 26 min 51 sec)
Heartbeat CPU 0 instructions: 140000709 cycles: 198663493 heartbeat IPC: 0.5128 cumulative IPC: 0.4881 (Simulation time: 00 hr 26 min 58 sec)
Heartbeat CPU 0 instructions: 140500710 cycles: 199655947 heartbeat IPC: 0.5038 cumulative IPC: 0.4882 (Simulation time: 00 hr 27 min 05 sec)
Heartbeat CPU 0 instructions: 141000712 cycles: 200683688 heartbeat IPC: 0.4865 cumulative IPC: 0.4881 (Simulation time: 00 hr 27 min 12 sec)
Heartbeat CPU 0 instructions: 141500714 cycles: 201688923 heartbeat IPC: 0.4974 cumulative IPC: 0.4882 (Simulation time: 00 hr 27 min 19 sec)
Heartbeat CPU 0 instructions: 142000716 cycles: 202711175 heartbeat IPC: 0.4891 cumulative IPC: 0.4882 (Simulation time: 00 hr 27 min 26 sec)
Heartbeat CPU 0 instructions: 142500718 cycles: 203729142 heartbeat IPC: 0.4912 cumulative IPC: 0.4882 (Simulation time: 00 hr 27 min 34 sec)
Heartbeat CPU 0 instructions: 143000721 cycles: 204723831 heartbeat IPC: 0.5027 cumulative IPC: 0.4883 (Simulation time: 00 hr 27 min 41 sec)
Heartbeat CPU 0 instructions: 143500721 cycles: 205754381 heartbeat IPC: 0.4852 cumulative IPC: 0.4883 (Simulation time: 00 hr 27 min 48 sec)
Heartbeat CPU 0 instructions: 144000722 cycles: 206763299 heartbeat IPC: 0.4956 cumulative IPC: 0.4883 (Simulation time: 00 hr 27 min 55 sec)
Heartbeat CPU 0 instructions: 144500722 cycles: 207725312 heartbeat IPC: 0.5197 cumulative IPC: 0.4885 (Simulation time: 00 hr 28 min 02 sec)
Heartbeat CPU 0 instructions: 145000723 cycles: 208698144 heartbeat IPC: 0.514 cumulative IPC: 0.4886 (Simulation time: 00 hr 28 min 09 sec)
Heartbeat CPU 0 instructions: 145500726 cycles: 209678570 heartbeat IPC: 0.51 cumulative IPC: 0.4887 (Simulation time: 00 hr 28 min 15 sec)
Heartbeat CPU 0 instructions: 146000727 cycles: 210661007 heartbeat IPC: 0.5089 cumulative IPC: 0.4888 (Simulation time: 00 hr 28 min 22 sec)
Heartbeat CPU 0 instructions: 146500728 cycles: 211661590 heartbeat IPC: 0.4997 cumulative IPC: 0.4889 (Simulation time: 00 hr 28 min 29 sec)
Heartbeat CPU 0 instructions: 147000728 cycles: 212666911 heartbeat IPC: 0.4974 cumulative IPC: 0.4889 (Simulation time: 00 hr 28 min 36 sec)
Heartbeat CPU 0 instructions: 147500729 cycles: 213673849 heartbeat IPC: 0.4966 cumulative IPC: 0.4889 (Simulation time: 00 hr 28 min 43 sec)
Heartbeat CPU 0 instructions: 148000729 cycles: 214678043 heartbeat IPC: 0.4979 cumulative IPC: 0.489 (Simulation time: 00 hr 28 min 50 sec)
Heartbeat CPU 0 instructions: 148500734 cycles: 215675181 heartbeat IPC: 0.5014 cumulative IPC: 0.4891 (Simulation time: 00 hr 28 min 57 sec)
Heartbeat CPU 0 instructions: 149000740 cycles: 216673448 heartbeat IPC: 0.5009 cumulative IPC: 0.4891 (Simulation time: 00 hr 29 min 04 sec)
Heartbeat CPU 0 instructions: 149500741 cycles: 217662761 heartbeat IPC: 0.5054 cumulative IPC: 0.4892 (Simulation time: 00 hr 29 min 11 sec)
Heartbeat CPU 0 instructions: 150000742 cycles: 218658120 heartbeat IPC: 0.5023 cumulative IPC: 0.4893 (Simulation time: 00 hr 29 min 18 sec)
Heartbeat CPU 0 instructions: 150500743 cycles: 219672892 heartbeat IPC: 0.4927 cumulative IPC: 0.4893 (Simulation time: 00 hr 29 min 25 sec)
Heartbeat CPU 0 instructions: 151000750 cycles: 220679397 heartbeat IPC: 0.4968 cumulative IPC: 0.4893 (Simulation time: 00 hr 29 min 32 sec)
Heartbeat CPU 0 instructions: 151500753 cycles: 221676922 heartbeat IPC: 0.5012 cumulative IPC: 0.4894 (Simulation time: 00 hr 29 min 39 sec)
Heartbeat CPU 0 instructions: 152000759 cycles: 222664725 heartbeat IPC: 0.5062 cumulative IPC: 0.4894 (Simulation time: 00 hr 29 min 45 sec)
Heartbeat CPU 0 instructions: 152500763 cycles: 223640311 heartbeat IPC: 0.5125 cumulative IPC: 0.4896 (Simulation time: 00 hr 29 min 52 sec)
Heartbeat CPU 0 instructions: 153000764 cycles: 224640104 heartbeat IPC: 0.5001 cumulative IPC: 0.4896 (Simulation time: 00 hr 29 min 59 sec)
Heartbeat CPU 0 instructions: 153500766 cycles: 225609198 heartbeat IPC: 0.5159 cumulative IPC: 0.4897 (Simulation time: 00 hr 30 min 05 sec)
Heartbeat CPU 0 instructions: 154000766 cycles: 226629226 heartbeat IPC: 0.4902 cumulative IPC: 0.4897 (Simulation time: 00 hr 30 min 12 sec)
Heartbeat CPU 0 instructions: 154500772 cycles: 227619768 heartbeat IPC: 0.5048 cumulative IPC: 0.4898 (Simulation time: 00 hr 30 min 19 sec)
Heartbeat CPU 0 instructions: 155000772 cycles: 228608229 heartbeat IPC: 0.5058 cumulative IPC: 0.4899 (Simulation time: 00 hr 30 min 26 sec)
Heartbeat CPU 0 instructions: 155500772 cycles: 229601337 heartbeat IPC: 0.5035 cumulative IPC: 0.4899 (Simulation time: 00 hr 30 min 32 sec)
Heartbeat CPU 0 instructions: 156000777 cycles: 230587873 heartbeat IPC: 0.5068 cumulative IPC: 0.49 (Simulation time: 00 hr 30 min 39 sec)
Heartbeat CPU 0 instructions: 156500777 cycles: 231592197 heartbeat IPC: 0.4978 cumulative IPC: 0.49 (Simulation time: 00 hr 30 min 46 sec)
Heartbeat CPU 0 instructions: 157000778 cycles: 232567270 heartbeat IPC: 0.5128 cumulative IPC: 0.4901 (Simulation time: 00 hr 30 min 52 sec)
Heartbeat CPU 0 instructions: 157500780 cycles: 233569390 heartbeat IPC: 0.4989 cumulative IPC: 0.4902 (Simulation time: 00 hr 30 min 59 sec)
Heartbeat CPU 0 instructions: 158000781 cycles: 234581015 heartbeat IPC: 0.4943 cumulative IPC: 0.4902 (Simulation time: 00 hr 31 min 06 sec)
Heartbeat CPU 0 instructions: 158500781 cycles: 235549356 heartbeat IPC: 0.5163 cumulative IPC: 0.4903 (Simulation time: 00 hr 31 min 13 sec)
Heartbeat CPU 0 instructions: 159000784 cycles: 236555046 heartbeat IPC: 0.4972 cumulative IPC: 0.4903 (Simulation time: 00 hr 31 min 19 sec)
Heartbeat CPU 0 instructions: 159500787 cycles: 237548223 heartbeat IPC: 0.5034 cumulative IPC: 0.4904 (Simulation time: 00 hr 31 min 26 sec)
Heartbeat CPU 0 instructions: 160000790 cycles: 238553392 heartbeat IPC: 0.4974 cumulative IPC: 0.4904 (Simulation time: 00 hr 31 min 33 sec)
Heartbeat CPU 0 instructions: 160500790 cycles: 239541032 heartbeat IPC: 0.5063 cumulative IPC: 0.4905 (Simulation time: 00 hr 31 min 39 sec)
Heartbeat CPU 0 instructions: 161000790 cycles: 240533413 heartbeat IPC: 0.5038 cumulative IPC: 0.4906 (Simulation time: 00 hr 31 min 46 sec)
Heartbeat CPU 0 instructions: 161500793 cycles: 241524093 heartbeat IPC: 0.5047 cumulative IPC: 0.4906 (Simulation time: 00 hr 31 min 52 sec)
Heartbeat CPU 0 instructions: 162000794 cycles: 242529888 heartbeat IPC: 0.4971 cumulative IPC: 0.4907 (Simulation time: 00 hr 31 min 59 sec)
Heartbeat CPU 0 instructions: 162500797 cycles: 243512329 heartbeat IPC: 0.5089 cumulative IPC: 0.4907 (Simulation time: 00 hr 32 min 06 sec)
Heartbeat CPU 0 instructions: 163000801 cycles: 244489899 heartbeat IPC: 0.5115 cumulative IPC: 0.4908 (Simulation time: 00 hr 32 min 12 sec)
Heartbeat CPU 0 instructions: 163500802 cycles: 245482164 heartbeat IPC: 0.5039 cumulative IPC: 0.4909 (Simulation time: 00 hr 32 min 19 sec)
Heartbeat CPU 0 instructions: 164000809 cycles: 246495690 heartbeat IPC: 0.4933 cumulative IPC: 0.4909 (Simulation time: 00 hr 32 min 25 sec)
Heartbeat CPU 0 instructions: 164500810 cycles: 247499179 heartbeat IPC: 0.4983 cumulative IPC: 0.4909 (Simulation time: 00 hr 32 min 32 sec)
Heartbeat CPU 0 instructions: 165000811 cycles: 248473547 heartbeat IPC: 0.5132 cumulative IPC: 0.491 (Simulation time: 00 hr 32 min 39 sec)
Heartbeat CPU 0 instructions: 165500818 cycles: 249491189 heartbeat IPC: 0.4913 cumulative IPC: 0.491 (Simulation time: 00 hr 32 min 45 sec)
Heartbeat CPU 0 instructions: 166000818 cycles: 250460293 heartbeat IPC: 0.5159 cumulative IPC: 0.4911 (Simulation time: 00 hr 32 min 52 sec)
Heartbeat CPU 0 instructions: 166500818 cycles: 251431837 heartbeat IPC: 0.5146 cumulative IPC: 0.4912 (Simulation time: 00 hr 32 min 58 sec)
Heartbeat CPU 0 instructions: 167000820 cycles: 252414204 heartbeat IPC: 0.509 cumulative IPC: 0.4913 (Simulation time: 00 hr 33 min 05 sec)
Heartbeat CPU 0 instructions: 167500820 cycles: 253412446 heartbeat IPC: 0.5009 cumulative IPC: 0.4913 (Simulation time: 00 hr 33 min 11 sec)
Heartbeat CPU 0 instructions: 168000820 cycles: 254412355 heartbeat IPC: 0.5 cumulative IPC: 0.4914 (Simulation time: 00 hr 33 min 18 sec)
Heartbeat CPU 0 instructions: 168500824 cycles: 255400426 heartbeat IPC: 0.506 cumulative IPC: 0.4914 (Simulation time: 00 hr 33 min 24 sec)
Heartbeat CPU 0 instructions: 169000831 cycles: 256399021 heartbeat IPC: 0.5007 cumulative IPC: 0.4915 (Simulation time: 00 hr 33 min 31 sec)
Heartbeat CPU 0 instructions: 169500831 cycles: 257413511 heartbeat IPC: 0.4929 cumulative IPC: 0.4915 (Simulation time: 00 hr 33 min 38 sec)
Heartbeat CPU 0 instructions: 170000832 cycles: 258400245 heartbeat IPC: 0.5067 cumulative IPC: 0.4915 (Simulation time: 00 hr 33 min 44 sec)
Heartbeat CPU 0 instructions: 170500833 cycles: 259380536 heartbeat IPC: 0.5101 cumulative IPC: 0.4916 (Simulation time: 00 hr 33 min 51 sec)
Heartbeat CPU 0 instructions: 171000835 cycles: 260384656 heartbeat IPC: 0.498 cumulative IPC: 0.4916 (Simulation time: 00 hr 33 min 57 sec)
Heartbeat CPU 0 instructions: 171500837 cycles: 261388046 heartbeat IPC: 0.4983 cumulative IPC: 0.4917 (Simulation time: 00 hr 34 min 04 sec)
Heartbeat CPU 0 instructions: 172000838 cycles: 262359377 heartbeat IPC: 0.5148 cumulative IPC: 0.4917 (Simulation time: 00 hr 34 min 10 sec)
Heartbeat CPU 0 instructions: 172500841 cycles: 263348195 heartbeat IPC: 0.5057 cumulative IPC: 0.4918 (Simulation time: 00 hr 34 min 16 sec)
Heartbeat CPU 0 instructions: 173000842 cycles: 264324457 heartbeat IPC: 0.5122 cumulative IPC: 0.4919 (Simulation time: 00 hr 34 min 22 sec)
Heartbeat CPU 0 instructions: 173500847 cycles: 265322287 heartbeat IPC: 0.5011 cumulative IPC: 0.4919 (Simulation time: 00 hr 34 min 29 sec)
Heartbeat CPU 0 instructions: 174000851 cycles: 266313044 heartbeat IPC: 0.5047 cumulative IPC: 0.492 (Simulation time: 00 hr 34 min 35 sec)
Heartbeat CPU 0 instructions: 174500851 cycles: 267310666 heartbeat IPC: 0.5012 cumulative IPC: 0.492 (Simulation time: 00 hr 34 min 42 sec)
Heartbeat CPU 0 instructions: 175000852 cycles: 268265092 heartbeat IPC: 0.5239 cumulative IPC: 0.4921 (Simulation time: 00 hr 34 min 48 sec)
Heartbeat CPU 0 instructions: 175500853 cycles: 269274486 heartbeat IPC: 0.4953 cumulative IPC: 0.4921 (Simulation time: 00 hr 34 min 54 sec)
Heartbeat CPU 0 instructions: 176000853 cycles: 270258700 heartbeat IPC: 0.508 cumulative IPC: 0.4922 (Simulation time: 00 hr 35 min 00 sec)
Heartbeat CPU 0 instructions: 176500857 cycles: 271261295 heartbeat IPC: 0.4987 cumulative IPC: 0.4922 (Simulation time: 00 hr 35 min 07 sec)
Heartbeat CPU 0 instructions: 177000864 cycles: 272260738 heartbeat IPC: 0.5003 cumulative IPC: 0.4923 (Simulation time: 00 hr 35 min 13 sec)
Heartbeat CPU 0 instructions: 177500870 cycles: 273256709 heartbeat IPC: 0.502 cumulative IPC: 0.4923 (Simulation time: 00 hr 35 min 20 sec)
Heartbeat CPU 0 instructions: 178000870 cycles: 274238878 heartbeat IPC: 0.5091 cumulative IPC: 0.4924 (Simulation time: 00 hr 35 min 26 sec)
Heartbeat CPU 0 instructions: 178500876 cycles: 275220363 heartbeat IPC: 0.5094 cumulative IPC: 0.4924 (Simulation time: 00 hr 35 min 32 sec)
Heartbeat CPU 0 instructions: 179000877 cycles: 276206462 heartbeat IPC: 0.507 cumulative IPC: 0.4925 (Simulation time: 00 hr 35 min 38 sec)
Heartbeat CPU 0 instructions: 179500878 cycles: 277200984 heartbeat IPC: 0.5028 cumulative IPC: 0.4925 (Simulation time: 00 hr 35 min 44 sec)
Heartbeat CPU 0 instructions: 180000878 cycles: 278195261 heartbeat IPC: 0.5029 cumulative IPC: 0.4926 (Simulation time: 00 hr 35 min 51 sec)
Heartbeat CPU 0 instructions: 180500883 cycles: 279182545 heartbeat IPC: 0.5064 cumulative IPC: 0.4926 (Simulation time: 00 hr 35 min 57 sec)
Heartbeat CPU 0 instructions: 181000887 cycles: 280193337 heartbeat IPC: 0.4947 cumulative IPC: 0.4926 (Simulation time: 00 hr 36 min 03 sec)
Heartbeat CPU 0 instructions: 181500891 cycles: 281175607 heartbeat IPC: 0.509 cumulative IPC: 0.4927 (Simulation time: 00 hr 36 min 09 sec)
Heartbeat CPU 0 instructions: 182000891 cycles: 282176034 heartbeat IPC: 0.4998 cumulative IPC: 0.4927 (Simulation time: 00 hr 36 min 16 sec)
Heartbeat CPU 0 instructions: 182500891 cycles: 283179277 heartbeat IPC: 0.4984 cumulative IPC: 0.4927 (Simulation time: 00 hr 36 min 22 sec)
Heartbeat CPU 0 instructions: 183000895 cycles: 284175921 heartbeat IPC: 0.5017 cumulative IPC: 0.4928 (Simulation time: 00 hr 36 min 28 sec)
Heartbeat CPU 0 instructions: 183500898 cycles: 285175634 heartbeat IPC: 0.5001 cumulative IPC: 0.4928 (Simulation time: 00 hr 36 min 34 sec)
Heartbeat CPU 0 instructions: 184000898 cycles: 286168717 heartbeat IPC: 0.5035 cumulative IPC: 0.4928 (Simulation time: 00 hr 36 min 40 sec)
Heartbeat CPU 0 instructions: 184500898 cycles: 287157069 heartbeat IPC: 0.5059 cumulative IPC: 0.4929 (Simulation time: 00 hr 36 min 46 sec)
Heartbeat CPU 0 instructions: 185000904 cycles: 288161168 heartbeat IPC: 0.498 cumulative IPC: 0.4929 (Simulation time: 00 hr 36 min 53 sec)
Heartbeat CPU 0 instructions: 185500906 cycles: 289151379 heartbeat IPC: 0.5049 cumulative IPC: 0.4929 (Simulation time: 00 hr 36 min 59 sec)
Heartbeat CPU 0 instructions: 186000907 cycles: 290129375 heartbeat IPC: 0.5113 cumulative IPC: 0.493 (Simulation time: 00 hr 37 min 05 sec)
Heartbeat CPU 0 instructions: 186500913 cycles: 291131425 heartbeat IPC: 0.499 cumulative IPC: 0.493 (Simulation time: 00 hr 37 min 11 sec)
Heartbeat CPU 0 instructions: 187000913 cycles: 292103119 heartbeat IPC: 0.5146 cumulative IPC: 0.4931 (Simulation time: 00 hr 37 min 17 sec)
Heartbeat CPU 0 instructions: 187500919 cycles: 293091856 heartbeat IPC: 0.5057 cumulative IPC: 0.4931 (Simulation time: 00 hr 37 min 23 sec)
Heartbeat CPU 0 instructions: 188000919 cycles: 294080309 heartbeat IPC: 0.5058 cumulative IPC: 0.4932 (Simulation time: 00 hr 37 min 29 sec)
Heartbeat CPU 0 instructions: 188500920 cycles: 295052531 heartbeat IPC: 0.5143 cumulative IPC: 0.4933 (Simulation time: 00 hr 37 min 35 sec)
Heartbeat CPU 0 instructions: 189000924 cycles: 296047122 heartbeat IPC: 0.5027 cumulative IPC: 0.4933 (Simulation time: 00 hr 37 min 42 sec)
Heartbeat CPU 0 instructions: 189500925 cycles: 297011608 heartbeat IPC: 0.5184 cumulative IPC: 0.4934 (Simulation time: 00 hr 37 min 48 sec)
Heartbeat CPU 0 instructions: 190000930 cycles: 297985292 heartbeat IPC: 0.5135 cumulative IPC: 0.4934 (Simulation time: 00 hr 37 min 54 sec)
Heartbeat CPU 0 instructions: 190500933 cycles: 298977455 heartbeat IPC: 0.504 cumulative IPC: 0.4935 (Simulation time: 00 hr 38 min 00 sec)
Heartbeat CPU 0 instructions: 191000936 cycles: 299941131 heartbeat IPC: 0.5188 cumulative IPC: 0.4936 (Simulation time: 00 hr 38 min 06 sec)
Heartbeat CPU 0 instructions: 191500936 cycles: 300909651 heartbeat IPC: 0.5163 cumulative IPC: 0.4936 (Simulation time: 00 hr 38 min 12 sec)
Heartbeat CPU 0 instructions: 192000940 cycles: 301877005 heartbeat IPC: 0.5169 cumulative IPC: 0.4937 (Simulation time: 00 hr 38 min 17 sec)
Heartbeat CPU 0 instructions: 192500945 cycles: 302847527 heartbeat IPC: 0.5152 cumulative IPC: 0.4938 (Simulation time: 00 hr 38 min 23 sec)
Heartbeat CPU 0 instructions: 193000946 cycles: 303825137 heartbeat IPC: 0.5115 cumulative IPC: 0.4939 (Simulation time: 00 hr 38 min 29 sec)
Heartbeat CPU 0 instructions: 193500947 cycles: 304803685 heartbeat IPC: 0.511 cumulative IPC: 0.4939 (Simulation time: 00 hr 38 min 35 sec)
Heartbeat CPU 0 instructions: 194000949 cycles: 305790858 heartbeat IPC: 0.5065 cumulative IPC: 0.494 (Simulation time: 00 hr 38 min 41 sec)
Heartbeat CPU 0 instructions: 194500952 cycles: 306782638 heartbeat IPC: 0.5041 cumulative IPC: 0.494 (Simulation time: 00 hr 38 min 47 sec)
Heartbeat CPU 0 instructions: 195000952 cycles: 307775600 heartbeat IPC: 0.5035 cumulative IPC: 0.494 (Simulation time: 00 hr 38 min 53 sec)
Heartbeat CPU 0 instructions: 195500953 cycles: 308764661 heartbeat IPC: 0.5055 cumulative IPC: 0.4941 (Simulation time: 00 hr 38 min 59 sec)
Heartbeat CPU 0 instructions: 196000956 cycles: 309761325 heartbeat IPC: 0.5017 cumulative IPC: 0.4941 (Simulation time: 00 hr 39 min 05 sec)
Heartbeat CPU 0 instructions: 196500957 cycles: 310749427 heartbeat IPC: 0.506 cumulative IPC: 0.4941 (Simulation time: 00 hr 39 min 11 sec)
Heartbeat CPU 0 instructions: 197000961 cycles: 311736435 heartbeat IPC: 0.5066 cumulative IPC: 0.4942 (Simulation time: 00 hr 39 min 17 sec)
Heartbeat CPU 0 instructions: 197500962 cycles: 312722839 heartbeat IPC: 0.5069 cumulative IPC: 0.4942 (Simulation time: 00 hr 39 min 23 sec)
Heartbeat CPU 0 instructions: 198000962 cycles: 313698463 heartbeat IPC: 0.5125 cumulative IPC: 0.4943 (Simulation time: 00 hr 39 min 29 sec)
Heartbeat CPU 0 instructions: 198500968 cycles: 314678651 heartbeat IPC: 0.5101 cumulative IPC: 0.4943 (Simulation time: 00 hr 39 min 35 sec)
Heartbeat CPU 0 instructions: 199000969 cycles: 315657431 heartbeat IPC: 0.5108 cumulative IPC: 0.4944 (Simulation time: 00 hr 39 min 41 sec)
Heartbeat CPU 0 instructions: 199500970 cycles: 316650088 heartbeat IPC: 0.5037 cumulative IPC: 0.4944 (Simulation time: 00 hr 39 min 47 sec)
Heartbeat CPU 0 instructions: 200000972 cycles: 317633766 heartbeat IPC: 0.5083 cumulative IPC: 0.4944 (Simulation time: 00 hr 39 min 53 sec)
Heartbeat CPU 0 instructions: 200500973 cycles: 318613582 heartbeat IPC: 0.5103 cumulative IPC: 0.4945 (Simulation time: 00 hr 39 min 59 sec)
Heartbeat CPU 0 instructions: 201000974 cycles: 319598465 heartbeat IPC: 0.5077 cumulative IPC: 0.4945 (Simulation time: 00 hr 40 min 05 sec)
Heartbeat CPU 0 instructions: 201500976 cycles: 320578978 heartbeat IPC: 0.5099 cumulative IPC: 0.4946 (Simulation time: 00 hr 40 min 10 sec)
Heartbeat CPU 0 instructions: 202000982 cycles: 321546283 heartbeat IPC: 0.5169 cumulative IPC: 0.4947 (Simulation time: 00 hr 40 min 16 sec)
Heartbeat CPU 0 instructions: 202500982 cycles: 322526361 heartbeat IPC: 0.5102 cumulative IPC: 0.4947 (Simulation time: 00 hr 40 min 22 sec)
Heartbeat CPU 0 instructions: 203000985 cycles: 323512060 heartbeat IPC: 0.5073 cumulative IPC: 0.4947 (Simulation time: 00 hr 40 min 28 sec)
Heartbeat CPU 0 instructions: 203500985 cycles: 324488411 heartbeat IPC: 0.5121 cumulative IPC: 0.4948 (Simulation time: 00 hr 40 min 34 sec)
Heartbeat CPU 0 instructions: 204000990 cycles: 325470633 heartbeat IPC: 0.5091 cumulative IPC: 0.4948 (Simulation time: 00 hr 40 min 40 sec)
Heartbeat CPU 0 instructions: 204500990 cycles: 326438349 heartbeat IPC: 0.5167 cumulative IPC: 0.4949 (Simulation time: 00 hr 40 min 45 sec)
Heartbeat CPU 0 instructions: 205000990 cycles: 327414147 heartbeat IPC: 0.5124 cumulative IPC: 0.495 (Simulation time: 00 hr 40 min 51 sec)
Heartbeat CPU 0 instructions: 205500990 cycles: 328398959 heartbeat IPC: 0.5077 cumulative IPC: 0.495 (Simulation time: 00 hr 40 min 57 sec)
Heartbeat CPU 0 instructions: 206000993 cycles: 329365347 heartbeat IPC: 0.5174 cumulative IPC: 0.4951 (Simulation time: 00 hr 41 min 03 sec)
Heartbeat CPU 0 instructions: 206500998 cycles: 330355589 heartbeat IPC: 0.5049 cumulative IPC: 0.4951 (Simulation time: 00 hr 41 min 09 sec)
Heartbeat CPU 0 instructions: 207000998 cycles: 331318937 heartbeat IPC: 0.519 cumulative IPC: 0.4952 (Simulation time: 00 hr 41 min 14 sec)
Heartbeat CPU 0 instructions: 207500998 cycles: 332296480 heartbeat IPC: 0.5115 cumulative IPC: 0.4952 (Simulation time: 00 hr 41 min 20 sec)
Heartbeat CPU 0 instructions: 208001001 cycles: 333299196 heartbeat IPC: 0.4986 cumulative IPC: 0.4952 (Simulation time: 00 hr 41 min 26 sec)
Heartbeat CPU 0 instructions: 208501004 cycles: 334303302 heartbeat IPC: 0.498 cumulative IPC: 0.4953 (Simulation time: 00 hr 41 min 32 sec)
Heartbeat CPU 0 instructions: 209001004 cycles: 335282768 heartbeat IPC: 0.5105 cumulative IPC: 0.4953 (Simulation time: 00 hr 41 min 38 sec)
Heartbeat CPU 0 instructions: 209501005 cycles: 336248526 heartbeat IPC: 0.5177 cumulative IPC: 0.4954 (Simulation time: 00 hr 41 min 44 sec)
Heartbeat CPU 0 instructions: 210001010 cycles: 337226465 heartbeat IPC: 0.5113 cumulative IPC: 0.4954 (Simulation time: 00 hr 41 min 49 sec)
Heartbeat CPU 0 instructions: 210501010 cycles: 338217025 heartbeat IPC: 0.5048 cumulative IPC: 0.4954 (Simulation time: 00 hr 41 min 55 sec)
Heartbeat CPU 0 instructions: 211001015 cycles: 339165162 heartbeat IPC: 0.5274 cumulative IPC: 0.4955 (Simulation time: 00 hr 42 min 01 sec)
Heartbeat CPU 0 instructions: 211501020 cycles: 340136887 heartbeat IPC: 0.5146 cumulative IPC: 0.4956 (Simulation time: 00 hr 42 min 06 sec)
Heartbeat CPU 0 instructions: 212001020 cycles: 341127800 heartbeat IPC: 0.5046 cumulative IPC: 0.4956 (Simulation time: 00 hr 42 min 12 sec)
Heartbeat CPU 0 instructions: 212501022 cycles: 342105723 heartbeat IPC: 0.5113 cumulative IPC: 0.4957 (Simulation time: 00 hr 42 min 18 sec)
Heartbeat CPU 0 instructions: 213001023 cycles: 343074449 heartbeat IPC: 0.5161 cumulative IPC: 0.4957 (Simulation time: 00 hr 42 min 24 sec)
Heartbeat CPU 0 instructions: 213501023 cycles: 344037479 heartbeat IPC: 0.5192 cumulative IPC: 0.4958 (Simulation time: 00 hr 42 min 29 sec)
Heartbeat CPU 0 instructions: 214001025 cycles: 345016654 heartbeat IPC: 0.5106 cumulative IPC: 0.4958 (Simulation time: 00 hr 42 min 35 sec)
Heartbeat CPU 0 instructions: 214501031 cycles: 345994019 heartbeat IPC: 0.5116 cumulative IPC: 0.4959 (Simulation time: 00 hr 42 min 41 sec)
Heartbeat CPU 0 instructions: 215001031 cycles: 346954193 heartbeat IPC: 0.5207 cumulative IPC: 0.496 (Simulation time: 00 hr 42 min 46 sec)
Heartbeat CPU 0 instructions: 215501036 cycles: 347908190 heartbeat IPC: 0.5241 cumulative IPC: 0.496 (Simulation time: 00 hr 42 min 52 sec)
Heartbeat CPU 0 instructions: 216001038 cycles: 348868155 heartbeat IPC: 0.5209 cumulative IPC: 0.4961 (Simulation time: 00 hr 42 min 57 sec)
Heartbeat CPU 0 instructions: 216501040 cycles: 349835623 heartbeat IPC: 0.5168 cumulative IPC: 0.4962 (Simulation time: 00 hr 43 min 03 sec)
Heartbeat CPU 0 instructions: 217001042 cycles: 350802829 heartbeat IPC: 0.517 cumulative IPC: 0.4962 (Simulation time: 00 hr 43 min 09 sec)
Heartbeat CPU 0 instructions: 217501042 cycles: 351758607 heartbeat IPC: 0.5231 cumulative IPC: 0.4963 (Simulation time: 00 hr 43 min 14 sec)
Heartbeat CPU 0 instructions: 218001042 cycles: 352720927 heartbeat IPC: 0.5196 cumulative IPC: 0.4964 (Simulation time: 00 hr 43 min 20 sec)
Heartbeat CPU 0 instructions: 218501044 cycles: 353689059 heartbeat IPC: 0.5165 cumulative IPC: 0.4964 (Simulation time: 00 hr 43 min 25 sec)
Heartbeat CPU 0 instructions: 219001049 cycles: 354640684 heartbeat IPC: 0.5254 cumulative IPC: 0.4965 (Simulation time: 00 hr 43 min 31 sec)
Heartbeat CPU 0 instructions: 219501055 cycles: 355610287 heartbeat IPC: 0.5157 cumulative IPC: 0.4966 (Simulation time: 00 hr 43 min 37 sec)
Heartbeat CPU 0 instructions: 220001060 cycles: 356564321 heartbeat IPC: 0.5241 cumulative IPC: 0.4966 (Simulation time: 00 hr 43 min 42 sec)
Heartbeat CPU 0 instructions: 220501062 cycles: 357532657 heartbeat IPC: 0.5164 cumulative IPC: 0.4967 (Simulation time: 00 hr 43 min 48 sec)
Heartbeat CPU 0 instructions: 221001065 cycles: 358490156 heartbeat IPC: 0.5222 cumulative IPC: 0.4968 (Simulation time: 00 hr 43 min 53 sec)
Heartbeat CPU 0 instructions: 221501065 cycles: 359449094 heartbeat IPC: 0.5214 cumulative IPC: 0.4968 (Simulation time: 00 hr 43 min 59 sec)
Heartbeat CPU 0 instructions: 222001068 cycles: 360399050 heartbeat IPC: 0.5263 cumulative IPC: 0.4969 (Simulation time: 00 hr 44 min 05 sec)
Heartbeat CPU 0 instructions: 222501072 cycles: 361365806 heartbeat IPC: 0.5172 cumulative IPC: 0.497 (Simulation time: 00 hr 44 min 10 sec)
Heartbeat CPU 0 instructions: 223001074 cycles: 362326098 heartbeat IPC: 0.5207 cumulative IPC: 0.497 (Simulation time: 00 hr 44 min 16 sec)
Heartbeat CPU 0 instructions: 223501074 cycles: 363279827 heartbeat IPC: 0.5243 cumulative IPC: 0.4971 (Simulation time: 00 hr 44 min 21 sec)
Heartbeat CPU 0 instructions: 224001080 cycles: 364205635 heartbeat IPC: 0.5401 cumulative IPC: 0.4972 (Simulation time: 00 hr 44 min 27 sec)
Heartbeat CPU 0 instructions: 224501081 cycles: 365165157 heartbeat IPC: 0.5211 cumulative IPC: 0.4973 (Simulation time: 00 hr 44 min 32 sec)
Heartbeat CPU 0 instructions: 225001082 cycles: 366113776 heartbeat IPC: 0.5271 cumulative IPC: 0.4974 (Simulation time: 00 hr 44 min 38 sec)
Heartbeat CPU 0 instructions: 225501082 cycles: 367066611 heartbeat IPC: 0.5247 cumulative IPC: 0.4974 (Simulation time: 00 hr 44 min 43 sec)
Heartbeat CPU 0 instructions: 226001082 cycles: 368035905 heartbeat IPC: 0.5158 cumulative IPC: 0.4975 (Simulation time: 00 hr 44 min 49 sec)
Heartbeat CPU 0 instructions: 226501085 cycles: 369005168 heartbeat IPC: 0.5159 cumulative IPC: 0.4975 (Simulation time: 00 hr 44 min 54 sec)
Heartbeat CPU 0 instructions: 227001087 cycles: 369976273 heartbeat IPC: 0.5149 cumulative IPC: 0.4976 (Simulation time: 00 hr 45 min 00 sec)
Heartbeat CPU 0 instructions: 227501087 cycles: 370939978 heartbeat IPC: 0.5188 cumulative IPC: 0.4977 (Simulation time: 00 hr 45 min 06 sec)
Heartbeat CPU 0 instructions: 228001087 cycles: 371917705 heartbeat IPC: 0.5114 cumulative IPC: 0.4977 (Simulation time: 00 hr 45 min 11 sec)
Heartbeat CPU 0 instructions: 228501092 cycles: 372853882 heartbeat IPC: 0.5341 cumulative IPC: 0.4978 (Simulation time: 00 hr 45 min 17 sec)
Heartbeat CPU 0 instructions: 229001092 cycles: 373795431 heartbeat IPC: 0.531 cumulative IPC: 0.4979 (Simulation time: 00 hr 45 min 22 sec)
Heartbeat CPU 0 instructions: 229501098 cycles: 374764218 heartbeat IPC: 0.5161 cumulative IPC: 0.4979 (Simulation time: 00 hr 45 min 28 sec)
Heartbeat CPU 0 instructions: 230001099 cycles: 375723306 heartbeat IPC: 0.5213 cumulative IPC: 0.498 (Simulation time: 00 hr 45 min 33 sec)
Heartbeat CPU 0 instructions: 230501099 cycles: 376694177 heartbeat IPC: 0.515 cumulative IPC: 0.498 (Simulation time: 00 hr 45 min 39 sec)
Heartbeat CPU 0 instructions: 231001099 cycles: 377658155 heartbeat IPC: 0.5187 cumulative IPC: 0.4981 (Simulation time: 00 hr 45 min 44 sec)
Heartbeat CPU 0 instructions: 231501101 cycles: 378620351 heartbeat IPC: 0.5196 cumulative IPC: 0.4981 (Simulation time: 00 hr 45 min 50 sec)
Heartbeat CPU 0 instructions: 232001102 cycles: 379553991 heartbeat IPC: 0.5355 cumulative IPC: 0.4982 (Simulation time: 00 hr 45 min 55 sec)
Heartbeat CPU 0 instructions: 232501105 cycles: 380516004 heartbeat IPC: 0.5197 cumulative IPC: 0.4983 (Simulation time: 00 hr 46 min 01 sec)
Heartbeat CPU 0 instructions: 233001107 cycles: 381481913 heartbeat IPC: 0.5176 cumulative IPC: 0.4983 (Simulation time: 00 hr 46 min 06 sec)
Heartbeat CPU 0 instructions: 233501108 cycles: 382427780 heartbeat IPC: 0.5286 cumulative IPC: 0.4984 (Simulation time: 00 hr 46 min 12 sec)
Heartbeat CPU 0 instructions: 234001108 cycles: 383385674 heartbeat IPC: 0.522 cumulative IPC: 0.4985 (Simulation time: 00 hr 46 min 17 sec)
Heartbeat CPU 0 instructions: 234501112 cycles: 384341027 heartbeat IPC: 0.5234 cumulative IPC: 0.4985 (Simulation time: 00 hr 46 min 23 sec)
Heartbeat CPU 0 instructions: 235001112 cycles: 385325184 heartbeat IPC: 0.508 cumulative IPC: 0.4986 (Simulation time: 00 hr 46 min 29 sec)
Heartbeat CPU 0 instructions: 235501119 cycles: 386288675 heartbeat IPC: 0.519 cumulative IPC: 0.4986 (Simulation time: 00 hr 46 min 34 sec)
Heartbeat CPU 0 instructions: 236001122 cycles: 387250846 heartbeat IPC: 0.5197 cumulative IPC: 0.4987 (Simulation time: 00 hr 46 min 40 sec)
Heartbeat CPU 0 instructions: 236501126 cycles: 388191764 heartbeat IPC: 0.5314 cumulative IPC: 0.4988 (Simulation time: 00 hr 46 min 45 sec)
Heartbeat CPU 0 instructions: 237001126 cycles: 389167474 heartbeat IPC: 0.5124 cumulative IPC: 0.4988 (Simulation time: 00 hr 46 min 51 sec)
Heartbeat CPU 0 instructions: 237501126 cycles: 390096850 heartbeat IPC: 0.538 cumulative IPC: 0.4989 (Simulation time: 00 hr 46 min 56 sec)
Heartbeat CPU 0 instructions: 238001128 cycles: 391051418 heartbeat IPC: 0.5238 cumulative IPC: 0.499 (Simulation time: 00 hr 47 min 02 sec)
Heartbeat CPU 0 instructions: 238501129 cycles: 391993166 heartbeat IPC: 0.5309 cumulative IPC: 0.499 (Simulation time: 00 hr 47 min 07 sec)
Heartbeat CPU 0 instructions: 239001132 cycles: 392922226 heartbeat IPC: 0.5382 cumulative IPC: 0.4991 (Simulation time: 00 hr 47 min 12 sec)
Heartbeat CPU 0 instructions: 239501134 cycles: 393867126 heartbeat IPC: 0.5292 cumulative IPC: 0.4992 (Simulation time: 00 hr 47 min 18 sec)
Heartbeat CPU 0 instructions: 240001136 cycles: 394779203 heartbeat IPC: 0.5482 cumulative IPC: 0.4993 (Simulation time: 00 hr 47 min 23 sec)
Heartbeat CPU 0 instructions: 240501141 cycles: 395741879 heartbeat IPC: 0.5194 cumulative IPC: 0.4994 (Simulation time: 00 hr 47 min 29 sec)
Heartbeat CPU 0 instructions: 241001142 cycles: 396691656 heartbeat IPC: 0.5264 cumulative IPC: 0.4994 (Simulation time: 00 hr 47 min 34 sec)
Heartbeat CPU 0 instructions: 241501143 cycles: 397624042 heartbeat IPC: 0.5363 cumulative IPC: 0.4995 (Simulation time: 00 hr 47 min 40 sec)
Heartbeat CPU 0 instructions: 242001145 cycles: 398544163 heartbeat IPC: 0.5434 cumulative IPC: 0.4996 (Simulation time: 00 hr 47 min 45 sec)
Heartbeat CPU 0 instructions: 242501145 cycles: 399461515 heartbeat IPC: 0.545 cumulative IPC: 0.4997 (Simulation time: 00 hr 47 min 50 sec)
Heartbeat CPU 0 instructions: 243001146 cycles: 400357338 heartbeat IPC: 0.5581 cumulative IPC: 0.4999 (Simulation time: 00 hr 47 min 55 sec)
Heartbeat CPU 0 instructions: 243501147 cycles: 401257470 heartbeat IPC: 0.5555 cumulative IPC: 0.5 (Simulation time: 00 hr 48 min 01 sec)
Heartbeat CPU 0 instructions: 244001147 cycles: 402177307 heartbeat IPC: 0.5436 cumulative IPC: 0.5001 (Simulation time: 00 hr 48 min 06 sec)
Heartbeat CPU 0 instructions: 244501151 cycles: 403086226 heartbeat IPC: 0.5501 cumulative IPC: 0.5002 (Simulation time: 00 hr 48 min 11 sec)
Heartbeat CPU 0 instructions: 245001157 cycles: 404007283 heartbeat IPC: 0.5429 cumulative IPC: 0.5003 (Simulation time: 00 hr 48 min 16 sec)
Heartbeat CPU 0 instructions: 245501157 cycles: 404915768 heartbeat IPC: 0.5504 cumulative IPC: 0.5004 (Simulation time: 00 hr 48 min 22 sec)
Heartbeat CPU 0 instructions: 246001159 cycles: 405815886 heartbeat IPC: 0.5555 cumulative IPC: 0.5006 (Simulation time: 00 hr 48 min 27 sec)
Heartbeat CPU 0 instructions: 246501159 cycles: 406721140 heartbeat IPC: 0.5523 cumulative IPC: 0.5007 (Simulation time: 00 hr 48 min 32 sec)
Heartbeat CPU 0 instructions: 247001159 cycles: 407563288 heartbeat IPC: 0.5937 cumulative IPC: 0.5009 (Simulation time: 00 hr 48 min 37 sec)
Heartbeat CPU 0 instructions: 247501165 cycles: 408633795 heartbeat IPC: 0.4671 cumulative IPC: 0.5008 (Simulation time: 00 hr 48 min 43 sec)
Heartbeat CPU 0 instructions: 248001165 cycles: 409708448 heartbeat IPC: 0.4653 cumulative IPC: 0.5007 (Simulation time: 00 hr 48 min 49 sec)
Heartbeat CPU 0 instructions: 248501166 cycles: 410759828 heartbeat IPC: 0.4756 cumulative IPC: 0.5006 (Simulation time: 00 hr 48 min 55 sec)
Heartbeat CPU 0 instructions: 249001167 cycles: 411825442 heartbeat IPC: 0.4692 cumulative IPC: 0.5006 (Simulation time: 00 hr 49 min 01 sec)
Heartbeat CPU 0 instructions: 249501167 cycles: 412869767 heartbeat IPC: 0.4788 cumulative IPC: 0.5005 (Simulation time: 00 hr 49 min 07 sec)
Simulation finished CPU 0 instructions: 200000000 cycles: 399661865 cumulative IPC: 0.5004 (Simulation time: 00 hr 49 min 13 sec)
Simulation complete CPU 0 instructions: 200000000 cycles: 399661865 cumulative IPC: 0.5004 (Simulation time: 00 hr 49 min 13 sec)

ChampSim completed all CPUs

=== Simulation ===
CPU 0 runs /local-ssd/ben/dpc4-traces/Graph/GMS/gms.triangle_count.soc-pokec-relationships.slice-360.champsimtrace.gz

Region of Interest Statistics

CPU 0 cumulative IPC: 0.5004 instructions: 200000000 cycles: 399661865
CPU 0 Branch Prediction Accuracy: 86.25% MPKI: 37.63 Average ROB Occupancy at Mispredict: 22.91
Branch type MPKI
BRANCH_DIRECT_JUMP: 0.02727
BRANCH_INDIRECT: 0.002405
BRANCH_CONDITIONAL: 37.6
BRANCH_DIRECT_CALL: 5e-06
BRANCH_INDIRECT_CALL: 0
BRANCH_RETURN: 1e-05

cpu0->cpu0_STLB TOTAL        ACCESS:     579985 HIT:      94481 MISS:     485504 MSHR_MERGE:          0
cpu0->cpu0_STLB LOAD         ACCESS:     579985 HIT:      94481 MISS:     485504 MSHR_MERGE:          0
cpu0->cpu0_STLB RFO          ACCESS:          0 HIT:          0 MISS:          0 MSHR_MERGE:          0
cpu0->cpu0_STLB PREFETCH     ACCESS:          0 HIT:          0 MISS:          0 MSHR_MERGE:          0
cpu0->cpu0_STLB WRITE        ACCESS:          0 HIT:          0 MISS:          0 MSHR_MERGE:          0
cpu0->cpu0_STLB TRANSLATION  ACCESS:          0 HIT:          0 MISS:          0 MSHR_MERGE:          0
cpu0->cpu0_STLB PREFETCH REQUESTED:          0 ISSUED:          0 USEFUL:          0 USELESS:          0
cpu0->cpu0_STLB AVERAGE MISS LATENCY: 170.5 cycles
cpu0->cpu0_L2C TOTAL        ACCESS:    6147414 HIT:    1185868 MISS:    4961546 MSHR_MERGE:     418777
cpu0->cpu0_L2C LOAD         ACCESS:    1619266 HIT:     232176 MISS:    1387090 MSHR_MERGE:      32316
cpu0->cpu0_L2C RFO          ACCESS:         89 HIT:         46 MISS:         43 MSHR_MERGE:          0
cpu0->cpu0_L2C PREFETCH     ACCESS:    3848428 HIT:     488871 MISS:    3359557 MSHR_MERGE:     386461
cpu0->cpu0_L2C WRITE        ACCESS:     170779 HIT:     170779 MISS:          0 MSHR_MERGE:          0
cpu0->cpu0_L2C TRANSLATION  ACCESS:     508852 HIT:     293996 MISS:     214856 MSHR_MERGE:          0
cpu0->cpu0_L2C PREFETCH REQUESTED:    2036649 ISSUED:    2036649 USEFUL:     584357 USELESS:    1111038
cpu0->cpu0_L2C AVERAGE MISS LATENCY: 204.8 cycles
cpu0->cpu0_L1I TOTAL        ACCESS:      72957 HIT:      72950 MISS:          7 MSHR_MERGE:          1
cpu0->cpu0_L1I LOAD         ACCESS:      72957 HIT:      72950 MISS:          7 MSHR_MERGE:          1
cpu0->cpu0_L1I RFO          ACCESS:          0 HIT:          0 MISS:          0 MSHR_MERGE:          0
cpu0->cpu0_L1I PREFETCH     ACCESS:          0 HIT:          0 MISS:          0 MSHR_MERGE:          0
cpu0->cpu0_L1I WRITE        ACCESS:          0 HIT:          0 MISS:          0 MSHR_MERGE:          0
cpu0->cpu0_L1I TRANSLATION  ACCESS:          0 HIT:          0 MISS:          0 MSHR_MERGE:          0
cpu0->cpu0_L1I PREFETCH REQUESTED:          0 ISSUED:          0 USEFUL:          0 USELESS:          0
cpu0->cpu0_L1I AVERAGE MISS LATENCY: 226.2 cycles
cpu0->cpu0_L1D TOTAL        ACCESS:   52604735 HIT:   47439078 MISS:    5165657 MSHR_MERGE:    1225677
cpu0->cpu0_L1D LOAD         ACCESS:   38626333 HIT:   35843369 MISS:    2782964 MSHR_MERGE:    1163704
cpu0->cpu0_L1D RFO          ACCESS:          0 HIT:          0 MISS:          0 MSHR_MERGE:          0
cpu0->cpu0_L1D PREFETCH     ACCESS:    2508547 HIT:     638696 MISS:    1869851 MSHR_MERGE:      58072
cpu0->cpu0_L1D WRITE        ACCESS:   10275501 HIT:   10275373 MISS:        128 MSHR_MERGE:         39
cpu0->cpu0_L1D TRANSLATION  ACCESS:    1194354 HIT:     681640 MISS:     512714 MSHR_MERGE:       3862
cpu0->cpu0_L1D PREFETCH REQUESTED:    2508620 ISSUED:    2508544 USEFUL:    1100306 USELESS:     711460
cpu0->cpu0_L1D AVERAGE MISS LATENCY: 156 cycles
cpu0->cpu0_ITLB TOTAL        ACCESS:      72588 HIT:      72586 MISS:          2 MSHR_MERGE:          1
cpu0->cpu0_ITLB LOAD         ACCESS:      72588 HIT:      72586 MISS:          2 MSHR_MERGE:          1
cpu0->cpu0_ITLB RFO          ACCESS:          0 HIT:          0 MISS:          0 MSHR_MERGE:          0
cpu0->cpu0_ITLB PREFETCH     ACCESS:          0 HIT:          0 MISS:          0 MSHR_MERGE:          0
cpu0->cpu0_ITLB WRITE        ACCESS:          0 HIT:          0 MISS:          0 MSHR_MERGE:          0
cpu0->cpu0_ITLB TRANSLATION  ACCESS:          0 HIT:          0 MISS:          0 MSHR_MERGE:          0
cpu0->cpu0_ITLB PREFETCH REQUESTED:          0 ISSUED:          0 USEFUL:          0 USELESS:          0
cpu0->cpu0_ITLB AVERAGE MISS LATENCY: 633 cycles
cpu0->cpu0_DTLB TOTAL        ACCESS:   50220365 HIT:   49077335 MISS:    1143030 MSHR_MERGE:     563046
cpu0->cpu0_DTLB LOAD         ACCESS:   50220365 HIT:   49077335 MISS:    1143030 MSHR_MERGE:     563046
cpu0->cpu0_DTLB RFO          ACCESS:          0 HIT:          0 MISS:          0 MSHR_MERGE:          0
cpu0->cpu0_DTLB PREFETCH     ACCESS:          0 HIT:          0 MISS:          0 MSHR_MERGE:          0
cpu0->cpu0_DTLB WRITE        ACCESS:          0 HIT:          0 MISS:          0 MSHR_MERGE:          0
cpu0->cpu0_DTLB TRANSLATION  ACCESS:          0 HIT:          0 MISS:          0 MSHR_MERGE:          0
cpu0->cpu0_DTLB PREFETCH REQUESTED:          0 ISSUED:          0 USEFUL:          0 USELESS:          0
cpu0->cpu0_DTLB AVERAGE MISS LATENCY: 148.6 cycles
cpu0->LLC TOTAL        ACCESS:    7049641 HIT:     847764 MISS:    6201877 MSHR_MERGE:     772205
cpu0->LLC LOAD         ACCESS:    1354774 HIT:     246628 MISS:    1108146 MSHR_MERGE:      32474
cpu0->LLC RFO          ACCESS:         43 HIT:         21 MISS:         22 MSHR_MERGE:          0
cpu0->LLC PREFETCH     ACCESS:    5315648 HIT:     579664 MISS:    4735984 MSHR_MERGE:     739731
cpu0->LLC WRITE        ACCESS:     164320 HIT:      18278 MISS:     146042 MSHR_MERGE:          0
cpu0->LLC TRANSLATION  ACCESS:     214856 HIT:       3173 MISS:     211683 MSHR_MERGE:          0
cpu0->LLC PREFETCH REQUESTED:    2342547 ISSUED:    2342547 USEFUL:     788205 USELESS:     847464
cpu0->LLC AVERAGE MISS LATENCY: 199.2 cycles

DRAM Statistics

Channel 0 RQ ROW_BUFFER_HIT:     200539
  ROW_BUFFER_MISS:    5083091
  AVG DBUS CONGESTED CYCLE: 15.79
Channel 0 WQ ROW_BUFFER_HIT:      56606
  ROW_BUFFER_MISS:      99357
  FULL:          0
Channel 0 REFRESHES ISSUED:      33303
