[VMEM] WARNING: physical memory size is smaller than virtual memory size.

*** ChampSim Multicore Out-of-Order Simulator ***
Warmup Instructions: 50000000
Simulation Instructions: 200000000
Number of CPUs: 1
Page size: 4096
Core 0: /local-ssd/ben/dpc4-traces/Graph/Ligra/ligra_PageRank.com-lj.ungraph.gcc_6.3.0_O3.drop_51000M.length_250M.champsimtrace.xz
 L1D Berti prefetcher
 L1D Berti prefetcher
Off-chip DRAM Size: 64 GiB Channels: 1 Width: 64-bit Data Rate: 4807 MT/s
Heartbeat CPU 0 instructions: 500000 cycles: 133656 heartbeat IPC: 3.741 cumulative IPC: 3.741 (Simulation time: 00 hr 00 min 03 sec)
Heartbeat CPU 0 instructions: 1000004 cycles: 265781 heartbeat IPC: 3.784 cumulative IPC: 3.763 (Simulation time: 00 hr 00 min 05 sec)
Heartbeat CPU 0 instructions: 1500008 cycles: 397905 heartbeat IPC: 3.784 cumulative IPC: 3.77 (Simulation time: 00 hr 00 min 07 sec)
Heartbeat CPU 0 instructions: 2000008 cycles: 529824 heartbeat IPC: 3.79 cumulative IPC: 3.775 (Simulation time: 00 hr 00 min 10 sec)
Heartbeat CPU 0 instructions: 2500012 cycles: 661942 heartbeat IPC: 3.785 cumulative IPC: 3.777 (Simulation time: 00 hr 00 min 12 sec)
Heartbeat CPU 0 instructions: 3000016 cycles: 794040 heartbeat IPC: 3.785 cumulative IPC: 3.778 (Simulation time: 00 hr 00 min 15 sec)
Heartbeat CPU 0 instructions: 3500016 cycles: 926147 heartbeat IPC: 3.785 cumulative IPC: 3.779 (Simulation time: 00 hr 00 min 17 sec)
Heartbeat CPU 0 instructions: 4000020 cycles: 1058266 heartbeat IPC: 3.784 cumulative IPC: 3.78 (Simulation time: 00 hr 00 min 20 sec)
Heartbeat CPU 0 instructions: 4500020 cycles: 1190394 heartbeat IPC: 3.784 cumulative IPC: 3.78 (Simulation time: 00 hr 00 min 22 sec)
Heartbeat CPU 0 instructions: 5000020 cycles: 1322514 heartbeat IPC: 3.784 cumulative IPC: 3.781 (Simulation time: 00 hr 00 min 24 sec)
Heartbeat CPU 0 instructions: 5500024 cycles: 1454422 heartbeat IPC: 3.791 cumulative IPC: 3.782 (Simulation time: 00 hr 00 min 27 sec)
Heartbeat CPU 0 instructions: 6000024 cycles: 1586557 heartbeat IPC: 3.784 cumulative IPC: 3.782 (Simulation time: 00 hr 00 min 29 sec)
Heartbeat CPU 0 instructions: 6500028 cycles: 1718672 heartbeat IPC: 3.785 cumulative IPC: 3.782 (Simulation time: 00 hr 00 min 32 sec)
Heartbeat CPU 0 instructions: 7000028 cycles: 1850787 heartbeat IPC: 3.785 cumulative IPC: 3.782 (Simulation time: 00 hr 00 min 34 sec)
Heartbeat CPU 0 instructions: 7500032 cycles: 1982892 heartbeat IPC: 3.785 cumulative IPC: 3.782 (Simulation time: 00 hr 00 min 37 sec)
Heartbeat CPU 0 instructions: 8000036 cycles: 2115044 heartbeat IPC: 3.784 cumulative IPC: 3.782 (Simulation time: 00 hr 00 min 39 sec)
Heartbeat CPU 0 instructions: 8500040 cycles: 2247154 heartbeat IPC: 3.785 cumulative IPC: 3.783 (Simulation time: 00 hr 00 min 42 sec)
Heartbeat CPU 0 instructions: 9000044 cycles: 2379074 heartbeat IPC: 3.79 cumulative IPC: 3.783 (Simulation time: 00 hr 00 min 44 sec)
Heartbeat CPU 0 instructions: 9500048 cycles: 2511411 heartbeat IPC: 3.778 cumulative IPC: 3.783 (Simulation time: 00 hr 00 min 46 sec)
Heartbeat CPU 0 instructions: 10000048 cycles: 2643508 heartbeat IPC: 3.785 cumulative IPC: 3.783 (Simulation time: 00 hr 00 min 49 sec)
Heartbeat CPU 0 instructions: 10500048 cycles: 2775626 heartbeat IPC: 3.784 cumulative IPC: 3.783 (Simulation time: 00 hr 00 min 51 sec)
Heartbeat CPU 0 instructions: 11000048 cycles: 2907726 heartbeat IPC: 3.785 cumulative IPC: 3.783 (Simulation time: 00 hr 00 min 54 sec)
Heartbeat CPU 0 instructions: 11500048 cycles: 3039646 heartbeat IPC: 3.79 cumulative IPC: 3.783 (Simulation time: 00 hr 00 min 56 sec)
Heartbeat CPU 0 instructions: 12000048 cycles: 3171948 heartbeat IPC: 3.779 cumulative IPC: 3.783 (Simulation time: 00 hr 00 min 59 sec)
Heartbeat CPU 0 instructions: 12500048 cycles: 3303870 heartbeat IPC: 3.79 cumulative IPC: 3.783 (Simulation time: 00 hr 01 min 01 sec)
Heartbeat CPU 0 instructions: 13000048 cycles: 3435986 heartbeat IPC: 3.785 cumulative IPC: 3.783 (Simulation time: 00 hr 01 min 04 sec)
Heartbeat CPU 0 instructions: 13500048 cycles: 3568086 heartbeat IPC: 3.785 cumulative IPC: 3.784 (Simulation time: 00 hr 01 min 06 sec)
Heartbeat CPU 0 instructions: 14000048 cycles: 3700272 heartbeat IPC: 3.783 cumulative IPC: 3.784 (Simulation time: 00 hr 01 min 08 sec)
Heartbeat CPU 0 instructions: 14500048 cycles: 3832400 heartbeat IPC: 3.784 cumulative IPC: 3.784 (Simulation time: 00 hr 01 min 11 sec)
Heartbeat CPU 0 instructions: 15000048 cycles: 3964314 heartbeat IPC: 3.79 cumulative IPC: 3.784 (Simulation time: 00 hr 01 min 13 sec)
Heartbeat CPU 0 instructions: 15500048 cycles: 4096418 heartbeat IPC: 3.785 cumulative IPC: 3.784 (Simulation time: 00 hr 01 min 16 sec)
Heartbeat CPU 0 instructions: 16000048 cycles: 4228525 heartbeat IPC: 3.785 cumulative IPC: 3.784 (Simulation time: 00 hr 01 min 18 sec)
Heartbeat CPU 0 instructions: 16500051 cycles: 4363904 heartbeat IPC: 3.693 cumulative IPC: 3.781 (Simulation time: 00 hr 01 min 20 sec)
Heartbeat CPU 0 instructions: 17000051 cycles: 4499391 heartbeat IPC: 3.69 cumulative IPC: 3.778 (Simulation time: 00 hr 01 min 22 sec)
Heartbeat CPU 0 instructions: 17500051 cycles: 4634679 heartbeat IPC: 3.696 cumulative IPC: 3.776 (Simulation time: 00 hr 01 min 24 sec)
Heartbeat CPU 0 instructions: 18000053 cycles: 4769088 heartbeat IPC: 3.72 cumulative IPC: 3.774 (Simulation time: 00 hr 01 min 26 sec)
Heartbeat CPU 0 instructions: 18500053 cycles: 4893905 heartbeat IPC: 4.006 cumulative IPC: 3.78 (Simulation time: 00 hr 01 min 28 sec)
Heartbeat CPU 0 instructions: 19000053 cycles: 5018722 heartbeat IPC: 4.006 cumulative IPC: 3.786 (Simulation time: 00 hr 01 min 30 sec)
Heartbeat CPU 0 instructions: 19500053 cycles: 5143539 heartbeat IPC: 4.006 cumulative IPC: 3.791 (Simulation time: 00 hr 01 min 31 sec)
Heartbeat CPU 0 instructions: 20000055 cycles: 5268358 heartbeat IPC: 4.006 cumulative IPC: 3.796 (Simulation time: 00 hr 01 min 33 sec)
Heartbeat CPU 0 instructions: 20500055 cycles: 5393175 heartbeat IPC: 4.006 cumulative IPC: 3.801 (Simulation time: 00 hr 01 min 34 sec)
Heartbeat CPU 0 instructions: 21000055 cycles: 5517992 heartbeat IPC: 4.006 cumulative IPC: 3.806 (Simulation time: 00 hr 01 min 36 sec)
Heartbeat CPU 0 instructions: 21500059 cycles: 5642810 heartbeat IPC: 4.006 cumulative IPC: 3.81 (Simulation time: 00 hr 01 min 37 sec)
Heartbeat CPU 0 instructions: 22000063 cycles: 5767628 heartbeat IPC: 4.006 cumulative IPC: 3.814 (Simulation time: 00 hr 01 min 39 sec)
Heartbeat CPU 0 instructions: 22500065 cycles: 5892447 heartbeat IPC: 4.006 cumulative IPC: 3.818 (Simulation time: 00 hr 01 min 40 sec)
Heartbeat CPU 0 instructions: 23000065 cycles: 6017264 heartbeat IPC: 4.006 cumulative IPC: 3.822 (Simulation time: 00 hr 01 min 42 sec)
Heartbeat CPU 0 instructions: 23500065 cycles: 6142081 heartbeat IPC: 4.006 cumulative IPC: 3.826 (Simulation time: 00 hr 01 min 43 sec)
Heartbeat CPU 0 instructions: 24000069 cycles: 6266899 heartbeat IPC: 4.006 cumulative IPC: 3.83 (Simulation time: 00 hr 01 min 45 sec)
Heartbeat CPU 0 instructions: 24500071 cycles: 6391718 heartbeat IPC: 4.006 cumulative IPC: 3.833 (Simulation time: 00 hr 01 min 46 sec)
Heartbeat CPU 0 instructions: 25000071 cycles: 6516535 heartbeat IPC: 4.006 cumulative IPC: 3.836 (Simulation time: 00 hr 01 min 48 sec)
Heartbeat CPU 0 instructions: 25500071 cycles: 6641352 heartbeat IPC: 4.006 cumulative IPC: 3.84 (Simulation time: 00 hr 01 min 49 sec)
Heartbeat CPU 0 instructions: 26000075 cycles: 6766170 heartbeat IPC: 4.006 cumulative IPC: 3.843 (Simulation time: 00 hr 01 min 51 sec)
Heartbeat CPU 0 instructions: 26500079 cycles: 6890988 heartbeat IPC: 4.006 cumulative IPC: 3.846 (Simulation time: 00 hr 01 min 52 sec)
Heartbeat CPU 0 instructions: 27000081 cycles: 7015807 heartbeat IPC: 4.006 cumulative IPC: 3.848 (Simulation time: 00 hr 01 min 54 sec)
Heartbeat CPU 0 instructions: 27500081 cycles: 7140624 heartbeat IPC: 4.006 cumulative IPC: 3.851 (Simulation time: 00 hr 01 min 55 sec)
Heartbeat CPU 0 instructions: 28000081 cycles: 7265441 heartbeat IPC: 4.006 cumulative IPC: 3.854 (Simulation time: 00 hr 01 min 57 sec)
Heartbeat CPU 0 instructions: 28500085 cycles: 7390259 heartbeat IPC: 4.006 cumulative IPC: 3.856 (Simulation time: 00 hr 01 min 58 sec)
Heartbeat CPU 0 instructions: 29000087 cycles: 7515078 heartbeat IPC: 4.006 cumulative IPC: 3.859 (Simulation time: 00 hr 02 min 00 sec)
Heartbeat CPU 0 instructions: 29500091 cycles: 7639906 heartbeat IPC: 4.006 cumulative IPC: 3.861 (Simulation time: 00 hr 02 min 01 sec)
Heartbeat CPU 0 instructions: 30000091 cycles: 7764713 heartbeat IPC: 4.006 cumulative IPC: 3.864 (Simulation time: 00 hr 02 min 03 sec)
Heartbeat CPU 0 instructions: 30500091 cycles: 7889530 heartbeat IPC: 4.006 cumulative IPC: 3.866 (Simulation time: 00 hr 02 min 04 sec)
Heartbeat CPU 0 instructions: 31000095 cycles: 8014348 heartbeat IPC: 4.006 cumulative IPC: 3.868 (Simulation time: 00 hr 02 min 06 sec)
Heartbeat CPU 0 instructions: 31500097 cycles: 8139167 heartbeat IPC: 4.006 cumulative IPC: 3.87 (Simulation time: 00 hr 02 min 07 sec)
Heartbeat CPU 0 instructions: 32000097 cycles: 8263984 heartbeat IPC: 4.006 cumulative IPC: 3.872 (Simulation time: 00 hr 02 min 09 sec)
Heartbeat CPU 0 instructions: 32500101 cycles: 8390823 heartbeat IPC: 3.942 cumulative IPC: 3.873 (Simulation time: 00 hr 02 min 10 sec)
Heartbeat CPU 0 instructions: 33000105 cycles: 8526481 heartbeat IPC: 3.686 cumulative IPC: 3.87 (Simulation time: 00 hr 02 min 12 sec)
Heartbeat CPU 0 instructions: 33500108 cycles: 8661608 heartbeat IPC: 3.7 cumulative IPC: 3.868 (Simulation time: 00 hr 02 min 14 sec)
Heartbeat CPU 0 instructions: 34000110 cycles: 8797299 heartbeat IPC: 3.685 cumulative IPC: 3.865 (Simulation time: 00 hr 02 min 16 sec)
Heartbeat CPU 0 instructions: 34500113 cycles: 8932579 heartbeat IPC: 3.696 cumulative IPC: 3.862 (Simulation time: 00 hr 02 min 18 sec)
Heartbeat CPU 0 instructions: 35000116 cycles: 9068365 heartbeat IPC: 3.682 cumulative IPC: 3.86 (Simulation time: 00 hr 02 min 19 sec)
Heartbeat CPU 0 instructions: 35500119 cycles: 9202979 heartbeat IPC: 3.714 cumulative IPC: 3.857 (Simulation time: 00 hr 02 min 21 sec)
Heartbeat CPU 0 instructions: 36000122 cycles: 9338017 heartbeat IPC: 3.703 cumulative IPC: 3.855 (Simulation time: 00 hr 02 min 23 sec)
Heartbeat CPU 0 instructions: 36500126 cycles: 9472720 heartbeat IPC: 3.712 cumulative IPC: 3.853 (Simulation time: 00 hr 02 min 25 sec)
Heartbeat CPU 0 instructions: 37000128 cycles: 9607691 heartbeat IPC: 3.705 cumulative IPC: 3.851 (Simulation time: 00 hr 02 min 26 sec)
Heartbeat CPU 0 instructions: 37500130 cycles: 9742732 heartbeat IPC: 3.703 cumulative IPC: 3.849 (Simulation time: 00 hr 02 min 28 sec)
Heartbeat CPU 0 instructions: 38000134 cycles: 9877749 heartbeat IPC: 3.703 cumulative IPC: 3.847 (Simulation time: 00 hr 02 min 30 sec)
Heartbeat CPU 0 instructions: 38500137 cycles: 10012811 heartbeat IPC: 3.702 cumulative IPC: 3.845 (Simulation time: 00 hr 02 min 32 sec)
Heartbeat CPU 0 instructions: 39000140 cycles: 10147745 heartbeat IPC: 3.706 cumulative IPC: 3.843 (Simulation time: 00 hr 02 min 33 sec)
Heartbeat CPU 0 instructions: 39500143 cycles: 10283775 heartbeat IPC: 3.676 cumulative IPC: 3.841 (Simulation time: 00 hr 02 min 35 sec)
Heartbeat CPU 0 instructions: 40000146 cycles: 10419055 heartbeat IPC: 3.696 cumulative IPC: 3.839 (Simulation time: 00 hr 02 min 37 sec)
Heartbeat CPU 0 instructions: 40500149 cycles: 10554535 heartbeat IPC: 3.691 cumulative IPC: 3.837 (Simulation time: 00 hr 02 min 39 sec)
Heartbeat CPU 0 instructions: 41000152 cycles: 10689382 heartbeat IPC: 3.708 cumulative IPC: 3.836 (Simulation time: 00 hr 02 min 41 sec)
Heartbeat CPU 0 instructions: 41500155 cycles: 10824187 heartbeat IPC: 3.709 cumulative IPC: 3.834 (Simulation time: 00 hr 02 min 42 sec)
Heartbeat CPU 0 instructions: 42000158 cycles: 10959594 heartbeat IPC: 3.693 cumulative IPC: 3.832 (Simulation time: 00 hr 02 min 44 sec)
Heartbeat CPU 0 instructions: 42500161 cycles: 11094281 heartbeat IPC: 3.712 cumulative IPC: 3.831 (Simulation time: 00 hr 02 min 46 sec)
Heartbeat CPU 0 instructions: 43000164 cycles: 11229291 heartbeat IPC: 3.703 cumulative IPC: 3.829 (Simulation time: 00 hr 02 min 48 sec)
Heartbeat CPU 0 instructions: 43500167 cycles: 11364243 heartbeat IPC: 3.705 cumulative IPC: 3.828 (Simulation time: 00 hr 02 min 49 sec)
Heartbeat CPU 0 instructions: 44000170 cycles: 11499417 heartbeat IPC: 3.699 cumulative IPC: 3.826 (Simulation time: 00 hr 02 min 51 sec)
Heartbeat CPU 0 instructions: 44500174 cycles: 11634050 heartbeat IPC: 3.714 cumulative IPC: 3.825 (Simulation time: 00 hr 02 min 53 sec)
Heartbeat CPU 0 instructions: 45000176 cycles: 11770519 heartbeat IPC: 3.664 cumulative IPC: 3.823 (Simulation time: 00 hr 02 min 55 sec)
Heartbeat CPU 0 instructions: 45500179 cycles: 11906222 heartbeat IPC: 3.685 cumulative IPC: 3.822 (Simulation time: 00 hr 02 min 56 sec)
Heartbeat CPU 0 instructions: 46000182 cycles: 12041543 heartbeat IPC: 3.695 cumulative IPC: 3.82 (Simulation time: 00 hr 02 min 58 sec)
Heartbeat CPU 0 instructions: 46500185 cycles: 12176943 heartbeat IPC: 3.693 cumulative IPC: 3.819 (Simulation time: 00 hr 03 min 00 sec)
Heartbeat CPU 0 instructions: 47000188 cycles: 12311517 heartbeat IPC: 3.715 cumulative IPC: 3.818 (Simulation time: 00 hr 03 min 02 sec)
Heartbeat CPU 0 instructions: 47500191 cycles: 12446997 heartbeat IPC: 3.691 cumulative IPC: 3.816 (Simulation time: 00 hr 03 min 04 sec)
Heartbeat CPU 0 instructions: 48000194 cycles: 12581557 heartbeat IPC: 3.716 cumulative IPC: 3.815 (Simulation time: 00 hr 03 min 05 sec)
Heartbeat CPU 0 instructions: 48500197 cycles: 12716653 heartbeat IPC: 3.701 cumulative IPC: 3.814 (Simulation time: 00 hr 03 min 07 sec)
Heartbeat CPU 0 instructions: 49000200 cycles: 12851902 heartbeat IPC: 3.697 cumulative IPC: 3.813 (Simulation time: 00 hr 03 min 09 sec)
Heartbeat CPU 0 instructions: 49500203 cycles: 12986747 heartbeat IPC: 3.708 cumulative IPC: 3.812 (Simulation time: 00 hr 03 min 11 sec)
Warmup halting CPU 0 at instruction 50000004 cycle 13121925 for remainder of phase
Warmup finished CPU 0 instructions: 50000004 cycles: 13121925 cumulative IPC: 3.81 (Simulation time: 00 hr 03 min 12 sec)
Warmup complete CPU 0 instructions: 50000004 cycles: 13121925 cumulative IPC: 3.81 (Simulation time: 00 hr 03 min 12 sec)
Heartbeat CPU 0 instructions: 50000204 cycles: 13121950 heartbeat IPC: 3.698 cumulative IPC: 8 (Simulation time: 00 hr 03 min 12 sec)
Heartbeat CPU 0 instructions: 50500207 cycles: 13463910 heartbeat IPC: 1.462 cumulative IPC: 1.463 (Simulation time: 00 hr 03 min 18 sec)
Heartbeat CPU 0 instructions: 51000210 cycles: 13808454 heartbeat IPC: 1.451 cumulative IPC: 1.457 (Simulation time: 00 hr 03 min 24 sec)
Heartbeat CPU 0 instructions: 51500213 cycles: 14145629 heartbeat IPC: 1.483 cumulative IPC: 1.465 (Simulation time: 00 hr 03 min 30 sec)
Heartbeat CPU 0 instructions: 52000216 cycles: 14498318 heartbeat IPC: 1.418 cumulative IPC: 1.453 (Simulation time: 00 hr 03 min 35 sec)
Heartbeat CPU 0 instructions: 52500219 cycles: 14847906 heartbeat IPC: 1.43 cumulative IPC: 1.449 (Simulation time: 00 hr 03 min 41 sec)
Heartbeat CPU 0 instructions: 53000222 cycles: 15190506 heartbeat IPC: 1.459 cumulative IPC: 1.45 (Simulation time: 00 hr 03 min 47 sec)
Heartbeat CPU 0 instructions: 53500225 cycles: 15537384 heartbeat IPC: 1.441 cumulative IPC: 1.449 (Simulation time: 00 hr 03 min 53 sec)
Heartbeat CPU 0 instructions: 54000228 cycles: 15881439 heartbeat IPC: 1.453 cumulative IPC: 1.45 (Simulation time: 00 hr 03 min 58 sec)
Heartbeat CPU 0 instructions: 54500231 cycles: 16224771 heartbeat IPC: 1.456 cumulative IPC: 1.45 (Simulation time: 00 hr 04 min 04 sec)
Heartbeat CPU 0 instructions: 55000234 cycles: 16559220 heartbeat IPC: 1.495 cumulative IPC: 1.455 (Simulation time: 00 hr 04 min 10 sec)
Heartbeat CPU 0 instructions: 55500237 cycles: 16906350 heartbeat IPC: 1.44 cumulative IPC: 1.453 (Simulation time: 00 hr 04 min 16 sec)
Heartbeat CPU 0 instructions: 56000240 cycles: 17252835 heartbeat IPC: 1.443 cumulative IPC: 1.453 (Simulation time: 00 hr 04 min 21 sec)
Heartbeat CPU 0 instructions: 56500243 cycles: 17596786 heartbeat IPC: 1.454 cumulative IPC: 1.453 (Simulation time: 00 hr 04 min 27 sec)
Heartbeat CPU 0 instructions: 57000246 cycles: 17950466 heartbeat IPC: 1.414 cumulative IPC: 1.45 (Simulation time: 00 hr 04 min 33 sec)
Heartbeat CPU 0 instructions: 57500249 cycles: 18299260 heartbeat IPC: 1.434 cumulative IPC: 1.449 (Simulation time: 00 hr 04 min 39 sec)
Heartbeat CPU 0 instructions: 58000252 cycles: 18635261 heartbeat IPC: 1.488 cumulative IPC: 1.451 (Simulation time: 00 hr 04 min 44 sec)
Heartbeat CPU 0 instructions: 58500255 cycles: 18989781 heartbeat IPC: 1.41 cumulative IPC: 1.449 (Simulation time: 00 hr 04 min 50 sec)
Heartbeat CPU 0 instructions: 59000258 cycles: 19335712 heartbeat IPC: 1.445 cumulative IPC: 1.448 (Simulation time: 00 hr 04 min 56 sec)
Heartbeat CPU 0 instructions: 59500261 cycles: 19679927 heartbeat IPC: 1.453 cumulative IPC: 1.449 (Simulation time: 00 hr 05 min 02 sec)
Heartbeat CPU 0 instructions: 60000264 cycles: 20025631 heartbeat IPC: 1.446 cumulative IPC: 1.449 (Simulation time: 00 hr 05 min 07 sec)
Heartbeat CPU 0 instructions: 60500267 cycles: 20376834 heartbeat IPC: 1.424 cumulative IPC: 1.447 (Simulation time: 00 hr 05 min 13 sec)
Heartbeat CPU 0 instructions: 61000269 cycles: 20650576 heartbeat IPC: 1.827 cumulative IPC: 1.461 (Simulation time: 00 hr 05 min 17 sec)
Heartbeat CPU 0 instructions: 61500270 cycles: 20791872 heartbeat IPC: 3.539 cumulative IPC: 1.499 (Simulation time: 00 hr 05 min 20 sec)
Heartbeat CPU 0 instructions: 62000275 cycles: 20958192 heartbeat IPC: 3.006 cumulative IPC: 1.531 (Simulation time: 00 hr 05 min 23 sec)
Heartbeat CPU 0 instructions: 62500278 cycles: 21159045 heartbeat IPC: 2.489 cumulative IPC: 1.555 (Simulation time: 00 hr 05 min 26 sec)
Heartbeat CPU 0 instructions: 63000284 cycles: 21368531 heartbeat IPC: 2.387 cumulative IPC: 1.576 (Simulation time: 00 hr 05 min 29 sec)
Heartbeat CPU 0 instructions: 63500289 cycles: 21590890 heartbeat IPC: 2.249 cumulative IPC: 1.594 (Simulation time: 00 hr 05 min 32 sec)
Heartbeat CPU 0 instructions: 64000296 cycles: 21837298 heartbeat IPC: 2.029 cumulative IPC: 1.606 (Simulation time: 00 hr 05 min 36 sec)
Heartbeat CPU 0 instructions: 64500299 cycles: 22084559 heartbeat IPC: 2.022 cumulative IPC: 1.618 (Simulation time: 00 hr 05 min 39 sec)
Heartbeat CPU 0 instructions: 65000301 cycles: 22267540 heartbeat IPC: 2.733 cumulative IPC: 1.64 (Simulation time: 00 hr 05 min 43 sec)
Heartbeat CPU 0 instructions: 65500304 cycles: 22523788 heartbeat IPC: 1.951 cumulative IPC: 1.649 (Simulation time: 00 hr 05 min 46 sec)
Heartbeat CPU 0 instructions: 66000304 cycles: 22770601 heartbeat IPC: 2.026 cumulative IPC: 1.658 (Simulation time: 00 hr 05 min 50 sec)
Heartbeat CPU 0 instructions: 66500306 cycles: 23010614 heartbeat IPC: 2.083 cumulative IPC: 1.669 (Simulation time: 00 hr 05 min 53 sec)
Heartbeat CPU 0 instructions: 67000311 cycles: 23250977 heartbeat IPC: 2.08 cumulative IPC: 1.678 (Simulation time: 00 hr 05 min 57 sec)
Heartbeat CPU 0 instructions: 67500315 cycles: 23499131 heartbeat IPC: 2.015 cumulative IPC: 1.686 (Simulation time: 00 hr 06 min 00 sec)
Heartbeat CPU 0 instructions: 68000320 cycles: 23720255 heartbeat IPC: 2.261 cumulative IPC: 1.698 (Simulation time: 00 hr 06 min 04 sec)
Heartbeat CPU 0 instructions: 68500320 cycles: 23976663 heartbeat IPC: 1.95 cumulative IPC: 1.704 (Simulation time: 00 hr 06 min 07 sec)
Heartbeat CPU 0 instructions: 69000322 cycles: 24215401 heartbeat IPC: 2.094 cumulative IPC: 1.713 (Simulation time: 00 hr 06 min 11 sec)
Heartbeat CPU 0 instructions: 69500328 cycles: 24450147 heartbeat IPC: 2.13 cumulative IPC: 1.721 (Simulation time: 00 hr 06 min 14 sec)
Heartbeat CPU 0 instructions: 70000330 cycles: 24684433 heartbeat IPC: 2.134 cumulative IPC: 1.73 (Simulation time: 00 hr 06 min 18 sec)
Heartbeat CPU 0 instructions: 70500334 cycles: 24906885 heartbeat IPC: 2.248 cumulative IPC: 1.74 (Simulation time: 00 hr 06 min 22 sec)
Heartbeat CPU 0 instructions: 71000338 cycles: 25115376 heartbeat IPC: 2.398 cumulative IPC: 1.751 (Simulation time: 00 hr 06 min 25 sec)
Heartbeat CPU 0 instructions: 71500338 cycles: 25341765 heartbeat IPC: 2.209 cumulative IPC: 1.759 (Simulation time: 00 hr 06 min 28 sec)
Heartbeat CPU 0 instructions: 72000339 cycles: 25639451 heartbeat IPC: 1.68 cumulative IPC: 1.758 (Simulation time: 00 hr 06 min 33 sec)
Heartbeat CPU 0 instructions: 72500344 cycles: 25954424 heartbeat IPC: 1.587 cumulative IPC: 1.753 (Simulation time: 00 hr 06 min 37 sec)
Heartbeat CPU 0 instructions: 73000345 cycles: 26232054 heartbeat IPC: 1.801 cumulative IPC: 1.754 (Simulation time: 00 hr 06 min 42 sec)
Heartbeat CPU 0 instructions: 73500347 cycles: 26411910 heartbeat IPC: 2.78 cumulative IPC: 1.768 (Simulation time: 00 hr 06 min 45 sec)
Heartbeat CPU 0 instructions: 74000354 cycles: 26600970 heartbeat IPC: 2.645 cumulative IPC: 1.781 (Simulation time: 00 hr 06 min 48 sec)
Heartbeat CPU 0 instructions: 74500360 cycles: 26795969 heartbeat IPC: 2.564 cumulative IPC: 1.792 (Simulation time: 00 hr 06 min 51 sec)
Heartbeat CPU 0 instructions: 75000366 cycles: 27001955 heartbeat IPC: 2.427 cumulative IPC: 1.801 (Simulation time: 00 hr 06 min 55 sec)
Heartbeat CPU 0 instructions: 75500367 cycles: 27203028 heartbeat IPC: 2.487 cumulative IPC: 1.811 (Simulation time: 00 hr 06 min 58 sec)
Heartbeat CPU 0 instructions: 76000370 cycles: 27415783 heartbeat IPC: 2.35 cumulative IPC: 1.819 (Simulation time: 00 hr 07 min 02 sec)
Heartbeat CPU 0 instructions: 76500372 cycles: 27619543 heartbeat IPC: 2.454 cumulative IPC: 1.828 (Simulation time: 00 hr 07 min 06 sec)
Heartbeat CPU 0 instructions: 77000372 cycles: 27821821 heartbeat IPC: 2.472 cumulative IPC: 1.837 (Simulation time: 00 hr 07 min 09 sec)
Heartbeat CPU 0 instructions: 77500374 cycles: 28030116 heartbeat IPC: 2.4 cumulative IPC: 1.845 (Simulation time: 00 hr 07 min 13 sec)
Heartbeat CPU 0 instructions: 78000381 cycles: 28241165 heartbeat IPC: 2.369 cumulative IPC: 1.852 (Simulation time: 00 hr 07 min 17 sec)
Heartbeat CPU 0 instructions: 78500385 cycles: 28419498 heartbeat IPC: 2.804 cumulative IPC: 1.863 (Simulation time: 00 hr 07 min 20 sec)
Heartbeat CPU 0 instructions: 79000389 cycles: 28616624 heartbeat IPC: 2.536 cumulative IPC: 1.872 (Simulation time: 00 hr 07 min 23 sec)
Heartbeat CPU 0 instructions: 79500395 cycles: 28804973 heartbeat IPC: 2.655 cumulative IPC: 1.881 (Simulation time: 00 hr 07 min 27 sec)
Heartbeat CPU 0 instructions: 80000397 cycles: 28999015 heartbeat IPC: 2.577 cumulative IPC: 1.89 (Simulation time: 00 hr 07 min 31 sec)
Heartbeat CPU 0 instructions: 80500404 cycles: 29197139 heartbeat IPC: 2.524 cumulative IPC: 1.897 (Simulation time: 00 hr 07 min 34 sec)
Heartbeat CPU 0 instructions: 81000411 cycles: 29404790 heartbeat IPC: 2.408 cumulative IPC: 1.904 (Simulation time: 00 hr 07 min 38 sec)
Heartbeat CPU 0 instructions: 81500413 cycles: 29614303 heartbeat IPC: 2.386 cumulative IPC: 1.91 (Simulation time: 00 hr 07 min 42 sec)
Heartbeat CPU 0 instructions: 82000413 cycles: 29821084 heartbeat IPC: 2.418 cumulative IPC: 1.916 (Simulation time: 00 hr 07 min 45 sec)
Heartbeat CPU 0 instructions: 82500414 cycles: 30044434 heartbeat IPC: 2.239 cumulative IPC: 1.921 (Simulation time: 00 hr 07 min 49 sec)
Heartbeat CPU 0 instructions: 83000414 cycles: 30258559 heartbeat IPC: 2.335 cumulative IPC: 1.926 (Simulation time: 00 hr 07 min 53 sec)
Heartbeat CPU 0 instructions: 83500416 cycles: 30478940 heartbeat IPC: 2.269 cumulative IPC: 1.93 (Simulation time: 00 hr 07 min 57 sec)
Heartbeat CPU 0 instructions: 84000419 cycles: 30689531 heartbeat IPC: 2.374 cumulative IPC: 1.935 (Simulation time: 00 hr 08 min 01 sec)
Heartbeat CPU 0 instructions: 84500420 cycles: 30917967 heartbeat IPC: 2.189 cumulative IPC: 1.939 (Simulation time: 00 hr 08 min 05 sec)
Heartbeat CPU 0 instructions: 85000423 cycles: 31123852 heartbeat IPC: 2.429 cumulative IPC: 1.944 (Simulation time: 00 hr 08 min 08 sec)
Heartbeat CPU 0 instructions: 85500423 cycles: 31307440 heartbeat IPC: 2.723 cumulative IPC: 1.952 (Simulation time: 00 hr 08 min 12 sec)
Heartbeat CPU 0 instructions: 86000425 cycles: 31515457 heartbeat IPC: 2.404 cumulative IPC: 1.957 (Simulation time: 00 hr 08 min 15 sec)
Heartbeat CPU 0 instructions: 86500429 cycles: 31728494 heartbeat IPC: 2.347 cumulative IPC: 1.962 (Simulation time: 00 hr 08 min 19 sec)
Heartbeat CPU 0 instructions: 87000431 cycles: 31924167 heartbeat IPC: 2.555 cumulative IPC: 1.968 (Simulation time: 00 hr 08 min 23 sec)
Heartbeat CPU 0 instructions: 87500431 cycles: 32129043 heartbeat IPC: 2.441 cumulative IPC: 1.973 (Simulation time: 00 hr 08 min 27 sec)
Heartbeat CPU 0 instructions: 88000437 cycles: 32334322 heartbeat IPC: 2.436 cumulative IPC: 1.978 (Simulation time: 00 hr 08 min 30 sec)
Heartbeat CPU 0 instructions: 88500437 cycles: 32534341 heartbeat IPC: 2.5 cumulative IPC: 1.983 (Simulation time: 00 hr 08 min 34 sec)
Heartbeat CPU 0 instructions: 89000440 cycles: 32734466 heartbeat IPC: 2.498 cumulative IPC: 1.989 (Simulation time: 00 hr 08 min 37 sec)
Heartbeat CPU 0 instructions: 89500441 cycles: 32944101 heartbeat IPC: 2.385 cumulative IPC: 1.993 (Simulation time: 00 hr 08 min 41 sec)
Heartbeat CPU 0 instructions: 90000448 cycles: 33152519 heartbeat IPC: 2.399 cumulative IPC: 1.997 (Simulation time: 00 hr 08 min 45 sec)
Heartbeat CPU 0 instructions: 90500450 cycles: 33356757 heartbeat IPC: 2.448 cumulative IPC: 2.002 (Simulation time: 00 hr 08 min 49 sec)
Heartbeat CPU 0 instructions: 91000457 cycles: 33568525 heartbeat IPC: 2.361 cumulative IPC: 2.005 (Simulation time: 00 hr 08 min 53 sec)
Heartbeat CPU 0 instructions: 91500457 cycles: 33762521 heartbeat IPC: 2.577 cumulative IPC: 2.011 (Simulation time: 00 hr 08 min 56 sec)
Heartbeat CPU 0 instructions: 92000462 cycles: 33970091 heartbeat IPC: 2.409 cumulative IPC: 2.015 (Simulation time: 00 hr 09 min 00 sec)
Heartbeat CPU 0 instructions: 92500467 cycles: 34177634 heartbeat IPC: 2.409 cumulative IPC: 2.018 (Simulation time: 00 hr 09 min 04 sec)
Heartbeat CPU 0 instructions: 93000474 cycles: 34485297 heartbeat IPC: 1.625 cumulative IPC: 2.013 (Simulation time: 00 hr 09 min 09 sec)
Heartbeat CPU 0 instructions: 93500479 cycles: 34843422 heartbeat IPC: 1.396 cumulative IPC: 2.003 (Simulation time: 00 hr 09 min 14 sec)
Heartbeat CPU 0 instructions: 94000479 cycles: 35168747 heartbeat IPC: 1.537 cumulative IPC: 1.996 (Simulation time: 00 hr 09 min 18 sec)
Heartbeat CPU 0 instructions: 94500486 cycles: 35437984 heartbeat IPC: 1.857 cumulative IPC: 1.994 (Simulation time: 00 hr 09 min 23 sec)
Heartbeat CPU 0 instructions: 95000491 cycles: 35705879 heartbeat IPC: 1.866 cumulative IPC: 1.993 (Simulation time: 00 hr 09 min 27 sec)
Heartbeat CPU 0 instructions: 95500496 cycles: 35914664 heartbeat IPC: 2.395 cumulative IPC: 1.996 (Simulation time: 00 hr 09 min 31 sec)
Heartbeat CPU 0 instructions: 96000496 cycles: 36136046 heartbeat IPC: 2.259 cumulative IPC: 1.999 (Simulation time: 00 hr 09 min 35 sec)
Heartbeat CPU 0 instructions: 96500498 cycles: 36370085 heartbeat IPC: 2.136 cumulative IPC: 2 (Simulation time: 00 hr 09 min 39 sec)
Heartbeat CPU 0 instructions: 97000501 cycles: 36597660 heartbeat IPC: 2.197 cumulative IPC: 2.002 (Simulation time: 00 hr 09 min 43 sec)
Heartbeat CPU 0 instructions: 97500501 cycles: 36832849 heartbeat IPC: 2.126 cumulative IPC: 2.003 (Simulation time: 00 hr 09 min 47 sec)
Heartbeat CPU 0 instructions: 98000505 cycles: 37075246 heartbeat IPC: 2.063 cumulative IPC: 2.004 (Simulation time: 00 hr 09 min 51 sec)
Heartbeat CPU 0 instructions: 98500508 cycles: 37344990 heartbeat IPC: 1.854 cumulative IPC: 2.002 (Simulation time: 00 hr 09 min 56 sec)
Heartbeat CPU 0 instructions: 99000510 cycles: 37633860 heartbeat IPC: 1.731 cumulative IPC: 1.999 (Simulation time: 00 hr 10 min 00 sec)
Heartbeat CPU 0 instructions: 99500512 cycles: 37900013 heartbeat IPC: 1.879 cumulative IPC: 1.998 (Simulation time: 00 hr 10 min 04 sec)
Heartbeat CPU 0 instructions: 100000515 cycles: 38178743 heartbeat IPC: 1.794 cumulative IPC: 1.995 (Simulation time: 00 hr 10 min 09 sec)
Heartbeat CPU 0 instructions: 100500517 cycles: 38423881 heartbeat IPC: 2.04 cumulative IPC: 1.996 (Simulation time: 00 hr 10 min 13 sec)
Heartbeat CPU 0 instructions: 101000524 cycles: 38689529 heartbeat IPC: 1.882 cumulative IPC: 1.995 (Simulation time: 00 hr 10 min 17 sec)
Heartbeat CPU 0 instructions: 101500525 cycles: 38972812 heartbeat IPC: 1.765 cumulative IPC: 1.992 (Simulation time: 00 hr 10 min 22 sec)
Heartbeat CPU 0 instructions: 102000525 cycles: 39221342 heartbeat IPC: 2.012 cumulative IPC: 1.992 (Simulation time: 00 hr 10 min 26 sec)
Heartbeat CPU 0 instructions: 102500529 cycles: 39462655 heartbeat IPC: 2.072 cumulative IPC: 1.993 (Simulation time: 00 hr 10 min 30 sec)
Heartbeat CPU 0 instructions: 103000536 cycles: 39701010 heartbeat IPC: 2.098 cumulative IPC: 1.994 (Simulation time: 00 hr 10 min 34 sec)
Heartbeat CPU 0 instructions: 103500542 cycles: 39933491 heartbeat IPC: 2.151 cumulative IPC: 1.995 (Simulation time: 00 hr 10 min 38 sec)
Heartbeat CPU 0 instructions: 104000549 cycles: 40183401 heartbeat IPC: 2.001 cumulative IPC: 1.995 (Simulation time: 00 hr 10 min 43 sec)
Heartbeat CPU 0 instructions: 104500556 cycles: 40408913 heartbeat IPC: 2.217 cumulative IPC: 1.997 (Simulation time: 00 hr 10 min 47 sec)
Heartbeat CPU 0 instructions: 105000559 cycles: 40669305 heartbeat IPC: 1.92 cumulative IPC: 1.997 (Simulation time: 00 hr 10 min 51 sec)
Heartbeat CPU 0 instructions: 105500565 cycles: 40942980 heartbeat IPC: 1.827 cumulative IPC: 1.995 (Simulation time: 00 hr 10 min 55 sec)
Heartbeat CPU 0 instructions: 106000567 cycles: 41226837 heartbeat IPC: 1.761 cumulative IPC: 1.993 (Simulation time: 00 hr 11 min 00 sec)
Heartbeat CPU 0 instructions: 106500569 cycles: 41472049 heartbeat IPC: 2.039 cumulative IPC: 1.993 (Simulation time: 00 hr 11 min 04 sec)
Heartbeat CPU 0 instructions: 107000575 cycles: 41717713 heartbeat IPC: 2.035 cumulative IPC: 1.993 (Simulation time: 00 hr 11 min 08 sec)
Heartbeat CPU 0 instructions: 107500577 cycles: 41947070 heartbeat IPC: 2.18 cumulative IPC: 1.995 (Simulation time: 00 hr 11 min 13 sec)
Heartbeat CPU 0 instructions: 108000580 cycles: 42184348 heartbeat IPC: 2.107 cumulative IPC: 1.996 (Simulation time: 00 hr 11 min 17 sec)
Heartbeat CPU 0 instructions: 108500587 cycles: 42438273 heartbeat IPC: 1.969 cumulative IPC: 1.995 (Simulation time: 00 hr 11 min 21 sec)
Heartbeat CPU 0 instructions: 109000592 cycles: 42682768 heartbeat IPC: 2.045 cumulative IPC: 1.996 (Simulation time: 00 hr 11 min 25 sec)
Heartbeat CPU 0 instructions: 109500598 cycles: 42916386 heartbeat IPC: 2.14 cumulative IPC: 1.997 (Simulation time: 00 hr 11 min 30 sec)
Heartbeat CPU 0 instructions: 110000598 cycles: 43154914 heartbeat IPC: 2.096 cumulative IPC: 1.998 (Simulation time: 00 hr 11 min 34 sec)
Heartbeat CPU 0 instructions: 110500603 cycles: 43397864 heartbeat IPC: 2.058 cumulative IPC: 1.998 (Simulation time: 00 hr 11 min 38 sec)
Heartbeat CPU 0 instructions: 111000610 cycles: 43637517 heartbeat IPC: 2.086 cumulative IPC: 1.999 (Simulation time: 00 hr 11 min 42 sec)
Heartbeat CPU 0 instructions: 111500616 cycles: 43918018 heartbeat IPC: 1.783 cumulative IPC: 1.997 (Simulation time: 00 hr 11 min 47 sec)
Heartbeat CPU 0 instructions: 112000623 cycles: 44192482 heartbeat IPC: 1.822 cumulative IPC: 1.995 (Simulation time: 00 hr 11 min 52 sec)
Heartbeat CPU 0 instructions: 112500629 cycles: 44442227 heartbeat IPC: 2.002 cumulative IPC: 1.996 (Simulation time: 00 hr 11 min 56 sec)
Heartbeat CPU 0 instructions: 113000630 cycles: 44702238 heartbeat IPC: 1.923 cumulative IPC: 1.995 (Simulation time: 00 hr 12 min 00 sec)
Heartbeat CPU 0 instructions: 113500631 cycles: 44971058 heartbeat IPC: 1.86 cumulative IPC: 1.994 (Simulation time: 00 hr 12 min 05 sec)
Heartbeat CPU 0 instructions: 114000633 cycles: 45253766 heartbeat IPC: 1.769 cumulative IPC: 1.992 (Simulation time: 00 hr 12 min 10 sec)
Heartbeat CPU 0 instructions: 114500636 cycles: 45534061 heartbeat IPC: 1.784 cumulative IPC: 1.99 (Simulation time: 00 hr 12 min 14 sec)
Heartbeat CPU 0 instructions: 115000638 cycles: 45804016 heartbeat IPC: 1.852 cumulative IPC: 1.989 (Simulation time: 00 hr 12 min 19 sec)
Heartbeat CPU 0 instructions: 115500643 cycles: 46150211 heartbeat IPC: 1.444 cumulative IPC: 1.983 (Simulation time: 00 hr 12 min 24 sec)
Heartbeat CPU 0 instructions: 116000644 cycles: 46517816 heartbeat IPC: 1.36 cumulative IPC: 1.976 (Simulation time: 00 hr 12 min 29 sec)
Heartbeat CPU 0 instructions: 116500648 cycles: 46850642 heartbeat IPC: 1.502 cumulative IPC: 1.972 (Simulation time: 00 hr 12 min 34 sec)
Heartbeat CPU 0 instructions: 117000655 cycles: 47141507 heartbeat IPC: 1.719 cumulative IPC: 1.969 (Simulation time: 00 hr 12 min 39 sec)
Heartbeat CPU 0 instructions: 117500656 cycles: 47417456 heartbeat IPC: 1.812 cumulative IPC: 1.968 (Simulation time: 00 hr 12 min 43 sec)
Heartbeat CPU 0 instructions: 118000663 cycles: 47686875 heartbeat IPC: 1.856 cumulative IPC: 1.967 (Simulation time: 00 hr 12 min 48 sec)
Heartbeat CPU 0 instructions: 118500666 cycles: 47976789 heartbeat IPC: 1.725 cumulative IPC: 1.965 (Simulation time: 00 hr 12 min 52 sec)
Heartbeat CPU 0 instructions: 119000666 cycles: 48265800 heartbeat IPC: 1.73 cumulative IPC: 1.963 (Simulation time: 00 hr 12 min 57 sec)
Heartbeat CPU 0 instructions: 119500672 cycles: 48564958 heartbeat IPC: 1.671 cumulative IPC: 1.961 (Simulation time: 00 hr 13 min 01 sec)
Heartbeat CPU 0 instructions: 120000675 cycles: 48871905 heartbeat IPC: 1.629 cumulative IPC: 1.958 (Simulation time: 00 hr 13 min 06 sec)
Heartbeat CPU 0 instructions: 120500676 cycles: 49174569 heartbeat IPC: 1.652 cumulative IPC: 1.955 (Simulation time: 00 hr 13 min 11 sec)
Heartbeat CPU 0 instructions: 121000682 cycles: 49426474 heartbeat IPC: 1.985 cumulative IPC: 1.956 (Simulation time: 00 hr 13 min 15 sec)
Heartbeat CPU 0 instructions: 121500684 cycles: 49684378 heartbeat IPC: 1.939 cumulative IPC: 1.956 (Simulation time: 00 hr 13 min 20 sec)
Heartbeat CPU 0 instructions: 122000685 cycles: 49967854 heartbeat IPC: 1.764 cumulative IPC: 1.954 (Simulation time: 00 hr 13 min 24 sec)
Heartbeat CPU 0 instructions: 122500690 cycles: 50219700 heartbeat IPC: 1.985 cumulative IPC: 1.954 (Simulation time: 00 hr 13 min 29 sec)
Heartbeat CPU 0 instructions: 123000693 cycles: 50493456 heartbeat IPC: 1.826 cumulative IPC: 1.953 (Simulation time: 00 hr 13 min 33 sec)
Heartbeat CPU 0 instructions: 123500697 cycles: 50780662 heartbeat IPC: 1.741 cumulative IPC: 1.952 (Simulation time: 00 hr 13 min 38 sec)
Heartbeat CPU 0 instructions: 124000700 cycles: 51073242 heartbeat IPC: 1.709 cumulative IPC: 1.95 (Simulation time: 00 hr 13 min 43 sec)
Heartbeat CPU 0 instructions: 124500702 cycles: 51342488 heartbeat IPC: 1.857 cumulative IPC: 1.949 (Simulation time: 00 hr 13 min 47 sec)
Heartbeat CPU 0 instructions: 125000704 cycles: 51630150 heartbeat IPC: 1.738 cumulative IPC: 1.948 (Simulation time: 00 hr 13 min 52 sec)
Heartbeat CPU 0 instructions: 125500711 cycles: 51966108 heartbeat IPC: 1.488 cumulative IPC: 1.944 (Simulation time: 00 hr 13 min 57 sec)
Heartbeat CPU 0 instructions: 126000712 cycles: 52243275 heartbeat IPC: 1.804 cumulative IPC: 1.943 (Simulation time: 00 hr 14 min 01 sec)
Heartbeat CPU 0 instructions: 126500713 cycles: 52551427 heartbeat IPC: 1.623 cumulative IPC: 1.94 (Simulation time: 00 hr 14 min 06 sec)
Heartbeat CPU 0 instructions: 127000720 cycles: 52851527 heartbeat IPC: 1.666 cumulative IPC: 1.938 (Simulation time: 00 hr 14 min 11 sec)
Heartbeat CPU 0 instructions: 127500725 cycles: 53143069 heartbeat IPC: 1.715 cumulative IPC: 1.936 (Simulation time: 00 hr 14 min 16 sec)
Heartbeat CPU 0 instructions: 128000732 cycles: 53419554 heartbeat IPC: 1.808 cumulative IPC: 1.936 (Simulation time: 00 hr 14 min 21 sec)
Heartbeat CPU 0 instructions: 128500735 cycles: 53693367 heartbeat IPC: 1.826 cumulative IPC: 1.935 (Simulation time: 00 hr 14 min 25 sec)
Heartbeat CPU 0 instructions: 129000741 cycles: 53998116 heartbeat IPC: 1.641 cumulative IPC: 1.933 (Simulation time: 00 hr 14 min 30 sec)
Heartbeat CPU 0 instructions: 129500741 cycles: 54281794 heartbeat IPC: 1.763 cumulative IPC: 1.932 (Simulation time: 00 hr 14 min 35 sec)
Heartbeat CPU 0 instructions: 130000748 cycles: 54634819 heartbeat IPC: 1.416 cumulative IPC: 1.927 (Simulation time: 00 hr 14 min 40 sec)
Heartbeat CPU 0 instructions: 130500753 cycles: 54966589 heartbeat IPC: 1.507 cumulative IPC: 1.924 (Simulation time: 00 hr 14 min 45 sec)
Heartbeat CPU 0 instructions: 131000755 cycles: 55294744 heartbeat IPC: 1.524 cumulative IPC: 1.921 (Simulation time: 00 hr 14 min 50 sec)
Heartbeat CPU 0 instructions: 131500755 cycles: 55619133 heartbeat IPC: 1.541 cumulative IPC: 1.918 (Simulation time: 00 hr 14 min 55 sec)
Heartbeat CPU 0 instructions: 132000761 cycles: 55940717 heartbeat IPC: 1.555 cumulative IPC: 1.915 (Simulation time: 00 hr 15 min 00 sec)
Heartbeat CPU 0 instructions: 132500767 cycles: 56283488 heartbeat IPC: 1.459 cumulative IPC: 1.911 (Simulation time: 00 hr 15 min 06 sec)
Heartbeat CPU 0 instructions: 133000769 cycles: 56612911 heartbeat IPC: 1.518 cumulative IPC: 1.908 (Simulation time: 00 hr 15 min 11 sec)
Heartbeat CPU 0 instructions: 133500773 cycles: 56948846 heartbeat IPC: 1.488 cumulative IPC: 1.905 (Simulation time: 00 hr 15 min 16 sec)
Heartbeat CPU 0 instructions: 134000779 cycles: 57270394 heartbeat IPC: 1.555 cumulative IPC: 1.903 (Simulation time: 00 hr 15 min 21 sec)
Heartbeat CPU 0 instructions: 134500784 cycles: 57585568 heartbeat IPC: 1.586 cumulative IPC: 1.9 (Simulation time: 00 hr 15 min 25 sec)
Heartbeat CPU 0 instructions: 135000784 cycles: 57931153 heartbeat IPC: 1.447 cumulative IPC: 1.897 (Simulation time: 00 hr 15 min 31 sec)
Heartbeat CPU 0 instructions: 135500785 cycles: 58274082 heartbeat IPC: 1.458 cumulative IPC: 1.894 (Simulation time: 00 hr 15 min 36 sec)
Heartbeat CPU 0 instructions: 136000790 cycles: 58614862 heartbeat IPC: 1.467 cumulative IPC: 1.89 (Simulation time: 00 hr 15 min 41 sec)
Heartbeat CPU 0 instructions: 136500796 cycles: 58965917 heartbeat IPC: 1.424 cumulative IPC: 1.887 (Simulation time: 00 hr 15 min 46 sec)
Heartbeat CPU 0 instructions: 137000799 cycles: 59325880 heartbeat IPC: 1.389 cumulative IPC: 1.883 (Simulation time: 00 hr 15 min 51 sec)
Heartbeat CPU 0 instructions: 137500803 cycles: 59705900 heartbeat IPC: 1.316 cumulative IPC: 1.878 (Simulation time: 00 hr 15 min 57 sec)
Heartbeat CPU 0 instructions: 138000806 cycles: 60091326 heartbeat IPC: 1.297 cumulative IPC: 1.874 (Simulation time: 00 hr 16 min 03 sec)
Heartbeat CPU 0 instructions: 138500812 cycles: 60461359 heartbeat IPC: 1.351 cumulative IPC: 1.869 (Simulation time: 00 hr 16 min 08 sec)
Heartbeat CPU 0 instructions: 139000813 cycles: 60853908 heartbeat IPC: 1.274 cumulative IPC: 1.865 (Simulation time: 00 hr 16 min 14 sec)
Heartbeat CPU 0 instructions: 139500815 cycles: 61297176 heartbeat IPC: 1.128 cumulative IPC: 1.858 (Simulation time: 00 hr 16 min 20 sec)
Heartbeat CPU 0 instructions: 140000815 cycles: 61693664 heartbeat IPC: 1.261 cumulative IPC: 1.853 (Simulation time: 00 hr 16 min 26 sec)
Heartbeat CPU 0 instructions: 140500819 cycles: 62113976 heartbeat IPC: 1.19 cumulative IPC: 1.847 (Simulation time: 00 hr 16 min 32 sec)
Heartbeat CPU 0 instructions: 141000820 cycles: 62579095 heartbeat IPC: 1.075 cumulative IPC: 1.84 (Simulation time: 00 hr 16 min 38 sec)
Heartbeat CPU 0 instructions: 141500824 cycles: 62997789 heartbeat IPC: 1.194 cumulative IPC: 1.835 (Simulation time: 00 hr 16 min 44 sec)
Heartbeat CPU 0 instructions: 142000824 cycles: 63455555 heartbeat IPC: 1.092 cumulative IPC: 1.828 (Simulation time: 00 hr 16 min 50 sec)
Heartbeat CPU 0 instructions: 142500825 cycles: 63867964 heartbeat IPC: 1.212 cumulative IPC: 1.823 (Simulation time: 00 hr 16 min 56 sec)
Heartbeat CPU 0 instructions: 143000831 cycles: 64306669 heartbeat IPC: 1.14 cumulative IPC: 1.817 (Simulation time: 00 hr 17 min 02 sec)
Heartbeat CPU 0 instructions: 143500835 cycles: 64795770 heartbeat IPC: 1.022 cumulative IPC: 1.809 (Simulation time: 00 hr 17 min 08 sec)
Heartbeat CPU 0 instructions: 144000841 cycles: 65283890 heartbeat IPC: 1.024 cumulative IPC: 1.802 (Simulation time: 00 hr 17 min 15 sec)
Heartbeat CPU 0 instructions: 144500845 cycles: 65742090 heartbeat IPC: 1.091 cumulative IPC: 1.796 (Simulation time: 00 hr 17 min 21 sec)
Heartbeat CPU 0 instructions: 145000849 cycles: 66165790 heartbeat IPC: 1.18 cumulative IPC: 1.791 (Simulation time: 00 hr 17 min 27 sec)
Heartbeat CPU 0 instructions: 145500855 cycles: 66550765 heartbeat IPC: 1.299 cumulative IPC: 1.787 (Simulation time: 00 hr 17 min 33 sec)
Heartbeat CPU 0 instructions: 146000857 cycles: 66949533 heartbeat IPC: 1.254 cumulative IPC: 1.783 (Simulation time: 00 hr 17 min 38 sec)
Heartbeat CPU 0 instructions: 146500861 cycles: 67327678 heartbeat IPC: 1.322 cumulative IPC: 1.78 (Simulation time: 00 hr 17 min 44 sec)
Heartbeat CPU 0 instructions: 147000867 cycles: 67775582 heartbeat IPC: 1.116 cumulative IPC: 1.775 (Simulation time: 00 hr 17 min 50 sec)
Heartbeat CPU 0 instructions: 147500870 cycles: 68185568 heartbeat IPC: 1.22 cumulative IPC: 1.771 (Simulation time: 00 hr 17 min 56 sec)
Heartbeat CPU 0 instructions: 148000871 cycles: 68628524 heartbeat IPC: 1.129 cumulative IPC: 1.766 (Simulation time: 00 hr 18 min 02 sec)
Heartbeat CPU 0 instructions: 148500876 cycles: 69109211 heartbeat IPC: 1.04 cumulative IPC: 1.759 (Simulation time: 00 hr 18 min 08 sec)
Heartbeat CPU 0 instructions: 149000881 cycles: 69563595 heartbeat IPC: 1.1 cumulative IPC: 1.754 (Simulation time: 00 hr 18 min 15 sec)
Heartbeat CPU 0 instructions: 149500883 cycles: 69998546 heartbeat IPC: 1.15 cumulative IPC: 1.749 (Simulation time: 00 hr 18 min 21 sec)
Heartbeat CPU 0 instructions: 150000884 cycles: 70429829 heartbeat IPC: 1.159 cumulative IPC: 1.745 (Simulation time: 00 hr 18 min 27 sec)
Heartbeat CPU 0 instructions: 150500885 cycles: 70878641 heartbeat IPC: 1.114 cumulative IPC: 1.74 (Simulation time: 00 hr 18 min 33 sec)
Heartbeat CPU 0 instructions: 151000885 cycles: 71326364 heartbeat IPC: 1.117 cumulative IPC: 1.735 (Simulation time: 00 hr 18 min 39 sec)
Heartbeat CPU 0 instructions: 151500891 cycles: 71809900 heartbeat IPC: 1.034 cumulative IPC: 1.73 (Simulation time: 00 hr 18 min 45 sec)
Heartbeat CPU 0 instructions: 152000891 cycles: 72326702 heartbeat IPC: 0.9675 cumulative IPC: 1.723 (Simulation time: 00 hr 18 min 52 sec)
Heartbeat CPU 0 instructions: 152500892 cycles: 72837654 heartbeat IPC: 0.9786 cumulative IPC: 1.716 (Simulation time: 00 hr 18 min 59 sec)
Heartbeat CPU 0 instructions: 153000897 cycles: 73315105 heartbeat IPC: 1.047 cumulative IPC: 1.711 (Simulation time: 00 hr 19 min 05 sec)
Heartbeat CPU 0 instructions: 153500901 cycles: 73811722 heartbeat IPC: 1.007 cumulative IPC: 1.705 (Simulation time: 00 hr 19 min 12 sec)
Heartbeat CPU 0 instructions: 154000901 cycles: 74300599 heartbeat IPC: 1.023 cumulative IPC: 1.7 (Simulation time: 00 hr 19 min 18 sec)
Heartbeat CPU 0 instructions: 154500906 cycles: 74835354 heartbeat IPC: 0.935 cumulative IPC: 1.693 (Simulation time: 00 hr 19 min 25 sec)
Heartbeat CPU 0 instructions: 155000912 cycles: 75322830 heartbeat IPC: 1.026 cumulative IPC: 1.688 (Simulation time: 00 hr 19 min 32 sec)
Heartbeat CPU 0 instructions: 155500918 cycles: 75828398 heartbeat IPC: 0.989 cumulative IPC: 1.682 (Simulation time: 00 hr 19 min 38 sec)
Heartbeat CPU 0 instructions: 156000922 cycles: 76311487 heartbeat IPC: 1.035 cumulative IPC: 1.678 (Simulation time: 00 hr 19 min 45 sec)
Heartbeat CPU 0 instructions: 156500922 cycles: 76849712 heartbeat IPC: 0.929 cumulative IPC: 1.671 (Simulation time: 00 hr 19 min 52 sec)
Heartbeat CPU 0 instructions: 157000924 cycles: 77367065 heartbeat IPC: 0.9665 cumulative IPC: 1.666 (Simulation time: 00 hr 19 min 59 sec)
Heartbeat CPU 0 instructions: 157500927 cycles: 77905480 heartbeat IPC: 0.9287 cumulative IPC: 1.659 (Simulation time: 00 hr 20 min 06 sec)
Heartbeat CPU 0 instructions: 158000931 cycles: 78438771 heartbeat IPC: 0.9376 cumulative IPC: 1.653 (Simulation time: 00 hr 20 min 12 sec)
Heartbeat CPU 0 instructions: 158500937 cycles: 79024544 heartbeat IPC: 0.8536 cumulative IPC: 1.646 (Simulation time: 00 hr 20 min 20 sec)
Heartbeat CPU 0 instructions: 159000941 cycles: 79590511 heartbeat IPC: 0.8835 cumulative IPC: 1.64 (Simulation time: 00 hr 20 min 27 sec)
Heartbeat CPU 0 instructions: 159500943 cycles: 80140391 heartbeat IPC: 0.9093 cumulative IPC: 1.634 (Simulation time: 00 hr 20 min 34 sec)
Heartbeat CPU 0 instructions: 160000950 cycles: 80694994 heartbeat IPC: 0.9016 cumulative IPC: 1.628 (Simulation time: 00 hr 20 min 41 sec)
Heartbeat CPU 0 instructions: 160500950 cycles: 81220293 heartbeat IPC: 0.9518 cumulative IPC: 1.623 (Simulation time: 00 hr 20 min 47 sec)
Heartbeat CPU 0 instructions: 161000955 cycles: 81704299 heartbeat IPC: 1.033 cumulative IPC: 1.619 (Simulation time: 00 hr 20 min 53 sec)
Heartbeat CPU 0 instructions: 161500956 cycles: 82098882 heartbeat IPC: 1.267 cumulative IPC: 1.616 (Simulation time: 00 hr 20 min 58 sec)
Heartbeat CPU 0 instructions: 162000961 cycles: 82490149 heartbeat IPC: 1.278 cumulative IPC: 1.615 (Simulation time: 00 hr 21 min 03 sec)
Heartbeat CPU 0 instructions: 162500965 cycles: 82824293 heartbeat IPC: 1.496 cumulative IPC: 1.614 (Simulation time: 00 hr 21 min 07 sec)
Heartbeat CPU 0 instructions: 163000966 cycles: 83179683 heartbeat IPC: 1.407 cumulative IPC: 1.613 (Simulation time: 00 hr 21 min 12 sec)
Heartbeat CPU 0 instructions: 163500969 cycles: 83524503 heartbeat IPC: 1.45 cumulative IPC: 1.612 (Simulation time: 00 hr 21 min 17 sec)
Heartbeat CPU 0 instructions: 164000971 cycles: 83824527 heartbeat IPC: 1.667 cumulative IPC: 1.612 (Simulation time: 00 hr 21 min 21 sec)
Heartbeat CPU 0 instructions: 164500971 cycles: 84124765 heartbeat IPC: 1.665 cumulative IPC: 1.613 (Simulation time: 00 hr 21 min 26 sec)
Heartbeat CPU 0 instructions: 165000975 cycles: 84482504 heartbeat IPC: 1.398 cumulative IPC: 1.612 (Simulation time: 00 hr 21 min 31 sec)
Heartbeat CPU 0 instructions: 165500980 cycles: 84988648 heartbeat IPC: 0.9879 cumulative IPC: 1.607 (Simulation time: 00 hr 21 min 37 sec)
Heartbeat CPU 0 instructions: 166000982 cycles: 85737400 heartbeat IPC: 0.6678 cumulative IPC: 1.597 (Simulation time: 00 hr 21 min 46 sec)
Heartbeat CPU 0 instructions: 166500986 cycles: 86403458 heartbeat IPC: 0.7507 cumulative IPC: 1.59 (Simulation time: 00 hr 21 min 54 sec)
Heartbeat CPU 0 instructions: 167000992 cycles: 87076366 heartbeat IPC: 0.7431 cumulative IPC: 1.582 (Simulation time: 00 hr 22 min 02 sec)
Heartbeat CPU 0 instructions: 167500992 cycles: 87720674 heartbeat IPC: 0.776 cumulative IPC: 1.575 (Simulation time: 00 hr 22 min 10 sec)
Heartbeat CPU 0 instructions: 168000997 cycles: 88359593 heartbeat IPC: 0.7826 cumulative IPC: 1.568 (Simulation time: 00 hr 22 min 18 sec)
Heartbeat CPU 0 instructions: 168500998 cycles: 89023021 heartbeat IPC: 0.7537 cumulative IPC: 1.561 (Simulation time: 00 hr 22 min 26 sec)
Heartbeat CPU 0 instructions: 169001000 cycles: 89722051 heartbeat IPC: 0.7153 cumulative IPC: 1.554 (Simulation time: 00 hr 22 min 34 sec)
Heartbeat CPU 0 instructions: 169501003 cycles: 90410150 heartbeat IPC: 0.7266 cumulative IPC: 1.546 (Simulation time: 00 hr 22 min 43 sec)
Heartbeat CPU 0 instructions: 170001005 cycles: 91101041 heartbeat IPC: 0.7237 cumulative IPC: 1.539 (Simulation time: 00 hr 22 min 51 sec)
Heartbeat CPU 0 instructions: 170501006 cycles: 91773107 heartbeat IPC: 0.744 cumulative IPC: 1.532 (Simulation time: 00 hr 22 min 59 sec)
Heartbeat CPU 0 instructions: 171001009 cycles: 92427353 heartbeat IPC: 0.7642 cumulative IPC: 1.526 (Simulation time: 00 hr 23 min 07 sec)
Heartbeat CPU 0 instructions: 171501012 cycles: 93110839 heartbeat IPC: 0.7315 cumulative IPC: 1.519 (Simulation time: 00 hr 23 min 15 sec)
Heartbeat CPU 0 instructions: 172001018 cycles: 93693521 heartbeat IPC: 0.8581 cumulative IPC: 1.514 (Simulation time: 00 hr 23 min 22 sec)
Heartbeat CPU 0 instructions: 172501018 cycles: 94413046 heartbeat IPC: 0.6949 cumulative IPC: 1.507 (Simulation time: 00 hr 23 min 30 sec)
Heartbeat CPU 0 instructions: 173001025 cycles: 95115565 heartbeat IPC: 0.7117 cumulative IPC: 1.5 (Simulation time: 00 hr 23 min 39 sec)
Heartbeat CPU 0 instructions: 173501027 cycles: 95849988 heartbeat IPC: 0.6808 cumulative IPC: 1.493 (Simulation time: 00 hr 23 min 47 sec)
Heartbeat CPU 0 instructions: 174001027 cycles: 96602336 heartbeat IPC: 0.6646 cumulative IPC: 1.485 (Simulation time: 00 hr 23 min 56 sec)
Heartbeat CPU 0 instructions: 174501028 cycles: 97317345 heartbeat IPC: 0.6993 cumulative IPC: 1.479 (Simulation time: 00 hr 24 min 04 sec)
Heartbeat CPU 0 instructions: 175001029 cycles: 98032023 heartbeat IPC: 0.6996 cumulative IPC: 1.472 (Simulation time: 00 hr 24 min 13 sec)
Heartbeat CPU 0 instructions: 175501030 cycles: 98742057 heartbeat IPC: 0.7042 cumulative IPC: 1.466 (Simulation time: 00 hr 24 min 21 sec)
Heartbeat CPU 0 instructions: 176001030 cycles: 99492831 heartbeat IPC: 0.666 cumulative IPC: 1.459 (Simulation time: 00 hr 24 min 29 sec)
Heartbeat CPU 0 instructions: 176501032 cycles: 100116460 heartbeat IPC: 0.8018 cumulative IPC: 1.454 (Simulation time: 00 hr 24 min 37 sec)
Heartbeat CPU 0 instructions: 177001032 cycles: 100684779 heartbeat IPC: 0.8798 cumulative IPC: 1.45 (Simulation time: 00 hr 24 min 44 sec)
Heartbeat CPU 0 instructions: 177501036 cycles: 101141267 heartbeat IPC: 1.095 cumulative IPC: 1.449 (Simulation time: 00 hr 24 min 50 sec)
Heartbeat CPU 0 instructions: 178001038 cycles: 101576625 heartbeat IPC: 1.148 cumulative IPC: 1.447 (Simulation time: 00 hr 24 min 56 sec)
Heartbeat CPU 0 instructions: 178501042 cycles: 102005648 heartbeat IPC: 1.165 cumulative IPC: 1.446 (Simulation time: 00 hr 25 min 01 sec)
Heartbeat CPU 0 instructions: 179001043 cycles: 102462288 heartbeat IPC: 1.095 cumulative IPC: 1.444 (Simulation time: 00 hr 25 min 07 sec)
Heartbeat CPU 0 instructions: 179501048 cycles: 102874830 heartbeat IPC: 1.212 cumulative IPC: 1.443 (Simulation time: 00 hr 25 min 12 sec)
Heartbeat CPU 0 instructions: 180001048 cycles: 103290583 heartbeat IPC: 1.203 cumulative IPC: 1.442 (Simulation time: 00 hr 25 min 18 sec)
Heartbeat CPU 0 instructions: 180501055 cycles: 103750111 heartbeat IPC: 1.088 cumulative IPC: 1.44 (Simulation time: 00 hr 25 min 24 sec)
Heartbeat CPU 0 instructions: 181001057 cycles: 104190894 heartbeat IPC: 1.134 cumulative IPC: 1.438 (Simulation time: 00 hr 25 min 29 sec)
Heartbeat CPU 0 instructions: 181501060 cycles: 104656955 heartbeat IPC: 1.073 cumulative IPC: 1.437 (Simulation time: 00 hr 25 min 35 sec)
Heartbeat CPU 0 instructions: 182001063 cycles: 105182098 heartbeat IPC: 0.9521 cumulative IPC: 1.434 (Simulation time: 00 hr 25 min 42 sec)
Heartbeat CPU 0 instructions: 182501064 cycles: 105700092 heartbeat IPC: 0.9653 cumulative IPC: 1.431 (Simulation time: 00 hr 25 min 48 sec)
Heartbeat CPU 0 instructions: 183001064 cycles: 106224400 heartbeat IPC: 0.9536 cumulative IPC: 1.429 (Simulation time: 00 hr 25 min 55 sec)
Heartbeat CPU 0 instructions: 183501070 cycles: 106739315 heartbeat IPC: 0.971 cumulative IPC: 1.426 (Simulation time: 00 hr 26 min 01 sec)
Heartbeat CPU 0 instructions: 184001071 cycles: 107256415 heartbeat IPC: 0.9669 cumulative IPC: 1.424 (Simulation time: 00 hr 26 min 08 sec)
Heartbeat CPU 0 instructions: 184501074 cycles: 107715182 heartbeat IPC: 1.09 cumulative IPC: 1.422 (Simulation time: 00 hr 26 min 14 sec)
Heartbeat CPU 0 instructions: 185001077 cycles: 108095878 heartbeat IPC: 1.313 cumulative IPC: 1.421 (Simulation time: 00 hr 26 min 19 sec)
Heartbeat CPU 0 instructions: 185501077 cycles: 108410542 heartbeat IPC: 1.589 cumulative IPC: 1.422 (Simulation time: 00 hr 26 min 23 sec)
Heartbeat CPU 0 instructions: 186001084 cycles: 108693653 heartbeat IPC: 1.766 cumulative IPC: 1.423 (Simulation time: 00 hr 26 min 27 sec)
Heartbeat CPU 0 instructions: 186501086 cycles: 109061395 heartbeat IPC: 1.36 cumulative IPC: 1.423 (Simulation time: 00 hr 26 min 32 sec)
Heartbeat CPU 0 instructions: 187001093 cycles: 109480717 heartbeat IPC: 1.192 cumulative IPC: 1.422 (Simulation time: 00 hr 26 min 38 sec)
Heartbeat CPU 0 instructions: 187501096 cycles: 109992443 heartbeat IPC: 0.9771 cumulative IPC: 1.419 (Simulation time: 00 hr 26 min 44 sec)
Heartbeat CPU 0 instructions: 188001101 cycles: 110439144 heartbeat IPC: 1.119 cumulative IPC: 1.418 (Simulation time: 00 hr 26 min 49 sec)
Heartbeat CPU 0 instructions: 188501105 cycles: 110828533 heartbeat IPC: 1.284 cumulative IPC: 1.418 (Simulation time: 00 hr 26 min 54 sec)
Heartbeat CPU 0 instructions: 189001108 cycles: 111205529 heartbeat IPC: 1.326 cumulative IPC: 1.417 (Simulation time: 00 hr 26 min 59 sec)
Heartbeat CPU 0 instructions: 189501110 cycles: 111587906 heartbeat IPC: 1.308 cumulative IPC: 1.417 (Simulation time: 00 hr 27 min 04 sec)
Heartbeat CPU 0 instructions: 190001113 cycles: 111972870 heartbeat IPC: 1.299 cumulative IPC: 1.416 (Simulation time: 00 hr 27 min 09 sec)
Heartbeat CPU 0 instructions: 190501116 cycles: 112412580 heartbeat IPC: 1.137 cumulative IPC: 1.415 (Simulation time: 00 hr 27 min 14 sec)
Heartbeat CPU 0 instructions: 191001120 cycles: 112894551 heartbeat IPC: 1.037 cumulative IPC: 1.413 (Simulation time: 00 hr 27 min 20 sec)
Heartbeat CPU 0 instructions: 191501122 cycles: 113458042 heartbeat IPC: 0.8873 cumulative IPC: 1.41 (Simulation time: 00 hr 27 min 27 sec)
Heartbeat CPU 0 instructions: 192001122 cycles: 113924898 heartbeat IPC: 1.071 cumulative IPC: 1.409 (Simulation time: 00 hr 27 min 32 sec)
Heartbeat CPU 0 instructions: 192501122 cycles: 114448551 heartbeat IPC: 0.9548 cumulative IPC: 1.406 (Simulation time: 00 hr 27 min 39 sec)
Heartbeat CPU 0 instructions: 193001126 cycles: 115015503 heartbeat IPC: 0.8819 cumulative IPC: 1.403 (Simulation time: 00 hr 27 min 45 sec)
Heartbeat CPU 0 instructions: 193501129 cycles: 115565266 heartbeat IPC: 0.9095 cumulative IPC: 1.401 (Simulation time: 00 hr 27 min 52 sec)
Heartbeat CPU 0 instructions: 194001129 cycles: 116085834 heartbeat IPC: 0.9605 cumulative IPC: 1.399 (Simulation time: 00 hr 27 min 58 sec)
Heartbeat CPU 0 instructions: 194501129 cycles: 116641792 heartbeat IPC: 0.8993 cumulative IPC: 1.396 (Simulation time: 00 hr 28 min 05 sec)
Heartbeat CPU 0 instructions: 195001134 cycles: 117208364 heartbeat IPC: 0.8825 cumulative IPC: 1.393 (Simulation time: 00 hr 28 min 12 sec)
Heartbeat CPU 0 instructions: 195501135 cycles: 117649910 heartbeat IPC: 1.132 cumulative IPC: 1.392 (Simulation time: 00 hr 28 min 17 sec)
Heartbeat CPU 0 instructions: 196001136 cycles: 118123327 heartbeat IPC: 1.056 cumulative IPC: 1.39 (Simulation time: 00 hr 28 min 22 sec)
Heartbeat CPU 0 instructions: 196501141 cycles: 118517728 heartbeat IPC: 1.268 cumulative IPC: 1.39 (Simulation time: 00 hr 28 min 27 sec)
Heartbeat CPU 0 instructions: 197001141 cycles: 118971461 heartbeat IPC: 1.102 cumulative IPC: 1.389 (Simulation time: 00 hr 28 min 32 sec)
Heartbeat CPU 0 instructions: 197501142 cycles: 119412063 heartbeat IPC: 1.135 cumulative IPC: 1.388 (Simulation time: 00 hr 28 min 37 sec)
Heartbeat CPU 0 instructions: 198001144 cycles: 119896194 heartbeat IPC: 1.033 cumulative IPC: 1.386 (Simulation time: 00 hr 28 min 43 sec)
Heartbeat CPU 0 instructions: 198501146 cycles: 120516823 heartbeat IPC: 0.8056 cumulative IPC: 1.383 (Simulation time: 00 hr 28 min 50 sec)
Heartbeat CPU 0 instructions: 199001149 cycles: 121080358 heartbeat IPC: 0.8873 cumulative IPC: 1.38 (Simulation time: 00 hr 28 min 57 sec)
Heartbeat CPU 0 instructions: 199501154 cycles: 121654028 heartbeat IPC: 0.8716 cumulative IPC: 1.377 (Simulation time: 00 hr 29 min 03 sec)
Heartbeat CPU 0 instructions: 200001157 cycles: 122178577 heartbeat IPC: 0.9532 cumulative IPC: 1.375 (Simulation time: 00 hr 29 min 09 sec)
Heartbeat CPU 0 instructions: 200501159 cycles: 122711224 heartbeat IPC: 0.9387 cumulative IPC: 1.373 (Simulation time: 00 hr 29 min 15 sec)
Heartbeat CPU 0 instructions: 201001164 cycles: 123283607 heartbeat IPC: 0.8735 cumulative IPC: 1.371 (Simulation time: 00 hr 29 min 22 sec)
Heartbeat CPU 0 instructions: 201501165 cycles: 123903294 heartbeat IPC: 0.8069 cumulative IPC: 1.368 (Simulation time: 00 hr 29 min 29 sec)
Heartbeat CPU 0 instructions: 202001169 cycles: 124528306 heartbeat IPC: 0.8 cumulative IPC: 1.364 (Simulation time: 00 hr 29 min 36 sec)
Heartbeat CPU 0 instructions: 202501176 cycles: 125185198 heartbeat IPC: 0.7612 cumulative IPC: 1.361 (Simulation time: 00 hr 29 min 43 sec)
Heartbeat CPU 0 instructions: 203001176 cycles: 125749270 heartbeat IPC: 0.8864 cumulative IPC: 1.358 (Simulation time: 00 hr 29 min 50 sec)
Heartbeat CPU 0 instructions: 203501182 cycles: 126401942 heartbeat IPC: 0.7661 cumulative IPC: 1.355 (Simulation time: 00 hr 29 min 57 sec)
Heartbeat CPU 0 instructions: 204001188 cycles: 127015225 heartbeat IPC: 0.8153 cumulative IPC: 1.352 (Simulation time: 00 hr 30 min 04 sec)
Heartbeat CPU 0 instructions: 204501191 cycles: 127586000 heartbeat IPC: 0.876 cumulative IPC: 1.35 (Simulation time: 00 hr 30 min 11 sec)
Heartbeat CPU 0 instructions: 205001194 cycles: 128129500 heartbeat IPC: 0.92 cumulative IPC: 1.348 (Simulation time: 00 hr 30 min 17 sec)
Heartbeat CPU 0 instructions: 205501201 cycles: 128739793 heartbeat IPC: 0.8193 cumulative IPC: 1.345 (Simulation time: 00 hr 30 min 24 sec)
Heartbeat CPU 0 instructions: 206001207 cycles: 129372499 heartbeat IPC: 0.7903 cumulative IPC: 1.342 (Simulation time: 00 hr 30 min 31 sec)
Heartbeat CPU 0 instructions: 206501214 cycles: 130003153 heartbeat IPC: 0.7928 cumulative IPC: 1.339 (Simulation time: 00 hr 30 min 38 sec)
Heartbeat CPU 0 instructions: 207001214 cycles: 130651282 heartbeat IPC: 0.7715 cumulative IPC: 1.336 (Simulation time: 00 hr 30 min 45 sec)
Heartbeat CPU 0 instructions: 207501214 cycles: 131265675 heartbeat IPC: 0.8138 cumulative IPC: 1.333 (Simulation time: 00 hr 30 min 52 sec)
Heartbeat CPU 0 instructions: 208001220 cycles: 131946360 heartbeat IPC: 0.7346 cumulative IPC: 1.33 (Simulation time: 00 hr 31 min 00 sec)
Heartbeat CPU 0 instructions: 208501220 cycles: 132584489 heartbeat IPC: 0.7835 cumulative IPC: 1.327 (Simulation time: 00 hr 31 min 06 sec)
Heartbeat CPU 0 instructions: 209001222 cycles: 133159908 heartbeat IPC: 0.8689 cumulative IPC: 1.325 (Simulation time: 00 hr 31 min 13 sec)
Heartbeat CPU 0 instructions: 209501223 cycles: 133732616 heartbeat IPC: 0.873 cumulative IPC: 1.322 (Simulation time: 00 hr 31 min 19 sec)
Heartbeat CPU 0 instructions: 210001228 cycles: 134355026 heartbeat IPC: 0.8033 cumulative IPC: 1.32 (Simulation time: 00 hr 31 min 26 sec)
Heartbeat CPU 0 instructions: 210501230 cycles: 134912577 heartbeat IPC: 0.8968 cumulative IPC: 1.318 (Simulation time: 00 hr 31 min 32 sec)
Heartbeat CPU 0 instructions: 211001235 cycles: 135437575 heartbeat IPC: 0.9524 cumulative IPC: 1.316 (Simulation time: 00 hr 31 min 38 sec)
Heartbeat CPU 0 instructions: 211501241 cycles: 135833888 heartbeat IPC: 1.262 cumulative IPC: 1.316 (Simulation time: 00 hr 31 min 43 sec)
Heartbeat CPU 0 instructions: 212001242 cycles: 136303375 heartbeat IPC: 1.065 cumulative IPC: 1.315 (Simulation time: 00 hr 31 min 49 sec)
Heartbeat CPU 0 instructions: 212501248 cycles: 136744797 heartbeat IPC: 1.133 cumulative IPC: 1.314 (Simulation time: 00 hr 31 min 54 sec)
Heartbeat CPU 0 instructions: 213001250 cycles: 137319744 heartbeat IPC: 0.8696 cumulative IPC: 1.312 (Simulation time: 00 hr 32 min 00 sec)
Heartbeat CPU 0 instructions: 213501256 cycles: 137899907 heartbeat IPC: 0.8618 cumulative IPC: 1.31 (Simulation time: 00 hr 32 min 07 sec)
Heartbeat CPU 0 instructions: 214001260 cycles: 138421353 heartbeat IPC: 0.9589 cumulative IPC: 1.309 (Simulation time: 00 hr 32 min 12 sec)
Heartbeat CPU 0 instructions: 214501264 cycles: 139016899 heartbeat IPC: 0.8396 cumulative IPC: 1.307 (Simulation time: 00 hr 32 min 19 sec)
Heartbeat CPU 0 instructions: 215001270 cycles: 139445788 heartbeat IPC: 1.166 cumulative IPC: 1.306 (Simulation time: 00 hr 32 min 24 sec)
Heartbeat CPU 0 instructions: 215501273 cycles: 139923063 heartbeat IPC: 1.048 cumulative IPC: 1.305 (Simulation time: 00 hr 32 min 29 sec)
Heartbeat CPU 0 instructions: 216001276 cycles: 140411328 heartbeat IPC: 1.024 cumulative IPC: 1.304 (Simulation time: 00 hr 32 min 35 sec)
Heartbeat CPU 0 instructions: 216501282 cycles: 140983043 heartbeat IPC: 0.8746 cumulative IPC: 1.302 (Simulation time: 00 hr 32 min 41 sec)
Heartbeat CPU 0 instructions: 217001288 cycles: 141604760 heartbeat IPC: 0.8042 cumulative IPC: 1.3 (Simulation time: 00 hr 32 min 48 sec)
Heartbeat CPU 0 instructions: 217501292 cycles: 142168808 heartbeat IPC: 0.8865 cumulative IPC: 1.298 (Simulation time: 00 hr 32 min 55 sec)
Heartbeat CPU 0 instructions: 218001298 cycles: 142754705 heartbeat IPC: 0.8534 cumulative IPC: 1.296 (Simulation time: 00 hr 33 min 01 sec)
Heartbeat CPU 0 instructions: 218501302 cycles: 143392041 heartbeat IPC: 0.7845 cumulative IPC: 1.293 (Simulation time: 00 hr 33 min 08 sec)
Heartbeat CPU 0 instructions: 219001303 cycles: 144001484 heartbeat IPC: 0.8204 cumulative IPC: 1.291 (Simulation time: 00 hr 33 min 15 sec)
Heartbeat CPU 0 instructions: 219501304 cycles: 144672155 heartbeat IPC: 0.7455 cumulative IPC: 1.288 (Simulation time: 00 hr 33 min 22 sec)
Heartbeat CPU 0 instructions: 220001311 cycles: 145354713 heartbeat IPC: 0.7325 cumulative IPC: 1.286 (Simulation time: 00 hr 33 min 30 sec)
Heartbeat CPU 0 instructions: 220501317 cycles: 146027048 heartbeat IPC: 0.7437 cumulative IPC: 1.283 (Simulation time: 00 hr 33 min 37 sec)
Heartbeat CPU 0 instructions: 221001323 cycles: 146696701 heartbeat IPC: 0.7467 cumulative IPC: 1.28 (Simulation time: 00 hr 33 min 44 sec)
Heartbeat CPU 0 instructions: 221501323 cycles: 147336958 heartbeat IPC: 0.7809 cumulative IPC: 1.278 (Simulation time: 00 hr 33 min 51 sec)
Heartbeat CPU 0 instructions: 222001327 cycles: 147947030 heartbeat IPC: 0.8196 cumulative IPC: 1.276 (Simulation time: 00 hr 33 min 58 sec)
Heartbeat CPU 0 instructions: 222501328 cycles: 148569590 heartbeat IPC: 0.8031 cumulative IPC: 1.274 (Simulation time: 00 hr 34 min 05 sec)
Heartbeat CPU 0 instructions: 223001332 cycles: 149177450 heartbeat IPC: 0.8226 cumulative IPC: 1.272 (Simulation time: 00 hr 34 min 11 sec)
Heartbeat CPU 0 instructions: 223501334 cycles: 149859246 heartbeat IPC: 0.7334 cumulative IPC: 1.269 (Simulation time: 00 hr 34 min 19 sec)
Heartbeat CPU 0 instructions: 224001337 cycles: 150560307 heartbeat IPC: 0.7132 cumulative IPC: 1.266 (Simulation time: 00 hr 34 min 26 sec)
Heartbeat CPU 0 instructions: 224501344 cycles: 151254413 heartbeat IPC: 0.7204 cumulative IPC: 1.263 (Simulation time: 00 hr 34 min 33 sec)
Heartbeat CPU 0 instructions: 225001347 cycles: 151991413 heartbeat IPC: 0.6784 cumulative IPC: 1.26 (Simulation time: 00 hr 34 min 41 sec)
Heartbeat CPU 0 instructions: 225501351 cycles: 152712179 heartbeat IPC: 0.6937 cumulative IPC: 1.257 (Simulation time: 00 hr 34 min 48 sec)
Heartbeat CPU 0 instructions: 226001357 cycles: 153472733 heartbeat IPC: 0.6574 cumulative IPC: 1.254 (Simulation time: 00 hr 34 min 56 sec)
Heartbeat CPU 0 instructions: 226501364 cycles: 154192494 heartbeat IPC: 0.6947 cumulative IPC: 1.251 (Simulation time: 00 hr 35 min 03 sec)
Heartbeat CPU 0 instructions: 227001364 cycles: 154881889 heartbeat IPC: 0.7253 cumulative IPC: 1.249 (Simulation time: 00 hr 35 min 11 sec)
Heartbeat CPU 0 instructions: 227501371 cycles: 155565539 heartbeat IPC: 0.7314 cumulative IPC: 1.246 (Simulation time: 00 hr 35 min 18 sec)
Heartbeat CPU 0 instructions: 228001375 cycles: 156320499 heartbeat IPC: 0.6623 cumulative IPC: 1.243 (Simulation time: 00 hr 35 min 26 sec)
Heartbeat CPU 0 instructions: 228501381 cycles: 157026965 heartbeat IPC: 0.7078 cumulative IPC: 1.24 (Simulation time: 00 hr 35 min 33 sec)
Heartbeat CPU 0 instructions: 229001385 cycles: 157826159 heartbeat IPC: 0.6256 cumulative IPC: 1.237 (Simulation time: 00 hr 35 min 41 sec)
Heartbeat CPU 0 instructions: 229501391 cycles: 158585299 heartbeat IPC: 0.6586 cumulative IPC: 1.234 (Simulation time: 00 hr 35 min 49 sec)
Heartbeat CPU 0 instructions: 230001396 cycles: 159224703 heartbeat IPC: 0.782 cumulative IPC: 1.232 (Simulation time: 00 hr 35 min 56 sec)
Heartbeat CPU 0 instructions: 230501399 cycles: 159844869 heartbeat IPC: 0.8062 cumulative IPC: 1.23 (Simulation time: 00 hr 36 min 02 sec)
Heartbeat CPU 0 instructions: 231001400 cycles: 160395163 heartbeat IPC: 0.9086 cumulative IPC: 1.229 (Simulation time: 00 hr 36 min 08 sec)
Heartbeat CPU 0 instructions: 231501401 cycles: 160939608 heartbeat IPC: 0.9184 cumulative IPC: 1.228 (Simulation time: 00 hr 36 min 14 sec)
Heartbeat CPU 0 instructions: 232001405 cycles: 161606040 heartbeat IPC: 0.7503 cumulative IPC: 1.226 (Simulation time: 00 hr 36 min 21 sec)
Heartbeat CPU 0 instructions: 232501409 cycles: 162313013 heartbeat IPC: 0.7072 cumulative IPC: 1.223 (Simulation time: 00 hr 36 min 29 sec)
Heartbeat CPU 0 instructions: 233001411 cycles: 163036137 heartbeat IPC: 0.6914 cumulative IPC: 1.221 (Simulation time: 00 hr 36 min 36 sec)
Heartbeat CPU 0 instructions: 233501411 cycles: 163678056 heartbeat IPC: 0.7789 cumulative IPC: 1.219 (Simulation time: 00 hr 36 min 43 sec)
Heartbeat CPU 0 instructions: 234001412 cycles: 164522072 heartbeat IPC: 0.5924 cumulative IPC: 1.215 (Simulation time: 00 hr 36 min 51 sec)
Heartbeat CPU 0 instructions: 234501415 cycles: 165325901 heartbeat IPC: 0.622 cumulative IPC: 1.212 (Simulation time: 00 hr 36 min 59 sec)
Heartbeat CPU 0 instructions: 235001420 cycles: 166033911 heartbeat IPC: 0.7062 cumulative IPC: 1.21 (Simulation time: 00 hr 37 min 06 sec)
Heartbeat CPU 0 instructions: 235501424 cycles: 166795250 heartbeat IPC: 0.6567 cumulative IPC: 1.207 (Simulation time: 00 hr 37 min 13 sec)
Heartbeat CPU 0 instructions: 236001424 cycles: 167589843 heartbeat IPC: 0.6293 cumulative IPC: 1.204 (Simulation time: 00 hr 37 min 21 sec)
Heartbeat CPU 0 instructions: 236501427 cycles: 168339476 heartbeat IPC: 0.667 cumulative IPC: 1.202 (Simulation time: 00 hr 37 min 29 sec)
Heartbeat CPU 0 instructions: 237001427 cycles: 169132784 heartbeat IPC: 0.6303 cumulative IPC: 1.199 (Simulation time: 00 hr 37 min 36 sec)
Heartbeat CPU 0 instructions: 237501430 cycles: 169560315 heartbeat IPC: 1.17 cumulative IPC: 1.199 (Simulation time: 00 hr 37 min 41 sec)
Heartbeat CPU 0 instructions: 238001432 cycles: 169730827 heartbeat IPC: 2.932 cumulative IPC: 1.2 (Simulation time: 00 hr 37 min 43 sec)
Heartbeat CPU 0 instructions: 238501433 cycles: 170420969 heartbeat IPC: 0.7245 cumulative IPC: 1.198 (Simulation time: 00 hr 37 min 50 sec)
Heartbeat CPU 0 instructions: 239001433 cycles: 171186002 heartbeat IPC: 0.6536 cumulative IPC: 1.196 (Simulation time: 00 hr 37 min 57 sec)
Heartbeat CPU 0 instructions: 239501434 cycles: 171925908 heartbeat IPC: 0.6758 cumulative IPC: 1.193 (Simulation time: 00 hr 38 min 05 sec)
Heartbeat CPU 0 instructions: 240001437 cycles: 172661360 heartbeat IPC: 0.6799 cumulative IPC: 1.191 (Simulation time: 00 hr 38 min 12 sec)
Heartbeat CPU 0 instructions: 240501441 cycles: 173403354 heartbeat IPC: 0.6739 cumulative IPC: 1.189 (Simulation time: 00 hr 38 min 20 sec)
Heartbeat CPU 0 instructions: 241001448 cycles: 174158399 heartbeat IPC: 0.6622 cumulative IPC: 1.186 (Simulation time: 00 hr 38 min 27 sec)
Heartbeat CPU 0 instructions: 241501453 cycles: 174832075 heartbeat IPC: 0.7422 cumulative IPC: 1.184 (Simulation time: 00 hr 38 min 34 sec)
Heartbeat CPU 0 instructions: 242001459 cycles: 175626148 heartbeat IPC: 0.6297 cumulative IPC: 1.182 (Simulation time: 00 hr 38 min 41 sec)
Heartbeat CPU 0 instructions: 242501459 cycles: 176462566 heartbeat IPC: 0.5978 cumulative IPC: 1.179 (Simulation time: 00 hr 38 min 50 sec)
Heartbeat CPU 0 instructions: 243001465 cycles: 177165850 heartbeat IPC: 0.711 cumulative IPC: 1.177 (Simulation time: 00 hr 38 min 57 sec)
Heartbeat CPU 0 instructions: 243501472 cycles: 177711098 heartbeat IPC: 0.917 cumulative IPC: 1.176 (Simulation time: 00 hr 39 min 02 sec)
Heartbeat CPU 0 instructions: 244001476 cycles: 178453977 heartbeat IPC: 0.6731 cumulative IPC: 1.173 (Simulation time: 00 hr 39 min 10 sec)
Heartbeat CPU 0 instructions: 244501478 cycles: 179151771 heartbeat IPC: 0.7165 cumulative IPC: 1.171 (Simulation time: 00 hr 39 min 17 sec)
Heartbeat CPU 0 instructions: 245001478 cycles: 179909463 heartbeat IPC: 0.6599 cumulative IPC: 1.169 (Simulation time: 00 hr 39 min 24 sec)
Heartbeat CPU 0 instructions: 245501478 cycles: 180576940 heartbeat IPC: 0.7491 cumulative IPC: 1.167 (Simulation time: 00 hr 39 min 31 sec)
Heartbeat CPU 0 instructions: 246001483 cycles: 181334020 heartbeat IPC: 0.6604 cumulative IPC: 1.165 (Simulation time: 00 hr 39 min 38 sec)
Heartbeat CPU 0 instructions: 246501484 cycles: 182138693 heartbeat IPC: 0.6214 cumulative IPC: 1.163 (Simulation time: 00 hr 39 min 46 sec)
Heartbeat CPU 0 instructions: 247001484 cycles: 182991361 heartbeat IPC: 0.5864 cumulative IPC: 1.16 (Simulation time: 00 hr 39 min 54 sec)
Heartbeat CPU 0 instructions: 247501485 cycles: 183695344 heartbeat IPC: 0.7102 cumulative IPC: 1.158 (Simulation time: 00 hr 40 min 01 sec)
Heartbeat CPU 0 instructions: 248001486 cycles: 184424428 heartbeat IPC: 0.6858 cumulative IPC: 1.156 (Simulation time: 00 hr 40 min 08 sec)
Heartbeat CPU 0 instructions: 248501491 cycles: 185161221 heartbeat IPC: 0.6786 cumulative IPC: 1.154 (Simulation time: 00 hr 40 min 15 sec)
Heartbeat CPU 0 instructions: 249001497 cycles: 185847047 heartbeat IPC: 0.7291 cumulative IPC: 1.152 (Simulation time: 00 hr 40 min 21 sec)
Heartbeat CPU 0 instructions: 249501504 cycles: 186567513 heartbeat IPC: 0.694 cumulative IPC: 1.15 (Simulation time: 00 hr 40 min 28 sec)
*** Reached end of trace: (0, "/local-ssd/ben/dpc4-traces/Graph/Ligra/ligra_PageRank.com-lj.ungraph.gcc_6.3.0_O3.drop_51000M.length_250M.champsimtrace.xz")
Simulation finished CPU 0 instructions: 200000000 cycles: 174140205 cumulative IPC: 1.148 (Simulation time: 00 hr 40 min 35 sec)
Simulation complete CPU 0 instructions: 200000000 cycles: 174140205 cumulative IPC: 1.148 (Simulation time: 00 hr 40 min 35 sec)

ChampSim completed all CPUs

=== Simulation ===
CPU 0 runs /local-ssd/ben/dpc4-traces/Graph/Ligra/ligra_PageRank.com-lj.ungraph.gcc_6.3.0_O3.drop_51000M.length_250M.champsimtrace.xz

Region of Interest Statistics

CPU 0 cumulative IPC: 1.148 instructions: 200000000 cycles: 174140205
CPU 0 Branch Prediction Accuracy: 97.86% MPKI: 2.542 Average ROB Occupancy at Mispredict: 261.6
Branch type MPKI
BRANCH_DIRECT_JUMP: 5e-06
BRANCH_INDIRECT: 0
BRANCH_CONDITIONAL: 2.542
BRANCH_DIRECT_CALL: 1.5e-05
BRANCH_INDIRECT_CALL: 0
BRANCH_RETURN: 5e-06

cpu0->cpu0_STLB TOTAL        ACCESS:   13142545 HIT:   12566849 MISS:     575696 MSHR_MERGE:          0
cpu0->cpu0_STLB LOAD         ACCESS:   13142545 HIT:   12566849 MISS:     575696 MSHR_MERGE:          0
cpu0->cpu0_STLB RFO          ACCESS:          0 HIT:          0 MISS:          0 MSHR_MERGE:          0
cpu0->cpu0_STLB PREFETCH     ACCESS:          0 HIT:          0 MISS:          0 MSHR_MERGE:          0
cpu0->cpu0_STLB WRITE        ACCESS:          0 HIT:          0 MISS:          0 MSHR_MERGE:          0
cpu0->cpu0_STLB TRANSLATION  ACCESS:          0 HIT:          0 MISS:          0 MSHR_MERGE:          0
cpu0->cpu0_STLB PREFETCH REQUESTED:          0 ISSUED:          0 USEFUL:          0 USELESS:          0
cpu0->cpu0_STLB AVERAGE MISS LATENCY: 29.03 cycles
cpu0->cpu0_L2C TOTAL        ACCESS:   22869046 HIT:   18427614 MISS:    4441432 MSHR_MERGE:     151032
cpu0->cpu0_L2C LOAD         ACCESS:   16891543 HIT:   13999398 MISS:    2892145 MSHR_MERGE:      19627
cpu0->cpu0_L2C RFO          ACCESS:     191931 HIT:        832 MISS:     191099 MSHR_MERGE:          0
cpu0->cpu0_L2C PREFETCH     ACCESS:    5063404 HIT:    3712131 MISS:    1351273 MSHR_MERGE:     131405
cpu0->cpu0_L2C WRITE        ACCESS:     256086 HIT:     256086 MISS:          0 MSHR_MERGE:          0
cpu0->cpu0_L2C TRANSLATION  ACCESS:     466082 HIT:     459167 MISS:       6915 MSHR_MERGE:          0
cpu0->cpu0_L2C PREFETCH REQUESTED:    1755638 ISSUED:    1755400 USEFUL:     603554 USELESS:     178410
cpu0->cpu0_L2C AVERAGE MISS LATENCY: 182.8 cycles
cpu0->cpu0_L1I TOTAL        ACCESS:   18658871 HIT:   18658852 MISS:         19 MSHR_MERGE:          1
cpu0->cpu0_L1I LOAD         ACCESS:   18658871 HIT:   18658852 MISS:         19 MSHR_MERGE:          1
cpu0->cpu0_L1I RFO          ACCESS:          0 HIT:          0 MISS:          0 MSHR_MERGE:          0
cpu0->cpu0_L1I PREFETCH     ACCESS:          0 HIT:          0 MISS:          0 MSHR_MERGE:          0
cpu0->cpu0_L1I WRITE        ACCESS:          0 HIT:          0 MISS:          0 MSHR_MERGE:          0
cpu0->cpu0_L1I TRANSLATION  ACCESS:          0 HIT:          0 MISS:          0 MSHR_MERGE:          0
cpu0->cpu0_L1I PREFETCH REQUESTED:          0 ISSUED:          0 USEFUL:          0 USELESS:          0
cpu0->cpu0_L1I AVERAGE MISS LATENCY: 334.3 cycles
cpu0->cpu0_L1D TOTAL        ACCESS:   57116677 HIT:   34437538 MISS:   22679139 MSHR_MERGE:    1821508
cpu0->cpu0_L1D LOAD         ACCESS:   39313941 HIT:   22002995 MISS:   17310946 MSHR_MERGE:     419420
cpu0->cpu0_L1D RFO          ACCESS:          0 HIT:          0 MISS:          0 MSHR_MERGE:          0
cpu0->cpu0_L1D PREFETCH     ACCESS:    5836644 HIT:    2471862 MISS:    3364782 MSHR_MERGE:      56787
cpu0->cpu0_L1D WRITE        ACCESS:   10826385 HIT:    9295385 MISS:    1531000 MSHR_MERGE:    1338972
cpu0->cpu0_L1D TRANSLATION  ACCESS:    1139707 HIT:     667296 MISS:     472411 MSHR_MERGE:       6329
cpu0->cpu0_L1D PREFETCH REQUESTED:    6709930 ISSUED:    5836641 USEFUL:     865442 USELESS:    2442470
cpu0->cpu0_L1D AVERAGE MISS LATENCY: 40.7 cycles
cpu0->cpu0_ITLB TOTAL        ACCESS:   17801678 HIT:   17801676 MISS:          2 MSHR_MERGE:          0
cpu0->cpu0_ITLB LOAD         ACCESS:   17801678 HIT:   17801676 MISS:          2 MSHR_MERGE:          0
cpu0->cpu0_ITLB RFO          ACCESS:          0 HIT:          0 MISS:          0 MSHR_MERGE:          0
cpu0->cpu0_ITLB PREFETCH     ACCESS:          0 HIT:          0 MISS:          0 MSHR_MERGE:          0
cpu0->cpu0_ITLB WRITE        ACCESS:          0 HIT:          0 MISS:          0 MSHR_MERGE:          0
cpu0->cpu0_ITLB TRANSLATION  ACCESS:          0 HIT:          0 MISS:          0 MSHR_MERGE:          0
cpu0->cpu0_ITLB PREFETCH REQUESTED:          0 ISSUED:          0 USEFUL:          0 USELESS:          0
cpu0->cpu0_ITLB AVERAGE MISS LATENCY: 367 cycles
cpu0->cpu0_DTLB TOTAL        ACCESS:   54787123 HIT:   40081747 MISS:   14705376 MSHR_MERGE:    1562833
cpu0->cpu0_DTLB LOAD         ACCESS:   54787123 HIT:   40081747 MISS:   14705376 MSHR_MERGE:    1562833
cpu0->cpu0_DTLB RFO          ACCESS:          0 HIT:          0 MISS:          0 MSHR_MERGE:          0
cpu0->cpu0_DTLB PREFETCH     ACCESS:          0 HIT:          0 MISS:          0 MSHR_MERGE:          0
cpu0->cpu0_DTLB WRITE        ACCESS:          0 HIT:          0 MISS:          0 MSHR_MERGE:          0
cpu0->cpu0_DTLB TRANSLATION  ACCESS:          0 HIT:          0 MISS:          0 MSHR_MERGE:          0
cpu0->cpu0_DTLB PREFETCH REQUESTED:          0 ISSUED:          0 USEFUL:          0 USELESS:          0
cpu0->cpu0_DTLB AVERAGE MISS LATENCY: 6.365 cycles
cpu0->LLC TOTAL        ACCESS:    9182413 HIT:    4028282 MISS:    5154131 MSHR_MERGE:      24601
cpu0->LLC LOAD         ACCESS:    2872518 HIT:    1427215 MISS:    1445303 MSHR_MERGE:       2326
cpu0->LLC RFO          ACCESS:     191099 HIT:          0 MISS:     191099 MSHR_MERGE:          0
cpu0->LLC PREFETCH     ACCESS:    5828937 HIT:    2558662 MISS:    3270275 MSHR_MERGE:      22275
cpu0->LLC WRITE        ACCESS:     282944 HIT:      42128 MISS:     240816 MSHR_MERGE:          0
cpu0->LLC TRANSLATION  ACCESS:       6915 HIT:        277 MISS:       6638 MSHR_MERGE:          0
cpu0->LLC PREFETCH REQUESTED:    4610827 ISSUED:    4609065 USEFUL:     406033 USELESS:    1940369
cpu0->LLC AVERAGE MISS LATENCY: 264.1 cycles

DRAM Statistics

Channel 0 RQ ROW_BUFFER_HIT:      55529
  ROW_BUFFER_MISS:    4833173
  AVG DBUS CONGESTED CYCLE: 9.917
Channel 0 WQ ROW_BUFFER_HIT:      47724
  ROW_BUFFER_MISS:     276274
  FULL:     149453
Channel 0 REFRESHES ISSUED:      14511
