[VMEM] WARNING: physical memory size is smaller than virtual memory size.

*** ChampSim Multicore Out-of-Order Simulator ***
Warmup Instructions: 50000000
Simulation Instructions: 200000000
Number of CPUs: 1
Page size: 4096
Core 0: /local-ssd/ben/dpc4-traces/gtraces_v2/tahoe_0004.champsim.gz
 L1D Berti prefetcher
 L1D Berti prefetcher
Off-chip DRAM Size: 64 GiB Channels: 1 Width: 64-bit Data Rate: 4807 MT/s
[BTB] WARNING: target of return is a lower address than the corresponding call. This is usually a problem with your trace.
[BTB] WARNING: target of return is a lower address than the corresponding call. This is usually a problem with your trace.
Heartbeat CPU 0 instructions: 500002 cycles: 177731 heartbeat IPC: 2.813 cumulative IPC: 2.813 (Simulation time: 00 hr 00 min 03 sec)
[BTB] WARNING: target of return is a lower address than the corresponding call. This is usually a problem with your trace.
[BTB] WARNING: target of return is a lower address than the corresponding call. This is usually a problem with your trace.
Heartbeat CPU 0 instructions: 1000008 cycles: 289144 heartbeat IPC: 4.488 cumulative IPC: 3.459 (Simulation time: 00 hr 00 min 05 sec)
[BTB] WARNING: target of return is a lower address than the corresponding call. This is usually a problem with your trace.
[BTB] WARNING: target of return is a lower address than the corresponding call. This is usually a problem with your trace.
[BTB] WARNING: target of return is a lower address than the corresponding call. This is usually a problem with your trace.
Heartbeat CPU 0 instructions: 1500012 cycles: 433026 heartbeat IPC: 3.475 cumulative IPC: 3.464 (Simulation time: 00 hr 00 min 08 sec)
[BTB] WARNING: target of return is a lower address than the corresponding call. This is usually a problem with your trace.
Heartbeat CPU 0 instructions: 2000017 cycles: 557942 heartbeat IPC: 4.003 cumulative IPC: 3.585 (Simulation time: 00 hr 00 min 10 sec)
[BTB] WARNING: target of return is a lower address than the corresponding call. This is usually a problem with your trace.
[BTB] WARNING: target of return is a lower address than the corresponding call. This is usually a problem with your trace.
Heartbeat CPU 0 instructions: 2500023 cycles: 681268 heartbeat IPC: 4.054 cumulative IPC: 3.67 (Simulation time: 00 hr 00 min 12 sec)
Heartbeat CPU 0 instructions: 3000024 cycles: 805099 heartbeat IPC: 4.038 cumulative IPC: 3.726 (Simulation time: 00 hr 00 min 14 sec)
Heartbeat CPU 0 instructions: 3500029 cycles: 927907 heartbeat IPC: 4.071 cumulative IPC: 3.772 (Simulation time: 00 hr 00 min 17 sec)
Heartbeat CPU 0 instructions: 4000034 cycles: 1083278 heartbeat IPC: 3.218 cumulative IPC: 3.693 (Simulation time: 00 hr 00 min 19 sec)
Heartbeat CPU 0 instructions: 4500037 cycles: 1271065 heartbeat IPC: 2.663 cumulative IPC: 3.54 (Simulation time: 00 hr 00 min 22 sec)
Heartbeat CPU 0 instructions: 5000039 cycles: 1383912 heartbeat IPC: 4.431 cumulative IPC: 3.613 (Simulation time: 00 hr 00 min 24 sec)
Heartbeat CPU 0 instructions: 5500041 cycles: 1504853 heartbeat IPC: 4.134 cumulative IPC: 3.655 (Simulation time: 00 hr 00 min 26 sec)
Heartbeat CPU 0 instructions: 6000045 cycles: 1623616 heartbeat IPC: 4.21 cumulative IPC: 3.695 (Simulation time: 00 hr 00 min 28 sec)
Heartbeat CPU 0 instructions: 6500047 cycles: 1742894 heartbeat IPC: 4.192 cumulative IPC: 3.729 (Simulation time: 00 hr 00 min 31 sec)
Heartbeat CPU 0 instructions: 7000054 cycles: 1862497 heartbeat IPC: 4.181 cumulative IPC: 3.758 (Simulation time: 00 hr 00 min 33 sec)
Heartbeat CPU 0 instructions: 7500055 cycles: 1981004 heartbeat IPC: 4.219 cumulative IPC: 3.786 (Simulation time: 00 hr 00 min 35 sec)
Heartbeat CPU 0 instructions: 8000061 cycles: 2144042 heartbeat IPC: 3.067 cumulative IPC: 3.731 (Simulation time: 00 hr 00 min 38 sec)
Heartbeat CPU 0 instructions: 8500066 cycles: 2329387 heartbeat IPC: 2.698 cumulative IPC: 3.649 (Simulation time: 00 hr 00 min 41 sec)
Heartbeat CPU 0 instructions: 9000072 cycles: 2500390 heartbeat IPC: 2.924 cumulative IPC: 3.599 (Simulation time: 00 hr 00 min 43 sec)
Heartbeat CPU 0 instructions: 9500073 cycles: 2670423 heartbeat IPC: 2.941 cumulative IPC: 3.558 (Simulation time: 00 hr 00 min 46 sec)
Heartbeat CPU 0 instructions: 10000079 cycles: 2779507 heartbeat IPC: 4.584 cumulative IPC: 3.598 (Simulation time: 00 hr 00 min 49 sec)
Heartbeat CPU 0 instructions: 10500081 cycles: 2969107 heartbeat IPC: 2.637 cumulative IPC: 3.536 (Simulation time: 00 hr 00 min 53 sec)
Heartbeat CPU 0 instructions: 11000086 cycles: 3077930 heartbeat IPC: 4.595 cumulative IPC: 3.574 (Simulation time: 00 hr 00 min 56 sec)
Heartbeat CPU 0 instructions: 11500086 cycles: 3202935 heartbeat IPC: 4 cumulative IPC: 3.59 (Simulation time: 00 hr 00 min 59 sec)
Heartbeat CPU 0 instructions: 12000089 cycles: 3378807 heartbeat IPC: 2.843 cumulative IPC: 3.552 (Simulation time: 00 hr 01 min 03 sec)
Heartbeat CPU 0 instructions: 12500090 cycles: 3551272 heartbeat IPC: 2.899 cumulative IPC: 3.52 (Simulation time: 00 hr 01 min 08 sec)
Heartbeat CPU 0 instructions: 13000090 cycles: 3697866 heartbeat IPC: 3.411 cumulative IPC: 3.516 (Simulation time: 00 hr 01 min 11 sec)
Heartbeat CPU 0 instructions: 13500095 cycles: 3810690 heartbeat IPC: 4.432 cumulative IPC: 3.543 (Simulation time: 00 hr 01 min 14 sec)
Heartbeat CPU 0 instructions: 14000097 cycles: 3919858 heartbeat IPC: 4.58 cumulative IPC: 3.572 (Simulation time: 00 hr 01 min 17 sec)
Heartbeat CPU 0 instructions: 14500097 cycles: 4040744 heartbeat IPC: 4.136 cumulative IPC: 3.588 (Simulation time: 00 hr 01 min 20 sec)
Heartbeat CPU 0 instructions: 15000098 cycles: 4156732 heartbeat IPC: 4.311 cumulative IPC: 3.609 (Simulation time: 00 hr 01 min 22 sec)
Heartbeat CPU 0 instructions: 15500101 cycles: 4311461 heartbeat IPC: 3.231 cumulative IPC: 3.595 (Simulation time: 00 hr 01 min 25 sec)
Heartbeat CPU 0 instructions: 16000101 cycles: 4462518 heartbeat IPC: 3.31 cumulative IPC: 3.585 (Simulation time: 00 hr 01 min 28 sec)
Heartbeat CPU 0 instructions: 16500104 cycles: 4595838 heartbeat IPC: 3.75 cumulative IPC: 3.59 (Simulation time: 00 hr 01 min 30 sec)
Heartbeat CPU 0 instructions: 17000106 cycles: 4741477 heartbeat IPC: 3.433 cumulative IPC: 3.585 (Simulation time: 00 hr 01 min 33 sec)
Heartbeat CPU 0 instructions: 17500109 cycles: 4881050 heartbeat IPC: 3.582 cumulative IPC: 3.585 (Simulation time: 00 hr 01 min 36 sec)
Heartbeat CPU 0 instructions: 18000112 cycles: 5007905 heartbeat IPC: 3.942 cumulative IPC: 3.594 (Simulation time: 00 hr 01 min 38 sec)
Heartbeat CPU 0 instructions: 18500117 cycles: 5188416 heartbeat IPC: 2.77 cumulative IPC: 3.566 (Simulation time: 00 hr 01 min 41 sec)
Heartbeat CPU 0 instructions: 19000124 cycles: 5353490 heartbeat IPC: 3.029 cumulative IPC: 3.549 (Simulation time: 00 hr 01 min 44 sec)
Heartbeat CPU 0 instructions: 19500126 cycles: 5510654 heartbeat IPC: 3.181 cumulative IPC: 3.539 (Simulation time: 00 hr 01 min 47 sec)
Heartbeat CPU 0 instructions: 20000131 cycles: 5671596 heartbeat IPC: 3.107 cumulative IPC: 3.526 (Simulation time: 00 hr 01 min 49 sec)
Heartbeat CPU 0 instructions: 20500134 cycles: 5839313 heartbeat IPC: 2.981 cumulative IPC: 3.511 (Simulation time: 00 hr 01 min 53 sec)
Heartbeat CPU 0 instructions: 21000139 cycles: 5994709 heartbeat IPC: 3.218 cumulative IPC: 3.503 (Simulation time: 00 hr 01 min 55 sec)
Heartbeat CPU 0 instructions: 21500140 cycles: 6148273 heartbeat IPC: 3.256 cumulative IPC: 3.497 (Simulation time: 00 hr 01 min 58 sec)
Heartbeat CPU 0 instructions: 22000142 cycles: 6296308 heartbeat IPC: 3.378 cumulative IPC: 3.494 (Simulation time: 00 hr 02 min 01 sec)
Heartbeat CPU 0 instructions: 22500142 cycles: 6410086 heartbeat IPC: 4.395 cumulative IPC: 3.51 (Simulation time: 00 hr 02 min 03 sec)
Heartbeat CPU 0 instructions: 23000147 cycles: 6577195 heartbeat IPC: 2.992 cumulative IPC: 3.497 (Simulation time: 00 hr 02 min 06 sec)
Heartbeat CPU 0 instructions: 23500154 cycles: 6703307 heartbeat IPC: 3.965 cumulative IPC: 3.506 (Simulation time: 00 hr 02 min 08 sec)
Heartbeat CPU 0 instructions: 24000156 cycles: 6858355 heartbeat IPC: 3.225 cumulative IPC: 3.499 (Simulation time: 00 hr 02 min 11 sec)
Heartbeat CPU 0 instructions: 24500160 cycles: 7009614 heartbeat IPC: 3.306 cumulative IPC: 3.495 (Simulation time: 00 hr 02 min 14 sec)
Heartbeat CPU 0 instructions: 25000160 cycles: 7144930 heartbeat IPC: 3.695 cumulative IPC: 3.499 (Simulation time: 00 hr 02 min 16 sec)
Heartbeat CPU 0 instructions: 25500165 cycles: 7263702 heartbeat IPC: 4.21 cumulative IPC: 3.511 (Simulation time: 00 hr 02 min 18 sec)
Heartbeat CPU 0 instructions: 26000168 cycles: 7383352 heartbeat IPC: 4.179 cumulative IPC: 3.521 (Simulation time: 00 hr 02 min 20 sec)
Heartbeat CPU 0 instructions: 26500174 cycles: 7498201 heartbeat IPC: 4.354 cumulative IPC: 3.534 (Simulation time: 00 hr 02 min 22 sec)
Heartbeat CPU 0 instructions: 27000175 cycles: 7615862 heartbeat IPC: 4.25 cumulative IPC: 3.545 (Simulation time: 00 hr 02 min 24 sec)
Heartbeat CPU 0 instructions: 27500178 cycles: 7730627 heartbeat IPC: 4.357 cumulative IPC: 3.557 (Simulation time: 00 hr 02 min 27 sec)
Heartbeat CPU 0 instructions: 28000185 cycles: 7844530 heartbeat IPC: 4.39 cumulative IPC: 3.569 (Simulation time: 00 hr 02 min 29 sec)
Heartbeat CPU 0 instructions: 28500191 cycles: 7958180 heartbeat IPC: 4.4 cumulative IPC: 3.581 (Simulation time: 00 hr 02 min 31 sec)
Heartbeat CPU 0 instructions: 29000191 cycles: 8073103 heartbeat IPC: 4.351 cumulative IPC: 3.592 (Simulation time: 00 hr 02 min 33 sec)
Heartbeat CPU 0 instructions: 29500198 cycles: 8210408 heartbeat IPC: 3.642 cumulative IPC: 3.593 (Simulation time: 00 hr 02 min 36 sec)
Heartbeat CPU 0 instructions: 30000200 cycles: 8358099 heartbeat IPC: 3.385 cumulative IPC: 3.589 (Simulation time: 00 hr 02 min 38 sec)
Heartbeat CPU 0 instructions: 30500206 cycles: 8501772 heartbeat IPC: 3.48 cumulative IPC: 3.588 (Simulation time: 00 hr 02 min 41 sec)
Heartbeat CPU 0 instructions: 31000212 cycles: 8651170 heartbeat IPC: 3.347 cumulative IPC: 3.583 (Simulation time: 00 hr 02 min 43 sec)
Heartbeat CPU 0 instructions: 31500218 cycles: 8819109 heartbeat IPC: 2.977 cumulative IPC: 3.572 (Simulation time: 00 hr 02 min 46 sec)
Heartbeat CPU 0 instructions: 32000218 cycles: 8952391 heartbeat IPC: 3.751 cumulative IPC: 3.574 (Simulation time: 00 hr 02 min 49 sec)
Heartbeat CPU 0 instructions: 32500218 cycles: 9112182 heartbeat IPC: 3.129 cumulative IPC: 3.567 (Simulation time: 00 hr 02 min 52 sec)
Heartbeat CPU 0 instructions: 33000222 cycles: 9296204 heartbeat IPC: 2.717 cumulative IPC: 3.55 (Simulation time: 00 hr 02 min 55 sec)
Heartbeat CPU 0 instructions: 33500225 cycles: 9438047 heartbeat IPC: 3.525 cumulative IPC: 3.549 (Simulation time: 00 hr 02 min 57 sec)
Heartbeat CPU 0 instructions: 34000225 cycles: 9577548 heartbeat IPC: 3.584 cumulative IPC: 3.55 (Simulation time: 00 hr 02 min 58 sec)
Heartbeat CPU 0 instructions: 34500225 cycles: 9717112 heartbeat IPC: 3.583 cumulative IPC: 3.55 (Simulation time: 00 hr 03 min 00 sec)
Heartbeat CPU 0 instructions: 35000227 cycles: 9856692 heartbeat IPC: 3.582 cumulative IPC: 3.551 (Simulation time: 00 hr 03 min 01 sec)
Heartbeat CPU 0 instructions: 35500230 cycles: 10002325 heartbeat IPC: 3.433 cumulative IPC: 3.549 (Simulation time: 00 hr 03 min 03 sec)
Heartbeat CPU 0 instructions: 36000231 cycles: 10102324 heartbeat IPC: 5 cumulative IPC: 3.564 (Simulation time: 00 hr 03 min 04 sec)
Heartbeat CPU 0 instructions: 36500234 cycles: 10202332 heartbeat IPC: 5 cumulative IPC: 3.578 (Simulation time: 00 hr 03 min 06 sec)
Heartbeat CPU 0 instructions: 37000235 cycles: 10302331 heartbeat IPC: 5 cumulative IPC: 3.591 (Simulation time: 00 hr 03 min 07 sec)
Heartbeat CPU 0 instructions: 37500240 cycles: 10402331 heartbeat IPC: 5 cumulative IPC: 3.605 (Simulation time: 00 hr 03 min 09 sec)
Heartbeat CPU 0 instructions: 38000240 cycles: 10502331 heartbeat IPC: 5 cumulative IPC: 3.618 (Simulation time: 00 hr 03 min 11 sec)
Heartbeat CPU 0 instructions: 38500242 cycles: 10634093 heartbeat IPC: 3.795 cumulative IPC: 3.62 (Simulation time: 00 hr 03 min 13 sec)
Heartbeat CPU 0 instructions: 39000248 cycles: 10752279 heartbeat IPC: 4.231 cumulative IPC: 3.627 (Simulation time: 00 hr 03 min 15 sec)
Heartbeat CPU 0 instructions: 39500250 cycles: 10868321 heartbeat IPC: 4.309 cumulative IPC: 3.634 (Simulation time: 00 hr 03 min 17 sec)
Heartbeat CPU 0 instructions: 40000256 cycles: 10990999 heartbeat IPC: 4.076 cumulative IPC: 3.639 (Simulation time: 00 hr 03 min 19 sec)
Heartbeat CPU 0 instructions: 40500256 cycles: 11097310 heartbeat IPC: 4.703 cumulative IPC: 3.65 (Simulation time: 00 hr 03 min 21 sec)
Heartbeat CPU 0 instructions: 41000258 cycles: 11207576 heartbeat IPC: 4.535 cumulative IPC: 3.658 (Simulation time: 00 hr 03 min 23 sec)
Heartbeat CPU 0 instructions: 41500258 cycles: 11321791 heartbeat IPC: 4.378 cumulative IPC: 3.666 (Simulation time: 00 hr 03 min 25 sec)
Heartbeat CPU 0 instructions: 42000262 cycles: 11434325 heartbeat IPC: 4.443 cumulative IPC: 3.673 (Simulation time: 00 hr 03 min 27 sec)
Heartbeat CPU 0 instructions: 42500267 cycles: 11562542 heartbeat IPC: 3.9 cumulative IPC: 3.676 (Simulation time: 00 hr 03 min 30 sec)
Heartbeat CPU 0 instructions: 43000273 cycles: 11675543 heartbeat IPC: 4.425 cumulative IPC: 3.683 (Simulation time: 00 hr 03 min 32 sec)
Heartbeat CPU 0 instructions: 43500275 cycles: 11789103 heartbeat IPC: 4.403 cumulative IPC: 3.69 (Simulation time: 00 hr 03 min 34 sec)
Heartbeat CPU 0 instructions: 44000277 cycles: 11911694 heartbeat IPC: 4.079 cumulative IPC: 3.694 (Simulation time: 00 hr 03 min 36 sec)
Heartbeat CPU 0 instructions: 44500278 cycles: 12099020 heartbeat IPC: 2.669 cumulative IPC: 3.678 (Simulation time: 00 hr 03 min 40 sec)
Heartbeat CPU 0 instructions: 45000279 cycles: 12242089 heartbeat IPC: 3.495 cumulative IPC: 3.676 (Simulation time: 00 hr 03 min 42 sec)
Heartbeat CPU 0 instructions: 45500281 cycles: 12387218 heartbeat IPC: 3.445 cumulative IPC: 3.673 (Simulation time: 00 hr 03 min 45 sec)
Heartbeat CPU 0 instructions: 46000287 cycles: 12504962 heartbeat IPC: 4.247 cumulative IPC: 3.679 (Simulation time: 00 hr 03 min 48 sec)
Heartbeat CPU 0 instructions: 46500294 cycles: 12625781 heartbeat IPC: 4.138 cumulative IPC: 3.683 (Simulation time: 00 hr 03 min 50 sec)
Heartbeat CPU 0 instructions: 47000301 cycles: 12760258 heartbeat IPC: 3.718 cumulative IPC: 3.683 (Simulation time: 00 hr 03 min 52 sec)
Heartbeat CPU 0 instructions: 47500305 cycles: 12876837 heartbeat IPC: 4.289 cumulative IPC: 3.689 (Simulation time: 00 hr 03 min 54 sec)
Heartbeat CPU 0 instructions: 48000309 cycles: 12987025 heartbeat IPC: 4.538 cumulative IPC: 3.696 (Simulation time: 00 hr 03 min 56 sec)
Heartbeat CPU 0 instructions: 48500310 cycles: 13105070 heartbeat IPC: 4.236 cumulative IPC: 3.701 (Simulation time: 00 hr 03 min 58 sec)
Heartbeat CPU 0 instructions: 49000316 cycles: 13215529 heartbeat IPC: 4.527 cumulative IPC: 3.708 (Simulation time: 00 hr 04 min 00 sec)
Heartbeat CPU 0 instructions: 49500323 cycles: 13325192 heartbeat IPC: 4.559 cumulative IPC: 3.715 (Simulation time: 00 hr 04 min 02 sec)
Warmup halting CPU 0 at instruction 50000000 cycle 13434361 for remainder of phase
Warmup finished CPU 0 instructions: 50000000 cycles: 13434361 cumulative IPC: 3.722 (Simulation time: 00 hr 04 min 04 sec)
Warmup complete CPU 0 instructions: 50000000 cycles: 13434361 cumulative IPC: 3.722 (Simulation time: 00 hr 04 min 04 sec)
Heartbeat CPU 0 instructions: 50000324 cycles: 13434415 heartbeat IPC: 4.578 cumulative IPC: 6 (Simulation time: 00 hr 04 min 04 sec)
Heartbeat CPU 0 instructions: 50500325 cycles: 14778877 heartbeat IPC: 0.3719 cumulative IPC: 0.3721 (Simulation time: 00 hr 04 min 14 sec)
Heartbeat CPU 0 instructions: 51000325 cycles: 16780054 heartbeat IPC: 0.2499 cumulative IPC: 0.299 (Simulation time: 00 hr 04 min 28 sec)
Heartbeat CPU 0 instructions: 51500325 cycles: 20115582 heartbeat IPC: 0.1499 cumulative IPC: 0.2246 (Simulation time: 00 hr 04 min 51 sec)
Heartbeat CPU 0 instructions: 52000326 cycles: 22139608 heartbeat IPC: 0.247 cumulative IPC: 0.2298 (Simulation time: 00 hr 05 min 04 sec)
Heartbeat CPU 0 instructions: 52500326 cycles: 23215201 heartbeat IPC: 0.4649 cumulative IPC: 0.2556 (Simulation time: 00 hr 05 min 13 sec)
Heartbeat CPU 0 instructions: 53000326 cycles: 23458512 heartbeat IPC: 2.055 cumulative IPC: 0.2993 (Simulation time: 00 hr 05 min 15 sec)
Heartbeat CPU 0 instructions: 53500327 cycles: 23760866 heartbeat IPC: 1.654 cumulative IPC: 0.339 (Simulation time: 00 hr 05 min 18 sec)
Heartbeat CPU 0 instructions: 54000333 cycles: 25127068 heartbeat IPC: 0.366 cumulative IPC: 0.3421 (Simulation time: 00 hr 05 min 28 sec)
Heartbeat CPU 0 instructions: 54500338 cycles: 26313572 heartbeat IPC: 0.4214 cumulative IPC: 0.3494 (Simulation time: 00 hr 05 min 37 sec)
Heartbeat CPU 0 instructions: 55000343 cycles: 28034119 heartbeat IPC: 0.2906 cumulative IPC: 0.3425 (Simulation time: 00 hr 05 min 50 sec)
Heartbeat CPU 0 instructions: 55500346 cycles: 29017570 heartbeat IPC: 0.5084 cumulative IPC: 0.353 (Simulation time: 00 hr 05 min 57 sec)
Heartbeat CPU 0 instructions: 56000351 cycles: 31276161 heartbeat IPC: 0.2214 cumulative IPC: 0.3363 (Simulation time: 00 hr 06 min 13 sec)
Heartbeat CPU 0 instructions: 56500355 cycles: 33572058 heartbeat IPC: 0.2178 cumulative IPC: 0.3228 (Simulation time: 00 hr 06 min 28 sec)
Heartbeat CPU 0 instructions: 57000355 cycles: 34809294 heartbeat IPC: 0.4041 cumulative IPC: 0.3275 (Simulation time: 00 hr 06 min 38 sec)
Heartbeat CPU 0 instructions: 57500355 cycles: 35415532 heartbeat IPC: 0.8248 cumulative IPC: 0.3412 (Simulation time: 00 hr 06 min 44 sec)
Heartbeat CPU 0 instructions: 58000360 cycles: 35785661 heartbeat IPC: 1.351 cumulative IPC: 0.3579 (Simulation time: 00 hr 06 min 49 sec)
Heartbeat CPU 0 instructions: 58500365 cycles: 36154082 heartbeat IPC: 1.357 cumulative IPC: 0.3741 (Simulation time: 00 hr 06 min 54 sec)
Heartbeat CPU 0 instructions: 59000366 cycles: 36511857 heartbeat IPC: 1.398 cumulative IPC: 0.39 (Simulation time: 00 hr 06 min 59 sec)
Heartbeat CPU 0 instructions: 59500371 cycles: 38611082 heartbeat IPC: 0.2382 cumulative IPC: 0.3773 (Simulation time: 00 hr 07 min 14 sec)
Heartbeat CPU 0 instructions: 60000376 cycles: 39262207 heartbeat IPC: 0.7679 cumulative IPC: 0.3872 (Simulation time: 00 hr 07 min 19 sec)
Heartbeat CPU 0 instructions: 60500379 cycles: 41603068 heartbeat IPC: 0.2136 cumulative IPC: 0.3728 (Simulation time: 00 hr 07 min 35 sec)
Heartbeat CPU 0 instructions: 61000384 cycles: 44141104 heartbeat IPC: 0.197 cumulative IPC: 0.3582 (Simulation time: 00 hr 07 min 51 sec)
Heartbeat CPU 0 instructions: 61500384 cycles: 45888067 heartbeat IPC: 0.2862 cumulative IPC: 0.3544 (Simulation time: 00 hr 08 min 03 sec)
Heartbeat CPU 0 instructions: 62000385 cycles: 47074485 heartbeat IPC: 0.4214 cumulative IPC: 0.3567 (Simulation time: 00 hr 08 min 12 sec)
Heartbeat CPU 0 instructions: 62500385 cycles: 49145648 heartbeat IPC: 0.2414 cumulative IPC: 0.35 (Simulation time: 00 hr 08 min 28 sec)
Heartbeat CPU 0 instructions: 63000388 cycles: 50592553 heartbeat IPC: 0.3456 cumulative IPC: 0.3499 (Simulation time: 00 hr 08 min 41 sec)
Heartbeat CPU 0 instructions: 63500394 cycles: 51976548 heartbeat IPC: 0.3613 cumulative IPC: 0.3503 (Simulation time: 00 hr 08 min 53 sec)
Heartbeat CPU 0 instructions: 64000396 cycles: 53176721 heartbeat IPC: 0.4166 cumulative IPC: 0.3523 (Simulation time: 00 hr 09 min 04 sec)
Heartbeat CPU 0 instructions: 64500399 cycles: 53804737 heartbeat IPC: 0.7962 cumulative IPC: 0.3592 (Simulation time: 00 hr 09 min 11 sec)
Heartbeat CPU 0 instructions: 65000401 cycles: 54887752 heartbeat IPC: 0.4617 cumulative IPC: 0.3619 (Simulation time: 00 hr 09 min 21 sec)
Heartbeat CPU 0 instructions: 65500401 cycles: 56005122 heartbeat IPC: 0.4475 cumulative IPC: 0.3641 (Simulation time: 00 hr 09 min 32 sec)
Heartbeat CPU 0 instructions: 66000408 cycles: 57367506 heartbeat IPC: 0.367 cumulative IPC: 0.3642 (Simulation time: 00 hr 09 min 44 sec)
Heartbeat CPU 0 instructions: 66500408 cycles: 58669895 heartbeat IPC: 0.3839 cumulative IPC: 0.3648 (Simulation time: 00 hr 09 min 53 sec)
Heartbeat CPU 0 instructions: 67000415 cycles: 59768231 heartbeat IPC: 0.4552 cumulative IPC: 0.3669 (Simulation time: 00 hr 10 min 02 sec)
Heartbeat CPU 0 instructions: 67500417 cycles: 60600047 heartbeat IPC: 0.6011 cumulative IPC: 0.371 (Simulation time: 00 hr 10 min 08 sec)
Heartbeat CPU 0 instructions: 68000417 cycles: 61403331 heartbeat IPC: 0.6224 cumulative IPC: 0.3753 (Simulation time: 00 hr 10 min 15 sec)
Heartbeat CPU 0 instructions: 68500420 cycles: 62237521 heartbeat IPC: 0.5994 cumulative IPC: 0.3791 (Simulation time: 00 hr 10 min 22 sec)
Heartbeat CPU 0 instructions: 69000420 cycles: 62914996 heartbeat IPC: 0.738 cumulative IPC: 0.384 (Simulation time: 00 hr 10 min 27 sec)
Heartbeat CPU 0 instructions: 69500420 cycles: 64112936 heartbeat IPC: 0.4174 cumulative IPC: 0.3848 (Simulation time: 00 hr 10 min 36 sec)
Heartbeat CPU 0 instructions: 70000422 cycles: 64920832 heartbeat IPC: 0.6189 cumulative IPC: 0.3885 (Simulation time: 00 hr 10 min 43 sec)
Heartbeat CPU 0 instructions: 70500427 cycles: 65803868 heartbeat IPC: 0.5662 cumulative IPC: 0.3915 (Simulation time: 00 hr 10 min 50 sec)
Heartbeat CPU 0 instructions: 71000427 cycles: 66598503 heartbeat IPC: 0.6292 cumulative IPC: 0.395 (Simulation time: 00 hr 10 min 56 sec)
Heartbeat CPU 0 instructions: 71500427 cycles: 67290507 heartbeat IPC: 0.7225 cumulative IPC: 0.3992 (Simulation time: 00 hr 11 min 02 sec)
Heartbeat CPU 0 instructions: 72000434 cycles: 67983581 heartbeat IPC: 0.7214 cumulative IPC: 0.4033 (Simulation time: 00 hr 11 min 08 sec)
Heartbeat CPU 0 instructions: 72500436 cycles: 68677731 heartbeat IPC: 0.7203 cumulative IPC: 0.4073 (Simulation time: 00 hr 11 min 14 sec)
Heartbeat CPU 0 instructions: 73000438 cycles: 69471401 heartbeat IPC: 0.63 cumulative IPC: 0.4105 (Simulation time: 00 hr 11 min 20 sec)
Heartbeat CPU 0 instructions: 73500438 cycles: 70196251 heartbeat IPC: 0.6898 cumulative IPC: 0.414 (Simulation time: 00 hr 11 min 26 sec)
Heartbeat CPU 0 instructions: 74000444 cycles: 70885439 heartbeat IPC: 0.7255 cumulative IPC: 0.4178 (Simulation time: 00 hr 11 min 32 sec)
Heartbeat CPU 0 instructions: 74500449 cycles: 71582134 heartbeat IPC: 0.7177 cumulative IPC: 0.4213 (Simulation time: 00 hr 11 min 38 sec)
Heartbeat CPU 0 instructions: 75000451 cycles: 72373754 heartbeat IPC: 0.6316 cumulative IPC: 0.4242 (Simulation time: 00 hr 11 min 44 sec)
Heartbeat CPU 0 instructions: 75500458 cycles: 73077513 heartbeat IPC: 0.7105 cumulative IPC: 0.4276 (Simulation time: 00 hr 11 min 50 sec)
Heartbeat CPU 0 instructions: 76000460 cycles: 73849573 heartbeat IPC: 0.6476 cumulative IPC: 0.4304 (Simulation time: 00 hr 11 min 57 sec)
Heartbeat CPU 0 instructions: 76500463 cycles: 74498948 heartbeat IPC: 0.77 cumulative IPC: 0.434 (Simulation time: 00 hr 12 min 02 sec)
Heartbeat CPU 0 instructions: 77000464 cycles: 75928384 heartbeat IPC: 0.3498 cumulative IPC: 0.432 (Simulation time: 00 hr 12 min 13 sec)
Heartbeat CPU 0 instructions: 77500464 cycles: 77183457 heartbeat IPC: 0.3984 cumulative IPC: 0.4314 (Simulation time: 00 hr 12 min 23 sec)
Heartbeat CPU 0 instructions: 78000465 cycles: 78924065 heartbeat IPC: 0.2873 cumulative IPC: 0.4276 (Simulation time: 00 hr 12 min 35 sec)
Heartbeat CPU 0 instructions: 78500470 cycles: 80191468 heartbeat IPC: 0.3945 cumulative IPC: 0.4269 (Simulation time: 00 hr 12 min 44 sec)
Heartbeat CPU 0 instructions: 79000470 cycles: 80756031 heartbeat IPC: 0.8856 cumulative IPC: 0.4308 (Simulation time: 00 hr 12 min 49 sec)
Heartbeat CPU 0 instructions: 79500472 cycles: 81370723 heartbeat IPC: 0.8134 cumulative IPC: 0.4342 (Simulation time: 00 hr 12 min 54 sec)
Heartbeat CPU 0 instructions: 80000472 cycles: 81883293 heartbeat IPC: 0.9755 cumulative IPC: 0.4383 (Simulation time: 00 hr 12 min 58 sec)
Heartbeat CPU 0 instructions: 80500472 cycles: 82430661 heartbeat IPC: 0.9135 cumulative IPC: 0.4421 (Simulation time: 00 hr 13 min 03 sec)
Heartbeat CPU 0 instructions: 81000474 cycles: 82926739 heartbeat IPC: 1.008 cumulative IPC: 0.4461 (Simulation time: 00 hr 13 min 07 sec)
Heartbeat CPU 0 instructions: 81500478 cycles: 83361917 heartbeat IPC: 1.149 cumulative IPC: 0.4505 (Simulation time: 00 hr 13 min 11 sec)
Heartbeat CPU 0 instructions: 82000480 cycles: 84282221 heartbeat IPC: 0.5433 cumulative IPC: 0.4517 (Simulation time: 00 hr 13 min 18 sec)
Heartbeat CPU 0 instructions: 82500480 cycles: 86012607 heartbeat IPC: 0.289 cumulative IPC: 0.4478 (Simulation time: 00 hr 13 min 30 sec)
Heartbeat CPU 0 instructions: 83000480 cycles: 86677355 heartbeat IPC: 0.7522 cumulative IPC: 0.4506 (Simulation time: 00 hr 13 min 37 sec)
Heartbeat CPU 0 instructions: 83500480 cycles: 87133465 heartbeat IPC: 1.096 cumulative IPC: 0.4546 (Simulation time: 00 hr 13 min 43 sec)
Heartbeat CPU 0 instructions: 84000480 cycles: 88555880 heartbeat IPC: 0.3515 cumulative IPC: 0.4526 (Simulation time: 00 hr 13 min 53 sec)
Heartbeat CPU 0 instructions: 84500481 cycles: 89708915 heartbeat IPC: 0.4336 cumulative IPC: 0.4523 (Simulation time: 00 hr 14 min 02 sec)
Heartbeat CPU 0 instructions: 85000482 cycles: 91899419 heartbeat IPC: 0.2283 cumulative IPC: 0.4461 (Simulation time: 00 hr 14 min 17 sec)
Heartbeat CPU 0 instructions: 85500484 cycles: 93021178 heartbeat IPC: 0.4457 cumulative IPC: 0.4461 (Simulation time: 00 hr 14 min 25 sec)
Heartbeat CPU 0 instructions: 86000491 cycles: 94913690 heartbeat IPC: 0.2642 cumulative IPC: 0.4418 (Simulation time: 00 hr 14 min 38 sec)
Heartbeat CPU 0 instructions: 86500492 cycles: 96404521 heartbeat IPC: 0.3354 cumulative IPC: 0.4399 (Simulation time: 00 hr 14 min 48 sec)
Heartbeat CPU 0 instructions: 87000492 cycles: 97623518 heartbeat IPC: 0.4102 cumulative IPC: 0.4395 (Simulation time: 00 hr 14 min 57 sec)
Heartbeat CPU 0 instructions: 87500493 cycles: 98897677 heartbeat IPC: 0.3924 cumulative IPC: 0.4388 (Simulation time: 00 hr 15 min 06 sec)
Heartbeat CPU 0 instructions: 88000496 cycles: 101244402 heartbeat IPC: 0.2131 cumulative IPC: 0.4328 (Simulation time: 00 hr 15 min 23 sec)
Heartbeat CPU 0 instructions: 88500498 cycles: 103112026 heartbeat IPC: 0.2677 cumulative IPC: 0.4293 (Simulation time: 00 hr 15 min 37 sec)
Heartbeat CPU 0 instructions: 89000503 cycles: 105393264 heartbeat IPC: 0.2192 cumulative IPC: 0.4241 (Simulation time: 00 hr 15 min 52 sec)
Heartbeat CPU 0 instructions: 89500505 cycles: 105979937 heartbeat IPC: 0.8523 cumulative IPC: 0.4268 (Simulation time: 00 hr 15 min 56 sec)
Heartbeat CPU 0 instructions: 90000505 cycles: 106540989 heartbeat IPC: 0.8912 cumulative IPC: 0.4296 (Simulation time: 00 hr 16 min 01 sec)
Heartbeat CPU 0 instructions: 90500507 cycles: 107147520 heartbeat IPC: 0.8244 cumulative IPC: 0.4322 (Simulation time: 00 hr 16 min 06 sec)
Heartbeat CPU 0 instructions: 91000512 cycles: 107657267 heartbeat IPC: 0.9809 cumulative IPC: 0.4351 (Simulation time: 00 hr 16 min 10 sec)
Heartbeat CPU 0 instructions: 91500513 cycles: 108169095 heartbeat IPC: 0.9769 cumulative IPC: 0.4381 (Simulation time: 00 hr 16 min 15 sec)
Heartbeat CPU 0 instructions: 92000516 cycles: 108679013 heartbeat IPC: 0.9806 cumulative IPC: 0.441 (Simulation time: 00 hr 16 min 19 sec)
Heartbeat CPU 0 instructions: 92500517 cycles: 109426837 heartbeat IPC: 0.6686 cumulative IPC: 0.4427 (Simulation time: 00 hr 16 min 25 sec)
Heartbeat CPU 0 instructions: 93000517 cycles: 110980074 heartbeat IPC: 0.3219 cumulative IPC: 0.4408 (Simulation time: 00 hr 16 min 35 sec)
Heartbeat CPU 0 instructions: 93500519 cycles: 111703269 heartbeat IPC: 0.6914 cumulative IPC: 0.4427 (Simulation time: 00 hr 16 min 41 sec)
Heartbeat CPU 0 instructions: 94000520 cycles: 112171779 heartbeat IPC: 1.067 cumulative IPC: 0.4456 (Simulation time: 00 hr 16 min 45 sec)
Heartbeat CPU 0 instructions: 94500520 cycles: 112329029 heartbeat IPC: 3.18 cumulative IPC: 0.45 (Simulation time: 00 hr 16 min 48 sec)
Heartbeat CPU 0 instructions: 95000522 cycles: 112489480 heartbeat IPC: 3.116 cumulative IPC: 0.4543 (Simulation time: 00 hr 16 min 50 sec)
Heartbeat CPU 0 instructions: 95500522 cycles: 112796729 heartbeat IPC: 1.627 cumulative IPC: 0.4579 (Simulation time: 00 hr 16 min 54 sec)
Heartbeat CPU 0 instructions: 96000524 cycles: 113853685 heartbeat IPC: 0.4731 cumulative IPC: 0.4581 (Simulation time: 00 hr 17 min 01 sec)
Heartbeat CPU 0 instructions: 96500526 cycles: 114092442 heartbeat IPC: 2.094 cumulative IPC: 0.462 (Simulation time: 00 hr 17 min 04 sec)
Heartbeat CPU 0 instructions: 97000526 cycles: 114379360 heartbeat IPC: 1.743 cumulative IPC: 0.4656 (Simulation time: 00 hr 17 min 06 sec)
Heartbeat CPU 0 instructions: 97500526 cycles: 117036953 heartbeat IPC: 0.1881 cumulative IPC: 0.4585 (Simulation time: 00 hr 17 min 23 sec)
Heartbeat CPU 0 instructions: 98000533 cycles: 117979468 heartbeat IPC: 0.5305 cumulative IPC: 0.4591 (Simulation time: 00 hr 17 min 32 sec)
Heartbeat CPU 0 instructions: 98500534 cycles: 118810821 heartbeat IPC: 0.6014 cumulative IPC: 0.4603 (Simulation time: 00 hr 17 min 43 sec)
Heartbeat CPU 0 instructions: 99000535 cycles: 119213296 heartbeat IPC: 1.242 cumulative IPC: 0.4632 (Simulation time: 00 hr 17 min 47 sec)
Heartbeat CPU 0 instructions: 99500537 cycles: 119379214 heartbeat IPC: 3.014 cumulative IPC: 0.4672 (Simulation time: 00 hr 17 min 49 sec)
Heartbeat CPU 0 instructions: 100000541 cycles: 119757194 heartbeat IPC: 1.323 cumulative IPC: 0.4703 (Simulation time: 00 hr 17 min 53 sec)
Heartbeat CPU 0 instructions: 100500543 cycles: 120089172 heartbeat IPC: 1.506 cumulative IPC: 0.4735 (Simulation time: 00 hr 17 min 56 sec)
Heartbeat CPU 0 instructions: 101000546 cycles: 121609979 heartbeat IPC: 0.3288 cumulative IPC: 0.4715 (Simulation time: 00 hr 18 min 08 sec)
Heartbeat CPU 0 instructions: 101500546 cycles: 123222120 heartbeat IPC: 0.3101 cumulative IPC: 0.4691 (Simulation time: 00 hr 18 min 20 sec)
Heartbeat CPU 0 instructions: 102000549 cycles: 123861394 heartbeat IPC: 0.7821 cumulative IPC: 0.4709 (Simulation time: 00 hr 18 min 25 sec)
Heartbeat CPU 0 instructions: 102500549 cycles: 124525903 heartbeat IPC: 0.7524 cumulative IPC: 0.4726 (Simulation time: 00 hr 18 min 30 sec)
Heartbeat CPU 0 instructions: 103000551 cycles: 125269883 heartbeat IPC: 0.6721 cumulative IPC: 0.4739 (Simulation time: 00 hr 18 min 36 sec)
Heartbeat CPU 0 instructions: 103500552 cycles: 125991993 heartbeat IPC: 0.6924 cumulative IPC: 0.4753 (Simulation time: 00 hr 18 min 42 sec)
Heartbeat CPU 0 instructions: 104000559 cycles: 126314859 heartbeat IPC: 1.549 cumulative IPC: 0.4784 (Simulation time: 00 hr 18 min 45 sec)
Heartbeat CPU 0 instructions: 104500559 cycles: 126579415 heartbeat IPC: 1.89 cumulative IPC: 0.4817 (Simulation time: 00 hr 18 min 48 sec)
Heartbeat CPU 0 instructions: 105000562 cycles: 126892108 heartbeat IPC: 1.599 cumulative IPC: 0.4848 (Simulation time: 00 hr 18 min 52 sec)
Heartbeat CPU 0 instructions: 105500565 cycles: 127198356 heartbeat IPC: 1.633 cumulative IPC: 0.4879 (Simulation time: 00 hr 18 min 56 sec)
Heartbeat CPU 0 instructions: 106000570 cycles: 127459178 heartbeat IPC: 1.917 cumulative IPC: 0.4911 (Simulation time: 00 hr 18 min 59 sec)
Heartbeat CPU 0 instructions: 106500571 cycles: 127708644 heartbeat IPC: 2.004 cumulative IPC: 0.4944 (Simulation time: 00 hr 19 min 02 sec)
Heartbeat CPU 0 instructions: 107000577 cycles: 128156048 heartbeat IPC: 1.118 cumulative IPC: 0.4969 (Simulation time: 00 hr 19 min 06 sec)
Heartbeat CPU 0 instructions: 107500579 cycles: 130445460 heartbeat IPC: 0.2184 cumulative IPC: 0.4914 (Simulation time: 00 hr 19 min 21 sec)
Heartbeat CPU 0 instructions: 108000585 cycles: 131191384 heartbeat IPC: 0.6703 cumulative IPC: 0.4925 (Simulation time: 00 hr 19 min 26 sec)
Heartbeat CPU 0 instructions: 108500587 cycles: 131470682 heartbeat IPC: 1.79 cumulative IPC: 0.4956 (Simulation time: 00 hr 19 min 29 sec)
Heartbeat CPU 0 instructions: 109000592 cycles: 131916395 heartbeat IPC: 1.122 cumulative IPC: 0.498 (Simulation time: 00 hr 19 min 33 sec)
Heartbeat CPU 0 instructions: 109500593 cycles: 132622392 heartbeat IPC: 0.7082 cumulative IPC: 0.4992 (Simulation time: 00 hr 19 min 39 sec)
Heartbeat CPU 0 instructions: 110000593 cycles: 133486468 heartbeat IPC: 0.5787 cumulative IPC: 0.4998 (Simulation time: 00 hr 19 min 45 sec)
Heartbeat CPU 0 instructions: 110500593 cycles: 133851410 heartbeat IPC: 1.37 cumulative IPC: 0.5024 (Simulation time: 00 hr 19 min 48 sec)
Heartbeat CPU 0 instructions: 111000593 cycles: 134198915 heartbeat IPC: 1.439 cumulative IPC: 0.5051 (Simulation time: 00 hr 19 min 51 sec)
Heartbeat CPU 0 instructions: 111500593 cycles: 134537828 heartbeat IPC: 1.475 cumulative IPC: 0.5078 (Simulation time: 00 hr 19 min 54 sec)
Heartbeat CPU 0 instructions: 112000594 cycles: 134962732 heartbeat IPC: 1.177 cumulative IPC: 0.5102 (Simulation time: 00 hr 19 min 58 sec)
Heartbeat CPU 0 instructions: 112500594 cycles: 135308537 heartbeat IPC: 1.446 cumulative IPC: 0.5128 (Simulation time: 00 hr 20 min 01 sec)
Heartbeat CPU 0 instructions: 113000594 cycles: 135640627 heartbeat IPC: 1.506 cumulative IPC: 0.5155 (Simulation time: 00 hr 20 min 04 sec)
Heartbeat CPU 0 instructions: 113500597 cycles: 135987990 heartbeat IPC: 1.439 cumulative IPC: 0.5181 (Simulation time: 00 hr 20 min 07 sec)
Heartbeat CPU 0 instructions: 114000598 cycles: 136332752 heartbeat IPC: 1.45 cumulative IPC: 0.5208 (Simulation time: 00 hr 20 min 10 sec)
Heartbeat CPU 0 instructions: 114500600 cycles: 136703891 heartbeat IPC: 1.347 cumulative IPC: 0.5232 (Simulation time: 00 hr 20 min 13 sec)
Heartbeat CPU 0 instructions: 115000602 cycles: 137039819 heartbeat IPC: 1.488 cumulative IPC: 0.5259 (Simulation time: 00 hr 20 min 16 sec)
Heartbeat CPU 0 instructions: 115500602 cycles: 137388973 heartbeat IPC: 1.432 cumulative IPC: 0.5284 (Simulation time: 00 hr 20 min 19 sec)
Heartbeat CPU 0 instructions: 116000603 cycles: 137729149 heartbeat IPC: 1.47 cumulative IPC: 0.531 (Simulation time: 00 hr 20 min 22 sec)
Heartbeat CPU 0 instructions: 116500606 cycles: 138066431 heartbeat IPC: 1.482 cumulative IPC: 0.5336 (Simulation time: 00 hr 20 min 25 sec)
Heartbeat CPU 0 instructions: 117000606 cycles: 138406100 heartbeat IPC: 1.472 cumulative IPC: 0.5361 (Simulation time: 00 hr 20 min 28 sec)
Heartbeat CPU 0 instructions: 117500609 cycles: 138745393 heartbeat IPC: 1.474 cumulative IPC: 0.5387 (Simulation time: 00 hr 20 min 31 sec)
Heartbeat CPU 0 instructions: 118000609 cycles: 139093065 heartbeat IPC: 1.438 cumulative IPC: 0.5412 (Simulation time: 00 hr 20 min 34 sec)
Heartbeat CPU 0 instructions: 118500609 cycles: 139428894 heartbeat IPC: 1.489 cumulative IPC: 0.5437 (Simulation time: 00 hr 20 min 37 sec)
Heartbeat CPU 0 instructions: 119000612 cycles: 139769138 heartbeat IPC: 1.47 cumulative IPC: 0.5462 (Simulation time: 00 hr 20 min 40 sec)
Heartbeat CPU 0 instructions: 119500612 cycles: 140120779 heartbeat IPC: 1.422 cumulative IPC: 0.5486 (Simulation time: 00 hr 20 min 43 sec)
Heartbeat CPU 0 instructions: 120000613 cycles: 140638616 heartbeat IPC: 0.9656 cumulative IPC: 0.5503 (Simulation time: 00 hr 20 min 47 sec)
Heartbeat CPU 0 instructions: 120500615 cycles: 141178892 heartbeat IPC: 0.9255 cumulative IPC: 0.5519 (Simulation time: 00 hr 20 min 52 sec)
Heartbeat CPU 0 instructions: 121000619 cycles: 141749857 heartbeat IPC: 0.8757 cumulative IPC: 0.5533 (Simulation time: 00 hr 20 min 57 sec)
Heartbeat CPU 0 instructions: 121500621 cycles: 141902483 heartbeat IPC: 3.276 cumulative IPC: 0.5566 (Simulation time: 00 hr 20 min 59 sec)
Heartbeat CPU 0 instructions: 122000621 cycles: 143274989 heartbeat IPC: 0.3643 cumulative IPC: 0.5545 (Simulation time: 00 hr 21 min 08 sec)
Heartbeat CPU 0 instructions: 122500622 cycles: 146303745 heartbeat IPC: 0.1651 cumulative IPC: 0.5457 (Simulation time: 00 hr 21 min 26 sec)
Heartbeat CPU 0 instructions: 123000622 cycles: 147827654 heartbeat IPC: 0.3281 cumulative IPC: 0.5432 (Simulation time: 00 hr 21 min 36 sec)
Heartbeat CPU 0 instructions: 123500624 cycles: 148104598 heartbeat IPC: 1.805 cumulative IPC: 0.5458 (Simulation time: 00 hr 21 min 39 sec)
Heartbeat CPU 0 instructions: 124000624 cycles: 148472588 heartbeat IPC: 1.359 cumulative IPC: 0.548 (Simulation time: 00 hr 21 min 43 sec)
Heartbeat CPU 0 instructions: 124500630 cycles: 150070929 heartbeat IPC: 0.3128 cumulative IPC: 0.5452 (Simulation time: 00 hr 21 min 52 sec)
Heartbeat CPU 0 instructions: 125000630 cycles: 152552920 heartbeat IPC: 0.2015 cumulative IPC: 0.5391 (Simulation time: 00 hr 22 min 07 sec)
Heartbeat CPU 0 instructions: 125500634 cycles: 154511314 heartbeat IPC: 0.2553 cumulative IPC: 0.5352 (Simulation time: 00 hr 22 min 20 sec)
Heartbeat CPU 0 instructions: 126000641 cycles: 155029049 heartbeat IPC: 0.9658 cumulative IPC: 0.5367 (Simulation time: 00 hr 22 min 24 sec)
Heartbeat CPU 0 instructions: 126500641 cycles: 156111339 heartbeat IPC: 0.462 cumulative IPC: 0.5362 (Simulation time: 00 hr 22 min 31 sec)
Heartbeat CPU 0 instructions: 127000648 cycles: 157664076 heartbeat IPC: 0.322 cumulative IPC: 0.5339 (Simulation time: 00 hr 22 min 41 sec)
Heartbeat CPU 0 instructions: 127500648 cycles: 158970206 heartbeat IPC: 0.3828 cumulative IPC: 0.5325 (Simulation time: 00 hr 22 min 49 sec)
Heartbeat CPU 0 instructions: 128000648 cycles: 159554946 heartbeat IPC: 0.8551 cumulative IPC: 0.5338 (Simulation time: 00 hr 22 min 53 sec)
Heartbeat CPU 0 instructions: 128500648 cycles: 160111594 heartbeat IPC: 0.8982 cumulative IPC: 0.5352 (Simulation time: 00 hr 22 min 58 sec)
Heartbeat CPU 0 instructions: 129000651 cycles: 160676669 heartbeat IPC: 0.8848 cumulative IPC: 0.5365 (Simulation time: 00 hr 23 min 02 sec)
Heartbeat CPU 0 instructions: 129500657 cycles: 161459168 heartbeat IPC: 0.639 cumulative IPC: 0.5371 (Simulation time: 00 hr 23 min 07 sec)
Heartbeat CPU 0 instructions: 130000661 cycles: 162807193 heartbeat IPC: 0.3709 cumulative IPC: 0.5356 (Simulation time: 00 hr 23 min 16 sec)
Heartbeat CPU 0 instructions: 130500661 cycles: 163550098 heartbeat IPC: 0.673 cumulative IPC: 0.5363 (Simulation time: 00 hr 23 min 21 sec)
Heartbeat CPU 0 instructions: 131000661 cycles: 164588716 heartbeat IPC: 0.4814 cumulative IPC: 0.5359 (Simulation time: 00 hr 23 min 28 sec)
Heartbeat CPU 0 instructions: 131500662 cycles: 165024094 heartbeat IPC: 1.148 cumulative IPC: 0.5376 (Simulation time: 00 hr 23 min 32 sec)
Heartbeat CPU 0 instructions: 132000665 cycles: 166428379 heartbeat IPC: 0.3561 cumulative IPC: 0.536 (Simulation time: 00 hr 23 min 41 sec)
Heartbeat CPU 0 instructions: 132500666 cycles: 166795906 heartbeat IPC: 1.36 cumulative IPC: 0.5379 (Simulation time: 00 hr 23 min 44 sec)
Heartbeat CPU 0 instructions: 133000670 cycles: 167098907 heartbeat IPC: 1.65 cumulative IPC: 0.5401 (Simulation time: 00 hr 23 min 47 sec)
Heartbeat CPU 0 instructions: 133500674 cycles: 167394562 heartbeat IPC: 1.691 cumulative IPC: 0.5424 (Simulation time: 00 hr 23 min 50 sec)
Heartbeat CPU 0 instructions: 134000677 cycles: 167693566 heartbeat IPC: 1.672 cumulative IPC: 0.5445 (Simulation time: 00 hr 23 min 53 sec)
Heartbeat CPU 0 instructions: 134500677 cycles: 169495294 heartbeat IPC: 0.2775 cumulative IPC: 0.5415 (Simulation time: 00 hr 24 min 04 sec)
Heartbeat CPU 0 instructions: 135000678 cycles: 171401929 heartbeat IPC: 0.2622 cumulative IPC: 0.5381 (Simulation time: 00 hr 24 min 16 sec)
Heartbeat CPU 0 instructions: 135500680 cycles: 172648263 heartbeat IPC: 0.4012 cumulative IPC: 0.537 (Simulation time: 00 hr 24 min 24 sec)
Heartbeat CPU 0 instructions: 136000683 cycles: 174558549 heartbeat IPC: 0.2617 cumulative IPC: 0.5338 (Simulation time: 00 hr 24 min 35 sec)
Heartbeat CPU 0 instructions: 136500684 cycles: 175747750 heartbeat IPC: 0.4205 cumulative IPC: 0.5329 (Simulation time: 00 hr 24 min 44 sec)
Heartbeat CPU 0 instructions: 137000689 cycles: 176423022 heartbeat IPC: 0.7404 cumulative IPC: 0.5338 (Simulation time: 00 hr 24 min 49 sec)
Heartbeat CPU 0 instructions: 137500689 cycles: 178461477 heartbeat IPC: 0.2453 cumulative IPC: 0.5302 (Simulation time: 00 hr 25 min 01 sec)
Heartbeat CPU 0 instructions: 138000696 cycles: 179288679 heartbeat IPC: 0.6045 cumulative IPC: 0.5306 (Simulation time: 00 hr 25 min 07 sec)
Heartbeat CPU 0 instructions: 138500696 cycles: 180582878 heartbeat IPC: 0.3863 cumulative IPC: 0.5295 (Simulation time: 00 hr 25 min 16 sec)
Heartbeat CPU 0 instructions: 139000703 cycles: 181924367 heartbeat IPC: 0.3727 cumulative IPC: 0.5282 (Simulation time: 00 hr 25 min 25 sec)
Heartbeat CPU 0 instructions: 139500703 cycles: 182501167 heartbeat IPC: 0.8669 cumulative IPC: 0.5294 (Simulation time: 00 hr 25 min 30 sec)
Heartbeat CPU 0 instructions: 140000708 cycles: 182862749 heartbeat IPC: 1.383 cumulative IPC: 0.5312 (Simulation time: 00 hr 25 min 34 sec)
Heartbeat CPU 0 instructions: 140500710 cycles: 183234887 heartbeat IPC: 1.344 cumulative IPC: 0.533 (Simulation time: 00 hr 25 min 38 sec)
Heartbeat CPU 0 instructions: 141000711 cycles: 184506441 heartbeat IPC: 0.3932 cumulative IPC: 0.5319 (Simulation time: 00 hr 25 min 46 sec)
Heartbeat CPU 0 instructions: 141500711 cycles: 186643054 heartbeat IPC: 0.234 cumulative IPC: 0.5283 (Simulation time: 00 hr 25 min 59 sec)
Heartbeat CPU 0 instructions: 142000716 cycles: 187916824 heartbeat IPC: 0.3925 cumulative IPC: 0.5273 (Simulation time: 00 hr 26 min 07 sec)
Heartbeat CPU 0 instructions: 142500716 cycles: 188562325 heartbeat IPC: 0.7746 cumulative IPC: 0.5282 (Simulation time: 00 hr 26 min 12 sec)
Heartbeat CPU 0 instructions: 143000718 cycles: 190084043 heartbeat IPC: 0.3286 cumulative IPC: 0.5265 (Simulation time: 00 hr 26 min 21 sec)
Heartbeat CPU 0 instructions: 143500723 cycles: 192887013 heartbeat IPC: 0.1784 cumulative IPC: 0.521 (Simulation time: 00 hr 26 min 37 sec)
Heartbeat CPU 0 instructions: 144000725 cycles: 194350481 heartbeat IPC: 0.3417 cumulative IPC: 0.5196 (Simulation time: 00 hr 26 min 45 sec)
Heartbeat CPU 0 instructions: 144500725 cycles: 195311904 heartbeat IPC: 0.5201 cumulative IPC: 0.5196 (Simulation time: 00 hr 26 min 51 sec)
Heartbeat CPU 0 instructions: 145000726 cycles: 196817041 heartbeat IPC: 0.3322 cumulative IPC: 0.518 (Simulation time: 00 hr 27 min 01 sec)
Heartbeat CPU 0 instructions: 145500731 cycles: 198060025 heartbeat IPC: 0.4023 cumulative IPC: 0.5173 (Simulation time: 00 hr 27 min 08 sec)
Heartbeat CPU 0 instructions: 146000731 cycles: 198748304 heartbeat IPC: 0.7264 cumulative IPC: 0.518 (Simulation time: 00 hr 27 min 14 sec)
Heartbeat CPU 0 instructions: 146500733 cycles: 199412068 heartbeat IPC: 0.7533 cumulative IPC: 0.5189 (Simulation time: 00 hr 27 min 20 sec)
Heartbeat CPU 0 instructions: 147000736 cycles: 200407443 heartbeat IPC: 0.5023 cumulative IPC: 0.5188 (Simulation time: 00 hr 27 min 27 sec)
Heartbeat CPU 0 instructions: 147500736 cycles: 201675604 heartbeat IPC: 0.3943 cumulative IPC: 0.518 (Simulation time: 00 hr 27 min 35 sec)
Heartbeat CPU 0 instructions: 148000739 cycles: 203240530 heartbeat IPC: 0.3195 cumulative IPC: 0.5163 (Simulation time: 00 hr 27 min 44 sec)
Heartbeat CPU 0 instructions: 148500740 cycles: 203690345 heartbeat IPC: 1.112 cumulative IPC: 0.5177 (Simulation time: 00 hr 27 min 48 sec)
Heartbeat CPU 0 instructions: 149000745 cycles: 204704620 heartbeat IPC: 0.493 cumulative IPC: 0.5176 (Simulation time: 00 hr 27 min 54 sec)
Heartbeat CPU 0 instructions: 149500751 cycles: 206453919 heartbeat IPC: 0.2858 cumulative IPC: 0.5155 (Simulation time: 00 hr 28 min 04 sec)
Heartbeat CPU 0 instructions: 150000758 cycles: 207285538 heartbeat IPC: 0.6012 cumulative IPC: 0.5159 (Simulation time: 00 hr 28 min 10 sec)
Heartbeat CPU 0 instructions: 150500760 cycles: 207824205 heartbeat IPC: 0.9282 cumulative IPC: 0.517 (Simulation time: 00 hr 28 min 15 sec)
Heartbeat CPU 0 instructions: 151000765 cycles: 208327668 heartbeat IPC: 0.9931 cumulative IPC: 0.5182 (Simulation time: 00 hr 28 min 20 sec)
Heartbeat CPU 0 instructions: 151500767 cycles: 210364923 heartbeat IPC: 0.2454 cumulative IPC: 0.5154 (Simulation time: 00 hr 28 min 32 sec)
Heartbeat CPU 0 instructions: 152000768 cycles: 212483432 heartbeat IPC: 0.236 cumulative IPC: 0.5124 (Simulation time: 00 hr 28 min 44 sec)
Heartbeat CPU 0 instructions: 152500770 cycles: 213246833 heartbeat IPC: 0.655 cumulative IPC: 0.513 (Simulation time: 00 hr 28 min 49 sec)
Heartbeat CPU 0 instructions: 153000771 cycles: 214496799 heartbeat IPC: 0.4 cumulative IPC: 0.5123 (Simulation time: 00 hr 28 min 56 sec)
Heartbeat CPU 0 instructions: 153500777 cycles: 216580406 heartbeat IPC: 0.24 cumulative IPC: 0.5095 (Simulation time: 00 hr 29 min 08 sec)
Heartbeat CPU 0 instructions: 154000782 cycles: 217757506 heartbeat IPC: 0.4248 cumulative IPC: 0.509 (Simulation time: 00 hr 29 min 15 sec)
Heartbeat CPU 0 instructions: 154500782 cycles: 218947067 heartbeat IPC: 0.4203 cumulative IPC: 0.5085 (Simulation time: 00 hr 29 min 23 sec)
Heartbeat CPU 0 instructions: 155000782 cycles: 220507287 heartbeat IPC: 0.3205 cumulative IPC: 0.5071 (Simulation time: 00 hr 29 min 32 sec)
Heartbeat CPU 0 instructions: 155500782 cycles: 221498792 heartbeat IPC: 0.5043 cumulative IPC: 0.5071 (Simulation time: 00 hr 29 min 39 sec)
Heartbeat CPU 0 instructions: 156000782 cycles: 223356155 heartbeat IPC: 0.2692 cumulative IPC: 0.505 (Simulation time: 00 hr 29 min 49 sec)
Heartbeat CPU 0 instructions: 156500785 cycles: 224593007 heartbeat IPC: 0.4043 cumulative IPC: 0.5044 (Simulation time: 00 hr 29 min 57 sec)
Heartbeat CPU 0 instructions: 157000787 cycles: 225495679 heartbeat IPC: 0.5539 cumulative IPC: 0.5046 (Simulation time: 00 hr 30 min 03 sec)
Heartbeat CPU 0 instructions: 157500788 cycles: 226516424 heartbeat IPC: 0.4898 cumulative IPC: 0.5045 (Simulation time: 00 hr 30 min 10 sec)
Heartbeat CPU 0 instructions: 158000795 cycles: 227702582 heartbeat IPC: 0.4215 cumulative IPC: 0.504 (Simulation time: 00 hr 30 min 17 sec)
Heartbeat CPU 0 instructions: 158500795 cycles: 229273629 heartbeat IPC: 0.3183 cumulative IPC: 0.5027 (Simulation time: 00 hr 30 min 27 sec)
Heartbeat CPU 0 instructions: 159000795 cycles: 231280841 heartbeat IPC: 0.2491 cumulative IPC: 0.5004 (Simulation time: 00 hr 30 min 38 sec)
Heartbeat CPU 0 instructions: 159500796 cycles: 231631917 heartbeat IPC: 1.424 cumulative IPC: 0.5018 (Simulation time: 00 hr 30 min 40 sec)
Heartbeat CPU 0 instructions: 160000799 cycles: 233127968 heartbeat IPC: 0.3342 cumulative IPC: 0.5007 (Simulation time: 00 hr 30 min 49 sec)
Heartbeat CPU 0 instructions: 160500804 cycles: 233840924 heartbeat IPC: 0.7013 cumulative IPC: 0.5013 (Simulation time: 00 hr 30 min 54 sec)
Heartbeat CPU 0 instructions: 161000804 cycles: 234180038 heartbeat IPC: 1.474 cumulative IPC: 0.5028 (Simulation time: 00 hr 30 min 56 sec)
Heartbeat CPU 0 instructions: 161500804 cycles: 234542373 heartbeat IPC: 1.38 cumulative IPC: 0.5043 (Simulation time: 00 hr 30 min 59 sec)
Heartbeat CPU 0 instructions: 162000808 cycles: 234896148 heartbeat IPC: 1.413 cumulative IPC: 0.5057 (Simulation time: 00 hr 31 min 02 sec)
Heartbeat CPU 0 instructions: 162500808 cycles: 236546534 heartbeat IPC: 0.303 cumulative IPC: 0.5042 (Simulation time: 00 hr 31 min 12 sec)
Heartbeat CPU 0 instructions: 163000810 cycles: 237237548 heartbeat IPC: 0.7236 cumulative IPC: 0.5049 (Simulation time: 00 hr 31 min 16 sec)
Heartbeat CPU 0 instructions: 163500816 cycles: 237579219 heartbeat IPC: 1.463 cumulative IPC: 0.5064 (Simulation time: 00 hr 31 min 19 sec)
Heartbeat CPU 0 instructions: 164000818 cycles: 237919911 heartbeat IPC: 1.468 cumulative IPC: 0.5078 (Simulation time: 00 hr 31 min 22 sec)
Heartbeat CPU 0 instructions: 164500819 cycles: 239728813 heartbeat IPC: 0.2764 cumulative IPC: 0.506 (Simulation time: 00 hr 31 min 32 sec)
Heartbeat CPU 0 instructions: 165000819 cycles: 241047225 heartbeat IPC: 0.3792 cumulative IPC: 0.5052 (Simulation time: 00 hr 31 min 39 sec)
Heartbeat CPU 0 instructions: 165500826 cycles: 242293386 heartbeat IPC: 0.4012 cumulative IPC: 0.5047 (Simulation time: 00 hr 31 min 47 sec)
Heartbeat CPU 0 instructions: 166000827 cycles: 242992925 heartbeat IPC: 0.7148 cumulative IPC: 0.5053 (Simulation time: 00 hr 31 min 52 sec)
Heartbeat CPU 0 instructions: 166500827 cycles: 243817236 heartbeat IPC: 0.6066 cumulative IPC: 0.5057 (Simulation time: 00 hr 31 min 57 sec)
Heartbeat CPU 0 instructions: 167000828 cycles: 244197558 heartbeat IPC: 1.315 cumulative IPC: 0.507 (Simulation time: 00 hr 32 min 00 sec)
Heartbeat CPU 0 instructions: 167500828 cycles: 244528676 heartbeat IPC: 1.51 cumulative IPC: 0.5085 (Simulation time: 00 hr 32 min 03 sec)
Heartbeat CPU 0 instructions: 168000833 cycles: 244820234 heartbeat IPC: 1.715 cumulative IPC: 0.51 (Simulation time: 00 hr 32 min 06 sec)
Heartbeat CPU 0 instructions: 168500833 cycles: 245727517 heartbeat IPC: 0.5511 cumulative IPC: 0.5101 (Simulation time: 00 hr 32 min 12 sec)
Heartbeat CPU 0 instructions: 169000840 cycles: 248372137 heartbeat IPC: 0.1891 cumulative IPC: 0.5065 (Simulation time: 00 hr 32 min 26 sec)
Heartbeat CPU 0 instructions: 169500841 cycles: 249569533 heartbeat IPC: 0.4176 cumulative IPC: 0.5061 (Simulation time: 00 hr 32 min 34 sec)
Heartbeat CPU 0 instructions: 170000845 cycles: 250128703 heartbeat IPC: 0.8942 cumulative IPC: 0.507 (Simulation time: 00 hr 32 min 38 sec)
Heartbeat CPU 0 instructions: 170500845 cycles: 250567803 heartbeat IPC: 1.139 cumulative IPC: 0.5082 (Simulation time: 00 hr 32 min 41 sec)
Heartbeat CPU 0 instructions: 171000849 cycles: 250969127 heartbeat IPC: 1.246 cumulative IPC: 0.5094 (Simulation time: 00 hr 32 min 44 sec)
Heartbeat CPU 0 instructions: 171500849 cycles: 251402932 heartbeat IPC: 1.153 cumulative IPC: 0.5106 (Simulation time: 00 hr 32 min 47 sec)
Heartbeat CPU 0 instructions: 172000850 cycles: 251816128 heartbeat IPC: 1.21 cumulative IPC: 0.5118 (Simulation time: 00 hr 32 min 50 sec)
Heartbeat CPU 0 instructions: 172500851 cycles: 252606197 heartbeat IPC: 0.6329 cumulative IPC: 0.5122 (Simulation time: 00 hr 32 min 55 sec)
Heartbeat CPU 0 instructions: 173000851 cycles: 254571351 heartbeat IPC: 0.2544 cumulative IPC: 0.5101 (Simulation time: 00 hr 33 min 06 sec)
Heartbeat CPU 0 instructions: 173500855 cycles: 256164113 heartbeat IPC: 0.3139 cumulative IPC: 0.5088 (Simulation time: 00 hr 33 min 15 sec)
Heartbeat CPU 0 instructions: 174000855 cycles: 256472331 heartbeat IPC: 1.622 cumulative IPC: 0.5102 (Simulation time: 00 hr 33 min 18 sec)
Heartbeat CPU 0 instructions: 174500857 cycles: 256624230 heartbeat IPC: 3.292 cumulative IPC: 0.5119 (Simulation time: 00 hr 33 min 20 sec)
Heartbeat CPU 0 instructions: 175000857 cycles: 256881112 heartbeat IPC: 1.946 cumulative IPC: 0.5135 (Simulation time: 00 hr 33 min 22 sec)
Heartbeat CPU 0 instructions: 175500864 cycles: 257074883 heartbeat IPC: 2.58 cumulative IPC: 0.5151 (Simulation time: 00 hr 33 min 24 sec)
Heartbeat CPU 0 instructions: 176000867 cycles: 259186390 heartbeat IPC: 0.2368 cumulative IPC: 0.5127 (Simulation time: 00 hr 33 min 36 sec)
Heartbeat CPU 0 instructions: 176500868 cycles: 260803358 heartbeat IPC: 0.3092 cumulative IPC: 0.5114 (Simulation time: 00 hr 33 min 45 sec)
Heartbeat CPU 0 instructions: 177000873 cycles: 261379658 heartbeat IPC: 0.8676 cumulative IPC: 0.5122 (Simulation time: 00 hr 33 min 49 sec)
Heartbeat CPU 0 instructions: 177500875 cycles: 261975591 heartbeat IPC: 0.839 cumulative IPC: 0.513 (Simulation time: 00 hr 33 min 53 sec)
Heartbeat CPU 0 instructions: 178000877 cycles: 262458582 heartbeat IPC: 1.035 cumulative IPC: 0.514 (Simulation time: 00 hr 33 min 56 sec)
Heartbeat CPU 0 instructions: 178500879 cycles: 263075719 heartbeat IPC: 0.8102 cumulative IPC: 0.5147 (Simulation time: 00 hr 34 min 00 sec)
Heartbeat CPU 0 instructions: 179000880 cycles: 263626880 heartbeat IPC: 0.9072 cumulative IPC: 0.5156 (Simulation time: 00 hr 34 min 04 sec)
Heartbeat CPU 0 instructions: 179500881 cycles: 264101485 heartbeat IPC: 1.054 cumulative IPC: 0.5166 (Simulation time: 00 hr 34 min 07 sec)
Heartbeat CPU 0 instructions: 180000886 cycles: 264620005 heartbeat IPC: 0.9643 cumulative IPC: 0.5175 (Simulation time: 00 hr 34 min 11 sec)
Heartbeat CPU 0 instructions: 180500887 cycles: 265195422 heartbeat IPC: 0.8689 cumulative IPC: 0.5184 (Simulation time: 00 hr 34 min 14 sec)
Heartbeat CPU 0 instructions: 181000890 cycles: 266419785 heartbeat IPC: 0.4084 cumulative IPC: 0.5178 (Simulation time: 00 hr 34 min 22 sec)
Heartbeat CPU 0 instructions: 181500891 cycles: 268995678 heartbeat IPC: 0.1941 cumulative IPC: 0.5146 (Simulation time: 00 hr 34 min 35 sec)
Heartbeat CPU 0 instructions: 182000896 cycles: 270714280 heartbeat IPC: 0.2909 cumulative IPC: 0.5131 (Simulation time: 00 hr 34 min 44 sec)
Heartbeat CPU 0 instructions: 182500898 cycles: 271649228 heartbeat IPC: 0.5348 cumulative IPC: 0.5131 (Simulation time: 00 hr 34 min 50 sec)
Heartbeat CPU 0 instructions: 183000900 cycles: 273573797 heartbeat IPC: 0.2598 cumulative IPC: 0.5113 (Simulation time: 00 hr 35 min 00 sec)
Heartbeat CPU 0 instructions: 183500900 cycles: 274283038 heartbeat IPC: 0.705 cumulative IPC: 0.5118 (Simulation time: 00 hr 35 min 05 sec)
Heartbeat CPU 0 instructions: 184000906 cycles: 275467020 heartbeat IPC: 0.4223 cumulative IPC: 0.5114 (Simulation time: 00 hr 35 min 12 sec)
Heartbeat CPU 0 instructions: 184500906 cycles: 276789367 heartbeat IPC: 0.3781 cumulative IPC: 0.5107 (Simulation time: 00 hr 35 min 20 sec)
Heartbeat CPU 0 instructions: 185000908 cycles: 277793136 heartbeat IPC: 0.4981 cumulative IPC: 0.5107 (Simulation time: 00 hr 35 min 26 sec)
Heartbeat CPU 0 instructions: 185500911 cycles: 278908369 heartbeat IPC: 0.4483 cumulative IPC: 0.5104 (Simulation time: 00 hr 35 min 33 sec)
Heartbeat CPU 0 instructions: 186000913 cycles: 280867201 heartbeat IPC: 0.2553 cumulative IPC: 0.5085 (Simulation time: 00 hr 35 min 44 sec)
Heartbeat CPU 0 instructions: 186500914 cycles: 282489815 heartbeat IPC: 0.3081 cumulative IPC: 0.5073 (Simulation time: 00 hr 35 min 54 sec)
Heartbeat CPU 0 instructions: 187000915 cycles: 282905441 heartbeat IPC: 1.203 cumulative IPC: 0.5084 (Simulation time: 00 hr 35 min 57 sec)
Heartbeat CPU 0 instructions: 187500915 cycles: 284656254 heartbeat IPC: 0.2856 cumulative IPC: 0.507 (Simulation time: 00 hr 36 min 07 sec)
Heartbeat CPU 0 instructions: 188000918 cycles: 285945460 heartbeat IPC: 0.3878 cumulative IPC: 0.5064 (Simulation time: 00 hr 36 min 14 sec)
Heartbeat CPU 0 instructions: 188500918 cycles: 286327309 heartbeat IPC: 1.309 cumulative IPC: 0.5075 (Simulation time: 00 hr 36 min 17 sec)
Heartbeat CPU 0 instructions: 189000918 cycles: 286722602 heartbeat IPC: 1.265 cumulative IPC: 0.5086 (Simulation time: 00 hr 36 min 20 sec)
Heartbeat CPU 0 instructions: 189500921 cycles: 287111328 heartbeat IPC: 1.286 cumulative IPC: 0.5097 (Simulation time: 00 hr 36 min 23 sec)
Heartbeat CPU 0 instructions: 190000927 cycles: 287505271 heartbeat IPC: 1.269 cumulative IPC: 0.5108 (Simulation time: 00 hr 36 min 26 sec)
Heartbeat CPU 0 instructions: 190500927 cycles: 287900933 heartbeat IPC: 1.264 cumulative IPC: 0.5119 (Simulation time: 00 hr 36 min 28 sec)
Heartbeat CPU 0 instructions: 191000928 cycles: 288280476 heartbeat IPC: 1.317 cumulative IPC: 0.513 (Simulation time: 00 hr 36 min 31 sec)
Heartbeat CPU 0 instructions: 191500935 cycles: 288664879 heartbeat IPC: 1.301 cumulative IPC: 0.5141 (Simulation time: 00 hr 36 min 34 sec)
Heartbeat CPU 0 instructions: 192000935 cycles: 289067590 heartbeat IPC: 1.242 cumulative IPC: 0.5152 (Simulation time: 00 hr 36 min 37 sec)
Heartbeat CPU 0 instructions: 192500937 cycles: 289449096 heartbeat IPC: 1.311 cumulative IPC: 0.5163 (Simulation time: 00 hr 36 min 39 sec)
Heartbeat CPU 0 instructions: 193000943 cycles: 289828789 heartbeat IPC: 1.317 cumulative IPC: 0.5174 (Simulation time: 00 hr 36 min 42 sec)
Heartbeat CPU 0 instructions: 193500944 cycles: 290208782 heartbeat IPC: 1.316 cumulative IPC: 0.5185 (Simulation time: 00 hr 36 min 45 sec)
Heartbeat CPU 0 instructions: 194000946 cycles: 290598871 heartbeat IPC: 1.282 cumulative IPC: 0.5196 (Simulation time: 00 hr 36 min 48 sec)
Heartbeat CPU 0 instructions: 194500949 cycles: 290972162 heartbeat IPC: 1.339 cumulative IPC: 0.5207 (Simulation time: 00 hr 36 min 50 sec)
Heartbeat CPU 0 instructions: 195000952 cycles: 291340829 heartbeat IPC: 1.356 cumulative IPC: 0.5218 (Simulation time: 00 hr 36 min 53 sec)
Heartbeat CPU 0 instructions: 195500952 cycles: 291724903 heartbeat IPC: 1.302 cumulative IPC: 0.5228 (Simulation time: 00 hr 36 min 56 sec)
Heartbeat CPU 0 instructions: 196000952 cycles: 292112727 heartbeat IPC: 1.289 cumulative IPC: 0.5239 (Simulation time: 00 hr 36 min 58 sec)
Heartbeat CPU 0 instructions: 196500953 cycles: 292499168 heartbeat IPC: 1.294 cumulative IPC: 0.525 (Simulation time: 00 hr 37 min 01 sec)
Heartbeat CPU 0 instructions: 197000955 cycles: 292867530 heartbeat IPC: 1.357 cumulative IPC: 0.5261 (Simulation time: 00 hr 37 min 04 sec)
Heartbeat CPU 0 instructions: 197500958 cycles: 293246249 heartbeat IPC: 1.32 cumulative IPC: 0.5271 (Simulation time: 00 hr 37 min 07 sec)
Heartbeat CPU 0 instructions: 198000959 cycles: 293621939 heartbeat IPC: 1.331 cumulative IPC: 0.5282 (Simulation time: 00 hr 37 min 09 sec)
Heartbeat CPU 0 instructions: 198500959 cycles: 294004538 heartbeat IPC: 1.307 cumulative IPC: 0.5293 (Simulation time: 00 hr 37 min 12 sec)
Heartbeat CPU 0 instructions: 199000960 cycles: 294378868 heartbeat IPC: 1.336 cumulative IPC: 0.5304 (Simulation time: 00 hr 37 min 15 sec)
Heartbeat CPU 0 instructions: 199500961 cycles: 294752584 heartbeat IPC: 1.338 cumulative IPC: 0.5314 (Simulation time: 00 hr 37 min 17 sec)
Heartbeat CPU 0 instructions: 200000966 cycles: 295142653 heartbeat IPC: 1.282 cumulative IPC: 0.5325 (Simulation time: 00 hr 37 min 20 sec)
Heartbeat CPU 0 instructions: 200500966 cycles: 295517132 heartbeat IPC: 1.335 cumulative IPC: 0.5335 (Simulation time: 00 hr 37 min 23 sec)
Heartbeat CPU 0 instructions: 201000970 cycles: 295901540 heartbeat IPC: 1.301 cumulative IPC: 0.5346 (Simulation time: 00 hr 37 min 26 sec)
Heartbeat CPU 0 instructions: 201500970 cycles: 296268062 heartbeat IPC: 1.364 cumulative IPC: 0.5357 (Simulation time: 00 hr 37 min 28 sec)
Heartbeat CPU 0 instructions: 202000974 cycles: 296646397 heartbeat IPC: 1.322 cumulative IPC: 0.5367 (Simulation time: 00 hr 37 min 31 sec)
Heartbeat CPU 0 instructions: 202500977 cycles: 297028307 heartbeat IPC: 1.309 cumulative IPC: 0.5377 (Simulation time: 00 hr 37 min 34 sec)
Heartbeat CPU 0 instructions: 203000983 cycles: 297398186 heartbeat IPC: 1.352 cumulative IPC: 0.5388 (Simulation time: 00 hr 37 min 36 sec)
Heartbeat CPU 0 instructions: 203500987 cycles: 297774446 heartbeat IPC: 1.329 cumulative IPC: 0.5398 (Simulation time: 00 hr 37 min 39 sec)
Heartbeat CPU 0 instructions: 204000987 cycles: 298154625 heartbeat IPC: 1.315 cumulative IPC: 0.5409 (Simulation time: 00 hr 37 min 42 sec)
Heartbeat CPU 0 instructions: 204500987 cycles: 298534837 heartbeat IPC: 1.315 cumulative IPC: 0.5419 (Simulation time: 00 hr 37 min 44 sec)
Heartbeat CPU 0 instructions: 205000987 cycles: 298914116 heartbeat IPC: 1.318 cumulative IPC: 0.5429 (Simulation time: 00 hr 37 min 47 sec)
Heartbeat CPU 0 instructions: 205500992 cycles: 299292060 heartbeat IPC: 1.323 cumulative IPC: 0.544 (Simulation time: 00 hr 37 min 50 sec)
Heartbeat CPU 0 instructions: 206000992 cycles: 299666471 heartbeat IPC: 1.335 cumulative IPC: 0.545 (Simulation time: 00 hr 37 min 53 sec)
Heartbeat CPU 0 instructions: 206500995 cycles: 300050576 heartbeat IPC: 1.302 cumulative IPC: 0.546 (Simulation time: 00 hr 37 min 55 sec)
Heartbeat CPU 0 instructions: 207001000 cycles: 300438951 heartbeat IPC: 1.287 cumulative IPC: 0.547 (Simulation time: 00 hr 37 min 58 sec)
Heartbeat CPU 0 instructions: 207501000 cycles: 300816490 heartbeat IPC: 1.324 cumulative IPC: 0.5481 (Simulation time: 00 hr 38 min 01 sec)
Heartbeat CPU 0 instructions: 208001002 cycles: 301196782 heartbeat IPC: 1.315 cumulative IPC: 0.5491 (Simulation time: 00 hr 38 min 03 sec)
Heartbeat CPU 0 instructions: 208501006 cycles: 301581665 heartbeat IPC: 1.299 cumulative IPC: 0.5501 (Simulation time: 00 hr 38 min 06 sec)
Heartbeat CPU 0 instructions: 209001006 cycles: 301960795 heartbeat IPC: 1.319 cumulative IPC: 0.5511 (Simulation time: 00 hr 38 min 09 sec)
Heartbeat CPU 0 instructions: 209501009 cycles: 302331714 heartbeat IPC: 1.348 cumulative IPC: 0.5521 (Simulation time: 00 hr 38 min 12 sec)
Heartbeat CPU 0 instructions: 210001011 cycles: 302703485 heartbeat IPC: 1.345 cumulative IPC: 0.5531 (Simulation time: 00 hr 38 min 14 sec)
Heartbeat CPU 0 instructions: 210501012 cycles: 303079117 heartbeat IPC: 1.331 cumulative IPC: 0.5541 (Simulation time: 00 hr 38 min 17 sec)
Heartbeat CPU 0 instructions: 211001012 cycles: 303464514 heartbeat IPC: 1.297 cumulative IPC: 0.5551 (Simulation time: 00 hr 38 min 20 sec)
Heartbeat CPU 0 instructions: 211501012 cycles: 303966363 heartbeat IPC: 0.9963 cumulative IPC: 0.5559 (Simulation time: 00 hr 38 min 23 sec)
Heartbeat CPU 0 instructions: 212001017 cycles: 304452403 heartbeat IPC: 1.029 cumulative IPC: 0.5567 (Simulation time: 00 hr 38 min 27 sec)
Heartbeat CPU 0 instructions: 212501018 cycles: 304833265 heartbeat IPC: 1.313 cumulative IPC: 0.5577 (Simulation time: 00 hr 38 min 29 sec)
Heartbeat CPU 0 instructions: 213001018 cycles: 305199973 heartbeat IPC: 1.363 cumulative IPC: 0.5587 (Simulation time: 00 hr 38 min 32 sec)
Heartbeat CPU 0 instructions: 213501024 cycles: 305573576 heartbeat IPC: 1.338 cumulative IPC: 0.5597 (Simulation time: 00 hr 38 min 35 sec)
Heartbeat CPU 0 instructions: 214001025 cycles: 305951069 heartbeat IPC: 1.325 cumulative IPC: 0.5607 (Simulation time: 00 hr 38 min 37 sec)
Heartbeat CPU 0 instructions: 214501031 cycles: 306325000 heartbeat IPC: 1.337 cumulative IPC: 0.5616 (Simulation time: 00 hr 38 min 40 sec)
Heartbeat CPU 0 instructions: 215001031 cycles: 306704272 heartbeat IPC: 1.318 cumulative IPC: 0.5626 (Simulation time: 00 hr 38 min 43 sec)
Heartbeat CPU 0 instructions: 215501031 cycles: 307083106 heartbeat IPC: 1.32 cumulative IPC: 0.5636 (Simulation time: 00 hr 38 min 45 sec)
Heartbeat CPU 0 instructions: 216001031 cycles: 307464541 heartbeat IPC: 1.311 cumulative IPC: 0.5646 (Simulation time: 00 hr 38 min 48 sec)
Heartbeat CPU 0 instructions: 216501034 cycles: 307839121 heartbeat IPC: 1.335 cumulative IPC: 0.5656 (Simulation time: 00 hr 38 min 51 sec)
Heartbeat CPU 0 instructions: 217001034 cycles: 308205976 heartbeat IPC: 1.363 cumulative IPC: 0.5665 (Simulation time: 00 hr 38 min 54 sec)
Heartbeat CPU 0 instructions: 217501035 cycles: 308583538 heartbeat IPC: 1.324 cumulative IPC: 0.5675 (Simulation time: 00 hr 38 min 56 sec)
Heartbeat CPU 0 instructions: 218001039 cycles: 308957400 heartbeat IPC: 1.337 cumulative IPC: 0.5685 (Simulation time: 00 hr 38 min 59 sec)
Heartbeat CPU 0 instructions: 218501044 cycles: 309330452 heartbeat IPC: 1.34 cumulative IPC: 0.5695 (Simulation time: 00 hr 39 min 02 sec)
Heartbeat CPU 0 instructions: 219001047 cycles: 309718112 heartbeat IPC: 1.29 cumulative IPC: 0.5704 (Simulation time: 00 hr 39 min 04 sec)
Heartbeat CPU 0 instructions: 219501052 cycles: 310090921 heartbeat IPC: 1.341 cumulative IPC: 0.5714 (Simulation time: 00 hr 39 min 07 sec)
Heartbeat CPU 0 instructions: 220001056 cycles: 310457628 heartbeat IPC: 1.363 cumulative IPC: 0.5723 (Simulation time: 00 hr 39 min 10 sec)
Heartbeat CPU 0 instructions: 220501056 cycles: 310831640 heartbeat IPC: 1.337 cumulative IPC: 0.5733 (Simulation time: 00 hr 39 min 12 sec)
Heartbeat CPU 0 instructions: 221001060 cycles: 311206555 heartbeat IPC: 1.334 cumulative IPC: 0.5743 (Simulation time: 00 hr 39 min 15 sec)
Heartbeat CPU 0 instructions: 221501060 cycles: 311573786 heartbeat IPC: 1.362 cumulative IPC: 0.5752 (Simulation time: 00 hr 39 min 18 sec)
Heartbeat CPU 0 instructions: 222001061 cycles: 311913102 heartbeat IPC: 1.474 cumulative IPC: 0.5763 (Simulation time: 00 hr 39 min 20 sec)
Heartbeat CPU 0 instructions: 222501061 cycles: 312285846 heartbeat IPC: 1.341 cumulative IPC: 0.5772 (Simulation time: 00 hr 39 min 23 sec)
Heartbeat CPU 0 instructions: 223001062 cycles: 312653852 heartbeat IPC: 1.359 cumulative IPC: 0.5782 (Simulation time: 00 hr 39 min 26 sec)
Heartbeat CPU 0 instructions: 223501062 cycles: 313025212 heartbeat IPC: 1.346 cumulative IPC: 0.5791 (Simulation time: 00 hr 39 min 28 sec)
Heartbeat CPU 0 instructions: 224001065 cycles: 313395239 heartbeat IPC: 1.351 cumulative IPC: 0.5801 (Simulation time: 00 hr 39 min 31 sec)
Heartbeat CPU 0 instructions: 224501065 cycles: 313767582 heartbeat IPC: 1.343 cumulative IPC: 0.581 (Simulation time: 00 hr 39 min 34 sec)
Heartbeat CPU 0 instructions: 225001071 cycles: 314134321 heartbeat IPC: 1.363 cumulative IPC: 0.582 (Simulation time: 00 hr 39 min 36 sec)
Heartbeat CPU 0 instructions: 225501071 cycles: 314496998 heartbeat IPC: 1.379 cumulative IPC: 0.5829 (Simulation time: 00 hr 39 min 39 sec)
Heartbeat CPU 0 instructions: 226001071 cycles: 314865132 heartbeat IPC: 1.358 cumulative IPC: 0.5839 (Simulation time: 00 hr 39 min 42 sec)
Heartbeat CPU 0 instructions: 226501071 cycles: 315238498 heartbeat IPC: 1.339 cumulative IPC: 0.5848 (Simulation time: 00 hr 39 min 44 sec)
Heartbeat CPU 0 instructions: 227001073 cycles: 315609764 heartbeat IPC: 1.347 cumulative IPC: 0.5858 (Simulation time: 00 hr 39 min 47 sec)
Heartbeat CPU 0 instructions: 227501077 cycles: 315980904 heartbeat IPC: 1.347 cumulative IPC: 0.5867 (Simulation time: 00 hr 39 min 50 sec)
Heartbeat CPU 0 instructions: 228001078 cycles: 316351972 heartbeat IPC: 1.347 cumulative IPC: 0.5876 (Simulation time: 00 hr 39 min 52 sec)
Heartbeat CPU 0 instructions: 228501079 cycles: 316721721 heartbeat IPC: 1.352 cumulative IPC: 0.5886 (Simulation time: 00 hr 39 min 55 sec)
Heartbeat CPU 0 instructions: 229001081 cycles: 317089304 heartbeat IPC: 1.36 cumulative IPC: 0.5895 (Simulation time: 00 hr 39 min 58 sec)
Heartbeat CPU 0 instructions: 229501082 cycles: 317471263 heartbeat IPC: 1.309 cumulative IPC: 0.5904 (Simulation time: 00 hr 40 min 00 sec)
Heartbeat CPU 0 instructions: 230001084 cycles: 317845037 heartbeat IPC: 1.338 cumulative IPC: 0.5913 (Simulation time: 00 hr 40 min 03 sec)
Heartbeat CPU 0 instructions: 230501086 cycles: 318218584 heartbeat IPC: 1.339 cumulative IPC: 0.5922 (Simulation time: 00 hr 40 min 06 sec)
Heartbeat CPU 0 instructions: 231001087 cycles: 318592504 heartbeat IPC: 1.337 cumulative IPC: 0.5931 (Simulation time: 00 hr 40 min 08 sec)
Heartbeat CPU 0 instructions: 231501093 cycles: 318969647 heartbeat IPC: 1.326 cumulative IPC: 0.594 (Simulation time: 00 hr 40 min 11 sec)
Heartbeat CPU 0 instructions: 232001098 cycles: 319342734 heartbeat IPC: 1.34 cumulative IPC: 0.595 (Simulation time: 00 hr 40 min 14 sec)
Heartbeat CPU 0 instructions: 232501100 cycles: 320264539 heartbeat IPC: 0.5424 cumulative IPC: 0.5948 (Simulation time: 00 hr 40 min 19 sec)
Heartbeat CPU 0 instructions: 233001107 cycles: 322892823 heartbeat IPC: 0.1902 cumulative IPC: 0.5914 (Simulation time: 00 hr 40 min 32 sec)
Heartbeat CPU 0 instructions: 233501108 cycles: 324673137 heartbeat IPC: 0.2808 cumulative IPC: 0.5896 (Simulation time: 00 hr 40 min 41 sec)
Heartbeat CPU 0 instructions: 234001108 cycles: 325825657 heartbeat IPC: 0.4338 cumulative IPC: 0.589 (Simulation time: 00 hr 40 min 48 sec)
Heartbeat CPU 0 instructions: 234501108 cycles: 327411840 heartbeat IPC: 0.3152 cumulative IPC: 0.5876 (Simulation time: 00 hr 40 min 57 sec)
Heartbeat CPU 0 instructions: 235001109 cycles: 327843685 heartbeat IPC: 1.158 cumulative IPC: 0.5884 (Simulation time: 00 hr 41 min 00 sec)
Heartbeat CPU 0 instructions: 235501113 cycles: 329031404 heartbeat IPC: 0.421 cumulative IPC: 0.5878 (Simulation time: 00 hr 41 min 07 sec)
Heartbeat CPU 0 instructions: 236001114 cycles: 330205399 heartbeat IPC: 0.4259 cumulative IPC: 0.5872 (Simulation time: 00 hr 41 min 13 sec)
Heartbeat CPU 0 instructions: 236501116 cycles: 330447093 heartbeat IPC: 2.069 cumulative IPC: 0.5883 (Simulation time: 00 hr 41 min 16 sec)
Heartbeat CPU 0 instructions: 237001123 cycles: 331562195 heartbeat IPC: 0.4484 cumulative IPC: 0.5878 (Simulation time: 00 hr 41 min 22 sec)
Heartbeat CPU 0 instructions: 237501123 cycles: 333171239 heartbeat IPC: 0.3107 cumulative IPC: 0.5864 (Simulation time: 00 hr 41 min 31 sec)
Heartbeat CPU 0 instructions: 238001123 cycles: 334165568 heartbeat IPC: 0.5029 cumulative IPC: 0.5862 (Simulation time: 00 hr 41 min 37 sec)
Heartbeat CPU 0 instructions: 238501123 cycles: 335046226 heartbeat IPC: 0.5678 cumulative IPC: 0.5861 (Simulation time: 00 hr 41 min 42 sec)
Heartbeat CPU 0 instructions: 239001124 cycles: 335906520 heartbeat IPC: 0.5812 cumulative IPC: 0.5861 (Simulation time: 00 hr 41 min 48 sec)
Heartbeat CPU 0 instructions: 239501128 cycles: 336524116 heartbeat IPC: 0.8096 cumulative IPC: 0.5865 (Simulation time: 00 hr 41 min 52 sec)
Heartbeat CPU 0 instructions: 240001129 cycles: 336987312 heartbeat IPC: 1.079 cumulative IPC: 0.5872 (Simulation time: 00 hr 41 min 55 sec)
Heartbeat CPU 0 instructions: 240501131 cycles: 338463405 heartbeat IPC: 0.3387 cumulative IPC: 0.5861 (Simulation time: 00 hr 42 min 04 sec)
Heartbeat CPU 0 instructions: 241001131 cycles: 339838299 heartbeat IPC: 0.3637 cumulative IPC: 0.5852 (Simulation time: 00 hr 42 min 12 sec)
Heartbeat CPU 0 instructions: 241501132 cycles: 340648039 heartbeat IPC: 0.6175 cumulative IPC: 0.5852 (Simulation time: 00 hr 42 min 17 sec)
Heartbeat CPU 0 instructions: 242001133 cycles: 342115095 heartbeat IPC: 0.3408 cumulative IPC: 0.5842 (Simulation time: 00 hr 42 min 26 sec)
Heartbeat CPU 0 instructions: 242501136 cycles: 342906903 heartbeat IPC: 0.6315 cumulative IPC: 0.5843 (Simulation time: 00 hr 42 min 31 sec)
Heartbeat CPU 0 instructions: 243001137 cycles: 343980890 heartbeat IPC: 0.4656 cumulative IPC: 0.5839 (Simulation time: 00 hr 42 min 37 sec)
Heartbeat CPU 0 instructions: 243501137 cycles: 346722004 heartbeat IPC: 0.1824 cumulative IPC: 0.5806 (Simulation time: 00 hr 42 min 52 sec)
Heartbeat CPU 0 instructions: 244001137 cycles: 348316783 heartbeat IPC: 0.3135 cumulative IPC: 0.5793 (Simulation time: 00 hr 43 min 01 sec)
Heartbeat CPU 0 instructions: 244501137 cycles: 349016457 heartbeat IPC: 0.7146 cumulative IPC: 0.5796 (Simulation time: 00 hr 43 min 05 sec)
Heartbeat CPU 0 instructions: 245001139 cycles: 350485612 heartbeat IPC: 0.3403 cumulative IPC: 0.5786 (Simulation time: 00 hr 43 min 14 sec)
Heartbeat CPU 0 instructions: 245501141 cycles: 351402477 heartbeat IPC: 0.5453 cumulative IPC: 0.5785 (Simulation time: 00 hr 43 min 20 sec)
Heartbeat CPU 0 instructions: 246001142 cycles: 352707794 heartbeat IPC: 0.383 cumulative IPC: 0.5777 (Simulation time: 00 hr 43 min 28 sec)
Heartbeat CPU 0 instructions: 246501146 cycles: 353376682 heartbeat IPC: 0.7475 cumulative IPC: 0.578 (Simulation time: 00 hr 43 min 32 sec)
Heartbeat CPU 0 instructions: 247001147 cycles: 354284369 heartbeat IPC: 0.5509 cumulative IPC: 0.578 (Simulation time: 00 hr 43 min 38 sec)
Heartbeat CPU 0 instructions: 247501150 cycles: 355062129 heartbeat IPC: 0.6429 cumulative IPC: 0.5781 (Simulation time: 00 hr 43 min 43 sec)
Heartbeat CPU 0 instructions: 248001151 cycles: 356176136 heartbeat IPC: 0.4488 cumulative IPC: 0.5777 (Simulation time: 00 hr 43 min 49 sec)
Heartbeat CPU 0 instructions: 248501155 cycles: 356418908 heartbeat IPC: 2.06 cumulative IPC: 0.5787 (Simulation time: 00 hr 43 min 51 sec)
Heartbeat CPU 0 instructions: 249001156 cycles: 357440700 heartbeat IPC: 0.4893 cumulative IPC: 0.5785 (Simulation time: 00 hr 43 min 57 sec)
Heartbeat CPU 0 instructions: 249501159 cycles: 359552163 heartbeat IPC: 0.2368 cumulative IPC: 0.5764 (Simulation time: 00 hr 44 min 08 sec)
Simulation finished CPU 0 instructions: 200000003 cycles: 347363319 cumulative IPC: 0.5758 (Simulation time: 00 hr 44 min 15 sec)
Simulation complete CPU 0 instructions: 200000003 cycles: 347363319 cumulative IPC: 0.5758 (Simulation time: 00 hr 44 min 15 sec)

ChampSim completed all CPUs

=== Simulation ===
CPU 0 runs /local-ssd/ben/dpc4-traces/gtraces_v2/tahoe_0004.champsim.gz

Region of Interest Statistics

CPU 0 cumulative IPC: 0.5758 instructions: 200000003 cycles: 347363319
CPU 0 Branch Prediction Accuracy: 91.28% MPKI: 17.65 Average ROB Occupancy at Mispredict: 26.93
Branch type MPKI
BRANCH_DIRECT_JUMP: 0.5753
BRANCH_INDIRECT: 0.2847
BRANCH_CONDITIONAL: 14.88
BRANCH_DIRECT_CALL: 0.6339
BRANCH_INDIRECT_CALL: 0.6545
BRANCH_RETURN: 0.6187

cpu0->cpu0_STLB TOTAL        ACCESS:    1687859 HIT:    1223362 MISS:     464497 MSHR_MERGE:          0
cpu0->cpu0_STLB LOAD         ACCESS:    1687859 HIT:    1223362 MISS:     464497 MSHR_MERGE:          0
cpu0->cpu0_STLB RFO          ACCESS:          0 HIT:          0 MISS:          0 MSHR_MERGE:          0
cpu0->cpu0_STLB PREFETCH     ACCESS:          0 HIT:          0 MISS:          0 MSHR_MERGE:          0
cpu0->cpu0_STLB WRITE        ACCESS:          0 HIT:          0 MISS:          0 MSHR_MERGE:          0
cpu0->cpu0_STLB TRANSLATION  ACCESS:          0 HIT:          0 MISS:          0 MSHR_MERGE:          0
cpu0->cpu0_STLB PREFETCH REQUESTED:          0 ISSUED:          0 USEFUL:          0 USELESS:          0
cpu0->cpu0_STLB AVERAGE MISS LATENCY: 146.2 cycles
cpu0->cpu0_L2C TOTAL        ACCESS:    5887696 HIT:    3236831 MISS:    2650865 MSHR_MERGE:     149592
cpu0->cpu0_L2C LOAD         ACCESS:    2638395 HIT:    1426032 MISS:    1212363 MSHR_MERGE:      20138
cpu0->cpu0_L2C RFO          ACCESS:     425604 HIT:     114662 MISS:     310942 MSHR_MERGE:        404
cpu0->cpu0_L2C PREFETCH     ACCESS:    1564402 HIT:     628605 MISS:     935797 MSHR_MERGE:     129050
cpu0->cpu0_L2C WRITE        ACCESS:     761148 HIT:     761104 MISS:         44 MSHR_MERGE:          0
cpu0->cpu0_L2C TRANSLATION  ACCESS:     498147 HIT:     306428 MISS:     191719 MSHR_MERGE:          0
cpu0->cpu0_L2C PREFETCH REQUESTED:     778430 ISSUED:     773773 USEFUL:     191536 USELESS:     263468
cpu0->cpu0_L2C AVERAGE MISS LATENCY: 213.4 cycles
cpu0->cpu0_L1I TOTAL        ACCESS:   11957855 HIT:   10240717 MISS:    1717138 MSHR_MERGE:     317847
cpu0->cpu0_L1I LOAD         ACCESS:   11957855 HIT:   10240717 MISS:    1717138 MSHR_MERGE:     317847
cpu0->cpu0_L1I RFO          ACCESS:          0 HIT:          0 MISS:          0 MSHR_MERGE:          0
cpu0->cpu0_L1I PREFETCH     ACCESS:          0 HIT:          0 MISS:          0 MSHR_MERGE:          0
cpu0->cpu0_L1I WRITE        ACCESS:          0 HIT:          0 MISS:          0 MSHR_MERGE:          0
cpu0->cpu0_L1I TRANSLATION  ACCESS:          0 HIT:          0 MISS:          0 MSHR_MERGE:          0
cpu0->cpu0_L1I PREFETCH REQUESTED:          0 ISSUED:          0 USEFUL:          0 USELESS:          0
cpu0->cpu0_L1I AVERAGE MISS LATENCY: 99.55 cycles
cpu0->cpu0_L1D TOTAL        ACCESS:   62504754 HIT:   57896504 MISS:    4608250 MSHR_MERGE:    1654749
cpu0->cpu0_L1D LOAD         ACCESS:   36962532 HIT:   35185294 MISS:    1777238 MSHR_MERGE:     538131
cpu0->cpu0_L1D RFO          ACCESS:          0 HIT:          0 MISS:          0 MSHR_MERGE:          0
cpu0->cpu0_L1D PREFETCH     ACCESS:    1466480 HIT:     626972 MISS:     839508 MSHR_MERGE:      48877
cpu0->cpu0_L1D WRITE        ACCESS:   22884704 HIT:   21394770 MISS:    1489934 MSHR_MERGE:    1064318
cpu0->cpu0_L1D TRANSLATION  ACCESS:    1191038 HIT:     689468 MISS:     501570 MSHR_MERGE:       3423
cpu0->cpu0_L1D PREFETCH REQUESTED:    1519626 ISSUED:    1466476 USEFUL:     402322 USELESS:     388347
cpu0->cpu0_L1D AVERAGE MISS LATENCY: 117.8 cycles
cpu0->cpu0_ITLB TOTAL        ACCESS:    9910313 HIT:    9640077 MISS:     270236 MSHR_MERGE:     115597
cpu0->cpu0_ITLB LOAD         ACCESS:    9910313 HIT:    9640077 MISS:     270236 MSHR_MERGE:     115597
cpu0->cpu0_ITLB RFO          ACCESS:          0 HIT:          0 MISS:          0 MSHR_MERGE:          0
cpu0->cpu0_ITLB PREFETCH     ACCESS:          0 HIT:          0 MISS:          0 MSHR_MERGE:          0
cpu0->cpu0_ITLB WRITE        ACCESS:          0 HIT:          0 MISS:          0 MSHR_MERGE:          0
cpu0->cpu0_ITLB TRANSLATION  ACCESS:          0 HIT:          0 MISS:          0 MSHR_MERGE:          0
cpu0->cpu0_ITLB PREFETCH REQUESTED:          0 ISSUED:          0 USEFUL:          0 USELESS:          0
cpu0->cpu0_ITLB AVERAGE MISS LATENCY: 38.39 cycles
cpu0->cpu0_DTLB TOTAL        ACCESS:   58096199 HIT:   55590538 MISS:    2505661 MSHR_MERGE:     972441
cpu0->cpu0_DTLB LOAD         ACCESS:   58096199 HIT:   55590538 MISS:    2505661 MSHR_MERGE:     972441
cpu0->cpu0_DTLB RFO          ACCESS:          0 HIT:          0 MISS:          0 MSHR_MERGE:          0
cpu0->cpu0_DTLB PREFETCH     ACCESS:          0 HIT:          0 MISS:          0 MSHR_MERGE:          0
cpu0->cpu0_DTLB WRITE        ACCESS:          0 HIT:          0 MISS:          0 MSHR_MERGE:          0
cpu0->cpu0_DTLB TRANSLATION  ACCESS:          0 HIT:          0 MISS:          0 MSHR_MERGE:          0
cpu0->cpu0_DTLB PREFETCH REQUESTED:          0 ISSUED:          0 USEFUL:          0 USELESS:          0
cpu0->cpu0_DTLB AVERAGE MISS LATENCY: 46.24 cycles
cpu0->LLC TOTAL        ACCESS:    3437224 HIT:     589655 MISS:    2847569 MSHR_MERGE:      82225
cpu0->LLC LOAD         ACCESS:    1192225 HIT:     183837 MISS:    1008388 MSHR_MERGE:       5133
cpu0->LLC RFO          ACCESS:     310538 HIT:       9804 MISS:     300734 MSHR_MERGE:        202
cpu0->LLC PREFETCH     ACCESS:    1241475 HIT:     137743 MISS:    1103732 MSHR_MERGE:      76890
cpu0->LLC WRITE        ACCESS:     501267 HIT:     235042 MISS:     266225 MSHR_MERGE:          0
cpu0->LLC TRANSLATION  ACCESS:     191719 HIT:      23229 MISS:     168490 MSHR_MERGE:          0
cpu0->LLC PREFETCH REQUESTED:     434754 ISSUED:     434728 USEFUL:      76889 USELESS:     242002
cpu0->LLC AVERAGE MISS LATENCY: 188.5 cycles

DRAM Statistics

Channel 0 RQ ROW_BUFFER_HIT:      85667
  ROW_BUFFER_MISS:    2413436
  AVG DBUS CONGESTED CYCLE: 25.37
Channel 0 WQ ROW_BUFFER_HIT:     128829
  ROW_BUFFER_MISS:     359001
  FULL:         51
Channel 0 REFRESHES ISSUED:      28945
