[VMEM] WARNING: physical memory size is smaller than virtual memory size.

*** ChampSim Multicore Out-of-Order Simulator ***
Warmup Instructions: 50000000
Simulation Instructions: 200000000
Number of CPUs: 1
Page size: 4096
Core 0: /local-ssd/ben/dpc4-traces/gtraces_v2/tango_0000.champsim.gz
 L1D Berti prefetcher
 L1D Berti prefetcher
Off-chip DRAM Size: 64 GiB Channels: 1 Width: 64-bit Data Rate: 4807 MT/s
Heartbeat CPU 0 instructions: 500007 cycles: 242653 heartbeat IPC: 2.061 cumulative IPC: 2.061 (Simulation time: 00 hr 00 min 04 sec)
[BTB] WARNING: target of return is a lower address than the corresponding call. This is usually a problem with your trace.
[BTB] WARNING: target of return is a lower address than the corresponding call. This is usually a problem with your trace.
[BTB] WARNING: target of return is a lower address than the corresponding call. This is usually a problem with your trace.
[BTB] WARNING: target of return is a lower address than the corresponding call. This is usually a problem with your trace.
[BTB] WARNING: target of return is a lower address than the corresponding call. This is usually a problem with your trace.
[BTB] WARNING: target of return is a lower address than the corresponding call. This is usually a problem with your trace.
[BTB] WARNING: target of return is a lower address than the corresponding call. This is usually a problem with your trace.
[BTB] WARNING: target of return is a lower address than the corresponding call. This is usually a problem with your trace.
[BTB] WARNING: target of return is a lower address than the corresponding call. This is usually a problem with your trace.
[BTB] WARNING: target of return is a lower address than the corresponding call. This is usually a problem with your trace.
Heartbeat CPU 0 instructions: 1000012 cycles: 434107 heartbeat IPC: 2.612 cumulative IPC: 2.304 (Simulation time: 00 hr 00 min 07 sec)
Heartbeat CPU 0 instructions: 1500015 cycles: 582603 heartbeat IPC: 3.367 cumulative IPC: 2.575 (Simulation time: 00 hr 00 min 10 sec)
Heartbeat CPU 0 instructions: 2000017 cycles: 752452 heartbeat IPC: 2.944 cumulative IPC: 2.658 (Simulation time: 00 hr 00 min 13 sec)
Heartbeat CPU 0 instructions: 2500018 cycles: 915176 heartbeat IPC: 3.073 cumulative IPC: 2.732 (Simulation time: 00 hr 00 min 16 sec)
Heartbeat CPU 0 instructions: 3000024 cycles: 1114858 heartbeat IPC: 2.504 cumulative IPC: 2.691 (Simulation time: 00 hr 00 min 20 sec)
Heartbeat CPU 0 instructions: 3500029 cycles: 1285951 heartbeat IPC: 2.922 cumulative IPC: 2.722 (Simulation time: 00 hr 00 min 24 sec)
Heartbeat CPU 0 instructions: 4000031 cycles: 1458428 heartbeat IPC: 2.899 cumulative IPC: 2.743 (Simulation time: 00 hr 00 min 27 sec)
Heartbeat CPU 0 instructions: 4500035 cycles: 1608752 heartbeat IPC: 3.326 cumulative IPC: 2.797 (Simulation time: 00 hr 00 min 30 sec)
Heartbeat CPU 0 instructions: 5000036 cycles: 1794309 heartbeat IPC: 2.695 cumulative IPC: 2.787 (Simulation time: 00 hr 00 min 34 sec)
Heartbeat CPU 0 instructions: 5500041 cycles: 1979222 heartbeat IPC: 2.704 cumulative IPC: 2.779 (Simulation time: 00 hr 00 min 37 sec)
Heartbeat CPU 0 instructions: 6000044 cycles: 2113282 heartbeat IPC: 3.73 cumulative IPC: 2.839 (Simulation time: 00 hr 00 min 39 sec)
Heartbeat CPU 0 instructions: 6500045 cycles: 2219073 heartbeat IPC: 4.726 cumulative IPC: 2.929 (Simulation time: 00 hr 00 min 41 sec)
Heartbeat CPU 0 instructions: 7000049 cycles: 2363137 heartbeat IPC: 3.471 cumulative IPC: 2.962 (Simulation time: 00 hr 00 min 43 sec)
Heartbeat CPU 0 instructions: 7500055 cycles: 2518512 heartbeat IPC: 3.218 cumulative IPC: 2.978 (Simulation time: 00 hr 00 min 46 sec)
Heartbeat CPU 0 instructions: 8000058 cycles: 2644432 heartbeat IPC: 3.971 cumulative IPC: 3.025 (Simulation time: 00 hr 00 min 48 sec)
Heartbeat CPU 0 instructions: 8500061 cycles: 2764481 heartbeat IPC: 4.165 cumulative IPC: 3.075 (Simulation time: 00 hr 00 min 51 sec)
Heartbeat CPU 0 instructions: 9000061 cycles: 2927542 heartbeat IPC: 3.066 cumulative IPC: 3.074 (Simulation time: 00 hr 00 min 54 sec)
Heartbeat CPU 0 instructions: 9500061 cycles: 3102765 heartbeat IPC: 2.854 cumulative IPC: 3.062 (Simulation time: 00 hr 00 min 57 sec)
Heartbeat CPU 0 instructions: 10000065 cycles: 3275654 heartbeat IPC: 2.892 cumulative IPC: 3.053 (Simulation time: 00 hr 01 min 00 sec)
Heartbeat CPU 0 instructions: 10500072 cycles: 3401699 heartbeat IPC: 3.967 cumulative IPC: 3.087 (Simulation time: 00 hr 01 min 03 sec)
Heartbeat CPU 0 instructions: 11000079 cycles: 3560021 heartbeat IPC: 3.158 cumulative IPC: 3.09 (Simulation time: 00 hr 01 min 06 sec)
Heartbeat CPU 0 instructions: 11500081 cycles: 3709869 heartbeat IPC: 3.337 cumulative IPC: 3.1 (Simulation time: 00 hr 01 min 08 sec)
Heartbeat CPU 0 instructions: 12000085 cycles: 3852548 heartbeat IPC: 3.504 cumulative IPC: 3.115 (Simulation time: 00 hr 01 min 11 sec)
Heartbeat CPU 0 instructions: 12500085 cycles: 3970246 heartbeat IPC: 4.248 cumulative IPC: 3.148 (Simulation time: 00 hr 01 min 14 sec)
Heartbeat CPU 0 instructions: 13000086 cycles: 4076709 heartbeat IPC: 4.696 cumulative IPC: 3.189 (Simulation time: 00 hr 01 min 16 sec)
Heartbeat CPU 0 instructions: 13500087 cycles: 4225981 heartbeat IPC: 3.35 cumulative IPC: 3.195 (Simulation time: 00 hr 01 min 18 sec)
Heartbeat CPU 0 instructions: 14000093 cycles: 4371388 heartbeat IPC: 3.439 cumulative IPC: 3.203 (Simulation time: 00 hr 01 min 21 sec)
Heartbeat CPU 0 instructions: 14500099 cycles: 4490842 heartbeat IPC: 4.186 cumulative IPC: 3.229 (Simulation time: 00 hr 01 min 23 sec)
Heartbeat CPU 0 instructions: 15000102 cycles: 4622285 heartbeat IPC: 3.804 cumulative IPC: 3.245 (Simulation time: 00 hr 01 min 25 sec)
Heartbeat CPU 0 instructions: 15500104 cycles: 4765503 heartbeat IPC: 3.491 cumulative IPC: 3.253 (Simulation time: 00 hr 01 min 27 sec)
Heartbeat CPU 0 instructions: 16000106 cycles: 4891346 heartbeat IPC: 3.973 cumulative IPC: 3.271 (Simulation time: 00 hr 01 min 30 sec)
Heartbeat CPU 0 instructions: 16500108 cycles: 5048357 heartbeat IPC: 3.185 cumulative IPC: 3.268 (Simulation time: 00 hr 01 min 32 sec)
Heartbeat CPU 0 instructions: 17000114 cycles: 5233113 heartbeat IPC: 2.706 cumulative IPC: 3.249 (Simulation time: 00 hr 01 min 36 sec)
Heartbeat CPU 0 instructions: 17500120 cycles: 5399970 heartbeat IPC: 2.997 cumulative IPC: 3.241 (Simulation time: 00 hr 01 min 39 sec)
Heartbeat CPU 0 instructions: 18000121 cycles: 5567732 heartbeat IPC: 2.98 cumulative IPC: 3.233 (Simulation time: 00 hr 01 min 42 sec)
Heartbeat CPU 0 instructions: 18500123 cycles: 5715208 heartbeat IPC: 3.39 cumulative IPC: 3.237 (Simulation time: 00 hr 01 min 45 sec)
Heartbeat CPU 0 instructions: 19000128 cycles: 5883227 heartbeat IPC: 2.976 cumulative IPC: 3.23 (Simulation time: 00 hr 01 min 49 sec)
Heartbeat CPU 0 instructions: 19500134 cycles: 6040633 heartbeat IPC: 3.177 cumulative IPC: 3.228 (Simulation time: 00 hr 01 min 52 sec)
Heartbeat CPU 0 instructions: 20000138 cycles: 6170859 heartbeat IPC: 3.84 cumulative IPC: 3.241 (Simulation time: 00 hr 01 min 54 sec)
Heartbeat CPU 0 instructions: 20500142 cycles: 6288495 heartbeat IPC: 4.25 cumulative IPC: 3.26 (Simulation time: 00 hr 01 min 56 sec)
Heartbeat CPU 0 instructions: 21000149 cycles: 6431945 heartbeat IPC: 3.486 cumulative IPC: 3.265 (Simulation time: 00 hr 01 min 58 sec)
Heartbeat CPU 0 instructions: 21500153 cycles: 6562313 heartbeat IPC: 3.835 cumulative IPC: 3.276 (Simulation time: 00 hr 02 min 01 sec)
Heartbeat CPU 0 instructions: 22000159 cycles: 6707348 heartbeat IPC: 3.447 cumulative IPC: 3.28 (Simulation time: 00 hr 02 min 03 sec)
Heartbeat CPU 0 instructions: 22500160 cycles: 6829797 heartbeat IPC: 4.083 cumulative IPC: 3.294 (Simulation time: 00 hr 02 min 05 sec)
Heartbeat CPU 0 instructions: 23000165 cycles: 6939963 heartbeat IPC: 4.539 cumulative IPC: 3.314 (Simulation time: 00 hr 02 min 07 sec)
Heartbeat CPU 0 instructions: 23500169 cycles: 7076457 heartbeat IPC: 3.663 cumulative IPC: 3.321 (Simulation time: 00 hr 02 min 10 sec)
Heartbeat CPU 0 instructions: 24000172 cycles: 7209965 heartbeat IPC: 3.745 cumulative IPC: 3.329 (Simulation time: 00 hr 02 min 12 sec)
Heartbeat CPU 0 instructions: 24500173 cycles: 7355084 heartbeat IPC: 3.445 cumulative IPC: 3.331 (Simulation time: 00 hr 02 min 15 sec)
Heartbeat CPU 0 instructions: 25000174 cycles: 7490732 heartbeat IPC: 3.686 cumulative IPC: 3.337 (Simulation time: 00 hr 02 min 18 sec)
Heartbeat CPU 0 instructions: 25500175 cycles: 7647834 heartbeat IPC: 3.183 cumulative IPC: 3.334 (Simulation time: 00 hr 02 min 21 sec)
Heartbeat CPU 0 instructions: 26000176 cycles: 7811875 heartbeat IPC: 3.048 cumulative IPC: 3.328 (Simulation time: 00 hr 02 min 24 sec)
Heartbeat CPU 0 instructions: 26500182 cycles: 7924765 heartbeat IPC: 4.429 cumulative IPC: 3.344 (Simulation time: 00 hr 02 min 26 sec)
Heartbeat CPU 0 instructions: 27000184 cycles: 8082779 heartbeat IPC: 3.164 cumulative IPC: 3.34 (Simulation time: 00 hr 02 min 29 sec)
Heartbeat CPU 0 instructions: 27500188 cycles: 8239142 heartbeat IPC: 3.198 cumulative IPC: 3.338 (Simulation time: 00 hr 02 min 32 sec)
Heartbeat CPU 0 instructions: 28000195 cycles: 8376949 heartbeat IPC: 3.628 cumulative IPC: 3.343 (Simulation time: 00 hr 02 min 35 sec)
Heartbeat CPU 0 instructions: 28500195 cycles: 8508983 heartbeat IPC: 3.787 cumulative IPC: 3.349 (Simulation time: 00 hr 02 min 37 sec)
Heartbeat CPU 0 instructions: 29000199 cycles: 8665062 heartbeat IPC: 3.204 cumulative IPC: 3.347 (Simulation time: 00 hr 02 min 40 sec)
Heartbeat CPU 0 instructions: 29500199 cycles: 8811493 heartbeat IPC: 3.415 cumulative IPC: 3.348 (Simulation time: 00 hr 02 min 43 sec)
Heartbeat CPU 0 instructions: 30000201 cycles: 8978309 heartbeat IPC: 2.997 cumulative IPC: 3.341 (Simulation time: 00 hr 02 min 46 sec)
Heartbeat CPU 0 instructions: 30500206 cycles: 9094556 heartbeat IPC: 4.301 cumulative IPC: 3.354 (Simulation time: 00 hr 02 min 48 sec)
Heartbeat CPU 0 instructions: 31000212 cycles: 9237253 heartbeat IPC: 3.504 cumulative IPC: 3.356 (Simulation time: 00 hr 02 min 51 sec)
Heartbeat CPU 0 instructions: 31500212 cycles: 9363310 heartbeat IPC: 3.966 cumulative IPC: 3.364 (Simulation time: 00 hr 02 min 54 sec)
Heartbeat CPU 0 instructions: 32000219 cycles: 9511405 heartbeat IPC: 3.376 cumulative IPC: 3.364 (Simulation time: 00 hr 02 min 57 sec)
Heartbeat CPU 0 instructions: 32500221 cycles: 9662519 heartbeat IPC: 3.309 cumulative IPC: 3.364 (Simulation time: 00 hr 02 min 59 sec)
Heartbeat CPU 0 instructions: 33000222 cycles: 9790219 heartbeat IPC: 3.915 cumulative IPC: 3.371 (Simulation time: 00 hr 03 min 02 sec)
Heartbeat CPU 0 instructions: 33500223 cycles: 9916434 heartbeat IPC: 3.962 cumulative IPC: 3.378 (Simulation time: 00 hr 03 min 04 sec)
Heartbeat CPU 0 instructions: 34000229 cycles: 10054089 heartbeat IPC: 3.632 cumulative IPC: 3.382 (Simulation time: 00 hr 03 min 06 sec)
Heartbeat CPU 0 instructions: 34500235 cycles: 10201215 heartbeat IPC: 3.398 cumulative IPC: 3.382 (Simulation time: 00 hr 03 min 09 sec)
Heartbeat CPU 0 instructions: 35000239 cycles: 10329068 heartbeat IPC: 3.911 cumulative IPC: 3.389 (Simulation time: 00 hr 03 min 12 sec)
Heartbeat CPU 0 instructions: 35500240 cycles: 10445646 heartbeat IPC: 4.289 cumulative IPC: 3.399 (Simulation time: 00 hr 03 min 14 sec)
Heartbeat CPU 0 instructions: 36000246 cycles: 10564880 heartbeat IPC: 4.193 cumulative IPC: 3.408 (Simulation time: 00 hr 03 min 16 sec)
Heartbeat CPU 0 instructions: 36500248 cycles: 10671705 heartbeat IPC: 4.681 cumulative IPC: 3.42 (Simulation time: 00 hr 03 min 18 sec)
Heartbeat CPU 0 instructions: 37000253 cycles: 10783150 heartbeat IPC: 4.487 cumulative IPC: 3.431 (Simulation time: 00 hr 03 min 20 sec)
Heartbeat CPU 0 instructions: 37500256 cycles: 10917891 heartbeat IPC: 3.711 cumulative IPC: 3.435 (Simulation time: 00 hr 03 min 24 sec)
Heartbeat CPU 0 instructions: 38000262 cycles: 11033838 heartbeat IPC: 4.312 cumulative IPC: 3.444 (Simulation time: 00 hr 03 min 27 sec)
Heartbeat CPU 0 instructions: 38500265 cycles: 11145631 heartbeat IPC: 4.473 cumulative IPC: 3.454 (Simulation time: 00 hr 03 min 30 sec)
Heartbeat CPU 0 instructions: 39000271 cycles: 11258521 heartbeat IPC: 4.429 cumulative IPC: 3.464 (Simulation time: 00 hr 03 min 34 sec)
Heartbeat CPU 0 instructions: 39500273 cycles: 11372820 heartbeat IPC: 4.375 cumulative IPC: 3.473 (Simulation time: 00 hr 03 min 37 sec)
Heartbeat CPU 0 instructions: 40000277 cycles: 11479046 heartbeat IPC: 4.707 cumulative IPC: 3.485 (Simulation time: 00 hr 03 min 40 sec)
Heartbeat CPU 0 instructions: 40500282 cycles: 11585360 heartbeat IPC: 4.703 cumulative IPC: 3.496 (Simulation time: 00 hr 03 min 43 sec)
Heartbeat CPU 0 instructions: 41000289 cycles: 11704651 heartbeat IPC: 4.191 cumulative IPC: 3.503 (Simulation time: 00 hr 03 min 47 sec)
Heartbeat CPU 0 instructions: 41500292 cycles: 11832845 heartbeat IPC: 3.9 cumulative IPC: 3.507 (Simulation time: 00 hr 03 min 50 sec)
Heartbeat CPU 0 instructions: 42000298 cycles: 11948658 heartbeat IPC: 4.317 cumulative IPC: 3.515 (Simulation time: 00 hr 03 min 54 sec)
Heartbeat CPU 0 instructions: 42500300 cycles: 12059082 heartbeat IPC: 4.528 cumulative IPC: 3.524 (Simulation time: 00 hr 03 min 57 sec)
Heartbeat CPU 0 instructions: 43000302 cycles: 12230979 heartbeat IPC: 2.909 cumulative IPC: 3.516 (Simulation time: 00 hr 04 min 02 sec)
Heartbeat CPU 0 instructions: 43500303 cycles: 12367997 heartbeat IPC: 3.649 cumulative IPC: 3.517 (Simulation time: 00 hr 04 min 06 sec)
Heartbeat CPU 0 instructions: 44000309 cycles: 12504061 heartbeat IPC: 3.675 cumulative IPC: 3.519 (Simulation time: 00 hr 04 min 11 sec)
Heartbeat CPU 0 instructions: 44500315 cycles: 12618902 heartbeat IPC: 4.354 cumulative IPC: 3.526 (Simulation time: 00 hr 04 min 14 sec)
Heartbeat CPU 0 instructions: 45000315 cycles: 12743334 heartbeat IPC: 4.018 cumulative IPC: 3.531 (Simulation time: 00 hr 04 min 18 sec)
Heartbeat CPU 0 instructions: 45500319 cycles: 12876230 heartbeat IPC: 3.762 cumulative IPC: 3.534 (Simulation time: 00 hr 04 min 22 sec)
Heartbeat CPU 0 instructions: 46000320 cycles: 12999107 heartbeat IPC: 4.069 cumulative IPC: 3.539 (Simulation time: 00 hr 04 min 25 sec)
Heartbeat CPU 0 instructions: 46500323 cycles: 13139420 heartbeat IPC: 3.563 cumulative IPC: 3.539 (Simulation time: 00 hr 04 min 30 sec)
Heartbeat CPU 0 instructions: 47000327 cycles: 13277381 heartbeat IPC: 3.624 cumulative IPC: 3.54 (Simulation time: 00 hr 04 min 33 sec)
Heartbeat CPU 0 instructions: 47500327 cycles: 13415892 heartbeat IPC: 3.61 cumulative IPC: 3.541 (Simulation time: 00 hr 04 min 38 sec)
Heartbeat CPU 0 instructions: 48000333 cycles: 13546294 heartbeat IPC: 3.834 cumulative IPC: 3.543 (Simulation time: 00 hr 04 min 42 sec)
Heartbeat CPU 0 instructions: 48500337 cycles: 13668540 heartbeat IPC: 4.09 cumulative IPC: 3.548 (Simulation time: 00 hr 04 min 45 sec)
Heartbeat CPU 0 instructions: 49000339 cycles: 13790683 heartbeat IPC: 4.094 cumulative IPC: 3.553 (Simulation time: 00 hr 04 min 49 sec)
Heartbeat CPU 0 instructions: 49500342 cycles: 13925302 heartbeat IPC: 3.714 cumulative IPC: 3.555 (Simulation time: 00 hr 04 min 53 sec)
Warmup halting CPU 0 at instruction 50000006 cycle 14034342 for remainder of phase
Warmup finished CPU 0 instructions: 50000006 cycles: 14034342 cumulative IPC: 3.563 (Simulation time: 00 hr 04 min 56 sec)
Warmup complete CPU 0 instructions: 50000006 cycles: 14034342 cumulative IPC: 3.563 (Simulation time: 00 hr 04 min 56 sec)
Heartbeat CPU 0 instructions: 50000344 cycles: 14034416 heartbeat IPC: 4.582 cumulative IPC: 4.568 (Simulation time: 00 hr 04 min 56 sec)
Heartbeat CPU 0 instructions: 50500345 cycles: 15089710 heartbeat IPC: 0.4738 cumulative IPC: 0.4741 (Simulation time: 00 hr 05 min 08 sec)
Heartbeat CPU 0 instructions: 51000350 cycles: 15952102 heartbeat IPC: 0.5798 cumulative IPC: 0.5216 (Simulation time: 00 hr 05 min 18 sec)
Heartbeat CPU 0 instructions: 51500356 cycles: 16507766 heartbeat IPC: 0.8998 cumulative IPC: 0.6066 (Simulation time: 00 hr 05 min 25 sec)
Heartbeat CPU 0 instructions: 52000360 cycles: 17422515 heartbeat IPC: 0.5466 cumulative IPC: 0.5904 (Simulation time: 00 hr 05 min 36 sec)
Heartbeat CPU 0 instructions: 52500364 cycles: 17868074 heartbeat IPC: 1.122 cumulative IPC: 0.6522 (Simulation time: 00 hr 05 min 40 sec)
Heartbeat CPU 0 instructions: 53000364 cycles: 18209405 heartbeat IPC: 1.465 cumulative IPC: 0.7186 (Simulation time: 00 hr 05 min 43 sec)
Heartbeat CPU 0 instructions: 53500366 cycles: 18715943 heartbeat IPC: 0.9871 cumulative IPC: 0.7477 (Simulation time: 00 hr 05 min 47 sec)
Heartbeat CPU 0 instructions: 54000370 cycles: 19516380 heartbeat IPC: 0.6247 cumulative IPC: 0.7297 (Simulation time: 00 hr 05 min 54 sec)
Heartbeat CPU 0 instructions: 54500370 cycles: 19940653 heartbeat IPC: 1.178 cumulative IPC: 0.762 (Simulation time: 00 hr 05 min 58 sec)
Heartbeat CPU 0 instructions: 55000374 cycles: 20538458 heartbeat IPC: 0.8364 cumulative IPC: 0.7688 (Simulation time: 00 hr 06 min 03 sec)
Heartbeat CPU 0 instructions: 55500376 cycles: 20863541 heartbeat IPC: 1.538 cumulative IPC: 0.8054 (Simulation time: 00 hr 06 min 07 sec)
Heartbeat CPU 0 instructions: 56000376 cycles: 21495488 heartbeat IPC: 0.7912 cumulative IPC: 0.8042 (Simulation time: 00 hr 06 min 13 sec)
Heartbeat CPU 0 instructions: 56500376 cycles: 22973088 heartbeat IPC: 0.3384 cumulative IPC: 0.7272 (Simulation time: 00 hr 06 min 24 sec)
Heartbeat CPU 0 instructions: 57000376 cycles: 23948919 heartbeat IPC: 0.5124 cumulative IPC: 0.7061 (Simulation time: 00 hr 06 min 33 sec)
Heartbeat CPU 0 instructions: 57500382 cycles: 25881240 heartbeat IPC: 0.2588 cumulative IPC: 0.6331 (Simulation time: 00 hr 06 min 46 sec)
Heartbeat CPU 0 instructions: 58000384 cycles: 27311596 heartbeat IPC: 0.3496 cumulative IPC: 0.6026 (Simulation time: 00 hr 06 min 56 sec)
Heartbeat CPU 0 instructions: 58500385 cycles: 28111406 heartbeat IPC: 0.6251 cumulative IPC: 0.6038 (Simulation time: 00 hr 07 min 03 sec)
Heartbeat CPU 0 instructions: 59000387 cycles: 28908449 heartbeat IPC: 0.6273 cumulative IPC: 0.6051 (Simulation time: 00 hr 07 min 09 sec)
Heartbeat CPU 0 instructions: 59500387 cycles: 29996225 heartbeat IPC: 0.4597 cumulative IPC: 0.5952 (Simulation time: 00 hr 07 min 17 sec)
Heartbeat CPU 0 instructions: 60000388 cycles: 30539203 heartbeat IPC: 0.9208 cumulative IPC: 0.6059 (Simulation time: 00 hr 07 min 22 sec)
Heartbeat CPU 0 instructions: 60500393 cycles: 30933951 heartbeat IPC: 1.267 cumulative IPC: 0.6213 (Simulation time: 00 hr 07 min 26 sec)
Heartbeat CPU 0 instructions: 61000399 cycles: 31270582 heartbeat IPC: 1.485 cumulative IPC: 0.6382 (Simulation time: 00 hr 07 min 29 sec)
Heartbeat CPU 0 instructions: 61500403 cycles: 31801178 heartbeat IPC: 0.9423 cumulative IPC: 0.6473 (Simulation time: 00 hr 07 min 34 sec)
Heartbeat CPU 0 instructions: 62000406 cycles: 32147611 heartbeat IPC: 1.443 cumulative IPC: 0.6625 (Simulation time: 00 hr 07 min 37 sec)
Heartbeat CPU 0 instructions: 62500406 cycles: 32389629 heartbeat IPC: 2.066 cumulative IPC: 0.681 (Simulation time: 00 hr 07 min 40 sec)
Heartbeat CPU 0 instructions: 63000406 cycles: 32915694 heartbeat IPC: 0.9505 cumulative IPC: 0.6885 (Simulation time: 00 hr 07 min 45 sec)
Heartbeat CPU 0 instructions: 63500409 cycles: 33558574 heartbeat IPC: 0.7778 cumulative IPC: 0.6915 (Simulation time: 00 hr 07 min 51 sec)
Heartbeat CPU 0 instructions: 64000414 cycles: 33764446 heartbeat IPC: 2.429 cumulative IPC: 0.7096 (Simulation time: 00 hr 07 min 54 sec)
Heartbeat CPU 0 instructions: 64500414 cycles: 35119144 heartbeat IPC: 0.3691 cumulative IPC: 0.6877 (Simulation time: 00 hr 08 min 04 sec)
Heartbeat CPU 0 instructions: 65000414 cycles: 36206332 heartbeat IPC: 0.4599 cumulative IPC: 0.6765 (Simulation time: 00 hr 08 min 12 sec)
Heartbeat CPU 0 instructions: 65500415 cycles: 37067798 heartbeat IPC: 0.5804 cumulative IPC: 0.673 (Simulation time: 00 hr 08 min 19 sec)
Heartbeat CPU 0 instructions: 66000422 cycles: 38179735 heartbeat IPC: 0.4497 cumulative IPC: 0.6627 (Simulation time: 00 hr 08 min 27 sec)
Heartbeat CPU 0 instructions: 66500426 cycles: 39040733 heartbeat IPC: 0.5807 cumulative IPC: 0.6598 (Simulation time: 00 hr 08 min 34 sec)
Heartbeat CPU 0 instructions: 67000429 cycles: 40175957 heartbeat IPC: 0.4404 cumulative IPC: 0.6503 (Simulation time: 00 hr 08 min 43 sec)
Heartbeat CPU 0 instructions: 67500430 cycles: 41013034 heartbeat IPC: 0.5973 cumulative IPC: 0.6487 (Simulation time: 00 hr 08 min 50 sec)
Heartbeat CPU 0 instructions: 68000430 cycles: 42713854 heartbeat IPC: 0.294 cumulative IPC: 0.6276 (Simulation time: 00 hr 09 min 02 sec)
Heartbeat CPU 0 instructions: 68500436 cycles: 43793284 heartbeat IPC: 0.4632 cumulative IPC: 0.6217 (Simulation time: 00 hr 09 min 11 sec)
Heartbeat CPU 0 instructions: 69000438 cycles: 44286929 heartbeat IPC: 1.013 cumulative IPC: 0.6281 (Simulation time: 00 hr 09 min 15 sec)
Heartbeat CPU 0 instructions: 69500440 cycles: 44574799 heartbeat IPC: 1.737 cumulative IPC: 0.6385 (Simulation time: 00 hr 09 min 18 sec)
Heartbeat CPU 0 instructions: 70000441 cycles: 45635325 heartbeat IPC: 0.4715 cumulative IPC: 0.6329 (Simulation time: 00 hr 09 min 26 sec)
Heartbeat CPU 0 instructions: 70500441 cycles: 46839486 heartbeat IPC: 0.4152 cumulative IPC: 0.6249 (Simulation time: 00 hr 09 min 35 sec)
Heartbeat CPU 0 instructions: 71000442 cycles: 48022376 heartbeat IPC: 0.4227 cumulative IPC: 0.6179 (Simulation time: 00 hr 09 min 44 sec)
Heartbeat CPU 0 instructions: 71500443 cycles: 49126592 heartbeat IPC: 0.4528 cumulative IPC: 0.6127 (Simulation time: 00 hr 09 min 52 sec)
Heartbeat CPU 0 instructions: 72000443 cycles: 49690774 heartbeat IPC: 0.8862 cumulative IPC: 0.617 (Simulation time: 00 hr 09 min 58 sec)
Heartbeat CPU 0 instructions: 72500448 cycles: 49903973 heartbeat IPC: 2.345 cumulative IPC: 0.6273 (Simulation time: 00 hr 10 min 01 sec)
Heartbeat CPU 0 instructions: 73000452 cycles: 50130971 heartbeat IPC: 2.203 cumulative IPC: 0.6372 (Simulation time: 00 hr 10 min 03 sec)
Heartbeat CPU 0 instructions: 73500453 cycles: 50341862 heartbeat IPC: 2.371 cumulative IPC: 0.6473 (Simulation time: 00 hr 10 min 06 sec)
Heartbeat CPU 0 instructions: 74000454 cycles: 51186474 heartbeat IPC: 0.592 cumulative IPC: 0.646 (Simulation time: 00 hr 10 min 12 sec)
Heartbeat CPU 0 instructions: 74500457 cycles: 52659250 heartbeat IPC: 0.3395 cumulative IPC: 0.6343 (Simulation time: 00 hr 10 min 23 sec)
Heartbeat CPU 0 instructions: 75000459 cycles: 53323526 heartbeat IPC: 0.7527 cumulative IPC: 0.6363 (Simulation time: 00 hr 10 min 29 sec)
Heartbeat CPU 0 instructions: 75500459 cycles: 54706756 heartbeat IPC: 0.3615 cumulative IPC: 0.627 (Simulation time: 00 hr 10 min 39 sec)
Heartbeat CPU 0 instructions: 76000463 cycles: 55875169 heartbeat IPC: 0.4279 cumulative IPC: 0.6214 (Simulation time: 00 hr 10 min 48 sec)
Heartbeat CPU 0 instructions: 76500463 cycles: 56315756 heartbeat IPC: 1.135 cumulative IPC: 0.6268 (Simulation time: 00 hr 10 min 52 sec)
Heartbeat CPU 0 instructions: 77000463 cycles: 56734359 heartbeat IPC: 1.194 cumulative IPC: 0.6323 (Simulation time: 00 hr 10 min 56 sec)
Heartbeat CPU 0 instructions: 77500463 cycles: 57481948 heartbeat IPC: 0.6688 cumulative IPC: 0.633 (Simulation time: 00 hr 11 min 02 sec)
Heartbeat CPU 0 instructions: 78000464 cycles: 58488678 heartbeat IPC: 0.4967 cumulative IPC: 0.6299 (Simulation time: 00 hr 11 min 10 sec)
Heartbeat CPU 0 instructions: 78500464 cycles: 58859650 heartbeat IPC: 1.348 cumulative IPC: 0.6358 (Simulation time: 00 hr 11 min 15 sec)
Heartbeat CPU 0 instructions: 79000465 cycles: 59268257 heartbeat IPC: 1.224 cumulative IPC: 0.6411 (Simulation time: 00 hr 11 min 21 sec)
Heartbeat CPU 0 instructions: 79500465 cycles: 60037694 heartbeat IPC: 0.6498 cumulative IPC: 0.6413 (Simulation time: 00 hr 11 min 27 sec)
Heartbeat CPU 0 instructions: 80000467 cycles: 61177661 heartbeat IPC: 0.4386 cumulative IPC: 0.6364 (Simulation time: 00 hr 11 min 36 sec)
Heartbeat CPU 0 instructions: 80500467 cycles: 62214050 heartbeat IPC: 0.4824 cumulative IPC: 0.6331 (Simulation time: 00 hr 11 min 44 sec)
Heartbeat CPU 0 instructions: 81000467 cycles: 63598509 heartbeat IPC: 0.3612 cumulative IPC: 0.6255 (Simulation time: 00 hr 11 min 57 sec)
Heartbeat CPU 0 instructions: 81500469 cycles: 64836268 heartbeat IPC: 0.404 cumulative IPC: 0.6201 (Simulation time: 00 hr 12 min 06 sec)
Heartbeat CPU 0 instructions: 82000472 cycles: 65660839 heartbeat IPC: 0.6064 cumulative IPC: 0.6198 (Simulation time: 00 hr 12 min 13 sec)
Heartbeat CPU 0 instructions: 82500472 cycles: 66315943 heartbeat IPC: 0.7632 cumulative IPC: 0.6216 (Simulation time: 00 hr 12 min 18 sec)
Heartbeat CPU 0 instructions: 83000473 cycles: 66959604 heartbeat IPC: 0.7768 cumulative IPC: 0.6235 (Simulation time: 00 hr 12 min 24 sec)
Heartbeat CPU 0 instructions: 83500477 cycles: 67383285 heartbeat IPC: 1.18 cumulative IPC: 0.628 (Simulation time: 00 hr 12 min 28 sec)
Heartbeat CPU 0 instructions: 84000478 cycles: 68168442 heartbeat IPC: 0.6368 cumulative IPC: 0.6281 (Simulation time: 00 hr 12 min 34 sec)
Heartbeat CPU 0 instructions: 84500480 cycles: 68887576 heartbeat IPC: 0.6953 cumulative IPC: 0.629 (Simulation time: 00 hr 12 min 40 sec)
Heartbeat CPU 0 instructions: 85000482 cycles: 70004105 heartbeat IPC: 0.4478 cumulative IPC: 0.6253 (Simulation time: 00 hr 12 min 48 sec)
Heartbeat CPU 0 instructions: 85500482 cycles: 70438113 heartbeat IPC: 1.152 cumulative IPC: 0.6294 (Simulation time: 00 hr 12 min 54 sec)
Heartbeat CPU 0 instructions: 86000482 cycles: 71313251 heartbeat IPC: 0.5713 cumulative IPC: 0.6285 (Simulation time: 00 hr 13 min 02 sec)
Heartbeat CPU 0 instructions: 86500486 cycles: 71620967 heartbeat IPC: 1.625 cumulative IPC: 0.6338 (Simulation time: 00 hr 13 min 05 sec)
Heartbeat CPU 0 instructions: 87000487 cycles: 72837141 heartbeat IPC: 0.4111 cumulative IPC: 0.6292 (Simulation time: 00 hr 13 min 14 sec)
Heartbeat CPU 0 instructions: 87500492 cycles: 73650385 heartbeat IPC: 0.6148 cumulative IPC: 0.629 (Simulation time: 00 hr 13 min 20 sec)
Heartbeat CPU 0 instructions: 88000492 cycles: 74869315 heartbeat IPC: 0.4102 cumulative IPC: 0.6246 (Simulation time: 00 hr 13 min 31 sec)
Heartbeat CPU 0 instructions: 88500493 cycles: 75881285 heartbeat IPC: 0.4941 cumulative IPC: 0.6225 (Simulation time: 00 hr 13 min 38 sec)
Heartbeat CPU 0 instructions: 89000493 cycles: 76542753 heartbeat IPC: 0.7559 cumulative IPC: 0.6239 (Simulation time: 00 hr 13 min 44 sec)
Heartbeat CPU 0 instructions: 89500493 cycles: 77251547 heartbeat IPC: 0.7054 cumulative IPC: 0.6248 (Simulation time: 00 hr 13 min 50 sec)
Heartbeat CPU 0 instructions: 90000494 cycles: 78282112 heartbeat IPC: 0.4852 cumulative IPC: 0.6226 (Simulation time: 00 hr 13 min 58 sec)
Heartbeat CPU 0 instructions: 90500500 cycles: 78891943 heartbeat IPC: 0.8199 cumulative IPC: 0.6245 (Simulation time: 00 hr 14 min 03 sec)
Heartbeat CPU 0 instructions: 91000501 cycles: 80115810 heartbeat IPC: 0.4085 cumulative IPC: 0.6205 (Simulation time: 00 hr 14 min 12 sec)
Heartbeat CPU 0 instructions: 91500507 cycles: 81685460 heartbeat IPC: 0.3185 cumulative IPC: 0.6134 (Simulation time: 00 hr 14 min 23 sec)
Heartbeat CPU 0 instructions: 92000511 cycles: 82874084 heartbeat IPC: 0.4207 cumulative IPC: 0.6101 (Simulation time: 00 hr 14 min 32 sec)
Heartbeat CPU 0 instructions: 92500515 cycles: 84040338 heartbeat IPC: 0.4287 cumulative IPC: 0.6071 (Simulation time: 00 hr 14 min 41 sec)
Heartbeat CPU 0 instructions: 93000515 cycles: 85079316 heartbeat IPC: 0.4812 cumulative IPC: 0.6053 (Simulation time: 00 hr 14 min 48 sec)
Heartbeat CPU 0 instructions: 93500520 cycles: 86277682 heartbeat IPC: 0.4172 cumulative IPC: 0.6021 (Simulation time: 00 hr 14 min 57 sec)
Heartbeat CPU 0 instructions: 94000520 cycles: 87475604 heartbeat IPC: 0.4174 cumulative IPC: 0.5991 (Simulation time: 00 hr 15 min 07 sec)
Heartbeat CPU 0 instructions: 94500526 cycles: 88526830 heartbeat IPC: 0.4756 cumulative IPC: 0.5974 (Simulation time: 00 hr 15 min 14 sec)
Heartbeat CPU 0 instructions: 95000531 cycles: 89835577 heartbeat IPC: 0.382 cumulative IPC: 0.5937 (Simulation time: 00 hr 15 min 24 sec)
Heartbeat CPU 0 instructions: 95500531 cycles: 91253081 heartbeat IPC: 0.3527 cumulative IPC: 0.5892 (Simulation time: 00 hr 15 min 34 sec)
Heartbeat CPU 0 instructions: 96000535 cycles: 92574916 heartbeat IPC: 0.3783 cumulative IPC: 0.5857 (Simulation time: 00 hr 15 min 44 sec)
Heartbeat CPU 0 instructions: 96500538 cycles: 93578374 heartbeat IPC: 0.4983 cumulative IPC: 0.5846 (Simulation time: 00 hr 15 min 51 sec)
Heartbeat CPU 0 instructions: 97000544 cycles: 94297817 heartbeat IPC: 0.695 cumulative IPC: 0.5856 (Simulation time: 00 hr 15 min 57 sec)
Heartbeat CPU 0 instructions: 97500545 cycles: 94954976 heartbeat IPC: 0.7609 cumulative IPC: 0.587 (Simulation time: 00 hr 16 min 03 sec)
Heartbeat CPU 0 instructions: 98000545 cycles: 95739855 heartbeat IPC: 0.637 cumulative IPC: 0.5875 (Simulation time: 00 hr 16 min 09 sec)
Heartbeat CPU 0 instructions: 98500551 cycles: 96632502 heartbeat IPC: 0.5601 cumulative IPC: 0.5872 (Simulation time: 00 hr 16 min 16 sec)
Heartbeat CPU 0 instructions: 99000552 cycles: 97547725 heartbeat IPC: 0.5463 cumulative IPC: 0.5867 (Simulation time: 00 hr 16 min 23 sec)
Heartbeat CPU 0 instructions: 99500552 cycles: 98143882 heartbeat IPC: 0.8387 cumulative IPC: 0.5885 (Simulation time: 00 hr 16 min 28 sec)
Heartbeat CPU 0 instructions: 100000554 cycles: 99141819 heartbeat IPC: 0.501 cumulative IPC: 0.5875 (Simulation time: 00 hr 16 min 36 sec)
Heartbeat CPU 0 instructions: 100500557 cycles: 100326316 heartbeat IPC: 0.4221 cumulative IPC: 0.5852 (Simulation time: 00 hr 16 min 45 sec)
Heartbeat CPU 0 instructions: 101000559 cycles: 101696394 heartbeat IPC: 0.3649 cumulative IPC: 0.5818 (Simulation time: 00 hr 16 min 54 sec)
Heartbeat CPU 0 instructions: 101500559 cycles: 102585070 heartbeat IPC: 0.5626 cumulative IPC: 0.5816 (Simulation time: 00 hr 17 min 02 sec)
Heartbeat CPU 0 instructions: 102000565 cycles: 103318088 heartbeat IPC: 0.6821 cumulative IPC: 0.5824 (Simulation time: 00 hr 17 min 09 sec)
Heartbeat CPU 0 instructions: 102500572 cycles: 103820394 heartbeat IPC: 0.9954 cumulative IPC: 0.5847 (Simulation time: 00 hr 17 min 13 sec)
Heartbeat CPU 0 instructions: 103000577 cycles: 104228579 heartbeat IPC: 1.225 cumulative IPC: 0.5876 (Simulation time: 00 hr 17 min 17 sec)
Heartbeat CPU 0 instructions: 103500581 cycles: 104739558 heartbeat IPC: 0.9785 cumulative IPC: 0.5898 (Simulation time: 00 hr 17 min 22 sec)
Heartbeat CPU 0 instructions: 104000582 cycles: 105140652 heartbeat IPC: 1.247 cumulative IPC: 0.5927 (Simulation time: 00 hr 17 min 26 sec)
Heartbeat CPU 0 instructions: 104500588 cycles: 105623677 heartbeat IPC: 1.035 cumulative IPC: 0.5951 (Simulation time: 00 hr 17 min 31 sec)
Heartbeat CPU 0 instructions: 105000592 cycles: 106027731 heartbeat IPC: 1.237 cumulative IPC: 0.5979 (Simulation time: 00 hr 17 min 35 sec)
Heartbeat CPU 0 instructions: 105500594 cycles: 106972633 heartbeat IPC: 0.5292 cumulative IPC: 0.5972 (Simulation time: 00 hr 17 min 41 sec)
Heartbeat CPU 0 instructions: 106000595 cycles: 108023905 heartbeat IPC: 0.4756 cumulative IPC: 0.5958 (Simulation time: 00 hr 17 min 49 sec)
Heartbeat CPU 0 instructions: 106500601 cycles: 109039366 heartbeat IPC: 0.4924 cumulative IPC: 0.5947 (Simulation time: 00 hr 17 min 56 sec)
Heartbeat CPU 0 instructions: 107000602 cycles: 109585391 heartbeat IPC: 0.9157 cumulative IPC: 0.5965 (Simulation time: 00 hr 18 min 01 sec)
Heartbeat CPU 0 instructions: 107500609 cycles: 110131303 heartbeat IPC: 0.9159 cumulative IPC: 0.5984 (Simulation time: 00 hr 18 min 06 sec)
Heartbeat CPU 0 instructions: 108000610 cycles: 110910475 heartbeat IPC: 0.6417 cumulative IPC: 0.5987 (Simulation time: 00 hr 18 min 12 sec)
Heartbeat CPU 0 instructions: 108500610 cycles: 112241838 heartbeat IPC: 0.3756 cumulative IPC: 0.5957 (Simulation time: 00 hr 18 min 23 sec)
Heartbeat CPU 0 instructions: 109000610 cycles: 113176981 heartbeat IPC: 0.5347 cumulative IPC: 0.5951 (Simulation time: 00 hr 18 min 30 sec)
Heartbeat CPU 0 instructions: 109500617 cycles: 113929638 heartbeat IPC: 0.6643 cumulative IPC: 0.5956 (Simulation time: 00 hr 18 min 37 sec)
Heartbeat CPU 0 instructions: 110000619 cycles: 114344991 heartbeat IPC: 1.204 cumulative IPC: 0.5981 (Simulation time: 00 hr 18 min 40 sec)
Heartbeat CPU 0 instructions: 110500623 cycles: 114763001 heartbeat IPC: 1.196 cumulative IPC: 0.6006 (Simulation time: 00 hr 18 min 44 sec)
Heartbeat CPU 0 instructions: 111000627 cycles: 115445262 heartbeat IPC: 0.7329 cumulative IPC: 0.6015 (Simulation time: 00 hr 18 min 49 sec)
Heartbeat CPU 0 instructions: 111500628 cycles: 115951267 heartbeat IPC: 0.9881 cumulative IPC: 0.6034 (Simulation time: 00 hr 18 min 54 sec)
Heartbeat CPU 0 instructions: 112000631 cycles: 116355377 heartbeat IPC: 1.237 cumulative IPC: 0.6059 (Simulation time: 00 hr 18 min 57 sec)
Heartbeat CPU 0 instructions: 112500632 cycles: 117998909 heartbeat IPC: 0.3042 cumulative IPC: 0.6012 (Simulation time: 00 hr 19 min 08 sec)
Heartbeat CPU 0 instructions: 113000632 cycles: 118796998 heartbeat IPC: 0.6265 cumulative IPC: 0.6014 (Simulation time: 00 hr 19 min 14 sec)
Heartbeat CPU 0 instructions: 113500633 cycles: 119534514 heartbeat IPC: 0.678 cumulative IPC: 0.6019 (Simulation time: 00 hr 19 min 20 sec)
Heartbeat CPU 0 instructions: 114000633 cycles: 120102188 heartbeat IPC: 0.8808 cumulative IPC: 0.6034 (Simulation time: 00 hr 19 min 25 sec)
Heartbeat CPU 0 instructions: 114500634 cycles: 120555921 heartbeat IPC: 1.102 cumulative IPC: 0.6055 (Simulation time: 00 hr 19 min 29 sec)
Heartbeat CPU 0 instructions: 115000635 cycles: 121124901 heartbeat IPC: 0.8788 cumulative IPC: 0.607 (Simulation time: 00 hr 19 min 34 sec)
Heartbeat CPU 0 instructions: 115500642 cycles: 121574672 heartbeat IPC: 1.112 cumulative IPC: 0.6091 (Simulation time: 00 hr 19 min 38 sec)
Heartbeat CPU 0 instructions: 116000648 cycles: 121827634 heartbeat IPC: 1.977 cumulative IPC: 0.6123 (Simulation time: 00 hr 19 min 41 sec)
Heartbeat CPU 0 instructions: 116500648 cycles: 122057400 heartbeat IPC: 2.176 cumulative IPC: 0.6156 (Simulation time: 00 hr 19 min 44 sec)
Heartbeat CPU 0 instructions: 117000651 cycles: 122595551 heartbeat IPC: 0.9291 cumulative IPC: 0.6172 (Simulation time: 00 hr 19 min 49 sec)
Heartbeat CPU 0 instructions: 117500652 cycles: 123263883 heartbeat IPC: 0.7481 cumulative IPC: 0.618 (Simulation time: 00 hr 19 min 55 sec)
Heartbeat CPU 0 instructions: 118000656 cycles: 123622760 heartbeat IPC: 1.393 cumulative IPC: 0.6205 (Simulation time: 00 hr 19 min 58 sec)
Heartbeat CPU 0 instructions: 118500659 cycles: 123997381 heartbeat IPC: 1.335 cumulative IPC: 0.6229 (Simulation time: 00 hr 20 min 02 sec)
Heartbeat CPU 0 instructions: 119000660 cycles: 125001734 heartbeat IPC: 0.4978 cumulative IPC: 0.6218 (Simulation time: 00 hr 20 min 09 sec)
Heartbeat CPU 0 instructions: 119500664 cycles: 126035319 heartbeat IPC: 0.4838 cumulative IPC: 0.6205 (Simulation time: 00 hr 20 min 16 sec)
Heartbeat CPU 0 instructions: 120000664 cycles: 126606563 heartbeat IPC: 0.8753 cumulative IPC: 0.6218 (Simulation time: 00 hr 20 min 22 sec)
Heartbeat CPU 0 instructions: 120500670 cycles: 126915065 heartbeat IPC: 1.621 cumulative IPC: 0.6246 (Simulation time: 00 hr 20 min 25 sec)
Heartbeat CPU 0 instructions: 121000670 cycles: 127778874 heartbeat IPC: 0.5788 cumulative IPC: 0.6242 (Simulation time: 00 hr 20 min 31 sec)
Heartbeat CPU 0 instructions: 121500670 cycles: 128516181 heartbeat IPC: 0.6781 cumulative IPC: 0.6246 (Simulation time: 00 hr 20 min 37 sec)
Heartbeat CPU 0 instructions: 122000670 cycles: 129711276 heartbeat IPC: 0.4184 cumulative IPC: 0.6224 (Simulation time: 00 hr 20 min 45 sec)
Heartbeat CPU 0 instructions: 122500670 cycles: 130394587 heartbeat IPC: 0.7317 cumulative IPC: 0.6231 (Simulation time: 00 hr 20 min 50 sec)
Heartbeat CPU 0 instructions: 123000670 cycles: 131380916 heartbeat IPC: 0.5069 cumulative IPC: 0.6221 (Simulation time: 00 hr 20 min 57 sec)
Heartbeat CPU 0 instructions: 123500671 cycles: 132797317 heartbeat IPC: 0.353 cumulative IPC: 0.6189 (Simulation time: 00 hr 21 min 06 sec)
Heartbeat CPU 0 instructions: 124000671 cycles: 134196165 heartbeat IPC: 0.3574 cumulative IPC: 0.6158 (Simulation time: 00 hr 21 min 16 sec)
Heartbeat CPU 0 instructions: 124500673 cycles: 134930332 heartbeat IPC: 0.681 cumulative IPC: 0.6162 (Simulation time: 00 hr 21 min 21 sec)
Heartbeat CPU 0 instructions: 125000680 cycles: 135202630 heartbeat IPC: 1.836 cumulative IPC: 0.619 (Simulation time: 00 hr 21 min 24 sec)
Heartbeat CPU 0 instructions: 125500683 cycles: 135513960 heartbeat IPC: 1.606 cumulative IPC: 0.6215 (Simulation time: 00 hr 21 min 27 sec)
Heartbeat CPU 0 instructions: 126000686 cycles: 136151018 heartbeat IPC: 0.7849 cumulative IPC: 0.6224 (Simulation time: 00 hr 21 min 32 sec)
Heartbeat CPU 0 instructions: 126500690 cycles: 136878635 heartbeat IPC: 0.6872 cumulative IPC: 0.6227 (Simulation time: 00 hr 21 min 37 sec)
Heartbeat CPU 0 instructions: 127000692 cycles: 137167325 heartbeat IPC: 1.732 cumulative IPC: 0.6253 (Simulation time: 00 hr 21 min 40 sec)
Heartbeat CPU 0 instructions: 127500699 cycles: 138429033 heartbeat IPC: 0.3963 cumulative IPC: 0.623 (Simulation time: 00 hr 21 min 48 sec)
Heartbeat CPU 0 instructions: 128000705 cycles: 139544100 heartbeat IPC: 0.4484 cumulative IPC: 0.6215 (Simulation time: 00 hr 21 min 55 sec)
Heartbeat CPU 0 instructions: 128500707 cycles: 140387358 heartbeat IPC: 0.5929 cumulative IPC: 0.6213 (Simulation time: 00 hr 22 min 01 sec)
Heartbeat CPU 0 instructions: 129000708 cycles: 141423743 heartbeat IPC: 0.4824 cumulative IPC: 0.6202 (Simulation time: 00 hr 22 min 08 sec)
Heartbeat CPU 0 instructions: 129500708 cycles: 142558361 heartbeat IPC: 0.4407 cumulative IPC: 0.6186 (Simulation time: 00 hr 22 min 16 sec)
Heartbeat CPU 0 instructions: 130000708 cycles: 143762377 heartbeat IPC: 0.4153 cumulative IPC: 0.6167 (Simulation time: 00 hr 22 min 24 sec)
Heartbeat CPU 0 instructions: 130500712 cycles: 144395021 heartbeat IPC: 0.7903 cumulative IPC: 0.6175 (Simulation time: 00 hr 22 min 29 sec)
Heartbeat CPU 0 instructions: 131000717 cycles: 145379795 heartbeat IPC: 0.5077 cumulative IPC: 0.6167 (Simulation time: 00 hr 22 min 37 sec)
Heartbeat CPU 0 instructions: 131500717 cycles: 146592907 heartbeat IPC: 0.4122 cumulative IPC: 0.6148 (Simulation time: 00 hr 22 min 45 sec)
Heartbeat CPU 0 instructions: 132000719 cycles: 148086683 heartbeat IPC: 0.3347 cumulative IPC: 0.6117 (Simulation time: 00 hr 22 min 54 sec)
Heartbeat CPU 0 instructions: 132500720 cycles: 149004790 heartbeat IPC: 0.5446 cumulative IPC: 0.6113 (Simulation time: 00 hr 23 min 01 sec)
Heartbeat CPU 0 instructions: 133000720 cycles: 149831965 heartbeat IPC: 0.6045 cumulative IPC: 0.6112 (Simulation time: 00 hr 23 min 07 sec)
Heartbeat CPU 0 instructions: 133500721 cycles: 151604517 heartbeat IPC: 0.2821 cumulative IPC: 0.607 (Simulation time: 00 hr 23 min 19 sec)
Heartbeat CPU 0 instructions: 134000721 cycles: 152259975 heartbeat IPC: 0.7628 cumulative IPC: 0.6077 (Simulation time: 00 hr 23 min 24 sec)
Heartbeat CPU 0 instructions: 134500721 cycles: 152876956 heartbeat IPC: 0.8104 cumulative IPC: 0.6086 (Simulation time: 00 hr 23 min 29 sec)
Heartbeat CPU 0 instructions: 135000723 cycles: 153700619 heartbeat IPC: 0.607 cumulative IPC: 0.6086 (Simulation time: 00 hr 23 min 35 sec)
Heartbeat CPU 0 instructions: 135500723 cycles: 154763478 heartbeat IPC: 0.4704 cumulative IPC: 0.6076 (Simulation time: 00 hr 23 min 42 sec)
Heartbeat CPU 0 instructions: 136000730 cycles: 155729506 heartbeat IPC: 0.5176 cumulative IPC: 0.6069 (Simulation time: 00 hr 23 min 49 sec)
Heartbeat CPU 0 instructions: 136500730 cycles: 156608376 heartbeat IPC: 0.5689 cumulative IPC: 0.6067 (Simulation time: 00 hr 23 min 57 sec)
Heartbeat CPU 0 instructions: 137000733 cycles: 157440433 heartbeat IPC: 0.6009 cumulative IPC: 0.6067 (Simulation time: 00 hr 24 min 04 sec)
Heartbeat CPU 0 instructions: 137500740 cycles: 158264330 heartbeat IPC: 0.6069 cumulative IPC: 0.6067 (Simulation time: 00 hr 24 min 12 sec)
Heartbeat CPU 0 instructions: 138000745 cycles: 158937470 heartbeat IPC: 0.7428 cumulative IPC: 0.6073 (Simulation time: 00 hr 24 min 18 sec)
Heartbeat CPU 0 instructions: 138500745 cycles: 159276294 heartbeat IPC: 1.476 cumulative IPC: 0.6093 (Simulation time: 00 hr 24 min 21 sec)
Heartbeat CPU 0 instructions: 139000746 cycles: 159583023 heartbeat IPC: 1.63 cumulative IPC: 0.6115 (Simulation time: 00 hr 24 min 24 sec)
Heartbeat CPU 0 instructions: 139500750 cycles: 159934288 heartbeat IPC: 1.423 cumulative IPC: 0.6134 (Simulation time: 00 hr 24 min 28 sec)
Heartbeat CPU 0 instructions: 140000750 cycles: 160673624 heartbeat IPC: 0.6763 cumulative IPC: 0.6138 (Simulation time: 00 hr 24 min 34 sec)
Heartbeat CPU 0 instructions: 140500753 cycles: 161291698 heartbeat IPC: 0.809 cumulative IPC: 0.6146 (Simulation time: 00 hr 24 min 40 sec)
Heartbeat CPU 0 instructions: 141000753 cycles: 162222366 heartbeat IPC: 0.5372 cumulative IPC: 0.6141 (Simulation time: 00 hr 24 min 48 sec)
Heartbeat CPU 0 instructions: 141500754 cycles: 163356849 heartbeat IPC: 0.4407 cumulative IPC: 0.6128 (Simulation time: 00 hr 24 min 58 sec)
Heartbeat CPU 0 instructions: 142000754 cycles: 164470643 heartbeat IPC: 0.4489 cumulative IPC: 0.6116 (Simulation time: 00 hr 25 min 08 sec)
Heartbeat CPU 0 instructions: 142500755 cycles: 164826071 heartbeat IPC: 1.407 cumulative IPC: 0.6134 (Simulation time: 00 hr 25 min 11 sec)
Heartbeat CPU 0 instructions: 143000759 cycles: 166784021 heartbeat IPC: 0.2554 cumulative IPC: 0.6088 (Simulation time: 00 hr 25 min 23 sec)
Heartbeat CPU 0 instructions: 143500759 cycles: 168061346 heartbeat IPC: 0.3914 cumulative IPC: 0.607 (Simulation time: 00 hr 25 min 31 sec)
Heartbeat CPU 0 instructions: 144000760 cycles: 168914632 heartbeat IPC: 0.586 cumulative IPC: 0.6069 (Simulation time: 00 hr 25 min 37 sec)
Heartbeat CPU 0 instructions: 144500760 cycles: 169722361 heartbeat IPC: 0.619 cumulative IPC: 0.607 (Simulation time: 00 hr 25 min 42 sec)
Heartbeat CPU 0 instructions: 145000761 cycles: 169968756 heartbeat IPC: 2.029 cumulative IPC: 0.6092 (Simulation time: 00 hr 25 min 45 sec)
Heartbeat CPU 0 instructions: 145500768 cycles: 170371949 heartbeat IPC: 1.24 cumulative IPC: 0.6109 (Simulation time: 00 hr 25 min 48 sec)
Heartbeat CPU 0 instructions: 146000772 cycles: 170753194 heartbeat IPC: 1.312 cumulative IPC: 0.6126 (Simulation time: 00 hr 25 min 51 sec)
Heartbeat CPU 0 instructions: 146500775 cycles: 172237877 heartbeat IPC: 0.3368 cumulative IPC: 0.61 (Simulation time: 00 hr 26 min 00 sec)
Heartbeat CPU 0 instructions: 147000776 cycles: 173105648 heartbeat IPC: 0.5762 cumulative IPC: 0.6098 (Simulation time: 00 hr 26 min 06 sec)
Heartbeat CPU 0 instructions: 147500781 cycles: 174271065 heartbeat IPC: 0.429 cumulative IPC: 0.6085 (Simulation time: 00 hr 26 min 14 sec)
Heartbeat CPU 0 instructions: 148000781 cycles: 175570933 heartbeat IPC: 0.3847 cumulative IPC: 0.6067 (Simulation time: 00 hr 26 min 22 sec)
Heartbeat CPU 0 instructions: 148500781 cycles: 176877168 heartbeat IPC: 0.3828 cumulative IPC: 0.6049 (Simulation time: 00 hr 26 min 30 sec)
Heartbeat CPU 0 instructions: 149000783 cycles: 177950832 heartbeat IPC: 0.4657 cumulative IPC: 0.604 (Simulation time: 00 hr 26 min 37 sec)
Heartbeat CPU 0 instructions: 149500784 cycles: 179125245 heartbeat IPC: 0.4257 cumulative IPC: 0.6027 (Simulation time: 00 hr 26 min 45 sec)
Heartbeat CPU 0 instructions: 150000784 cycles: 179649092 heartbeat IPC: 0.9545 cumulative IPC: 0.6038 (Simulation time: 00 hr 26 min 50 sec)
Heartbeat CPU 0 instructions: 150500786 cycles: 181280432 heartbeat IPC: 0.3065 cumulative IPC: 0.6009 (Simulation time: 00 hr 27 min 00 sec)
Heartbeat CPU 0 instructions: 151000786 cycles: 182305318 heartbeat IPC: 0.4879 cumulative IPC: 0.6002 (Simulation time: 00 hr 27 min 07 sec)
Heartbeat CPU 0 instructions: 151500788 cycles: 183882217 heartbeat IPC: 0.3171 cumulative IPC: 0.5976 (Simulation time: 00 hr 27 min 16 sec)
Heartbeat CPU 0 instructions: 152000790 cycles: 184665163 heartbeat IPC: 0.6386 cumulative IPC: 0.5978 (Simulation time: 00 hr 27 min 22 sec)
Heartbeat CPU 0 instructions: 152500791 cycles: 185802648 heartbeat IPC: 0.4396 cumulative IPC: 0.5967 (Simulation time: 00 hr 27 min 29 sec)
Heartbeat CPU 0 instructions: 153000795 cycles: 186931902 heartbeat IPC: 0.4428 cumulative IPC: 0.5957 (Simulation time: 00 hr 27 min 36 sec)
Heartbeat CPU 0 instructions: 153500797 cycles: 187981774 heartbeat IPC: 0.4763 cumulative IPC: 0.595 (Simulation time: 00 hr 27 min 43 sec)
Heartbeat CPU 0 instructions: 154000800 cycles: 188716168 heartbeat IPC: 0.6808 cumulative IPC: 0.5954 (Simulation time: 00 hr 27 min 48 sec)
Heartbeat CPU 0 instructions: 154500805 cycles: 189900001 heartbeat IPC: 0.4224 cumulative IPC: 0.5942 (Simulation time: 00 hr 27 min 55 sec)
Heartbeat CPU 0 instructions: 155000805 cycles: 191287020 heartbeat IPC: 0.3605 cumulative IPC: 0.5924 (Simulation time: 00 hr 28 min 04 sec)
Heartbeat CPU 0 instructions: 155500806 cycles: 192394314 heartbeat IPC: 0.4516 cumulative IPC: 0.5915 (Simulation time: 00 hr 28 min 11 sec)
Heartbeat CPU 0 instructions: 156000811 cycles: 193414668 heartbeat IPC: 0.49 cumulative IPC: 0.5909 (Simulation time: 00 hr 28 min 17 sec)
Heartbeat CPU 0 instructions: 156500811 cycles: 194369178 heartbeat IPC: 0.5238 cumulative IPC: 0.5906 (Simulation time: 00 hr 28 min 23 sec)
Heartbeat CPU 0 instructions: 157000811 cycles: 194580428 heartbeat IPC: 2.367 cumulative IPC: 0.5927 (Simulation time: 00 hr 28 min 26 sec)
Heartbeat CPU 0 instructions: 157500814 cycles: 194955632 heartbeat IPC: 1.333 cumulative IPC: 0.5942 (Simulation time: 00 hr 28 min 28 sec)
Heartbeat CPU 0 instructions: 158000814 cycles: 196257307 heartbeat IPC: 0.3841 cumulative IPC: 0.5927 (Simulation time: 00 hr 28 min 38 sec)
Heartbeat CPU 0 instructions: 158500815 cycles: 197037690 heartbeat IPC: 0.6407 cumulative IPC: 0.5929 (Simulation time: 00 hr 28 min 44 sec)
Heartbeat CPU 0 instructions: 159000822 cycles: 198735600 heartbeat IPC: 0.2945 cumulative IPC: 0.5901 (Simulation time: 00 hr 28 min 54 sec)
Heartbeat CPU 0 instructions: 159500828 cycles: 199956986 heartbeat IPC: 0.4094 cumulative IPC: 0.589 (Simulation time: 00 hr 29 min 02 sec)
Heartbeat CPU 0 instructions: 160000828 cycles: 200877126 heartbeat IPC: 0.5434 cumulative IPC: 0.5887 (Simulation time: 00 hr 29 min 08 sec)
Heartbeat CPU 0 instructions: 160500828 cycles: 202365045 heartbeat IPC: 0.336 cumulative IPC: 0.5867 (Simulation time: 00 hr 29 min 17 sec)
Heartbeat CPU 0 instructions: 161000829 cycles: 203634554 heartbeat IPC: 0.3939 cumulative IPC: 0.5854 (Simulation time: 00 hr 29 min 25 sec)
Heartbeat CPU 0 instructions: 161500829 cycles: 205589338 heartbeat IPC: 0.2558 cumulative IPC: 0.5821 (Simulation time: 00 hr 29 min 38 sec)
Heartbeat CPU 0 instructions: 162000833 cycles: 207031284 heartbeat IPC: 0.3468 cumulative IPC: 0.5803 (Simulation time: 00 hr 29 min 46 sec)
Heartbeat CPU 0 instructions: 162500835 cycles: 208336288 heartbeat IPC: 0.3831 cumulative IPC: 0.579 (Simulation time: 00 hr 29 min 54 sec)
Heartbeat CPU 0 instructions: 163000835 cycles: 209112158 heartbeat IPC: 0.6444 cumulative IPC: 0.5793 (Simulation time: 00 hr 29 min 59 sec)
Heartbeat CPU 0 instructions: 163500835 cycles: 210054803 heartbeat IPC: 0.5304 cumulative IPC: 0.579 (Simulation time: 00 hr 30 min 05 sec)
Heartbeat CPU 0 instructions: 164000840 cycles: 211020959 heartbeat IPC: 0.5175 cumulative IPC: 0.5787 (Simulation time: 00 hr 30 min 11 sec)
Heartbeat CPU 0 instructions: 164500842 cycles: 212230384 heartbeat IPC: 0.4134 cumulative IPC: 0.5777 (Simulation time: 00 hr 30 min 19 sec)
Heartbeat CPU 0 instructions: 165000844 cycles: 213336071 heartbeat IPC: 0.4522 cumulative IPC: 0.577 (Simulation time: 00 hr 30 min 25 sec)
Heartbeat CPU 0 instructions: 165500847 cycles: 214301616 heartbeat IPC: 0.5178 cumulative IPC: 0.5767 (Simulation time: 00 hr 30 min 32 sec)
Heartbeat CPU 0 instructions: 166000847 cycles: 214568670 heartbeat IPC: 1.872 cumulative IPC: 0.5785 (Simulation time: 00 hr 30 min 34 sec)
Heartbeat CPU 0 instructions: 166500853 cycles: 216058668 heartbeat IPC: 0.3356 cumulative IPC: 0.5767 (Simulation time: 00 hr 30 min 42 sec)
Heartbeat CPU 0 instructions: 167000854 cycles: 216795342 heartbeat IPC: 0.6787 cumulative IPC: 0.577 (Simulation time: 00 hr 30 min 47 sec)
Heartbeat CPU 0 instructions: 167500856 cycles: 217570295 heartbeat IPC: 0.6452 cumulative IPC: 0.5773 (Simulation time: 00 hr 30 min 52 sec)
Heartbeat CPU 0 instructions: 168000857 cycles: 218500843 heartbeat IPC: 0.5373 cumulative IPC: 0.5771 (Simulation time: 00 hr 30 min 58 sec)
Heartbeat CPU 0 instructions: 168500861 cycles: 219924051 heartbeat IPC: 0.3513 cumulative IPC: 0.5756 (Simulation time: 00 hr 31 min 07 sec)
Heartbeat CPU 0 instructions: 169000864 cycles: 220708870 heartbeat IPC: 0.6371 cumulative IPC: 0.5758 (Simulation time: 00 hr 31 min 12 sec)
Heartbeat CPU 0 instructions: 169500866 cycles: 222165126 heartbeat IPC: 0.3433 cumulative IPC: 0.5742 (Simulation time: 00 hr 31 min 21 sec)
Heartbeat CPU 0 instructions: 170000869 cycles: 223177106 heartbeat IPC: 0.4941 cumulative IPC: 0.5738 (Simulation time: 00 hr 31 min 27 sec)
Heartbeat CPU 0 instructions: 170500869 cycles: 224163820 heartbeat IPC: 0.5067 cumulative IPC: 0.5735 (Simulation time: 00 hr 31 min 33 sec)
Heartbeat CPU 0 instructions: 171000876 cycles: 225250320 heartbeat IPC: 0.4602 cumulative IPC: 0.5729 (Simulation time: 00 hr 31 min 40 sec)
Heartbeat CPU 0 instructions: 171500877 cycles: 226396633 heartbeat IPC: 0.4362 cumulative IPC: 0.5721 (Simulation time: 00 hr 31 min 47 sec)
Heartbeat CPU 0 instructions: 172000877 cycles: 227770668 heartbeat IPC: 0.3639 cumulative IPC: 0.5708 (Simulation time: 00 hr 31 min 55 sec)
Heartbeat CPU 0 instructions: 172500880 cycles: 228717009 heartbeat IPC: 0.5284 cumulative IPC: 0.5706 (Simulation time: 00 hr 32 min 01 sec)
Heartbeat CPU 0 instructions: 173000884 cycles: 229100322 heartbeat IPC: 1.304 cumulative IPC: 0.5719 (Simulation time: 00 hr 32 min 04 sec)
Heartbeat CPU 0 instructions: 173500886 cycles: 229580483 heartbeat IPC: 1.041 cumulative IPC: 0.573 (Simulation time: 00 hr 32 min 07 sec)
Heartbeat CPU 0 instructions: 174000889 cycles: 230821699 heartbeat IPC: 0.4028 cumulative IPC: 0.572 (Simulation time: 00 hr 32 min 15 sec)
Heartbeat CPU 0 instructions: 174500890 cycles: 231812854 heartbeat IPC: 0.5045 cumulative IPC: 0.5717 (Simulation time: 00 hr 32 min 21 sec)
Heartbeat CPU 0 instructions: 175000890 cycles: 232798245 heartbeat IPC: 0.5074 cumulative IPC: 0.5714 (Simulation time: 00 hr 32 min 27 sec)
Heartbeat CPU 0 instructions: 175500894 cycles: 233591334 heartbeat IPC: 0.6305 cumulative IPC: 0.5716 (Simulation time: 00 hr 32 min 32 sec)
Heartbeat CPU 0 instructions: 176000894 cycles: 234035534 heartbeat IPC: 1.126 cumulative IPC: 0.5727 (Simulation time: 00 hr 32 min 35 sec)
Heartbeat CPU 0 instructions: 176500895 cycles: 235369901 heartbeat IPC: 0.3747 cumulative IPC: 0.5715 (Simulation time: 00 hr 32 min 43 sec)
Heartbeat CPU 0 instructions: 177000895 cycles: 236493577 heartbeat IPC: 0.445 cumulative IPC: 0.5709 (Simulation time: 00 hr 32 min 49 sec)
Heartbeat CPU 0 instructions: 177500895 cycles: 237597057 heartbeat IPC: 0.4531 cumulative IPC: 0.5703 (Simulation time: 00 hr 32 min 56 sec)
Heartbeat CPU 0 instructions: 178000895 cycles: 238263739 heartbeat IPC: 0.75 cumulative IPC: 0.5708 (Simulation time: 00 hr 33 min 00 sec)
Heartbeat CPU 0 instructions: 178500899 cycles: 239063475 heartbeat IPC: 0.6252 cumulative IPC: 0.571 (Simulation time: 00 hr 33 min 05 sec)
Heartbeat CPU 0 instructions: 179000903 cycles: 239479581 heartbeat IPC: 1.202 cumulative IPC: 0.5722 (Simulation time: 00 hr 33 min 08 sec)
Heartbeat CPU 0 instructions: 179500904 cycles: 240875142 heartbeat IPC: 0.3583 cumulative IPC: 0.5709 (Simulation time: 00 hr 33 min 16 sec)
Heartbeat CPU 0 instructions: 180000904 cycles: 242468760 heartbeat IPC: 0.3138 cumulative IPC: 0.5691 (Simulation time: 00 hr 33 min 25 sec)
Heartbeat CPU 0 instructions: 180500905 cycles: 243384102 heartbeat IPC: 0.5462 cumulative IPC: 0.569 (Simulation time: 00 hr 33 min 31 sec)
Heartbeat CPU 0 instructions: 181000905 cycles: 244125328 heartbeat IPC: 0.6746 cumulative IPC: 0.5693 (Simulation time: 00 hr 33 min 36 sec)
Heartbeat CPU 0 instructions: 181500906 cycles: 244785912 heartbeat IPC: 0.7569 cumulative IPC: 0.5699 (Simulation time: 00 hr 33 min 40 sec)
Heartbeat CPU 0 instructions: 182000911 cycles: 246011302 heartbeat IPC: 0.408 cumulative IPC: 0.569 (Simulation time: 00 hr 33 min 48 sec)
Heartbeat CPU 0 instructions: 182500915 cycles: 247411608 heartbeat IPC: 0.3571 cumulative IPC: 0.5678 (Simulation time: 00 hr 33 min 56 sec)
Heartbeat CPU 0 instructions: 183000916 cycles: 248231471 heartbeat IPC: 0.6099 cumulative IPC: 0.5679 (Simulation time: 00 hr 34 min 01 sec)
Heartbeat CPU 0 instructions: 183500920 cycles: 248831175 heartbeat IPC: 0.8338 cumulative IPC: 0.5686 (Simulation time: 00 hr 34 min 05 sec)
Heartbeat CPU 0 instructions: 184000920 cycles: 249674123 heartbeat IPC: 0.5932 cumulative IPC: 0.5687 (Simulation time: 00 hr 34 min 11 sec)
Heartbeat CPU 0 instructions: 184500920 cycles: 250429736 heartbeat IPC: 0.6617 cumulative IPC: 0.569 (Simulation time: 00 hr 34 min 16 sec)
Heartbeat CPU 0 instructions: 185000920 cycles: 251049892 heartbeat IPC: 0.8062 cumulative IPC: 0.5696 (Simulation time: 00 hr 34 min 20 sec)
Heartbeat CPU 0 instructions: 185500921 cycles: 252015392 heartbeat IPC: 0.5179 cumulative IPC: 0.5694 (Simulation time: 00 hr 34 min 26 sec)
Heartbeat CPU 0 instructions: 186000921 cycles: 252785520 heartbeat IPC: 0.6492 cumulative IPC: 0.5696 (Simulation time: 00 hr 34 min 31 sec)
Heartbeat CPU 0 instructions: 186500921 cycles: 253855983 heartbeat IPC: 0.4671 cumulative IPC: 0.5692 (Simulation time: 00 hr 34 min 37 sec)
Heartbeat CPU 0 instructions: 187000923 cycles: 254829076 heartbeat IPC: 0.5138 cumulative IPC: 0.569 (Simulation time: 00 hr 34 min 43 sec)
Heartbeat CPU 0 instructions: 187500929 cycles: 256530644 heartbeat IPC: 0.2939 cumulative IPC: 0.567 (Simulation time: 00 hr 34 min 53 sec)
Heartbeat CPU 0 instructions: 188000930 cycles: 257954424 heartbeat IPC: 0.3512 cumulative IPC: 0.5658 (Simulation time: 00 hr 35 min 01 sec)
Heartbeat CPU 0 instructions: 188500930 cycles: 258952146 heartbeat IPC: 0.5011 cumulative IPC: 0.5655 (Simulation time: 00 hr 35 min 07 sec)
Heartbeat CPU 0 instructions: 189000937 cycles: 260001225 heartbeat IPC: 0.4766 cumulative IPC: 0.5651 (Simulation time: 00 hr 35 min 13 sec)
Heartbeat CPU 0 instructions: 189500944 cycles: 261140378 heartbeat IPC: 0.4389 cumulative IPC: 0.5645 (Simulation time: 00 hr 35 min 20 sec)
Heartbeat CPU 0 instructions: 190000949 cycles: 262092872 heartbeat IPC: 0.5249 cumulative IPC: 0.5644 (Simulation time: 00 hr 35 min 26 sec)
Heartbeat CPU 0 instructions: 190500950 cycles: 263983572 heartbeat IPC: 0.2645 cumulative IPC: 0.5621 (Simulation time: 00 hr 35 min 36 sec)
Heartbeat CPU 0 instructions: 191000950 cycles: 265143751 heartbeat IPC: 0.431 cumulative IPC: 0.5615 (Simulation time: 00 hr 35 min 43 sec)
Heartbeat CPU 0 instructions: 191500951 cycles: 266845472 heartbeat IPC: 0.2938 cumulative IPC: 0.5597 (Simulation time: 00 hr 35 min 52 sec)
Heartbeat CPU 0 instructions: 192000952 cycles: 267734143 heartbeat IPC: 0.5626 cumulative IPC: 0.5597 (Simulation time: 00 hr 35 min 58 sec)
Heartbeat CPU 0 instructions: 192500954 cycles: 268682156 heartbeat IPC: 0.5274 cumulative IPC: 0.5596 (Simulation time: 00 hr 36 min 03 sec)
Heartbeat CPU 0 instructions: 193000955 cycles: 269932612 heartbeat IPC: 0.3999 cumulative IPC: 0.5588 (Simulation time: 00 hr 36 min 11 sec)
Heartbeat CPU 0 instructions: 193500958 cycles: 271007846 heartbeat IPC: 0.465 cumulative IPC: 0.5584 (Simulation time: 00 hr 36 min 17 sec)
Heartbeat CPU 0 instructions: 194000962 cycles: 272256323 heartbeat IPC: 0.4005 cumulative IPC: 0.5577 (Simulation time: 00 hr 36 min 24 sec)
Heartbeat CPU 0 instructions: 194500967 cycles: 273460293 heartbeat IPC: 0.4153 cumulative IPC: 0.557 (Simulation time: 00 hr 36 min 31 sec)
Heartbeat CPU 0 instructions: 195000967 cycles: 274397122 heartbeat IPC: 0.5337 cumulative IPC: 0.5569 (Simulation time: 00 hr 36 min 37 sec)
Heartbeat CPU 0 instructions: 195500967 cycles: 275024940 heartbeat IPC: 0.7964 cumulative IPC: 0.5575 (Simulation time: 00 hr 36 min 41 sec)
Heartbeat CPU 0 instructions: 196000970 cycles: 276110893 heartbeat IPC: 0.4604 cumulative IPC: 0.5571 (Simulation time: 00 hr 36 min 48 sec)
Heartbeat CPU 0 instructions: 196500970 cycles: 277659719 heartbeat IPC: 0.3228 cumulative IPC: 0.5557 (Simulation time: 00 hr 36 min 57 sec)
Heartbeat CPU 0 instructions: 197000970 cycles: 278379666 heartbeat IPC: 0.6945 cumulative IPC: 0.5561 (Simulation time: 00 hr 37 min 02 sec)
Heartbeat CPU 0 instructions: 197500970 cycles: 278727188 heartbeat IPC: 1.439 cumulative IPC: 0.5573 (Simulation time: 00 hr 37 min 05 sec)
Heartbeat CPU 0 instructions: 198000972 cycles: 278951442 heartbeat IPC: 2.23 cumulative IPC: 0.5587 (Simulation time: 00 hr 37 min 08 sec)
Heartbeat CPU 0 instructions: 198500973 cycles: 280561555 heartbeat IPC: 0.3105 cumulative IPC: 0.5572 (Simulation time: 00 hr 37 min 16 sec)
Heartbeat CPU 0 instructions: 199000975 cycles: 281271988 heartbeat IPC: 0.7038 cumulative IPC: 0.5576 (Simulation time: 00 hr 37 min 21 sec)
Heartbeat CPU 0 instructions: 199500975 cycles: 281864781 heartbeat IPC: 0.8435 cumulative IPC: 0.5582 (Simulation time: 00 hr 37 min 25 sec)
Heartbeat CPU 0 instructions: 200000980 cycles: 282889153 heartbeat IPC: 0.4881 cumulative IPC: 0.5579 (Simulation time: 00 hr 37 min 31 sec)
Heartbeat CPU 0 instructions: 200500980 cycles: 284858835 heartbeat IPC: 0.2538 cumulative IPC: 0.5557 (Simulation time: 00 hr 37 min 42 sec)
Heartbeat CPU 0 instructions: 201000983 cycles: 285669130 heartbeat IPC: 0.6171 cumulative IPC: 0.5559 (Simulation time: 00 hr 37 min 47 sec)
Heartbeat CPU 0 instructions: 201500987 cycles: 285882850 heartbeat IPC: 2.34 cumulative IPC: 0.5573 (Simulation time: 00 hr 37 min 49 sec)
Heartbeat CPU 0 instructions: 202000987 cycles: 286263387 heartbeat IPC: 1.314 cumulative IPC: 0.5584 (Simulation time: 00 hr 37 min 52 sec)
Heartbeat CPU 0 instructions: 202500993 cycles: 287165825 heartbeat IPC: 0.5541 cumulative IPC: 0.5583 (Simulation time: 00 hr 37 min 57 sec)
Heartbeat CPU 0 instructions: 203000995 cycles: 288288341 heartbeat IPC: 0.4454 cumulative IPC: 0.5579 (Simulation time: 00 hr 38 min 04 sec)
Heartbeat CPU 0 instructions: 203500998 cycles: 289123067 heartbeat IPC: 0.599 cumulative IPC: 0.558 (Simulation time: 00 hr 38 min 09 sec)
Heartbeat CPU 0 instructions: 204000999 cycles: 290057834 heartbeat IPC: 0.5349 cumulative IPC: 0.5579 (Simulation time: 00 hr 38 min 15 sec)
Heartbeat CPU 0 instructions: 204501000 cycles: 291047326 heartbeat IPC: 0.5053 cumulative IPC: 0.5577 (Simulation time: 00 hr 38 min 21 sec)
Heartbeat CPU 0 instructions: 205001000 cycles: 292040707 heartbeat IPC: 0.5033 cumulative IPC: 0.5575 (Simulation time: 00 hr 38 min 27 sec)
Heartbeat CPU 0 instructions: 205501001 cycles: 292875810 heartbeat IPC: 0.5987 cumulative IPC: 0.5577 (Simulation time: 00 hr 38 min 32 sec)
Heartbeat CPU 0 instructions: 206001001 cycles: 293742693 heartbeat IPC: 0.5768 cumulative IPC: 0.5577 (Simulation time: 00 hr 38 min 38 sec)
Heartbeat CPU 0 instructions: 206501003 cycles: 294555861 heartbeat IPC: 0.6149 cumulative IPC: 0.5579 (Simulation time: 00 hr 38 min 43 sec)
Heartbeat CPU 0 instructions: 207001004 cycles: 295474598 heartbeat IPC: 0.5442 cumulative IPC: 0.5578 (Simulation time: 00 hr 38 min 48 sec)
Heartbeat CPU 0 instructions: 207501005 cycles: 296295111 heartbeat IPC: 0.6094 cumulative IPC: 0.558 (Simulation time: 00 hr 38 min 53 sec)
Heartbeat CPU 0 instructions: 208001012 cycles: 297169091 heartbeat IPC: 0.5721 cumulative IPC: 0.558 (Simulation time: 00 hr 38 min 59 sec)
Heartbeat CPU 0 instructions: 208501012 cycles: 298135224 heartbeat IPC: 0.5175 cumulative IPC: 0.5579 (Simulation time: 00 hr 39 min 05 sec)
Heartbeat CPU 0 instructions: 209001015 cycles: 299048849 heartbeat IPC: 0.5473 cumulative IPC: 0.5579 (Simulation time: 00 hr 39 min 10 sec)
Heartbeat CPU 0 instructions: 209501016 cycles: 299884847 heartbeat IPC: 0.5981 cumulative IPC: 0.558 (Simulation time: 00 hr 39 min 15 sec)
Heartbeat CPU 0 instructions: 210001018 cycles: 301581626 heartbeat IPC: 0.2947 cumulative IPC: 0.5564 (Simulation time: 00 hr 39 min 25 sec)
Heartbeat CPU 0 instructions: 210501019 cycles: 302732907 heartbeat IPC: 0.4343 cumulative IPC: 0.5559 (Simulation time: 00 hr 39 min 32 sec)
Heartbeat CPU 0 instructions: 211001025 cycles: 303465851 heartbeat IPC: 0.6822 cumulative IPC: 0.5563 (Simulation time: 00 hr 39 min 37 sec)
Heartbeat CPU 0 instructions: 211501025 cycles: 304332969 heartbeat IPC: 0.5766 cumulative IPC: 0.5563 (Simulation time: 00 hr 39 min 42 sec)
Heartbeat CPU 0 instructions: 212001032 cycles: 305435792 heartbeat IPC: 0.4534 cumulative IPC: 0.5559 (Simulation time: 00 hr 39 min 48 sec)
Heartbeat CPU 0 instructions: 212501032 cycles: 305654556 heartbeat IPC: 2.286 cumulative IPC: 0.5572 (Simulation time: 00 hr 39 min 51 sec)
Heartbeat CPU 0 instructions: 213001035 cycles: 305870775 heartbeat IPC: 2.312 cumulative IPC: 0.5585 (Simulation time: 00 hr 39 min 54 sec)
Heartbeat CPU 0 instructions: 213501039 cycles: 306347858 heartbeat IPC: 1.048 cumulative IPC: 0.5593 (Simulation time: 00 hr 39 min 58 sec)
Heartbeat CPU 0 instructions: 214001042 cycles: 306712405 heartbeat IPC: 1.372 cumulative IPC: 0.5603 (Simulation time: 00 hr 40 min 03 sec)
Heartbeat CPU 0 instructions: 214501044 cycles: 307083479 heartbeat IPC: 1.347 cumulative IPC: 0.5613 (Simulation time: 00 hr 40 min 07 sec)
Heartbeat CPU 0 instructions: 215001044 cycles: 307438000 heartbeat IPC: 1.41 cumulative IPC: 0.5624 (Simulation time: 00 hr 40 min 11 sec)
Heartbeat CPU 0 instructions: 215501046 cycles: 307761580 heartbeat IPC: 1.545 cumulative IPC: 0.5635 (Simulation time: 00 hr 40 min 15 sec)
Heartbeat CPU 0 instructions: 216001051 cycles: 308116178 heartbeat IPC: 1.41 cumulative IPC: 0.5645 (Simulation time: 00 hr 40 min 19 sec)
Heartbeat CPU 0 instructions: 216501053 cycles: 308473228 heartbeat IPC: 1.4 cumulative IPC: 0.5655 (Simulation time: 00 hr 40 min 23 sec)
Heartbeat CPU 0 instructions: 217001053 cycles: 308830290 heartbeat IPC: 1.4 cumulative IPC: 0.5665 (Simulation time: 00 hr 40 min 27 sec)
Heartbeat CPU 0 instructions: 217501057 cycles: 309196691 heartbeat IPC: 1.365 cumulative IPC: 0.5675 (Simulation time: 00 hr 40 min 31 sec)
Heartbeat CPU 0 instructions: 218001059 cycles: 309545310 heartbeat IPC: 1.434 cumulative IPC: 0.5685 (Simulation time: 00 hr 40 min 35 sec)
Heartbeat CPU 0 instructions: 218501061 cycles: 309888404 heartbeat IPC: 1.457 cumulative IPC: 0.5695 (Simulation time: 00 hr 40 min 39 sec)
Heartbeat CPU 0 instructions: 219001064 cycles: 310249521 heartbeat IPC: 1.385 cumulative IPC: 0.5705 (Simulation time: 00 hr 40 min 43 sec)
Heartbeat CPU 0 instructions: 219501070 cycles: 310613350 heartbeat IPC: 1.374 cumulative IPC: 0.5715 (Simulation time: 00 hr 40 min 48 sec)
Heartbeat CPU 0 instructions: 220001070 cycles: 312183326 heartbeat IPC: 0.3185 cumulative IPC: 0.5702 (Simulation time: 00 hr 40 min 58 sec)
Heartbeat CPU 0 instructions: 220501072 cycles: 313258713 heartbeat IPC: 0.465 cumulative IPC: 0.5698 (Simulation time: 00 hr 41 min 04 sec)
Heartbeat CPU 0 instructions: 221001072 cycles: 314231396 heartbeat IPC: 0.514 cumulative IPC: 0.5696 (Simulation time: 00 hr 41 min 10 sec)
Heartbeat CPU 0 instructions: 221501073 cycles: 315211833 heartbeat IPC: 0.51 cumulative IPC: 0.5694 (Simulation time: 00 hr 41 min 16 sec)
Heartbeat CPU 0 instructions: 222001073 cycles: 316255114 heartbeat IPC: 0.4793 cumulative IPC: 0.5691 (Simulation time: 00 hr 41 min 23 sec)
Heartbeat CPU 0 instructions: 222501078 cycles: 317198880 heartbeat IPC: 0.5298 cumulative IPC: 0.569 (Simulation time: 00 hr 41 min 29 sec)
Heartbeat CPU 0 instructions: 223001079 cycles: 318190421 heartbeat IPC: 0.5043 cumulative IPC: 0.5688 (Simulation time: 00 hr 41 min 35 sec)
Heartbeat CPU 0 instructions: 223501079 cycles: 319023739 heartbeat IPC: 0.6 cumulative IPC: 0.5689 (Simulation time: 00 hr 41 min 40 sec)
Heartbeat CPU 0 instructions: 224001079 cycles: 320667135 heartbeat IPC: 0.3042 cumulative IPC: 0.5675 (Simulation time: 00 hr 41 min 50 sec)
Heartbeat CPU 0 instructions: 224501083 cycles: 322291237 heartbeat IPC: 0.3079 cumulative IPC: 0.5661 (Simulation time: 00 hr 41 min 59 sec)
Heartbeat CPU 0 instructions: 225001084 cycles: 323186263 heartbeat IPC: 0.5586 cumulative IPC: 0.5661 (Simulation time: 00 hr 42 min 04 sec)
Heartbeat CPU 0 instructions: 225501084 cycles: 324188480 heartbeat IPC: 0.4989 cumulative IPC: 0.5659 (Simulation time: 00 hr 42 min 10 sec)
Heartbeat CPU 0 instructions: 226001085 cycles: 324994039 heartbeat IPC: 0.6207 cumulative IPC: 0.566 (Simulation time: 00 hr 42 min 15 sec)
Heartbeat CPU 0 instructions: 226501087 cycles: 326292032 heartbeat IPC: 0.3852 cumulative IPC: 0.5652 (Simulation time: 00 hr 42 min 22 sec)
Heartbeat CPU 0 instructions: 227001087 cycles: 327454647 heartbeat IPC: 0.4301 cumulative IPC: 0.5647 (Simulation time: 00 hr 42 min 29 sec)
Heartbeat CPU 0 instructions: 227501088 cycles: 328173233 heartbeat IPC: 0.6958 cumulative IPC: 0.565 (Simulation time: 00 hr 42 min 34 sec)
Heartbeat CPU 0 instructions: 228001088 cycles: 328922262 heartbeat IPC: 0.6675 cumulative IPC: 0.5653 (Simulation time: 00 hr 42 min 39 sec)
Heartbeat CPU 0 instructions: 228501091 cycles: 329901112 heartbeat IPC: 0.5108 cumulative IPC: 0.5651 (Simulation time: 00 hr 42 min 45 sec)
Heartbeat CPU 0 instructions: 229001092 cycles: 331019527 heartbeat IPC: 0.4471 cumulative IPC: 0.5647 (Simulation time: 00 hr 42 min 51 sec)
Heartbeat CPU 0 instructions: 229501094 cycles: 331519961 heartbeat IPC: 0.9991 cumulative IPC: 0.5654 (Simulation time: 00 hr 42 min 55 sec)
Heartbeat CPU 0 instructions: 230001094 cycles: 331887401 heartbeat IPC: 1.361 cumulative IPC: 0.5663 (Simulation time: 00 hr 42 min 58 sec)
Heartbeat CPU 0 instructions: 230501094 cycles: 332248708 heartbeat IPC: 1.384 cumulative IPC: 0.5672 (Simulation time: 00 hr 43 min 02 sec)
Heartbeat CPU 0 instructions: 231001096 cycles: 332633765 heartbeat IPC: 1.299 cumulative IPC: 0.5681 (Simulation time: 00 hr 43 min 05 sec)
Heartbeat CPU 0 instructions: 231501100 cycles: 333289901 heartbeat IPC: 0.762 cumulative IPC: 0.5685 (Simulation time: 00 hr 43 min 09 sec)
Heartbeat CPU 0 instructions: 232001100 cycles: 333656352 heartbeat IPC: 1.364 cumulative IPC: 0.5694 (Simulation time: 00 hr 43 min 12 sec)
Heartbeat CPU 0 instructions: 232501102 cycles: 333947524 heartbeat IPC: 1.717 cumulative IPC: 0.5705 (Simulation time: 00 hr 43 min 15 sec)
Heartbeat CPU 0 instructions: 233001109 cycles: 334889938 heartbeat IPC: 0.5306 cumulative IPC: 0.5704 (Simulation time: 00 hr 43 min 21 sec)
Heartbeat CPU 0 instructions: 233501112 cycles: 335859168 heartbeat IPC: 0.5159 cumulative IPC: 0.5702 (Simulation time: 00 hr 43 min 28 sec)
Heartbeat CPU 0 instructions: 234001112 cycles: 336472777 heartbeat IPC: 0.8149 cumulative IPC: 0.5707 (Simulation time: 00 hr 43 min 33 sec)
Heartbeat CPU 0 instructions: 234501113 cycles: 337323198 heartbeat IPC: 0.5879 cumulative IPC: 0.5707 (Simulation time: 00 hr 43 min 39 sec)
Heartbeat CPU 0 instructions: 235001114 cycles: 339229987 heartbeat IPC: 0.2622 cumulative IPC: 0.5689 (Simulation time: 00 hr 43 min 49 sec)
Heartbeat CPU 0 instructions: 235501117 cycles: 340682123 heartbeat IPC: 0.3443 cumulative IPC: 0.5679 (Simulation time: 00 hr 43 min 57 sec)
Heartbeat CPU 0 instructions: 236001117 cycles: 341522938 heartbeat IPC: 0.5947 cumulative IPC: 0.568 (Simulation time: 00 hr 44 min 03 sec)
Heartbeat CPU 0 instructions: 236501117 cycles: 342474679 heartbeat IPC: 0.5254 cumulative IPC: 0.5678 (Simulation time: 00 hr 44 min 08 sec)
Heartbeat CPU 0 instructions: 237001120 cycles: 343674704 heartbeat IPC: 0.4167 cumulative IPC: 0.5673 (Simulation time: 00 hr 44 min 15 sec)
Heartbeat CPU 0 instructions: 237501120 cycles: 344333498 heartbeat IPC: 0.759 cumulative IPC: 0.5677 (Simulation time: 00 hr 44 min 19 sec)
Heartbeat CPU 0 instructions: 238001122 cycles: 345482025 heartbeat IPC: 0.4353 cumulative IPC: 0.5672 (Simulation time: 00 hr 44 min 26 sec)
Heartbeat CPU 0 instructions: 238501124 cycles: 346749159 heartbeat IPC: 0.3946 cumulative IPC: 0.5666 (Simulation time: 00 hr 44 min 33 sec)
Heartbeat CPU 0 instructions: 239001127 cycles: 347273809 heartbeat IPC: 0.953 cumulative IPC: 0.5672 (Simulation time: 00 hr 44 min 37 sec)
Heartbeat CPU 0 instructions: 239501127 cycles: 348129480 heartbeat IPC: 0.5843 cumulative IPC: 0.5672 (Simulation time: 00 hr 44 min 43 sec)
Heartbeat CPU 0 instructions: 240001133 cycles: 348988852 heartbeat IPC: 0.5818 cumulative IPC: 0.5672 (Simulation time: 00 hr 44 min 48 sec)
Heartbeat CPU 0 instructions: 240501137 cycles: 349533904 heartbeat IPC: 0.9174 cumulative IPC: 0.5678 (Simulation time: 00 hr 44 min 52 sec)
Heartbeat CPU 0 instructions: 241001141 cycles: 350932767 heartbeat IPC: 0.3574 cumulative IPC: 0.5669 (Simulation time: 00 hr 45 min 00 sec)
Heartbeat CPU 0 instructions: 241501142 cycles: 351786557 heartbeat IPC: 0.5856 cumulative IPC: 0.567 (Simulation time: 00 hr 45 min 05 sec)
Heartbeat CPU 0 instructions: 242001142 cycles: 353101903 heartbeat IPC: 0.3801 cumulative IPC: 0.5663 (Simulation time: 00 hr 45 min 12 sec)
Heartbeat CPU 0 instructions: 242501142 cycles: 353973217 heartbeat IPC: 0.5738 cumulative IPC: 0.5663 (Simulation time: 00 hr 45 min 18 sec)
Heartbeat CPU 0 instructions: 243001142 cycles: 355367096 heartbeat IPC: 0.3587 cumulative IPC: 0.5654 (Simulation time: 00 hr 45 min 26 sec)
Heartbeat CPU 0 instructions: 243501144 cycles: 356448476 heartbeat IPC: 0.4624 cumulative IPC: 0.5651 (Simulation time: 00 hr 45 min 32 sec)
Heartbeat CPU 0 instructions: 244001149 cycles: 357060658 heartbeat IPC: 0.8168 cumulative IPC: 0.5656 (Simulation time: 00 hr 45 min 36 sec)
Heartbeat CPU 0 instructions: 244501149 cycles: 357855597 heartbeat IPC: 0.629 cumulative IPC: 0.5657 (Simulation time: 00 hr 45 min 41 sec)
Heartbeat CPU 0 instructions: 245001151 cycles: 359011086 heartbeat IPC: 0.4327 cumulative IPC: 0.5653 (Simulation time: 00 hr 45 min 48 sec)
Heartbeat CPU 0 instructions: 245501152 cycles: 360236441 heartbeat IPC: 0.408 cumulative IPC: 0.5647 (Simulation time: 00 hr 45 min 55 sec)
Heartbeat CPU 0 instructions: 246001153 cycles: 361238848 heartbeat IPC: 0.4988 cumulative IPC: 0.5645 (Simulation time: 00 hr 46 min 01 sec)
Heartbeat CPU 0 instructions: 246501156 cycles: 362689049 heartbeat IPC: 0.3448 cumulative IPC: 0.5636 (Simulation time: 00 hr 46 min 09 sec)
Heartbeat CPU 0 instructions: 247001158 cycles: 363595582 heartbeat IPC: 0.5516 cumulative IPC: 0.5636 (Simulation time: 00 hr 46 min 14 sec)
Heartbeat CPU 0 instructions: 247501158 cycles: 364224068 heartbeat IPC: 0.7956 cumulative IPC: 0.564 (Simulation time: 00 hr 46 min 18 sec)
Heartbeat CPU 0 instructions: 248001158 cycles: 365255103 heartbeat IPC: 0.4849 cumulative IPC: 0.5638 (Simulation time: 00 hr 46 min 25 sec)
Heartbeat CPU 0 instructions: 248501161 cycles: 367120659 heartbeat IPC: 0.268 cumulative IPC: 0.5622 (Simulation time: 00 hr 46 min 35 sec)
Heartbeat CPU 0 instructions: 249001167 cycles: 368474530 heartbeat IPC: 0.3693 cumulative IPC: 0.5615 (Simulation time: 00 hr 46 min 42 sec)
Heartbeat CPU 0 instructions: 249501170 cycles: 369858623 heartbeat IPC: 0.3612 cumulative IPC: 0.5607 (Simulation time: 00 hr 46 min 51 sec)
Simulation finished CPU 0 instructions: 200000001 cycles: 357098306 cumulative IPC: 0.5601 (Simulation time: 00 hr 46 min 58 sec)
Simulation complete CPU 0 instructions: 200000001 cycles: 357098306 cumulative IPC: 0.5601 (Simulation time: 00 hr 46 min 58 sec)

ChampSim completed all CPUs

=== Simulation ===
CPU 0 runs /local-ssd/ben/dpc4-traces/gtraces_v2/tango_0000.champsim.gz

Region of Interest Statistics

CPU 0 cumulative IPC: 0.5601 instructions: 200000001 cycles: 357098306
CPU 0 Branch Prediction Accuracy: 89.45% MPKI: 19.5 Average ROB Occupancy at Mispredict: 21.83
Branch type MPKI
BRANCH_DIRECT_JUMP: 0.5813
BRANCH_INDIRECT: 0.3396
BRANCH_CONDITIONAL: 16.6
BRANCH_DIRECT_CALL: 0.8659
BRANCH_INDIRECT_CALL: 0.3326
BRANCH_RETURN: 0.7816

cpu0->cpu0_STLB TOTAL        ACCESS:    2459094 HIT:    1802770 MISS:     656324 MSHR_MERGE:          0
cpu0->cpu0_STLB LOAD         ACCESS:    2459094 HIT:    1802770 MISS:     656324 MSHR_MERGE:          0
cpu0->cpu0_STLB RFO          ACCESS:          0 HIT:          0 MISS:          0 MSHR_MERGE:          0
cpu0->cpu0_STLB PREFETCH     ACCESS:          0 HIT:          0 MISS:          0 MSHR_MERGE:          0
cpu0->cpu0_STLB WRITE        ACCESS:          0 HIT:          0 MISS:          0 MSHR_MERGE:          0
cpu0->cpu0_STLB TRANSLATION  ACCESS:          0 HIT:          0 MISS:          0 MSHR_MERGE:          0
cpu0->cpu0_STLB PREFETCH REQUESTED:          0 ISSUED:          0 USEFUL:          0 USELESS:          0
cpu0->cpu0_STLB AVERAGE MISS LATENCY: 121.9 cycles
cpu0->cpu0_L2C TOTAL        ACCESS:    8942440 HIT:    6215524 MISS:    2726916 MSHR_MERGE:      77686
cpu0->cpu0_L2C LOAD         ACCESS:    4552352 HIT:    3460488 MISS:    1091864 MSHR_MERGE:       6746
cpu0->cpu0_L2C RFO          ACCESS:     717585 HIT:     216188 MISS:     501397 MSHR_MERGE:        894
cpu0->cpu0_L2C PREFETCH     ACCESS:    1729664 HIT:     836751 MISS:     892913 MSHR_MERGE:      70046
cpu0->cpu0_L2C WRITE        ACCESS:    1218545 HIT:    1218525 MISS:         20 MSHR_MERGE:          0
cpu0->cpu0_L2C TRANSLATION  ACCESS:     724294 HIT:     483572 MISS:     240722 MSHR_MERGE:          0
cpu0->cpu0_L2C PREFETCH REQUESTED:     834557 ISSUED:     833826 USEFUL:     143879 USELESS:     257167
cpu0->cpu0_L2C AVERAGE MISS LATENCY: 204.9 cycles
cpu0->cpu0_L1I TOTAL        ACCESS:   17259745 HIT:   13513867 MISS:    3745878 MSHR_MERGE:     826413
cpu0->cpu0_L1I LOAD         ACCESS:   17259745 HIT:   13513867 MISS:    3745878 MSHR_MERGE:     826413
cpu0->cpu0_L1I RFO          ACCESS:          0 HIT:          0 MISS:          0 MSHR_MERGE:          0
cpu0->cpu0_L1I PREFETCH     ACCESS:          0 HIT:          0 MISS:          0 MSHR_MERGE:          0
cpu0->cpu0_L1I WRITE        ACCESS:          0 HIT:          0 MISS:          0 MSHR_MERGE:          0
cpu0->cpu0_L1I TRANSLATION  ACCESS:          0 HIT:          0 MISS:          0 MSHR_MERGE:          0
cpu0->cpu0_L1I PREFETCH REQUESTED:          0 ISSUED:          0 USEFUL:          0 USELESS:          0
cpu0->cpu0_L1I AVERAGE MISS LATENCY: 38.99 cycles
cpu0->cpu0_L1D TOTAL        ACCESS:   62148298 HIT:   55304243 MISS:    6844055 MSHR_MERGE:    2873419
cpu0->cpu0_L1D LOAD         ACCESS:   32285765 HIT:   30049928 MISS:    2235837 MSHR_MERGE:     602937
cpu0->cpu0_L1D RFO          ACCESS:          0 HIT:          0 MISS:          0 MSHR_MERGE:          0
cpu0->cpu0_L1D PREFETCH     ACCESS:    1957568 HIT:    1019236 MISS:     938332 MSHR_MERGE:      42490
cpu0->cpu0_L1D WRITE        ACCESS:   26211849 HIT:   23271451 MISS:    2940398 MSHR_MERGE:    2222798
cpu0->cpu0_L1D TRANSLATION  ACCESS:    1693116 HIT:     963628 MISS:     729488 MSHR_MERGE:       5194
cpu0->cpu0_L1D PREFETCH REQUESTED:    1979596 ISSUED:    1957567 USEFUL:     348155 USELESS:     547647
cpu0->cpu0_L1D AVERAGE MISS LATENCY: 100.6 cycles
cpu0->cpu0_ITLB TOTAL        ACCESS:   14577721 HIT:   14093366 MISS:     484355 MSHR_MERGE:     228569
cpu0->cpu0_ITLB LOAD         ACCESS:   14577721 HIT:   14093366 MISS:     484355 MSHR_MERGE:     228569
cpu0->cpu0_ITLB RFO          ACCESS:          0 HIT:          0 MISS:          0 MSHR_MERGE:          0
cpu0->cpu0_ITLB PREFETCH     ACCESS:          0 HIT:          0 MISS:          0 MSHR_MERGE:          0
cpu0->cpu0_ITLB WRITE        ACCESS:          0 HIT:          0 MISS:          0 MSHR_MERGE:          0
cpu0->cpu0_ITLB TRANSLATION  ACCESS:          0 HIT:          0 MISS:          0 MSHR_MERGE:          0
cpu0->cpu0_ITLB PREFETCH REQUESTED:          0 ISSUED:          0 USEFUL:          0 USELESS:          0
cpu0->cpu0_ITLB AVERAGE MISS LATENCY: 20.17 cycles
cpu0->cpu0_DTLB TOTAL        ACCESS:   57465836 HIT:   53436836 MISS:    4029000 MSHR_MERGE:    1825691
cpu0->cpu0_DTLB LOAD         ACCESS:   57465836 HIT:   53436836 MISS:    4029000 MSHR_MERGE:    1825691
cpu0->cpu0_DTLB RFO          ACCESS:          0 HIT:          0 MISS:          0 MSHR_MERGE:          0
cpu0->cpu0_DTLB PREFETCH     ACCESS:          0 HIT:          0 MISS:          0 MSHR_MERGE:          0
cpu0->cpu0_DTLB WRITE        ACCESS:          0 HIT:          0 MISS:          0 MSHR_MERGE:          0
cpu0->cpu0_DTLB TRANSLATION  ACCESS:          0 HIT:          0 MISS:          0 MSHR_MERGE:          0
cpu0->cpu0_DTLB PREFETCH REQUESTED:          0 ISSUED:          0 USEFUL:          0 USELESS:          0
cpu0->cpu0_DTLB AVERAGE MISS LATENCY: 39.85 cycles
cpu0->LLC TOTAL        ACCESS:    3979026 HIT:     880837 MISS:    3098189 MSHR_MERGE:      44736
cpu0->LLC LOAD         ACCESS:    1085118 HIT:     257941 MISS:     827177 MSHR_MERGE:       1960
cpu0->LLC RFO          ACCESS:     500503 HIT:      21402 MISS:     479101 MSHR_MERGE:        261
cpu0->LLC PREFETCH     ACCESS:    1335424 HIT:     204218 MISS:    1131206 MSHR_MERGE:      42515
cpu0->LLC WRITE        ACCESS:     817259 HIT:     352876 MISS:     464383 MSHR_MERGE:          0
cpu0->LLC TRANSLATION  ACCESS:     240722 HIT:      44400 MISS:     196322 MSHR_MERGE:          0
cpu0->LLC PREFETCH REQUESTED:     512557 ISSUED:     512557 USEFUL:      71792 USELESS:     312335
cpu0->LLC AVERAGE MISS LATENCY: 173.3 cycles

DRAM Statistics

Channel 0 RQ ROW_BUFFER_HIT:      27293
  ROW_BUFFER_MISS:    2561733
  AVG DBUS CONGESTED CYCLE: 26.19
Channel 0 WQ ROW_BUFFER_HIT:     205761
  ROW_BUFFER_MISS:     572733
  FULL:          0
Channel 0 REFRESHES ISSUED:      29756
