[VMEM] WARNING: physical memory size is smaller than virtual memory size.

*** ChampSim Multicore Out-of-Order Simulator ***
Warmup Instructions: 50000000
Simulation Instructions: 200000000
Number of CPUs: 1
Page size: 4096
Core 0: /local-ssd/ben/dpc4-traces/SPEC17/654.roms_s-293B.champsimtrace.xz
 L1D Berti prefetcher
 L1D Berti prefetcher
Off-chip DRAM Size: 64 GiB Channels: 1 Width: 64-bit Data Rate: 4807 MT/s
Heartbeat CPU 0 instructions: 500002 cycles: 104501 heartbeat IPC: 4.785 cumulative IPC: 4.785 (Simulation time: 00 hr 00 min 03 sec)
Heartbeat CPU 0 instructions: 1000003 cycles: 206966 heartbeat IPC: 4.88 cumulative IPC: 4.832 (Simulation time: 00 hr 00 min 05 sec)
Heartbeat CPU 0 instructions: 1500008 cycles: 309384 heartbeat IPC: 4.882 cumulative IPC: 4.848 (Simulation time: 00 hr 00 min 08 sec)
Heartbeat CPU 0 instructions: 2000013 cycles: 412217 heartbeat IPC: 4.862 cumulative IPC: 4.852 (Simulation time: 00 hr 00 min 10 sec)
Heartbeat CPU 0 instructions: 2500016 cycles: 514723 heartbeat IPC: 4.878 cumulative IPC: 4.857 (Simulation time: 00 hr 00 min 12 sec)
Heartbeat CPU 0 instructions: 3000023 cycles: 616439 heartbeat IPC: 4.916 cumulative IPC: 4.867 (Simulation time: 00 hr 00 min 13 sec)
Heartbeat CPU 0 instructions: 3500023 cycles: 723789 heartbeat IPC: 4.658 cumulative IPC: 4.836 (Simulation time: 00 hr 00 min 15 sec)
Heartbeat CPU 0 instructions: 4000030 cycles: 854780 heartbeat IPC: 3.817 cumulative IPC: 4.68 (Simulation time: 00 hr 00 min 17 sec)
Heartbeat CPU 0 instructions: 4500036 cycles: 981233 heartbeat IPC: 3.954 cumulative IPC: 4.586 (Simulation time: 00 hr 00 min 20 sec)
Heartbeat CPU 0 instructions: 5000036 cycles: 1159214 heartbeat IPC: 2.809 cumulative IPC: 4.313 (Simulation time: 00 hr 00 min 22 sec)
Heartbeat CPU 0 instructions: 5500036 cycles: 1261628 heartbeat IPC: 4.882 cumulative IPC: 4.359 (Simulation time: 00 hr 00 min 24 sec)
Heartbeat CPU 0 instructions: 6000039 cycles: 1363546 heartbeat IPC: 4.906 cumulative IPC: 4.4 (Simulation time: 00 hr 00 min 25 sec)
Heartbeat CPU 0 instructions: 6500042 cycles: 1466158 heartbeat IPC: 4.873 cumulative IPC: 4.433 (Simulation time: 00 hr 00 min 27 sec)
Heartbeat CPU 0 instructions: 7000042 cycles: 1567909 heartbeat IPC: 4.914 cumulative IPC: 4.465 (Simulation time: 00 hr 00 min 29 sec)
Heartbeat CPU 0 instructions: 7500044 cycles: 1668626 heartbeat IPC: 4.964 cumulative IPC: 4.495 (Simulation time: 00 hr 00 min 30 sec)
Heartbeat CPU 0 instructions: 8000048 cycles: 1769638 heartbeat IPC: 4.95 cumulative IPC: 4.521 (Simulation time: 00 hr 00 min 32 sec)
Heartbeat CPU 0 instructions: 8500052 cycles: 1870491 heartbeat IPC: 4.958 cumulative IPC: 4.544 (Simulation time: 00 hr 00 min 33 sec)
Heartbeat CPU 0 instructions: 9000054 cycles: 1971582 heartbeat IPC: 4.946 cumulative IPC: 4.565 (Simulation time: 00 hr 00 min 35 sec)
Heartbeat CPU 0 instructions: 9500055 cycles: 2072511 heartbeat IPC: 4.954 cumulative IPC: 4.584 (Simulation time: 00 hr 00 min 37 sec)
Heartbeat CPU 0 instructions: 10000058 cycles: 2173537 heartbeat IPC: 4.949 cumulative IPC: 4.601 (Simulation time: 00 hr 00 min 38 sec)
Heartbeat CPU 0 instructions: 10500060 cycles: 2281266 heartbeat IPC: 4.641 cumulative IPC: 4.603 (Simulation time: 00 hr 00 min 40 sec)
Heartbeat CPU 0 instructions: 11000060 cycles: 2398182 heartbeat IPC: 4.277 cumulative IPC: 4.587 (Simulation time: 00 hr 00 min 42 sec)
Heartbeat CPU 0 instructions: 11500061 cycles: 2515072 heartbeat IPC: 4.278 cumulative IPC: 4.572 (Simulation time: 00 hr 00 min 45 sec)
Heartbeat CPU 0 instructions: 12000062 cycles: 2671727 heartbeat IPC: 3.192 cumulative IPC: 4.492 (Simulation time: 00 hr 00 min 47 sec)
Heartbeat CPU 0 instructions: 12500063 cycles: 2772416 heartbeat IPC: 4.966 cumulative IPC: 4.509 (Simulation time: 00 hr 00 min 48 sec)
Heartbeat CPU 0 instructions: 13000064 cycles: 2873367 heartbeat IPC: 4.953 cumulative IPC: 4.524 (Simulation time: 00 hr 00 min 50 sec)
Heartbeat CPU 0 instructions: 13500065 cycles: 2974412 heartbeat IPC: 4.948 cumulative IPC: 4.539 (Simulation time: 00 hr 00 min 52 sec)
Heartbeat CPU 0 instructions: 14000072 cycles: 3075608 heartbeat IPC: 4.941 cumulative IPC: 4.552 (Simulation time: 00 hr 00 min 53 sec)
Heartbeat CPU 0 instructions: 14500075 cycles: 3176444 heartbeat IPC: 4.959 cumulative IPC: 4.565 (Simulation time: 00 hr 00 min 55 sec)
Heartbeat CPU 0 instructions: 15000078 cycles: 3277035 heartbeat IPC: 4.971 cumulative IPC: 4.577 (Simulation time: 00 hr 00 min 56 sec)
Heartbeat CPU 0 instructions: 15500085 cycles: 3378224 heartbeat IPC: 4.941 cumulative IPC: 4.588 (Simulation time: 00 hr 00 min 58 sec)
Heartbeat CPU 0 instructions: 16000088 cycles: 3478998 heartbeat IPC: 4.962 cumulative IPC: 4.599 (Simulation time: 00 hr 01 min 00 sec)
Heartbeat CPU 0 instructions: 16500095 cycles: 3579923 heartbeat IPC: 4.954 cumulative IPC: 4.609 (Simulation time: 00 hr 01 min 01 sec)
Heartbeat CPU 0 instructions: 17000098 cycles: 3681119 heartbeat IPC: 4.941 cumulative IPC: 4.618 (Simulation time: 00 hr 01 min 03 sec)
Heartbeat CPU 0 instructions: 17500098 cycles: 3792844 heartbeat IPC: 4.475 cumulative IPC: 4.614 (Simulation time: 00 hr 01 min 05 sec)
Heartbeat CPU 0 instructions: 18000098 cycles: 3909598 heartbeat IPC: 4.283 cumulative IPC: 4.604 (Simulation time: 00 hr 01 min 07 sec)
Heartbeat CPU 0 instructions: 18500102 cycles: 4033431 heartbeat IPC: 4.038 cumulative IPC: 4.587 (Simulation time: 00 hr 01 min 10 sec)
Heartbeat CPU 0 instructions: 19000109 cycles: 4178642 heartbeat IPC: 3.443 cumulative IPC: 4.547 (Simulation time: 00 hr 01 min 11 sec)
Heartbeat CPU 0 instructions: 19500110 cycles: 4279498 heartbeat IPC: 4.958 cumulative IPC: 4.557 (Simulation time: 00 hr 01 min 13 sec)
Heartbeat CPU 0 instructions: 20000113 cycles: 4380315 heartbeat IPC: 4.96 cumulative IPC: 4.566 (Simulation time: 00 hr 01 min 15 sec)
Heartbeat CPU 0 instructions: 20500114 cycles: 4481590 heartbeat IPC: 4.937 cumulative IPC: 4.574 (Simulation time: 00 hr 01 min 16 sec)
Heartbeat CPU 0 instructions: 21000114 cycles: 4582671 heartbeat IPC: 4.947 cumulative IPC: 4.583 (Simulation time: 00 hr 01 min 18 sec)
Heartbeat CPU 0 instructions: 21500114 cycles: 4683839 heartbeat IPC: 4.942 cumulative IPC: 4.59 (Simulation time: 00 hr 01 min 19 sec)
Heartbeat CPU 0 instructions: 22000117 cycles: 4784785 heartbeat IPC: 4.953 cumulative IPC: 4.598 (Simulation time: 00 hr 01 min 21 sec)
Heartbeat CPU 0 instructions: 22500123 cycles: 4885562 heartbeat IPC: 4.962 cumulative IPC: 4.605 (Simulation time: 00 hr 01 min 23 sec)
Heartbeat CPU 0 instructions: 23000127 cycles: 4986465 heartbeat IPC: 4.955 cumulative IPC: 4.613 (Simulation time: 00 hr 01 min 24 sec)
Heartbeat CPU 0 instructions: 23500128 cycles: 5087843 heartbeat IPC: 4.932 cumulative IPC: 4.619 (Simulation time: 00 hr 01 min 26 sec)
Heartbeat CPU 0 instructions: 24000135 cycles: 5190719 heartbeat IPC: 4.86 cumulative IPC: 4.624 (Simulation time: 00 hr 01 min 27 sec)
Heartbeat CPU 0 instructions: 24500136 cycles: 5305627 heartbeat IPC: 4.351 cumulative IPC: 4.618 (Simulation time: 00 hr 01 min 29 sec)
Heartbeat CPU 0 instructions: 25000142 cycles: 5423378 heartbeat IPC: 4.246 cumulative IPC: 4.61 (Simulation time: 00 hr 01 min 32 sec)
Heartbeat CPU 0 instructions: 25500147 cycles: 5575606 heartbeat IPC: 3.285 cumulative IPC: 4.574 (Simulation time: 00 hr 01 min 34 sec)
Heartbeat CPU 0 instructions: 26000148 cycles: 5687886 heartbeat IPC: 4.453 cumulative IPC: 4.571 (Simulation time: 00 hr 01 min 36 sec)
Heartbeat CPU 0 instructions: 26500153 cycles: 5788660 heartbeat IPC: 4.962 cumulative IPC: 4.578 (Simulation time: 00 hr 01 min 38 sec)
Heartbeat CPU 0 instructions: 27000157 cycles: 5889695 heartbeat IPC: 4.949 cumulative IPC: 4.584 (Simulation time: 00 hr 01 min 39 sec)
Heartbeat CPU 0 instructions: 27500159 cycles: 5990637 heartbeat IPC: 4.953 cumulative IPC: 4.591 (Simulation time: 00 hr 01 min 41 sec)
Heartbeat CPU 0 instructions: 28000159 cycles: 6091712 heartbeat IPC: 4.947 cumulative IPC: 4.596 (Simulation time: 00 hr 01 min 42 sec)
Heartbeat CPU 0 instructions: 28500165 cycles: 6192664 heartbeat IPC: 4.953 cumulative IPC: 4.602 (Simulation time: 00 hr 01 min 44 sec)
Heartbeat CPU 0 instructions: 29000166 cycles: 6293712 heartbeat IPC: 4.948 cumulative IPC: 4.608 (Simulation time: 00 hr 01 min 46 sec)
Heartbeat CPU 0 instructions: 29500172 cycles: 6394850 heartbeat IPC: 4.944 cumulative IPC: 4.613 (Simulation time: 00 hr 01 min 47 sec)
Heartbeat CPU 0 instructions: 30000178 cycles: 6495554 heartbeat IPC: 4.965 cumulative IPC: 4.619 (Simulation time: 00 hr 01 min 49 sec)
Heartbeat CPU 0 instructions: 30500179 cycles: 6596834 heartbeat IPC: 4.937 cumulative IPC: 4.623 (Simulation time: 00 hr 01 min 50 sec)
Heartbeat CPU 0 instructions: 31000179 cycles: 6703122 heartbeat IPC: 4.704 cumulative IPC: 4.625 (Simulation time: 00 hr 01 min 52 sec)
Heartbeat CPU 0 instructions: 31500182 cycles: 6819476 heartbeat IPC: 4.297 cumulative IPC: 4.619 (Simulation time: 00 hr 01 min 54 sec)
Heartbeat CPU 0 instructions: 32000187 cycles: 6936791 heartbeat IPC: 4.262 cumulative IPC: 4.613 (Simulation time: 00 hr 01 min 57 sec)
Heartbeat CPU 0 instructions: 32500191 cycles: 7094772 heartbeat IPC: 3.165 cumulative IPC: 4.581 (Simulation time: 00 hr 01 min 59 sec)
Heartbeat CPU 0 instructions: 33000198 cycles: 7195411 heartbeat IPC: 4.968 cumulative IPC: 4.586 (Simulation time: 00 hr 02 min 01 sec)
Heartbeat CPU 0 instructions: 33500201 cycles: 7296364 heartbeat IPC: 4.953 cumulative IPC: 4.591 (Simulation time: 00 hr 02 min 02 sec)
Heartbeat CPU 0 instructions: 34000208 cycles: 7397746 heartbeat IPC: 4.932 cumulative IPC: 4.596 (Simulation time: 00 hr 02 min 04 sec)
Heartbeat CPU 0 instructions: 34500213 cycles: 7498815 heartbeat IPC: 4.947 cumulative IPC: 4.601 (Simulation time: 00 hr 02 min 06 sec)
Heartbeat CPU 0 instructions: 35000220 cycles: 7599772 heartbeat IPC: 4.953 cumulative IPC: 4.605 (Simulation time: 00 hr 02 min 07 sec)
Heartbeat CPU 0 instructions: 35500221 cycles: 7700757 heartbeat IPC: 4.951 cumulative IPC: 4.61 (Simulation time: 00 hr 02 min 09 sec)
Heartbeat CPU 0 instructions: 36000224 cycles: 7802137 heartbeat IPC: 4.932 cumulative IPC: 4.614 (Simulation time: 00 hr 02 min 10 sec)
Heartbeat CPU 0 instructions: 36500231 cycles: 7903198 heartbeat IPC: 4.948 cumulative IPC: 4.618 (Simulation time: 00 hr 02 min 12 sec)
Heartbeat CPU 0 instructions: 37000234 cycles: 8003866 heartbeat IPC: 4.967 cumulative IPC: 4.623 (Simulation time: 00 hr 02 min 13 sec)
Heartbeat CPU 0 instructions: 37500237 cycles: 8105234 heartbeat IPC: 4.933 cumulative IPC: 4.627 (Simulation time: 00 hr 02 min 15 sec)
Heartbeat CPU 0 instructions: 38000243 cycles: 8214919 heartbeat IPC: 4.559 cumulative IPC: 4.626 (Simulation time: 00 hr 02 min 17 sec)
Heartbeat CPU 0 instructions: 38500248 cycles: 8332194 heartbeat IPC: 4.264 cumulative IPC: 4.621 (Simulation time: 00 hr 02 min 19 sec)
Heartbeat CPU 0 instructions: 39000250 cycles: 8449253 heartbeat IPC: 4.271 cumulative IPC: 4.616 (Simulation time: 00 hr 02 min 22 sec)
Heartbeat CPU 0 instructions: 39500256 cycles: 8603262 heartbeat IPC: 3.247 cumulative IPC: 4.591 (Simulation time: 00 hr 02 min 24 sec)
Heartbeat CPU 0 instructions: 40000257 cycles: 8704057 heartbeat IPC: 4.961 cumulative IPC: 4.596 (Simulation time: 00 hr 02 min 25 sec)
Heartbeat CPU 0 instructions: 40500258 cycles: 8805056 heartbeat IPC: 4.951 cumulative IPC: 4.6 (Simulation time: 00 hr 02 min 27 sec)
Heartbeat CPU 0 instructions: 41000259 cycles: 8905994 heartbeat IPC: 4.954 cumulative IPC: 4.604 (Simulation time: 00 hr 02 min 29 sec)
Heartbeat CPU 0 instructions: 41500260 cycles: 9006879 heartbeat IPC: 4.956 cumulative IPC: 4.608 (Simulation time: 00 hr 02 min 30 sec)
Heartbeat CPU 0 instructions: 42000263 cycles: 9107443 heartbeat IPC: 4.972 cumulative IPC: 4.612 (Simulation time: 00 hr 02 min 32 sec)
Heartbeat CPU 0 instructions: 42500264 cycles: 9208510 heartbeat IPC: 4.947 cumulative IPC: 4.615 (Simulation time: 00 hr 02 min 33 sec)
Heartbeat CPU 0 instructions: 43000264 cycles: 9309674 heartbeat IPC: 4.942 cumulative IPC: 4.619 (Simulation time: 00 hr 02 min 35 sec)
Heartbeat CPU 0 instructions: 43500266 cycles: 9410620 heartbeat IPC: 4.953 cumulative IPC: 4.622 (Simulation time: 00 hr 02 min 36 sec)
Heartbeat CPU 0 instructions: 44000273 cycles: 9511676 heartbeat IPC: 4.948 cumulative IPC: 4.626 (Simulation time: 00 hr 02 min 38 sec)
Heartbeat CPU 0 instructions: 44500274 cycles: 9612601 heartbeat IPC: 4.954 cumulative IPC: 4.629 (Simulation time: 00 hr 02 min 40 sec)
Heartbeat CPU 0 instructions: 45000275 cycles: 9727582 heartbeat IPC: 4.349 cumulative IPC: 4.626 (Simulation time: 00 hr 02 min 42 sec)
Heartbeat CPU 0 instructions: 45500279 cycles: 9844799 heartbeat IPC: 4.266 cumulative IPC: 4.622 (Simulation time: 00 hr 02 min 44 sec)
Heartbeat CPU 0 instructions: 46000281 cycles: 9987672 heartbeat IPC: 3.5 cumulative IPC: 4.606 (Simulation time: 00 hr 02 min 47 sec)
Heartbeat CPU 0 instructions: 46500283 cycles: 10110775 heartbeat IPC: 4.062 cumulative IPC: 4.599 (Simulation time: 00 hr 02 min 48 sec)
Heartbeat CPU 0 instructions: 47000289 cycles: 10211509 heartbeat IPC: 4.964 cumulative IPC: 4.603 (Simulation time: 00 hr 02 min 50 sec)
Heartbeat CPU 0 instructions: 47500292 cycles: 10312343 heartbeat IPC: 4.959 cumulative IPC: 4.606 (Simulation time: 00 hr 02 min 52 sec)
Heartbeat CPU 0 instructions: 48000298 cycles: 10413380 heartbeat IPC: 4.949 cumulative IPC: 4.609 (Simulation time: 00 hr 02 min 53 sec)
Heartbeat CPU 0 instructions: 48500303 cycles: 10514386 heartbeat IPC: 4.95 cumulative IPC: 4.613 (Simulation time: 00 hr 02 min 55 sec)
Heartbeat CPU 0 instructions: 49000305 cycles: 10615420 heartbeat IPC: 4.949 cumulative IPC: 4.616 (Simulation time: 00 hr 02 min 56 sec)
Heartbeat CPU 0 instructions: 49500309 cycles: 10716439 heartbeat IPC: 4.95 cumulative IPC: 4.619 (Simulation time: 00 hr 02 min 58 sec)
Warmup halting CPU 0 at instruction 50000001 cycle 10817362 for remainder of phase
Warmup finished CPU 0 instructions: 50000001 cycles: 10817362 cumulative IPC: 4.622 (Simulation time: 00 hr 03 min 00 sec)
Warmup complete CPU 0 instructions: 50000001 cycles: 10817362 cumulative IPC: 4.622 (Simulation time: 00 hr 03 min 00 sec)
Heartbeat CPU 0 instructions: 50000310 cycles: 10817454 heartbeat IPC: 4.95 cumulative IPC: 3.359 (Simulation time: 00 hr 03 min 00 sec)
Heartbeat CPU 0 instructions: 50500313 cycles: 10949845 heartbeat IPC: 3.777 cumulative IPC: 3.776 (Simulation time: 00 hr 03 min 02 sec)
Heartbeat CPU 0 instructions: 51000314 cycles: 11082915 heartbeat IPC: 3.757 cumulative IPC: 3.767 (Simulation time: 00 hr 03 min 05 sec)
Heartbeat CPU 0 instructions: 51500318 cycles: 11243883 heartbeat IPC: 3.106 cumulative IPC: 3.518 (Simulation time: 00 hr 03 min 08 sec)
Heartbeat CPU 0 instructions: 52000321 cycles: 11468433 heartbeat IPC: 2.227 cumulative IPC: 3.072 (Simulation time: 00 hr 03 min 11 sec)
Heartbeat CPU 0 instructions: 52500322 cycles: 11673848 heartbeat IPC: 2.434 cumulative IPC: 2.919 (Simulation time: 00 hr 03 min 15 sec)
Heartbeat CPU 0 instructions: 53000325 cycles: 11938964 heartbeat IPC: 1.886 cumulative IPC: 2.675 (Simulation time: 00 hr 03 min 19 sec)
Heartbeat CPU 0 instructions: 53500326 cycles: 12070414 heartbeat IPC: 3.804 cumulative IPC: 2.793 (Simulation time: 00 hr 03 min 22 sec)
Heartbeat CPU 0 instructions: 54000326 cycles: 12201200 heartbeat IPC: 3.823 cumulative IPC: 2.891 (Simulation time: 00 hr 03 min 24 sec)
Heartbeat CPU 0 instructions: 54500326 cycles: 12331966 heartbeat IPC: 3.824 cumulative IPC: 2.971 (Simulation time: 00 hr 03 min 27 sec)
Heartbeat CPU 0 instructions: 55000327 cycles: 12465742 heartbeat IPC: 3.738 cumulative IPC: 3.033 (Simulation time: 00 hr 03 min 30 sec)
Heartbeat CPU 0 instructions: 55500332 cycles: 12600173 heartbeat IPC: 3.719 cumulative IPC: 3.085 (Simulation time: 00 hr 03 min 32 sec)
Heartbeat CPU 0 instructions: 56000333 cycles: 12732681 heartbeat IPC: 3.773 cumulative IPC: 3.133 (Simulation time: 00 hr 03 min 35 sec)
Heartbeat CPU 0 instructions: 56500336 cycles: 12863839 heartbeat IPC: 3.812 cumulative IPC: 3.176 (Simulation time: 00 hr 03 min 38 sec)
Heartbeat CPU 0 instructions: 57000337 cycles: 12997499 heartbeat IPC: 3.741 cumulative IPC: 3.211 (Simulation time: 00 hr 03 min 40 sec)
Heartbeat CPU 0 instructions: 57500338 cycles: 13129389 heartbeat IPC: 3.791 cumulative IPC: 3.244 (Simulation time: 00 hr 03 min 43 sec)
Heartbeat CPU 0 instructions: 58000339 cycles: 13263072 heartbeat IPC: 3.74 cumulative IPC: 3.271 (Simulation time: 00 hr 03 min 45 sec)
Heartbeat CPU 0 instructions: 58500344 cycles: 13456116 heartbeat IPC: 2.59 cumulative IPC: 3.221 (Simulation time: 00 hr 03 min 49 sec)
Heartbeat CPU 0 instructions: 59000347 cycles: 13671387 heartbeat IPC: 2.323 cumulative IPC: 3.154 (Simulation time: 00 hr 03 min 53 sec)
Heartbeat CPU 0 instructions: 59500347 cycles: 13885224 heartbeat IPC: 2.338 cumulative IPC: 3.097 (Simulation time: 00 hr 03 min 56 sec)
Heartbeat CPU 0 instructions: 60000351 cycles: 14121213 heartbeat IPC: 2.119 cumulative IPC: 3.027 (Simulation time: 00 hr 04 min 00 sec)
Heartbeat CPU 0 instructions: 60500356 cycles: 14255919 heartbeat IPC: 3.712 cumulative IPC: 3.054 (Simulation time: 00 hr 04 min 03 sec)
Heartbeat CPU 0 instructions: 61000357 cycles: 14387838 heartbeat IPC: 3.79 cumulative IPC: 3.081 (Simulation time: 00 hr 04 min 05 sec)
Heartbeat CPU 0 instructions: 61500364 cycles: 14519233 heartbeat IPC: 3.805 cumulative IPC: 3.107 (Simulation time: 00 hr 04 min 08 sec)
Heartbeat CPU 0 instructions: 62000365 cycles: 14651313 heartbeat IPC: 3.786 cumulative IPC: 3.13 (Simulation time: 00 hr 04 min 10 sec)
Heartbeat CPU 0 instructions: 62500365 cycles: 14783369 heartbeat IPC: 3.786 cumulative IPC: 3.152 (Simulation time: 00 hr 04 min 13 sec)
Heartbeat CPU 0 instructions: 63000371 cycles: 14917938 heartbeat IPC: 3.716 cumulative IPC: 3.17 (Simulation time: 00 hr 04 min 16 sec)
Heartbeat CPU 0 instructions: 63500372 cycles: 15053214 heartbeat IPC: 3.696 cumulative IPC: 3.187 (Simulation time: 00 hr 04 min 18 sec)
Heartbeat CPU 0 instructions: 64000378 cycles: 15183692 heartbeat IPC: 3.832 cumulative IPC: 3.206 (Simulation time: 00 hr 04 min 21 sec)
Heartbeat CPU 0 instructions: 64500379 cycles: 15316947 heartbeat IPC: 3.752 cumulative IPC: 3.223 (Simulation time: 00 hr 04 min 24 sec)
Heartbeat CPU 0 instructions: 65000385 cycles: 15449380 heartbeat IPC: 3.776 cumulative IPC: 3.238 (Simulation time: 00 hr 04 min 26 sec)
Heartbeat CPU 0 instructions: 65500388 cycles: 15673510 heartbeat IPC: 2.231 cumulative IPC: 3.192 (Simulation time: 00 hr 04 min 30 sec)
Heartbeat CPU 0 instructions: 66000388 cycles: 15882467 heartbeat IPC: 2.393 cumulative IPC: 3.159 (Simulation time: 00 hr 04 min 34 sec)
Heartbeat CPU 0 instructions: 66500393 cycles: 16107046 heartbeat IPC: 2.226 cumulative IPC: 3.119 (Simulation time: 00 hr 04 min 37 sec)
Heartbeat CPU 0 instructions: 67000393 cycles: 16297492 heartbeat IPC: 2.625 cumulative IPC: 3.102 (Simulation time: 00 hr 04 min 41 sec)
Heartbeat CPU 0 instructions: 67500393 cycles: 16431130 heartbeat IPC: 3.741 cumulative IPC: 3.117 (Simulation time: 00 hr 04 min 43 sec)
Heartbeat CPU 0 instructions: 68000394 cycles: 16564372 heartbeat IPC: 3.753 cumulative IPC: 3.132 (Simulation time: 00 hr 04 min 46 sec)
Heartbeat CPU 0 instructions: 68500395 cycles: 16695726 heartbeat IPC: 3.807 cumulative IPC: 3.147 (Simulation time: 00 hr 04 min 49 sec)
Heartbeat CPU 0 instructions: 69000398 cycles: 16827719 heartbeat IPC: 3.788 cumulative IPC: 3.161 (Simulation time: 00 hr 04 min 51 sec)
Heartbeat CPU 0 instructions: 69500399 cycles: 16959060 heartbeat IPC: 3.807 cumulative IPC: 3.175 (Simulation time: 00 hr 04 min 54 sec)
Heartbeat CPU 0 instructions: 70000404 cycles: 17093457 heartbeat IPC: 3.72 cumulative IPC: 3.187 (Simulation time: 00 hr 04 min 56 sec)
Heartbeat CPU 0 instructions: 70500409 cycles: 17224989 heartbeat IPC: 3.801 cumulative IPC: 3.199 (Simulation time: 00 hr 04 min 59 sec)
Heartbeat CPU 0 instructions: 71000410 cycles: 17359108 heartbeat IPC: 3.728 cumulative IPC: 3.21 (Simulation time: 00 hr 05 min 02 sec)
Heartbeat CPU 0 instructions: 71500413 cycles: 17491651 heartbeat IPC: 3.772 cumulative IPC: 3.221 (Simulation time: 00 hr 05 min 04 sec)
Heartbeat CPU 0 instructions: 72000415 cycles: 17645144 heartbeat IPC: 3.257 cumulative IPC: 3.222 (Simulation time: 00 hr 05 min 07 sec)
Heartbeat CPU 0 instructions: 72500421 cycles: 17869490 heartbeat IPC: 2.229 cumulative IPC: 3.191 (Simulation time: 00 hr 05 min 11 sec)
Heartbeat CPU 0 instructions: 73000428 cycles: 18082077 heartbeat IPC: 2.352 cumulative IPC: 3.166 (Simulation time: 00 hr 05 min 15 sec)
Heartbeat CPU 0 instructions: 73500430 cycles: 18341267 heartbeat IPC: 1.929 cumulative IPC: 3.123 (Simulation time: 00 hr 05 min 19 sec)
Heartbeat CPU 0 instructions: 74000430 cycles: 18472809 heartbeat IPC: 3.801 cumulative IPC: 3.135 (Simulation time: 00 hr 05 min 21 sec)
Heartbeat CPU 0 instructions: 74500434 cycles: 18604991 heartbeat IPC: 3.783 cumulative IPC: 3.146 (Simulation time: 00 hr 05 min 24 sec)
Heartbeat CPU 0 instructions: 75000435 cycles: 18737452 heartbeat IPC: 3.775 cumulative IPC: 3.157 (Simulation time: 00 hr 05 min 27 sec)
Heartbeat CPU 0 instructions: 75500436 cycles: 18873853 heartbeat IPC: 3.666 cumulative IPC: 3.165 (Simulation time: 00 hr 05 min 29 sec)
Heartbeat CPU 0 instructions: 76000437 cycles: 19007663 heartbeat IPC: 3.737 cumulative IPC: 3.175 (Simulation time: 00 hr 05 min 32 sec)
Heartbeat CPU 0 instructions: 76500440 cycles: 19139593 heartbeat IPC: 3.79 cumulative IPC: 3.184 (Simulation time: 00 hr 05 min 34 sec)
Heartbeat CPU 0 instructions: 77000441 cycles: 19271971 heartbeat IPC: 3.777 cumulative IPC: 3.194 (Simulation time: 00 hr 05 min 37 sec)
Heartbeat CPU 0 instructions: 77500442 cycles: 19406044 heartbeat IPC: 3.729 cumulative IPC: 3.202 (Simulation time: 00 hr 05 min 40 sec)
Heartbeat CPU 0 instructions: 78000443 cycles: 19540812 heartbeat IPC: 3.71 cumulative IPC: 3.21 (Simulation time: 00 hr 05 min 42 sec)
Heartbeat CPU 0 instructions: 78500444 cycles: 19672093 heartbeat IPC: 3.809 cumulative IPC: 3.219 (Simulation time: 00 hr 05 min 45 sec)
Heartbeat CPU 0 instructions: 79000448 cycles: 19857137 heartbeat IPC: 2.702 cumulative IPC: 3.208 (Simulation time: 00 hr 05 min 48 sec)
Heartbeat CPU 0 instructions: 79500453 cycles: 20074380 heartbeat IPC: 2.302 cumulative IPC: 3.187 (Simulation time: 00 hr 05 min 52 sec)
Heartbeat CPU 0 instructions: 80000454 cycles: 20285738 heartbeat IPC: 2.366 cumulative IPC: 3.168 (Simulation time: 00 hr 05 min 56 sec)
Heartbeat CPU 0 instructions: 80500455 cycles: 20530994 heartbeat IPC: 2.039 cumulative IPC: 3.14 (Simulation time: 00 hr 06 min 00 sec)
Heartbeat CPU 0 instructions: 81000459 cycles: 20663455 heartbeat IPC: 3.775 cumulative IPC: 3.149 (Simulation time: 00 hr 06 min 02 sec)
Heartbeat CPU 0 instructions: 81500459 cycles: 20795396 heartbeat IPC: 3.79 cumulative IPC: 3.157 (Simulation time: 00 hr 06 min 05 sec)
Heartbeat CPU 0 instructions: 82000460 cycles: 20926134 heartbeat IPC: 3.824 cumulative IPC: 3.166 (Simulation time: 00 hr 06 min 07 sec)
Heartbeat CPU 0 instructions: 82500461 cycles: 21057170 heartbeat IPC: 3.816 cumulative IPC: 3.174 (Simulation time: 00 hr 06 min 10 sec)
Heartbeat CPU 0 instructions: 83000462 cycles: 21190598 heartbeat IPC: 3.747 cumulative IPC: 3.181 (Simulation time: 00 hr 06 min 13 sec)
Heartbeat CPU 0 instructions: 83500462 cycles: 21324768 heartbeat IPC: 3.727 cumulative IPC: 3.188 (Simulation time: 00 hr 06 min 15 sec)
Heartbeat CPU 0 instructions: 84000466 cycles: 21459051 heartbeat IPC: 3.724 cumulative IPC: 3.195 (Simulation time: 00 hr 06 min 18 sec)
Heartbeat CPU 0 instructions: 84500472 cycles: 21591904 heartbeat IPC: 3.764 cumulative IPC: 3.202 (Simulation time: 00 hr 06 min 21 sec)
Heartbeat CPU 0 instructions: 85000476 cycles: 21726347 heartbeat IPC: 3.719 cumulative IPC: 3.208 (Simulation time: 00 hr 06 min 23 sec)
Heartbeat CPU 0 instructions: 85500477 cycles: 21859836 heartbeat IPC: 3.746 cumulative IPC: 3.215 (Simulation time: 00 hr 06 min 26 sec)
Heartbeat CPU 0 instructions: 86000478 cycles: 22070834 heartbeat IPC: 2.37 cumulative IPC: 3.199 (Simulation time: 00 hr 06 min 29 sec)
Heartbeat CPU 0 instructions: 86500478 cycles: 22280730 heartbeat IPC: 2.382 cumulative IPC: 3.184 (Simulation time: 00 hr 06 min 33 sec)
Heartbeat CPU 0 instructions: 87000479 cycles: 22500575 heartbeat IPC: 2.274 cumulative IPC: 3.167 (Simulation time: 00 hr 06 min 37 sec)
Heartbeat CPU 0 instructions: 87500481 cycles: 22712577 heartbeat IPC: 2.358 cumulative IPC: 3.153 (Simulation time: 00 hr 06 min 40 sec)
Heartbeat CPU 0 instructions: 88000482 cycles: 22845906 heartbeat IPC: 3.75 cumulative IPC: 3.159 (Simulation time: 00 hr 06 min 43 sec)
Heartbeat CPU 0 instructions: 88500485 cycles: 22977506 heartbeat IPC: 3.799 cumulative IPC: 3.166 (Simulation time: 00 hr 06 min 45 sec)
Heartbeat CPU 0 instructions: 89000486 cycles: 23108555 heartbeat IPC: 3.815 cumulative IPC: 3.173 (Simulation time: 00 hr 06 min 48 sec)
Heartbeat CPU 0 instructions: 89500491 cycles: 23240569 heartbeat IPC: 3.788 cumulative IPC: 3.18 (Simulation time: 00 hr 06 min 51 sec)
Heartbeat CPU 0 instructions: 90000496 cycles: 23377118 heartbeat IPC: 3.662 cumulative IPC: 3.185 (Simulation time: 00 hr 06 min 53 sec)
Heartbeat CPU 0 instructions: 90500501 cycles: 23509860 heartbeat IPC: 3.767 cumulative IPC: 3.191 (Simulation time: 00 hr 06 min 56 sec)
Heartbeat CPU 0 instructions: 91000508 cycles: 23643167 heartbeat IPC: 3.751 cumulative IPC: 3.197 (Simulation time: 00 hr 06 min 59 sec)
Heartbeat CPU 0 instructions: 91500509 cycles: 23775630 heartbeat IPC: 3.775 cumulative IPC: 3.203 (Simulation time: 00 hr 07 min 01 sec)
Heartbeat CPU 0 instructions: 92000510 cycles: 23908520 heartbeat IPC: 3.763 cumulative IPC: 3.208 (Simulation time: 00 hr 07 min 05 sec)
Heartbeat CPU 0 instructions: 92500516 cycles: 24051916 heartbeat IPC: 3.487 cumulative IPC: 3.211 (Simulation time: 00 hr 07 min 09 sec)
Heartbeat CPU 0 instructions: 93000520 cycles: 24273362 heartbeat IPC: 2.258 cumulative IPC: 3.196 (Simulation time: 00 hr 07 min 15 sec)
Heartbeat CPU 0 instructions: 93500527 cycles: 24483728 heartbeat IPC: 2.377 cumulative IPC: 3.183 (Simulation time: 00 hr 07 min 20 sec)
Heartbeat CPU 0 instructions: 94000534 cycles: 24735540 heartbeat IPC: 1.986 cumulative IPC: 3.161 (Simulation time: 00 hr 07 min 25 sec)
Heartbeat CPU 0 instructions: 94500538 cycles: 24884405 heartbeat IPC: 3.359 cumulative IPC: 3.163 (Simulation time: 00 hr 07 min 27 sec)
Heartbeat CPU 0 instructions: 95000539 cycles: 25016659 heartbeat IPC: 3.781 cumulative IPC: 3.169 (Simulation time: 00 hr 07 min 30 sec)
Heartbeat CPU 0 instructions: 95500540 cycles: 25147893 heartbeat IPC: 3.81 cumulative IPC: 3.175 (Simulation time: 00 hr 07 min 33 sec)
Heartbeat CPU 0 instructions: 96000543 cycles: 25277986 heartbeat IPC: 3.843 cumulative IPC: 3.181 (Simulation time: 00 hr 07 min 35 sec)
Heartbeat CPU 0 instructions: 96500544 cycles: 25409825 heartbeat IPC: 3.793 cumulative IPC: 3.187 (Simulation time: 00 hr 07 min 38 sec)
Heartbeat CPU 0 instructions: 97000545 cycles: 25542499 heartbeat IPC: 3.769 cumulative IPC: 3.192 (Simulation time: 00 hr 07 min 40 sec)
Heartbeat CPU 0 instructions: 97500546 cycles: 25674352 heartbeat IPC: 3.792 cumulative IPC: 3.197 (Simulation time: 00 hr 07 min 43 sec)
Heartbeat CPU 0 instructions: 98000546 cycles: 25807513 heartbeat IPC: 3.755 cumulative IPC: 3.202 (Simulation time: 00 hr 07 min 46 sec)
Heartbeat CPU 0 instructions: 98500546 cycles: 25942021 heartbeat IPC: 3.717 cumulative IPC: 3.207 (Simulation time: 00 hr 07 min 48 sec)
Heartbeat CPU 0 instructions: 99000551 cycles: 26075701 heartbeat IPC: 3.74 cumulative IPC: 3.211 (Simulation time: 00 hr 07 min 51 sec)
Heartbeat CPU 0 instructions: 99500552 cycles: 26247804 heartbeat IPC: 2.905 cumulative IPC: 3.208 (Simulation time: 00 hr 07 min 54 sec)
Heartbeat CPU 0 instructions: 100000553 cycles: 26472091 heartbeat IPC: 2.229 cumulative IPC: 3.194 (Simulation time: 00 hr 07 min 58 sec)
Heartbeat CPU 0 instructions: 100500553 cycles: 26680541 heartbeat IPC: 2.399 cumulative IPC: 3.184 (Simulation time: 00 hr 08 min 01 sec)
Heartbeat CPU 0 instructions: 101000554 cycles: 26933339 heartbeat IPC: 1.978 cumulative IPC: 3.165 (Simulation time: 00 hr 08 min 05 sec)
Heartbeat CPU 0 instructions: 101500555 cycles: 27066048 heartbeat IPC: 3.768 cumulative IPC: 3.17 (Simulation time: 00 hr 08 min 08 sec)
Heartbeat CPU 0 instructions: 102000561 cycles: 27197858 heartbeat IPC: 3.793 cumulative IPC: 3.175 (Simulation time: 00 hr 08 min 11 sec)
Heartbeat CPU 0 instructions: 102500561 cycles: 27330219 heartbeat IPC: 3.778 cumulative IPC: 3.179 (Simulation time: 00 hr 08 min 13 sec)
Heartbeat CPU 0 instructions: 103000568 cycles: 27461853 heartbeat IPC: 3.798 cumulative IPC: 3.184 (Simulation time: 00 hr 08 min 16 sec)
Heartbeat CPU 0 instructions: 103500574 cycles: 27594057 heartbeat IPC: 3.782 cumulative IPC: 3.189 (Simulation time: 00 hr 08 min 18 sec)
Heartbeat CPU 0 instructions: 104000578 cycles: 27725501 heartbeat IPC: 3.804 cumulative IPC: 3.194 (Simulation time: 00 hr 08 min 21 sec)
Heartbeat CPU 0 instructions: 104500579 cycles: 27858037 heartbeat IPC: 3.773 cumulative IPC: 3.198 (Simulation time: 00 hr 08 min 24 sec)
Heartbeat CPU 0 instructions: 105000584 cycles: 27993762 heartbeat IPC: 3.684 cumulative IPC: 3.202 (Simulation time: 00 hr 08 min 26 sec)
Heartbeat CPU 0 instructions: 105500591 cycles: 28123774 heartbeat IPC: 3.846 cumulative IPC: 3.207 (Simulation time: 00 hr 08 min 29 sec)
Heartbeat CPU 0 instructions: 106000592 cycles: 28255255 heartbeat IPC: 3.803 cumulative IPC: 3.211 (Simulation time: 00 hr 08 min 32 sec)
Heartbeat CPU 0 instructions: 106500599 cycles: 28459008 heartbeat IPC: 2.454 cumulative IPC: 3.203 (Simulation time: 00 hr 08 min 35 sec)
Heartbeat CPU 0 instructions: 107000600 cycles: 28678863 heartbeat IPC: 2.274 cumulative IPC: 3.191 (Simulation time: 00 hr 08 min 39 sec)
Heartbeat CPU 0 instructions: 107500602 cycles: 28892093 heartbeat IPC: 2.345 cumulative IPC: 3.181 (Simulation time: 00 hr 08 min 43 sec)
Heartbeat CPU 0 instructions: 108000604 cycles: 29112854 heartbeat IPC: 2.265 cumulative IPC: 3.17 (Simulation time: 00 hr 08 min 46 sec)
Heartbeat CPU 0 instructions: 108500605 cycles: 29246902 heartbeat IPC: 3.73 cumulative IPC: 3.174 (Simulation time: 00 hr 08 min 49 sec)
Heartbeat CPU 0 instructions: 109000605 cycles: 29378414 heartbeat IPC: 3.802 cumulative IPC: 3.179 (Simulation time: 00 hr 08 min 51 sec)
Heartbeat CPU 0 instructions: 109500607 cycles: 29511542 heartbeat IPC: 3.756 cumulative IPC: 3.183 (Simulation time: 00 hr 08 min 54 sec)
Heartbeat CPU 0 instructions: 110000608 cycles: 29647131 heartbeat IPC: 3.688 cumulative IPC: 3.186 (Simulation time: 00 hr 08 min 57 sec)
Heartbeat CPU 0 instructions: 110500611 cycles: 29779240 heartbeat IPC: 3.785 cumulative IPC: 3.191 (Simulation time: 00 hr 08 min 59 sec)
Heartbeat CPU 0 instructions: 111000612 cycles: 29911252 heartbeat IPC: 3.788 cumulative IPC: 3.195 (Simulation time: 00 hr 09 min 02 sec)
Heartbeat CPU 0 instructions: 111500612 cycles: 30045562 heartbeat IPC: 3.723 cumulative IPC: 3.198 (Simulation time: 00 hr 09 min 04 sec)
Heartbeat CPU 0 instructions: 112000618 cycles: 30181083 heartbeat IPC: 3.69 cumulative IPC: 3.202 (Simulation time: 00 hr 09 min 07 sec)
Heartbeat CPU 0 instructions: 112500622 cycles: 30313219 heartbeat IPC: 3.784 cumulative IPC: 3.206 (Simulation time: 00 hr 09 min 10 sec)
Heartbeat CPU 0 instructions: 113000622 cycles: 30444663 heartbeat IPC: 3.804 cumulative IPC: 3.21 (Simulation time: 00 hr 09 min 12 sec)
Heartbeat CPU 0 instructions: 113500627 cycles: 30672433 heartbeat IPC: 2.195 cumulative IPC: 3.198 (Simulation time: 00 hr 09 min 16 sec)
Heartbeat CPU 0 instructions: 114000633 cycles: 30883385 heartbeat IPC: 2.37 cumulative IPC: 3.19 (Simulation time: 00 hr 09 min 20 sec)
Heartbeat CPU 0 instructions: 114500638 cycles: 31123220 heartbeat IPC: 2.085 cumulative IPC: 3.176 (Simulation time: 00 hr 09 min 24 sec)
Heartbeat CPU 0 instructions: 115000643 cycles: 31292558 heartbeat IPC: 2.953 cumulative IPC: 3.175 (Simulation time: 00 hr 09 min 27 sec)
Heartbeat CPU 0 instructions: 115500646 cycles: 31424460 heartbeat IPC: 3.791 cumulative IPC: 3.179 (Simulation time: 00 hr 09 min 29 sec)
Heartbeat CPU 0 instructions: 116000647 cycles: 31556400 heartbeat IPC: 3.79 cumulative IPC: 3.182 (Simulation time: 00 hr 09 min 32 sec)
Heartbeat CPU 0 instructions: 116500648 cycles: 31688557 heartbeat IPC: 3.783 cumulative IPC: 3.186 (Simulation time: 00 hr 09 min 35 sec)
Heartbeat CPU 0 instructions: 117000649 cycles: 31821564 heartbeat IPC: 3.759 cumulative IPC: 3.19 (Simulation time: 00 hr 09 min 37 sec)
Heartbeat CPU 0 instructions: 117500650 cycles: 31953418 heartbeat IPC: 3.792 cumulative IPC: 3.194 (Simulation time: 00 hr 09 min 40 sec)
Heartbeat CPU 0 instructions: 118000651 cycles: 32085599 heartbeat IPC: 3.783 cumulative IPC: 3.197 (Simulation time: 00 hr 09 min 42 sec)
Heartbeat CPU 0 instructions: 118500654 cycles: 32220424 heartbeat IPC: 3.709 cumulative IPC: 3.201 (Simulation time: 00 hr 09 min 45 sec)
Heartbeat CPU 0 instructions: 119000655 cycles: 32354872 heartbeat IPC: 3.719 cumulative IPC: 3.204 (Simulation time: 00 hr 09 min 48 sec)
Heartbeat CPU 0 instructions: 119500656 cycles: 32488079 heartbeat IPC: 3.754 cumulative IPC: 3.207 (Simulation time: 00 hr 09 min 50 sec)
Heartbeat CPU 0 instructions: 120000660 cycles: 32652550 heartbeat IPC: 3.04 cumulative IPC: 3.206 (Simulation time: 00 hr 09 min 53 sec)
Heartbeat CPU 0 instructions: 120500660 cycles: 32871337 heartbeat IPC: 2.285 cumulative IPC: 3.197 (Simulation time: 00 hr 09 min 57 sec)
Heartbeat CPU 0 instructions: 121000661 cycles: 33074374 heartbeat IPC: 2.463 cumulative IPC: 3.19 (Simulation time: 00 hr 10 min 00 sec)
Heartbeat CPU 0 instructions: 121500667 cycles: 33331848 heartbeat IPC: 1.942 cumulative IPC: 3.176 (Simulation time: 00 hr 10 min 04 sec)
Heartbeat CPU 0 instructions: 122000668 cycles: 33464231 heartbeat IPC: 3.777 cumulative IPC: 3.179 (Simulation time: 00 hr 10 min 07 sec)
Heartbeat CPU 0 instructions: 122500673 cycles: 33596438 heartbeat IPC: 3.782 cumulative IPC: 3.183 (Simulation time: 00 hr 10 min 10 sec)
Heartbeat CPU 0 instructions: 123000680 cycles: 33728233 heartbeat IPC: 3.794 cumulative IPC: 3.186 (Simulation time: 00 hr 10 min 12 sec)
Heartbeat CPU 0 instructions: 123500686 cycles: 33864093 heartbeat IPC: 3.68 cumulative IPC: 3.189 (Simulation time: 00 hr 10 min 15 sec)
Heartbeat CPU 0 instructions: 124000686 cycles: 33996114 heartbeat IPC: 3.787 cumulative IPC: 3.193 (Simulation time: 00 hr 10 min 17 sec)
Heartbeat CPU 0 instructions: 124500687 cycles: 34128338 heartbeat IPC: 3.781 cumulative IPC: 3.196 (Simulation time: 00 hr 10 min 20 sec)
Heartbeat CPU 0 instructions: 125000688 cycles: 34262940 heartbeat IPC: 3.715 cumulative IPC: 3.199 (Simulation time: 00 hr 10 min 23 sec)
Heartbeat CPU 0 instructions: 125500691 cycles: 34395160 heartbeat IPC: 3.782 cumulative IPC: 3.202 (Simulation time: 00 hr 10 min 25 sec)
Heartbeat CPU 0 instructions: 126000696 cycles: 34528890 heartbeat IPC: 3.739 cumulative IPC: 3.205 (Simulation time: 00 hr 10 min 28 sec)
Heartbeat CPU 0 instructions: 126500697 cycles: 34662173 heartbeat IPC: 3.751 cumulative IPC: 3.208 (Simulation time: 00 hr 10 min 31 sec)
Heartbeat CPU 0 instructions: 127000701 cycles: 34854027 heartbeat IPC: 2.606 cumulative IPC: 3.203 (Simulation time: 00 hr 10 min 34 sec)
Heartbeat CPU 0 instructions: 127500701 cycles: 35068851 heartbeat IPC: 2.327 cumulative IPC: 3.196 (Simulation time: 00 hr 10 min 38 sec)
Heartbeat CPU 0 instructions: 128000701 cycles: 35277266 heartbeat IPC: 2.399 cumulative IPC: 3.189 (Simulation time: 00 hr 10 min 41 sec)
Heartbeat CPU 0 instructions: 128500703 cycles: 35586690 heartbeat IPC: 1.616 cumulative IPC: 3.169 (Simulation time: 00 hr 10 min 45 sec)
Heartbeat CPU 0 instructions: 129000706 cycles: 35827309 heartbeat IPC: 2.078 cumulative IPC: 3.159 (Simulation time: 00 hr 10 min 49 sec)
Heartbeat CPU 0 instructions: 129500711 cycles: 36068780 heartbeat IPC: 2.071 cumulative IPC: 3.148 (Simulation time: 00 hr 10 min 53 sec)
Heartbeat CPU 0 instructions: 130000712 cycles: 36306237 heartbeat IPC: 2.106 cumulative IPC: 3.139 (Simulation time: 00 hr 10 min 57 sec)
Heartbeat CPU 0 instructions: 130500713 cycles: 36536857 heartbeat IPC: 2.168 cumulative IPC: 3.13 (Simulation time: 00 hr 11 min 01 sec)
Heartbeat CPU 0 instructions: 131000713 cycles: 36773466 heartbeat IPC: 2.113 cumulative IPC: 3.121 (Simulation time: 00 hr 11 min 05 sec)
Heartbeat CPU 0 instructions: 131500717 cycles: 36996357 heartbeat IPC: 2.243 cumulative IPC: 3.113 (Simulation time: 00 hr 11 min 09 sec)
Heartbeat CPU 0 instructions: 132000717 cycles: 37208682 heartbeat IPC: 2.355 cumulative IPC: 3.107 (Simulation time: 00 hr 11 min 13 sec)
Heartbeat CPU 0 instructions: 132500718 cycles: 37427313 heartbeat IPC: 2.287 cumulative IPC: 3.1 (Simulation time: 00 hr 11 min 16 sec)
Heartbeat CPU 0 instructions: 133000723 cycles: 37638266 heartbeat IPC: 2.37 cumulative IPC: 3.095 (Simulation time: 00 hr 11 min 20 sec)
Heartbeat CPU 0 instructions: 133500727 cycles: 37846961 heartbeat IPC: 2.396 cumulative IPC: 3.089 (Simulation time: 00 hr 11 min 23 sec)
Heartbeat CPU 0 instructions: 134000732 cycles: 38060045 heartbeat IPC: 2.347 cumulative IPC: 3.083 (Simulation time: 00 hr 11 min 27 sec)
Heartbeat CPU 0 instructions: 134500733 cycles: 38269035 heartbeat IPC: 2.392 cumulative IPC: 3.078 (Simulation time: 00 hr 11 min 30 sec)
Heartbeat CPU 0 instructions: 135000740 cycles: 38478477 heartbeat IPC: 2.387 cumulative IPC: 3.073 (Simulation time: 00 hr 11 min 34 sec)
Heartbeat CPU 0 instructions: 135500746 cycles: 38688184 heartbeat IPC: 2.384 cumulative IPC: 3.068 (Simulation time: 00 hr 11 min 37 sec)
Heartbeat CPU 0 instructions: 136000746 cycles: 38898562 heartbeat IPC: 2.377 cumulative IPC: 3.063 (Simulation time: 00 hr 11 min 41 sec)
Heartbeat CPU 0 instructions: 136500747 cycles: 39108448 heartbeat IPC: 2.382 cumulative IPC: 3.058 (Simulation time: 00 hr 11 min 44 sec)
Heartbeat CPU 0 instructions: 137000747 cycles: 39319362 heartbeat IPC: 2.371 cumulative IPC: 3.052 (Simulation time: 00 hr 11 min 48 sec)
Heartbeat CPU 0 instructions: 137500751 cycles: 39525048 heartbeat IPC: 2.431 cumulative IPC: 3.048 (Simulation time: 00 hr 11 min 51 sec)
Heartbeat CPU 0 instructions: 138000753 cycles: 39734547 heartbeat IPC: 2.387 cumulative IPC: 3.043 (Simulation time: 00 hr 11 min 55 sec)
Heartbeat CPU 0 instructions: 138500754 cycles: 39941533 heartbeat IPC: 2.416 cumulative IPC: 3.039 (Simulation time: 00 hr 11 min 58 sec)
Heartbeat CPU 0 instructions: 139000758 cycles: 40145080 heartbeat IPC: 2.456 cumulative IPC: 3.035 (Simulation time: 00 hr 12 min 01 sec)
Heartbeat CPU 0 instructions: 139500762 cycles: 40351347 heartbeat IPC: 2.424 cumulative IPC: 3.03 (Simulation time: 00 hr 12 min 05 sec)
Heartbeat CPU 0 instructions: 140000767 cycles: 40560089 heartbeat IPC: 2.395 cumulative IPC: 3.026 (Simulation time: 00 hr 12 min 08 sec)
Heartbeat CPU 0 instructions: 140500770 cycles: 40763097 heartbeat IPC: 2.463 cumulative IPC: 3.022 (Simulation time: 00 hr 12 min 12 sec)
Heartbeat CPU 0 instructions: 141000777 cycles: 40974490 heartbeat IPC: 2.365 cumulative IPC: 3.018 (Simulation time: 00 hr 12 min 15 sec)
Heartbeat CPU 0 instructions: 141500780 cycles: 41183544 heartbeat IPC: 2.392 cumulative IPC: 3.013 (Simulation time: 00 hr 12 min 19 sec)
Heartbeat CPU 0 instructions: 142000781 cycles: 41393731 heartbeat IPC: 2.379 cumulative IPC: 3.009 (Simulation time: 00 hr 12 min 22 sec)
Heartbeat CPU 0 instructions: 142500781 cycles: 41601451 heartbeat IPC: 2.407 cumulative IPC: 3.005 (Simulation time: 00 hr 12 min 26 sec)
Heartbeat CPU 0 instructions: 143000786 cycles: 41804005 heartbeat IPC: 2.469 cumulative IPC: 3.001 (Simulation time: 00 hr 12 min 29 sec)
Heartbeat CPU 0 instructions: 143500791 cycles: 42009913 heartbeat IPC: 2.428 cumulative IPC: 2.998 (Simulation time: 00 hr 12 min 32 sec)
Heartbeat CPU 0 instructions: 144000796 cycles: 42212827 heartbeat IPC: 2.464 cumulative IPC: 2.994 (Simulation time: 00 hr 12 min 36 sec)
Heartbeat CPU 0 instructions: 144500797 cycles: 42417374 heartbeat IPC: 2.444 cumulative IPC: 2.991 (Simulation time: 00 hr 12 min 39 sec)
Heartbeat CPU 0 instructions: 145000804 cycles: 42623515 heartbeat IPC: 2.426 cumulative IPC: 2.987 (Simulation time: 00 hr 12 min 43 sec)
Heartbeat CPU 0 instructions: 145500808 cycles: 42824722 heartbeat IPC: 2.485 cumulative IPC: 2.984 (Simulation time: 00 hr 12 min 46 sec)
Heartbeat CPU 0 instructions: 146000809 cycles: 43031061 heartbeat IPC: 2.423 cumulative IPC: 2.98 (Simulation time: 00 hr 12 min 49 sec)
Heartbeat CPU 0 instructions: 146500811 cycles: 43235651 heartbeat IPC: 2.444 cumulative IPC: 2.977 (Simulation time: 00 hr 12 min 53 sec)
Heartbeat CPU 0 instructions: 147000812 cycles: 43444400 heartbeat IPC: 2.395 cumulative IPC: 2.973 (Simulation time: 00 hr 12 min 56 sec)
Heartbeat CPU 0 instructions: 147500815 cycles: 43649725 heartbeat IPC: 2.435 cumulative IPC: 2.97 (Simulation time: 00 hr 13 min 00 sec)
Heartbeat CPU 0 instructions: 148000815 cycles: 43850914 heartbeat IPC: 2.485 cumulative IPC: 2.967 (Simulation time: 00 hr 13 min 03 sec)
Heartbeat CPU 0 instructions: 148500817 cycles: 44059262 heartbeat IPC: 2.4 cumulative IPC: 2.963 (Simulation time: 00 hr 13 min 06 sec)
Heartbeat CPU 0 instructions: 149000821 cycles: 44265237 heartbeat IPC: 2.427 cumulative IPC: 2.96 (Simulation time: 00 hr 13 min 10 sec)
Heartbeat CPU 0 instructions: 149500826 cycles: 44471557 heartbeat IPC: 2.423 cumulative IPC: 2.957 (Simulation time: 00 hr 13 min 13 sec)
Heartbeat CPU 0 instructions: 150000831 cycles: 44676571 heartbeat IPC: 2.439 cumulative IPC: 2.953 (Simulation time: 00 hr 13 min 16 sec)
Heartbeat CPU 0 instructions: 150500834 cycles: 44878508 heartbeat IPC: 2.476 cumulative IPC: 2.951 (Simulation time: 00 hr 13 min 20 sec)
Heartbeat CPU 0 instructions: 151000839 cycles: 45088437 heartbeat IPC: 2.382 cumulative IPC: 2.947 (Simulation time: 00 hr 13 min 23 sec)
Heartbeat CPU 0 instructions: 151500845 cycles: 45294170 heartbeat IPC: 2.43 cumulative IPC: 2.944 (Simulation time: 00 hr 13 min 27 sec)
Heartbeat CPU 0 instructions: 152000846 cycles: 45498608 heartbeat IPC: 2.446 cumulative IPC: 2.941 (Simulation time: 00 hr 13 min 30 sec)
Heartbeat CPU 0 instructions: 152500846 cycles: 45698687 heartbeat IPC: 2.499 cumulative IPC: 2.939 (Simulation time: 00 hr 13 min 33 sec)
Heartbeat CPU 0 instructions: 153000850 cycles: 45901630 heartbeat IPC: 2.464 cumulative IPC: 2.936 (Simulation time: 00 hr 13 min 37 sec)
Heartbeat CPU 0 instructions: 153500851 cycles: 46109696 heartbeat IPC: 2.403 cumulative IPC: 2.933 (Simulation time: 00 hr 13 min 40 sec)
Heartbeat CPU 0 instructions: 154000858 cycles: 46314162 heartbeat IPC: 2.445 cumulative IPC: 2.93 (Simulation time: 00 hr 13 min 43 sec)
Heartbeat CPU 0 instructions: 154500861 cycles: 46516929 heartbeat IPC: 2.466 cumulative IPC: 2.927 (Simulation time: 00 hr 13 min 47 sec)
Heartbeat CPU 0 instructions: 155000868 cycles: 46715395 heartbeat IPC: 2.519 cumulative IPC: 2.925 (Simulation time: 00 hr 13 min 50 sec)
Heartbeat CPU 0 instructions: 155500870 cycles: 46916671 heartbeat IPC: 2.484 cumulative IPC: 2.923 (Simulation time: 00 hr 13 min 53 sec)
Heartbeat CPU 0 instructions: 156000873 cycles: 47119397 heartbeat IPC: 2.466 cumulative IPC: 2.92 (Simulation time: 00 hr 13 min 56 sec)
Heartbeat CPU 0 instructions: 156500873 cycles: 47322710 heartbeat IPC: 2.459 cumulative IPC: 2.917 (Simulation time: 00 hr 14 min 00 sec)
Heartbeat CPU 0 instructions: 157000874 cycles: 47526333 heartbeat IPC: 2.456 cumulative IPC: 2.915 (Simulation time: 00 hr 14 min 03 sec)
Heartbeat CPU 0 instructions: 157500879 cycles: 47730264 heartbeat IPC: 2.452 cumulative IPC: 2.912 (Simulation time: 00 hr 14 min 06 sec)
Heartbeat CPU 0 instructions: 158000881 cycles: 47935672 heartbeat IPC: 2.434 cumulative IPC: 2.91 (Simulation time: 00 hr 14 min 10 sec)
Heartbeat CPU 0 instructions: 158500882 cycles: 48137865 heartbeat IPC: 2.473 cumulative IPC: 2.907 (Simulation time: 00 hr 14 min 13 sec)
Heartbeat CPU 0 instructions: 159000884 cycles: 48338919 heartbeat IPC: 2.487 cumulative IPC: 2.905 (Simulation time: 00 hr 14 min 16 sec)
Heartbeat CPU 0 instructions: 159500886 cycles: 48540982 heartbeat IPC: 2.474 cumulative IPC: 2.903 (Simulation time: 00 hr 14 min 19 sec)
Heartbeat CPU 0 instructions: 160000886 cycles: 48745568 heartbeat IPC: 2.444 cumulative IPC: 2.9 (Simulation time: 00 hr 14 min 23 sec)
Heartbeat CPU 0 instructions: 160500888 cycles: 48949831 heartbeat IPC: 2.448 cumulative IPC: 2.898 (Simulation time: 00 hr 14 min 26 sec)
Heartbeat CPU 0 instructions: 161000891 cycles: 49153256 heartbeat IPC: 2.458 cumulative IPC: 2.895 (Simulation time: 00 hr 14 min 29 sec)
Heartbeat CPU 0 instructions: 161500892 cycles: 49354858 heartbeat IPC: 2.48 cumulative IPC: 2.893 (Simulation time: 00 hr 14 min 32 sec)
Heartbeat CPU 0 instructions: 162000893 cycles: 49560236 heartbeat IPC: 2.435 cumulative IPC: 2.891 (Simulation time: 00 hr 14 min 36 sec)
Heartbeat CPU 0 instructions: 162500893 cycles: 49764401 heartbeat IPC: 2.449 cumulative IPC: 2.889 (Simulation time: 00 hr 14 min 39 sec)
Heartbeat CPU 0 instructions: 163000894 cycles: 49969016 heartbeat IPC: 2.444 cumulative IPC: 2.886 (Simulation time: 00 hr 14 min 42 sec)
Heartbeat CPU 0 instructions: 163500898 cycles: 50171654 heartbeat IPC: 2.467 cumulative IPC: 2.884 (Simulation time: 00 hr 14 min 45 sec)
Heartbeat CPU 0 instructions: 164000903 cycles: 50374585 heartbeat IPC: 2.464 cumulative IPC: 2.882 (Simulation time: 00 hr 14 min 49 sec)
Heartbeat CPU 0 instructions: 164500907 cycles: 50579585 heartbeat IPC: 2.439 cumulative IPC: 2.88 (Simulation time: 00 hr 14 min 52 sec)
Heartbeat CPU 0 instructions: 165000911 cycles: 50781504 heartbeat IPC: 2.476 cumulative IPC: 2.878 (Simulation time: 00 hr 14 min 55 sec)
Heartbeat CPU 0 instructions: 165500914 cycles: 50987153 heartbeat IPC: 2.431 cumulative IPC: 2.875 (Simulation time: 00 hr 14 min 58 sec)
Heartbeat CPU 0 instructions: 166000921 cycles: 51191338 heartbeat IPC: 2.449 cumulative IPC: 2.873 (Simulation time: 00 hr 15 min 01 sec)
Heartbeat CPU 0 instructions: 166500925 cycles: 51392520 heartbeat IPC: 2.485 cumulative IPC: 2.871 (Simulation time: 00 hr 15 min 05 sec)
Heartbeat CPU 0 instructions: 167000931 cycles: 51595768 heartbeat IPC: 2.46 cumulative IPC: 2.869 (Simulation time: 00 hr 15 min 08 sec)
Heartbeat CPU 0 instructions: 167500934 cycles: 51800284 heartbeat IPC: 2.445 cumulative IPC: 2.867 (Simulation time: 00 hr 15 min 11 sec)
Heartbeat CPU 0 instructions: 168000937 cycles: 52005023 heartbeat IPC: 2.442 cumulative IPC: 2.865 (Simulation time: 00 hr 15 min 14 sec)
Heartbeat CPU 0 instructions: 168500944 cycles: 52206673 heartbeat IPC: 2.48 cumulative IPC: 2.863 (Simulation time: 00 hr 15 min 18 sec)
Heartbeat CPU 0 instructions: 169000949 cycles: 52407565 heartbeat IPC: 2.489 cumulative IPC: 2.861 (Simulation time: 00 hr 15 min 21 sec)
Heartbeat CPU 0 instructions: 169500950 cycles: 52612796 heartbeat IPC: 2.436 cumulative IPC: 2.859 (Simulation time: 00 hr 15 min 24 sec)
Heartbeat CPU 0 instructions: 170000952 cycles: 52813829 heartbeat IPC: 2.487 cumulative IPC: 2.857 (Simulation time: 00 hr 15 min 27 sec)
Heartbeat CPU 0 instructions: 170500958 cycles: 53018971 heartbeat IPC: 2.437 cumulative IPC: 2.855 (Simulation time: 00 hr 15 min 30 sec)
Heartbeat CPU 0 instructions: 171000963 cycles: 53220499 heartbeat IPC: 2.481 cumulative IPC: 2.854 (Simulation time: 00 hr 15 min 34 sec)
Heartbeat CPU 0 instructions: 171500963 cycles: 53419671 heartbeat IPC: 2.51 cumulative IPC: 2.852 (Simulation time: 00 hr 15 min 37 sec)
Heartbeat CPU 0 instructions: 172000965 cycles: 53624540 heartbeat IPC: 2.441 cumulative IPC: 2.85 (Simulation time: 00 hr 15 min 40 sec)
Heartbeat CPU 0 instructions: 172500968 cycles: 53826390 heartbeat IPC: 2.477 cumulative IPC: 2.848 (Simulation time: 00 hr 15 min 43 sec)
Heartbeat CPU 0 instructions: 173000972 cycles: 54030131 heartbeat IPC: 2.454 cumulative IPC: 2.846 (Simulation time: 00 hr 15 min 46 sec)
Heartbeat CPU 0 instructions: 173500977 cycles: 54230763 heartbeat IPC: 2.492 cumulative IPC: 2.845 (Simulation time: 00 hr 15 min 49 sec)
Heartbeat CPU 0 instructions: 174000977 cycles: 54432785 heartbeat IPC: 2.475 cumulative IPC: 2.843 (Simulation time: 00 hr 15 min 53 sec)
Heartbeat CPU 0 instructions: 174500977 cycles: 54634540 heartbeat IPC: 2.478 cumulative IPC: 2.841 (Simulation time: 00 hr 15 min 56 sec)
Heartbeat CPU 0 instructions: 175000982 cycles: 54835847 heartbeat IPC: 2.484 cumulative IPC: 2.84 (Simulation time: 00 hr 15 min 59 sec)
Heartbeat CPU 0 instructions: 175500989 cycles: 55043538 heartbeat IPC: 2.407 cumulative IPC: 2.838 (Simulation time: 00 hr 16 min 02 sec)
Heartbeat CPU 0 instructions: 176000995 cycles: 55246102 heartbeat IPC: 2.468 cumulative IPC: 2.836 (Simulation time: 00 hr 16 min 05 sec)
Heartbeat CPU 0 instructions: 176500999 cycles: 55449717 heartbeat IPC: 2.456 cumulative IPC: 2.834 (Simulation time: 00 hr 16 min 09 sec)
Heartbeat CPU 0 instructions: 177000999 cycles: 55651771 heartbeat IPC: 2.475 cumulative IPC: 2.833 (Simulation time: 00 hr 16 min 12 sec)
Heartbeat CPU 0 instructions: 177501003 cycles: 55850717 heartbeat IPC: 2.513 cumulative IPC: 2.831 (Simulation time: 00 hr 16 min 15 sec)
Heartbeat CPU 0 instructions: 178001003 cycles: 56059706 heartbeat IPC: 2.392 cumulative IPC: 2.829 (Simulation time: 00 hr 16 min 18 sec)
Heartbeat CPU 0 instructions: 178501010 cycles: 56262532 heartbeat IPC: 2.465 cumulative IPC: 2.828 (Simulation time: 00 hr 16 min 21 sec)
Heartbeat CPU 0 instructions: 179001012 cycles: 56468271 heartbeat IPC: 2.43 cumulative IPC: 2.826 (Simulation time: 00 hr 16 min 24 sec)
Heartbeat CPU 0 instructions: 179501015 cycles: 56670261 heartbeat IPC: 2.475 cumulative IPC: 2.824 (Simulation time: 00 hr 16 min 28 sec)
Heartbeat CPU 0 instructions: 180001016 cycles: 56868745 heartbeat IPC: 2.519 cumulative IPC: 2.823 (Simulation time: 00 hr 16 min 31 sec)
Heartbeat CPU 0 instructions: 180501016 cycles: 57073415 heartbeat IPC: 2.443 cumulative IPC: 2.821 (Simulation time: 00 hr 16 min 34 sec)
Heartbeat CPU 0 instructions: 181001019 cycles: 57274017 heartbeat IPC: 2.493 cumulative IPC: 2.82 (Simulation time: 00 hr 16 min 37 sec)
Heartbeat CPU 0 instructions: 181501019 cycles: 57486604 heartbeat IPC: 2.352 cumulative IPC: 2.818 (Simulation time: 00 hr 16 min 40 sec)
Heartbeat CPU 0 instructions: 182001021 cycles: 57689465 heartbeat IPC: 2.465 cumulative IPC: 2.816 (Simulation time: 00 hr 16 min 43 sec)
Heartbeat CPU 0 instructions: 182501025 cycles: 57888412 heartbeat IPC: 2.513 cumulative IPC: 2.815 (Simulation time: 00 hr 16 min 47 sec)
Heartbeat CPU 0 instructions: 183001032 cycles: 58094698 heartbeat IPC: 2.424 cumulative IPC: 2.813 (Simulation time: 00 hr 16 min 50 sec)
Heartbeat CPU 0 instructions: 183501033 cycles: 58296352 heartbeat IPC: 2.479 cumulative IPC: 2.812 (Simulation time: 00 hr 16 min 53 sec)
Heartbeat CPU 0 instructions: 184001033 cycles: 58500476 heartbeat IPC: 2.449 cumulative IPC: 2.81 (Simulation time: 00 hr 16 min 56 sec)
Heartbeat CPU 0 instructions: 184501034 cycles: 58703733 heartbeat IPC: 2.46 cumulative IPC: 2.809 (Simulation time: 00 hr 16 min 59 sec)
Heartbeat CPU 0 instructions: 185001037 cycles: 58909175 heartbeat IPC: 2.434 cumulative IPC: 2.807 (Simulation time: 00 hr 17 min 02 sec)
Heartbeat CPU 0 instructions: 185501038 cycles: 59112691 heartbeat IPC: 2.457 cumulative IPC: 2.806 (Simulation time: 00 hr 17 min 05 sec)
Heartbeat CPU 0 instructions: 186001038 cycles: 59312786 heartbeat IPC: 2.499 cumulative IPC: 2.804 (Simulation time: 00 hr 17 min 09 sec)
Heartbeat CPU 0 instructions: 186501038 cycles: 59516368 heartbeat IPC: 2.456 cumulative IPC: 2.803 (Simulation time: 00 hr 17 min 12 sec)
Heartbeat CPU 0 instructions: 187001042 cycles: 59718898 heartbeat IPC: 2.469 cumulative IPC: 2.802 (Simulation time: 00 hr 17 min 15 sec)
Heartbeat CPU 0 instructions: 187501043 cycles: 59923762 heartbeat IPC: 2.441 cumulative IPC: 2.8 (Simulation time: 00 hr 17 min 18 sec)
Heartbeat CPU 0 instructions: 188001043 cycles: 60129602 heartbeat IPC: 2.429 cumulative IPC: 2.799 (Simulation time: 00 hr 17 min 21 sec)
Heartbeat CPU 0 instructions: 188501046 cycles: 60335927 heartbeat IPC: 2.423 cumulative IPC: 2.797 (Simulation time: 00 hr 17 min 24 sec)
Heartbeat CPU 0 instructions: 189001046 cycles: 60539517 heartbeat IPC: 2.456 cumulative IPC: 2.796 (Simulation time: 00 hr 17 min 27 sec)
Heartbeat CPU 0 instructions: 189501047 cycles: 60739669 heartbeat IPC: 2.498 cumulative IPC: 2.794 (Simulation time: 00 hr 17 min 30 sec)
Heartbeat CPU 0 instructions: 190001050 cycles: 60938838 heartbeat IPC: 2.51 cumulative IPC: 2.793 (Simulation time: 00 hr 17 min 33 sec)
Heartbeat CPU 0 instructions: 190501050 cycles: 61143876 heartbeat IPC: 2.439 cumulative IPC: 2.792 (Simulation time: 00 hr 17 min 36 sec)
Heartbeat CPU 0 instructions: 191001054 cycles: 61346776 heartbeat IPC: 2.464 cumulative IPC: 2.79 (Simulation time: 00 hr 17 min 39 sec)
Heartbeat CPU 0 instructions: 191501056 cycles: 61553483 heartbeat IPC: 2.419 cumulative IPC: 2.789 (Simulation time: 00 hr 17 min 43 sec)
Heartbeat CPU 0 instructions: 192001056 cycles: 61753512 heartbeat IPC: 2.5 cumulative IPC: 2.788 (Simulation time: 00 hr 17 min 46 sec)
Heartbeat CPU 0 instructions: 192501058 cycles: 61956405 heartbeat IPC: 2.464 cumulative IPC: 2.787 (Simulation time: 00 hr 17 min 49 sec)
Heartbeat CPU 0 instructions: 193001060 cycles: 62161920 heartbeat IPC: 2.433 cumulative IPC: 2.785 (Simulation time: 00 hr 17 min 52 sec)
Heartbeat CPU 0 instructions: 193501064 cycles: 62361879 heartbeat IPC: 2.501 cumulative IPC: 2.784 (Simulation time: 00 hr 17 min 55 sec)
Heartbeat CPU 0 instructions: 194001064 cycles: 62566667 heartbeat IPC: 2.442 cumulative IPC: 2.783 (Simulation time: 00 hr 17 min 58 sec)
Heartbeat CPU 0 instructions: 194501069 cycles: 62770903 heartbeat IPC: 2.448 cumulative IPC: 2.781 (Simulation time: 00 hr 18 min 01 sec)
Heartbeat CPU 0 instructions: 195001076 cycles: 62975847 heartbeat IPC: 2.44 cumulative IPC: 2.78 (Simulation time: 00 hr 18 min 04 sec)
Heartbeat CPU 0 instructions: 195501078 cycles: 63177675 heartbeat IPC: 2.477 cumulative IPC: 2.779 (Simulation time: 00 hr 18 min 07 sec)
Heartbeat CPU 0 instructions: 196001082 cycles: 63377989 heartbeat IPC: 2.496 cumulative IPC: 2.778 (Simulation time: 00 hr 18 min 10 sec)
Heartbeat CPU 0 instructions: 196501083 cycles: 63584406 heartbeat IPC: 2.422 cumulative IPC: 2.776 (Simulation time: 00 hr 18 min 13 sec)
Heartbeat CPU 0 instructions: 197001084 cycles: 63785489 heartbeat IPC: 2.487 cumulative IPC: 2.775 (Simulation time: 00 hr 18 min 16 sec)
Heartbeat CPU 0 instructions: 197501084 cycles: 63989676 heartbeat IPC: 2.449 cumulative IPC: 2.774 (Simulation time: 00 hr 18 min 19 sec)
Heartbeat CPU 0 instructions: 198001089 cycles: 64195768 heartbeat IPC: 2.426 cumulative IPC: 2.773 (Simulation time: 00 hr 18 min 22 sec)
Heartbeat CPU 0 instructions: 198501090 cycles: 64397791 heartbeat IPC: 2.475 cumulative IPC: 2.772 (Simulation time: 00 hr 18 min 26 sec)
Heartbeat CPU 0 instructions: 199001091 cycles: 64602535 heartbeat IPC: 2.442 cumulative IPC: 2.77 (Simulation time: 00 hr 18 min 29 sec)
Heartbeat CPU 0 instructions: 199501095 cycles: 64803189 heartbeat IPC: 2.492 cumulative IPC: 2.769 (Simulation time: 00 hr 18 min 32 sec)
Heartbeat CPU 0 instructions: 200001096 cycles: 65011110 heartbeat IPC: 2.405 cumulative IPC: 2.768 (Simulation time: 00 hr 18 min 35 sec)
Heartbeat CPU 0 instructions: 200501096 cycles: 65215348 heartbeat IPC: 2.448 cumulative IPC: 2.767 (Simulation time: 00 hr 18 min 38 sec)
Heartbeat CPU 0 instructions: 201001100 cycles: 65415334 heartbeat IPC: 2.5 cumulative IPC: 2.766 (Simulation time: 00 hr 18 min 41 sec)
Heartbeat CPU 0 instructions: 201501105 cycles: 65618188 heartbeat IPC: 2.465 cumulative IPC: 2.765 (Simulation time: 00 hr 18 min 44 sec)
Heartbeat CPU 0 instructions: 202001110 cycles: 65820223 heartbeat IPC: 2.475 cumulative IPC: 2.764 (Simulation time: 00 hr 18 min 47 sec)
Heartbeat CPU 0 instructions: 202501110 cycles: 66023905 heartbeat IPC: 2.455 cumulative IPC: 2.762 (Simulation time: 00 hr 18 min 50 sec)
Heartbeat CPU 0 instructions: 203001110 cycles: 66225357 heartbeat IPC: 2.482 cumulative IPC: 2.761 (Simulation time: 00 hr 18 min 53 sec)
Heartbeat CPU 0 instructions: 203501116 cycles: 66428791 heartbeat IPC: 2.458 cumulative IPC: 2.76 (Simulation time: 00 hr 18 min 56 sec)
Heartbeat CPU 0 instructions: 204001116 cycles: 66634554 heartbeat IPC: 2.43 cumulative IPC: 2.759 (Simulation time: 00 hr 18 min 59 sec)
Heartbeat CPU 0 instructions: 204501116 cycles: 66838181 heartbeat IPC: 2.455 cumulative IPC: 2.758 (Simulation time: 00 hr 19 min 02 sec)
Heartbeat CPU 0 instructions: 205001117 cycles: 67043546 heartbeat IPC: 2.435 cumulative IPC: 2.757 (Simulation time: 00 hr 19 min 06 sec)
Heartbeat CPU 0 instructions: 205501122 cycles: 67243161 heartbeat IPC: 2.505 cumulative IPC: 2.756 (Simulation time: 00 hr 19 min 09 sec)
Heartbeat CPU 0 instructions: 206001123 cycles: 67442499 heartbeat IPC: 2.508 cumulative IPC: 2.755 (Simulation time: 00 hr 19 min 12 sec)
Heartbeat CPU 0 instructions: 206501124 cycles: 67647337 heartbeat IPC: 2.441 cumulative IPC: 2.754 (Simulation time: 00 hr 19 min 15 sec)
Heartbeat CPU 0 instructions: 207001128 cycles: 67848820 heartbeat IPC: 2.482 cumulative IPC: 2.753 (Simulation time: 00 hr 19 min 18 sec)
Heartbeat CPU 0 instructions: 207501128 cycles: 68053165 heartbeat IPC: 2.447 cumulative IPC: 2.752 (Simulation time: 00 hr 19 min 21 sec)
Heartbeat CPU 0 instructions: 208001128 cycles: 68255797 heartbeat IPC: 2.468 cumulative IPC: 2.751 (Simulation time: 00 hr 19 min 24 sec)
Heartbeat CPU 0 instructions: 208501130 cycles: 68455678 heartbeat IPC: 2.501 cumulative IPC: 2.75 (Simulation time: 00 hr 19 min 27 sec)
Heartbeat CPU 0 instructions: 209001130 cycles: 68660034 heartbeat IPC: 2.447 cumulative IPC: 2.749 (Simulation time: 00 hr 19 min 30 sec)
Heartbeat CPU 0 instructions: 209501134 cycles: 68862901 heartbeat IPC: 2.465 cumulative IPC: 2.748 (Simulation time: 00 hr 19 min 33 sec)
Heartbeat CPU 0 instructions: 210001135 cycles: 69066897 heartbeat IPC: 2.451 cumulative IPC: 2.747 (Simulation time: 00 hr 19 min 36 sec)
Heartbeat CPU 0 instructions: 210501140 cycles: 69268007 heartbeat IPC: 2.486 cumulative IPC: 2.746 (Simulation time: 00 hr 19 min 39 sec)
Heartbeat CPU 0 instructions: 211001140 cycles: 69468408 heartbeat IPC: 2.495 cumulative IPC: 2.745 (Simulation time: 00 hr 19 min 42 sec)
Heartbeat CPU 0 instructions: 211501141 cycles: 69673008 heartbeat IPC: 2.444 cumulative IPC: 2.744 (Simulation time: 00 hr 19 min 45 sec)
Heartbeat CPU 0 instructions: 212001141 cycles: 69875706 heartbeat IPC: 2.467 cumulative IPC: 2.743 (Simulation time: 00 hr 19 min 48 sec)
Heartbeat CPU 0 instructions: 212501142 cycles: 70077906 heartbeat IPC: 2.473 cumulative IPC: 2.742 (Simulation time: 00 hr 19 min 51 sec)
Heartbeat CPU 0 instructions: 213001146 cycles: 70278479 heartbeat IPC: 2.493 cumulative IPC: 2.741 (Simulation time: 00 hr 19 min 54 sec)
Heartbeat CPU 0 instructions: 213501151 cycles: 70475849 heartbeat IPC: 2.533 cumulative IPC: 2.741 (Simulation time: 00 hr 19 min 57 sec)
Heartbeat CPU 0 instructions: 214001152 cycles: 70684416 heartbeat IPC: 2.397 cumulative IPC: 2.739 (Simulation time: 00 hr 20 min 00 sec)
Heartbeat CPU 0 instructions: 214501153 cycles: 70885658 heartbeat IPC: 2.485 cumulative IPC: 2.739 (Simulation time: 00 hr 20 min 03 sec)
Heartbeat CPU 0 instructions: 215001155 cycles: 71086581 heartbeat IPC: 2.489 cumulative IPC: 2.738 (Simulation time: 00 hr 20 min 06 sec)
Heartbeat CPU 0 instructions: 215501155 cycles: 71287691 heartbeat IPC: 2.486 cumulative IPC: 2.737 (Simulation time: 00 hr 20 min 09 sec)
Heartbeat CPU 0 instructions: 216001160 cycles: 71486731 heartbeat IPC: 2.512 cumulative IPC: 2.736 (Simulation time: 00 hr 20 min 12 sec)
Heartbeat CPU 0 instructions: 216501162 cycles: 71685899 heartbeat IPC: 2.51 cumulative IPC: 2.735 (Simulation time: 00 hr 20 min 15 sec)
Heartbeat CPU 0 instructions: 217001163 cycles: 71886106 heartbeat IPC: 2.497 cumulative IPC: 2.735 (Simulation time: 00 hr 20 min 18 sec)
Heartbeat CPU 0 instructions: 217501165 cycles: 72090027 heartbeat IPC: 2.452 cumulative IPC: 2.734 (Simulation time: 00 hr 20 min 21 sec)
Heartbeat CPU 0 instructions: 218001168 cycles: 72289848 heartbeat IPC: 2.502 cumulative IPC: 2.733 (Simulation time: 00 hr 20 min 24 sec)
Heartbeat CPU 0 instructions: 218501168 cycles: 72489943 heartbeat IPC: 2.499 cumulative IPC: 2.732 (Simulation time: 00 hr 20 min 27 sec)
Heartbeat CPU 0 instructions: 219001171 cycles: 72690849 heartbeat IPC: 2.489 cumulative IPC: 2.731 (Simulation time: 00 hr 20 min 30 sec)
Heartbeat CPU 0 instructions: 219501176 cycles: 72891002 heartbeat IPC: 2.498 cumulative IPC: 2.731 (Simulation time: 00 hr 20 min 33 sec)
Heartbeat CPU 0 instructions: 220001181 cycles: 73093270 heartbeat IPC: 2.472 cumulative IPC: 2.73 (Simulation time: 00 hr 20 min 36 sec)
Heartbeat CPU 0 instructions: 220501186 cycles: 73297644 heartbeat IPC: 2.447 cumulative IPC: 2.729 (Simulation time: 00 hr 20 min 39 sec)
Heartbeat CPU 0 instructions: 221001188 cycles: 73500216 heartbeat IPC: 2.468 cumulative IPC: 2.728 (Simulation time: 00 hr 20 min 42 sec)
Heartbeat CPU 0 instructions: 221501195 cycles: 73701102 heartbeat IPC: 2.489 cumulative IPC: 2.727 (Simulation time: 00 hr 20 min 45 sec)
Heartbeat CPU 0 instructions: 222001200 cycles: 73903100 heartbeat IPC: 2.475 cumulative IPC: 2.726 (Simulation time: 00 hr 20 min 48 sec)
Heartbeat CPU 0 instructions: 222501203 cycles: 74106209 heartbeat IPC: 2.462 cumulative IPC: 2.726 (Simulation time: 00 hr 20 min 51 sec)
Heartbeat CPU 0 instructions: 223001203 cycles: 74305744 heartbeat IPC: 2.506 cumulative IPC: 2.725 (Simulation time: 00 hr 20 min 54 sec)
Heartbeat CPU 0 instructions: 223501205 cycles: 74509586 heartbeat IPC: 2.453 cumulative IPC: 2.724 (Simulation time: 00 hr 20 min 57 sec)
Heartbeat CPU 0 instructions: 224001208 cycles: 74711197 heartbeat IPC: 2.48 cumulative IPC: 2.723 (Simulation time: 00 hr 21 min 00 sec)
Heartbeat CPU 0 instructions: 224501208 cycles: 74913834 heartbeat IPC: 2.467 cumulative IPC: 2.722 (Simulation time: 00 hr 21 min 03 sec)
Heartbeat CPU 0 instructions: 225001208 cycles: 75116662 heartbeat IPC: 2.465 cumulative IPC: 2.722 (Simulation time: 00 hr 21 min 06 sec)
Heartbeat CPU 0 instructions: 225501208 cycles: 75321000 heartbeat IPC: 2.447 cumulative IPC: 2.721 (Simulation time: 00 hr 21 min 09 sec)
Heartbeat CPU 0 instructions: 226001210 cycles: 75521307 heartbeat IPC: 2.496 cumulative IPC: 2.72 (Simulation time: 00 hr 21 min 12 sec)
Heartbeat CPU 0 instructions: 226501210 cycles: 75722905 heartbeat IPC: 2.48 cumulative IPC: 2.719 (Simulation time: 00 hr 21 min 15 sec)
Heartbeat CPU 0 instructions: 227001214 cycles: 75922426 heartbeat IPC: 2.506 cumulative IPC: 2.719 (Simulation time: 00 hr 21 min 17 sec)
Heartbeat CPU 0 instructions: 227501216 cycles: 76120916 heartbeat IPC: 2.519 cumulative IPC: 2.718 (Simulation time: 00 hr 21 min 20 sec)
Heartbeat CPU 0 instructions: 228001217 cycles: 76322281 heartbeat IPC: 2.483 cumulative IPC: 2.717 (Simulation time: 00 hr 21 min 23 sec)
Heartbeat CPU 0 instructions: 228501218 cycles: 76524922 heartbeat IPC: 2.467 cumulative IPC: 2.717 (Simulation time: 00 hr 21 min 26 sec)
Heartbeat CPU 0 instructions: 229001219 cycles: 76728667 heartbeat IPC: 2.454 cumulative IPC: 2.716 (Simulation time: 00 hr 21 min 29 sec)
Heartbeat CPU 0 instructions: 229501223 cycles: 76927156 heartbeat IPC: 2.519 cumulative IPC: 2.715 (Simulation time: 00 hr 21 min 32 sec)
Heartbeat CPU 0 instructions: 230001225 cycles: 77128901 heartbeat IPC: 2.478 cumulative IPC: 2.714 (Simulation time: 00 hr 21 min 35 sec)
Heartbeat CPU 0 instructions: 230501225 cycles: 77335681 heartbeat IPC: 2.418 cumulative IPC: 2.714 (Simulation time: 00 hr 21 min 38 sec)
Heartbeat CPU 0 instructions: 231001227 cycles: 77536198 heartbeat IPC: 2.494 cumulative IPC: 2.713 (Simulation time: 00 hr 21 min 41 sec)
Heartbeat CPU 0 instructions: 231501232 cycles: 77735712 heartbeat IPC: 2.506 cumulative IPC: 2.712 (Simulation time: 00 hr 21 min 44 sec)
Heartbeat CPU 0 instructions: 232001236 cycles: 77932505 heartbeat IPC: 2.541 cumulative IPC: 2.712 (Simulation time: 00 hr 21 min 46 sec)
Heartbeat CPU 0 instructions: 232501241 cycles: 78136173 heartbeat IPC: 2.455 cumulative IPC: 2.711 (Simulation time: 00 hr 21 min 49 sec)
Heartbeat CPU 0 instructions: 233001247 cycles: 78336958 heartbeat IPC: 2.49 cumulative IPC: 2.71 (Simulation time: 00 hr 21 min 52 sec)
Heartbeat CPU 0 instructions: 233501248 cycles: 78537485 heartbeat IPC: 2.493 cumulative IPC: 2.71 (Simulation time: 00 hr 21 min 55 sec)
Heartbeat CPU 0 instructions: 234001249 cycles: 78738851 heartbeat IPC: 2.483 cumulative IPC: 2.709 (Simulation time: 00 hr 21 min 58 sec)
Heartbeat CPU 0 instructions: 234501252 cycles: 78936934 heartbeat IPC: 2.524 cumulative IPC: 2.708 (Simulation time: 00 hr 22 min 01 sec)
Heartbeat CPU 0 instructions: 235001255 cycles: 79139882 heartbeat IPC: 2.464 cumulative IPC: 2.708 (Simulation time: 00 hr 22 min 04 sec)
Heartbeat CPU 0 instructions: 235501255 cycles: 79342610 heartbeat IPC: 2.466 cumulative IPC: 2.707 (Simulation time: 00 hr 22 min 07 sec)
Heartbeat CPU 0 instructions: 236001258 cycles: 79546177 heartbeat IPC: 2.456 cumulative IPC: 2.706 (Simulation time: 00 hr 22 min 10 sec)
Heartbeat CPU 0 instructions: 236501262 cycles: 79745266 heartbeat IPC: 2.511 cumulative IPC: 2.706 (Simulation time: 00 hr 22 min 13 sec)
Heartbeat CPU 0 instructions: 237001262 cycles: 79948583 heartbeat IPC: 2.459 cumulative IPC: 2.705 (Simulation time: 00 hr 22 min 16 sec)
Heartbeat CPU 0 instructions: 237501264 cycles: 80150471 heartbeat IPC: 2.477 cumulative IPC: 2.704 (Simulation time: 00 hr 22 min 18 sec)
Heartbeat CPU 0 instructions: 238001268 cycles: 80352368 heartbeat IPC: 2.477 cumulative IPC: 2.704 (Simulation time: 00 hr 22 min 21 sec)
Heartbeat CPU 0 instructions: 238501270 cycles: 80552703 heartbeat IPC: 2.496 cumulative IPC: 2.703 (Simulation time: 00 hr 22 min 24 sec)
Heartbeat CPU 0 instructions: 239001275 cycles: 80754947 heartbeat IPC: 2.472 cumulative IPC: 2.702 (Simulation time: 00 hr 22 min 27 sec)
Heartbeat CPU 0 instructions: 239501275 cycles: 80953857 heartbeat IPC: 2.514 cumulative IPC: 2.702 (Simulation time: 00 hr 22 min 30 sec)
Heartbeat CPU 0 instructions: 240001280 cycles: 81151505 heartbeat IPC: 2.53 cumulative IPC: 2.701 (Simulation time: 00 hr 22 min 33 sec)
Heartbeat CPU 0 instructions: 240501285 cycles: 81354702 heartbeat IPC: 2.461 cumulative IPC: 2.701 (Simulation time: 00 hr 22 min 36 sec)
Heartbeat CPU 0 instructions: 241001287 cycles: 81556600 heartbeat IPC: 2.477 cumulative IPC: 2.7 (Simulation time: 00 hr 22 min 39 sec)
Heartbeat CPU 0 instructions: 241501288 cycles: 81760217 heartbeat IPC: 2.456 cumulative IPC: 2.699 (Simulation time: 00 hr 22 min 41 sec)
Heartbeat CPU 0 instructions: 242001290 cycles: 81963373 heartbeat IPC: 2.461 cumulative IPC: 2.699 (Simulation time: 00 hr 22 min 44 sec)
Heartbeat CPU 0 instructions: 242501293 cycles: 82164809 heartbeat IPC: 2.482 cumulative IPC: 2.698 (Simulation time: 00 hr 22 min 47 sec)
Heartbeat CPU 0 instructions: 243001293 cycles: 82367027 heartbeat IPC: 2.473 cumulative IPC: 2.697 (Simulation time: 00 hr 22 min 50 sec)
Heartbeat CPU 0 instructions: 243501295 cycles: 82568261 heartbeat IPC: 2.485 cumulative IPC: 2.697 (Simulation time: 00 hr 22 min 53 sec)
Heartbeat CPU 0 instructions: 244001300 cycles: 82771912 heartbeat IPC: 2.455 cumulative IPC: 2.696 (Simulation time: 00 hr 22 min 56 sec)
Heartbeat CPU 0 instructions: 244501306 cycles: 82971266 heartbeat IPC: 2.508 cumulative IPC: 2.696 (Simulation time: 00 hr 22 min 59 sec)
Heartbeat CPU 0 instructions: 245001311 cycles: 83174387 heartbeat IPC: 2.462 cumulative IPC: 2.695 (Simulation time: 00 hr 23 min 01 sec)
Heartbeat CPU 0 instructions: 245501315 cycles: 83376061 heartbeat IPC: 2.479 cumulative IPC: 2.694 (Simulation time: 00 hr 23 min 04 sec)
Heartbeat CPU 0 instructions: 246001320 cycles: 83579974 heartbeat IPC: 2.452 cumulative IPC: 2.694 (Simulation time: 00 hr 23 min 07 sec)
Heartbeat CPU 0 instructions: 246501326 cycles: 83780152 heartbeat IPC: 2.498 cumulative IPC: 2.693 (Simulation time: 00 hr 23 min 10 sec)
Heartbeat CPU 0 instructions: 247001328 cycles: 83984078 heartbeat IPC: 2.452 cumulative IPC: 2.692 (Simulation time: 00 hr 23 min 13 sec)
Heartbeat CPU 0 instructions: 247501335 cycles: 84181959 heartbeat IPC: 2.527 cumulative IPC: 2.692 (Simulation time: 00 hr 23 min 16 sec)
Heartbeat CPU 0 instructions: 248001339 cycles: 84385325 heartbeat IPC: 2.459 cumulative IPC: 2.691 (Simulation time: 00 hr 23 min 18 sec)
Heartbeat CPU 0 instructions: 248501341 cycles: 84582800 heartbeat IPC: 2.532 cumulative IPC: 2.691 (Simulation time: 00 hr 23 min 21 sec)
Heartbeat CPU 0 instructions: 249001342 cycles: 84782885 heartbeat IPC: 2.499 cumulative IPC: 2.69 (Simulation time: 00 hr 23 min 24 sec)
Heartbeat CPU 0 instructions: 249501345 cycles: 84987643 heartbeat IPC: 2.442 cumulative IPC: 2.69 (Simulation time: 00 hr 23 min 27 sec)
Simulation finished CPU 0 instructions: 200000004 cycles: 74372902 cumulative IPC: 2.689 (Simulation time: 00 hr 23 min 30 sec)
Simulation complete CPU 0 instructions: 200000004 cycles: 74372902 cumulative IPC: 2.689 (Simulation time: 00 hr 23 min 30 sec)

ChampSim completed all CPUs

=== Simulation ===
CPU 0 runs /local-ssd/ben/dpc4-traces/SPEC17/654.roms_s-293B.champsimtrace.xz

Region of Interest Statistics

CPU 0 cumulative IPC: 2.689 instructions: 200000004 cycles: 74372902
CPU 0 Branch Prediction Accuracy: 99.91% MPKI: 0.03265 Average ROB Occupancy at Mispredict: 501.2
Branch type MPKI
BRANCH_DIRECT_JUMP: 6e-05
BRANCH_INDIRECT: 0
BRANCH_CONDITIONAL: 0.03229
BRANCH_DIRECT_CALL: 0.00015
BRANCH_INDIRECT_CALL: 0
BRANCH_RETURN: 0.00015

cpu0->cpu0_STLB TOTAL        ACCESS:      73597 HIT:      25712 MISS:      47885 MSHR_MERGE:          0
cpu0->cpu0_STLB LOAD         ACCESS:      73597 HIT:      25712 MISS:      47885 MSHR_MERGE:          0
cpu0->cpu0_STLB RFO          ACCESS:          0 HIT:          0 MISS:          0 MSHR_MERGE:          0
cpu0->cpu0_STLB PREFETCH     ACCESS:          0 HIT:          0 MISS:          0 MSHR_MERGE:          0
cpu0->cpu0_STLB WRITE        ACCESS:          0 HIT:          0 MISS:          0 MSHR_MERGE:          0
cpu0->cpu0_STLB TRANSLATION  ACCESS:          0 HIT:          0 MISS:          0 MSHR_MERGE:          0
cpu0->cpu0_STLB PREFETCH REQUESTED:          0 ISSUED:          0 USEFUL:          0 USELESS:          0
cpu0->cpu0_STLB AVERAGE MISS LATENCY: 319.6 cycles
cpu0->cpu0_L2C TOTAL        ACCESS:    4805352 HIT:    2476531 MISS:    2328821 MSHR_MERGE:     348403
cpu0->cpu0_L2C LOAD         ACCESS:     235970 HIT:     180745 MISS:      55225 MSHR_MERGE:       2819
cpu0->cpu0_L2C RFO          ACCESS:     405217 HIT:      88760 MISS:     316457 MSHR_MERGE:          1
cpu0->cpu0_L2C PREFETCH     ACCESS:    3696382 HIT:    1756220 MISS:    1940162 MSHR_MERGE:     345583
cpu0->cpu0_L2C WRITE        ACCESS:     425906 HIT:     425771 MISS:        135 MSHR_MERGE:          0
cpu0->cpu0_L2C TRANSLATION  ACCESS:      41877 HIT:      25035 MISS:      16842 MSHR_MERGE:          0
cpu0->cpu0_L2C PREFETCH REQUESTED:    1751063 ISSUED:    1750681 USEFUL:    1026308 USELESS:     306778
cpu0->cpu0_L2C AVERAGE MISS LATENCY: 152.7 cycles
cpu0->cpu0_L1I TOTAL        ACCESS:   36299152 HIT:   36298951 MISS:        201 MSHR_MERGE:         28
cpu0->cpu0_L1I LOAD         ACCESS:   36299152 HIT:   36298951 MISS:        201 MSHR_MERGE:         28
cpu0->cpu0_L1I RFO          ACCESS:          0 HIT:          0 MISS:          0 MSHR_MERGE:          0
cpu0->cpu0_L1I PREFETCH     ACCESS:          0 HIT:          0 MISS:          0 MSHR_MERGE:          0
cpu0->cpu0_L1I WRITE        ACCESS:          0 HIT:          0 MISS:          0 MSHR_MERGE:          0
cpu0->cpu0_L1I TRANSLATION  ACCESS:          0 HIT:          0 MISS:          0 MSHR_MERGE:          0
cpu0->cpu0_L1I PREFETCH REQUESTED:          0 ISSUED:          0 USEFUL:          0 USELESS:          0
cpu0->cpu0_L1I AVERAGE MISS LATENCY: 275.1 cycles
cpu0->cpu0_L1D TOTAL        ACCESS:   55704086 HIT:   51911891 MISS:    3792195 MSHR_MERGE:    1163489
cpu0->cpu0_L1D LOAD         ACCESS:   41659953 HIT:   41072733 MISS:     587220 MSHR_MERGE:     351420
cpu0->cpu0_L1D RFO          ACCESS:          0 HIT:          0 MISS:          0 MSHR_MERGE:          0
cpu0->cpu0_L1D PREFETCH     ACCESS:    2527577 HIT:     566470 MISS:    1961107 MSHR_MERGE:      15401
cpu0->cpu0_L1D WRITE        ACCESS:   11396791 HIT:   10194988 MISS:    1201803 MSHR_MERGE:     796480
cpu0->cpu0_L1D TRANSLATION  ACCESS:     119765 HIT:      77700 MISS:      42065 MSHR_MERGE:        188
cpu0->cpu0_L1D PREFETCH REQUESTED:    2577128 ISSUED:    2527570 USEFUL:    1893960 USELESS:      51730
cpu0->cpu0_L1D AVERAGE MISS LATENCY: 104 cycles
cpu0->cpu0_ITLB TOTAL        ACCESS:   27577270 HIT:   27577224 MISS:         46 MSHR_MERGE:         30
cpu0->cpu0_ITLB LOAD         ACCESS:   27577270 HIT:   27577224 MISS:         46 MSHR_MERGE:         30
cpu0->cpu0_ITLB RFO          ACCESS:          0 HIT:          0 MISS:          0 MSHR_MERGE:          0
cpu0->cpu0_ITLB PREFETCH     ACCESS:          0 HIT:          0 MISS:          0 MSHR_MERGE:          0
cpu0->cpu0_ITLB WRITE        ACCESS:          0 HIT:          0 MISS:          0 MSHR_MERGE:          0
cpu0->cpu0_ITLB TRANSLATION  ACCESS:          0 HIT:          0 MISS:          0 MSHR_MERGE:          0
cpu0->cpu0_ITLB PREFETCH REQUESTED:          0 ISSUED:          0 USEFUL:          0 USELESS:          0
cpu0->cpu0_ITLB AVERAGE MISS LATENCY: 386.8 cycles
cpu0->cpu0_DTLB TOTAL        ACCESS:   53922708 HIT:   53712259 MISS:     210449 MSHR_MERGE:     136868
cpu0->cpu0_DTLB LOAD         ACCESS:   53922708 HIT:   53712259 MISS:     210449 MSHR_MERGE:     136868
cpu0->cpu0_DTLB RFO          ACCESS:          0 HIT:          0 MISS:          0 MSHR_MERGE:          0
cpu0->cpu0_DTLB PREFETCH     ACCESS:          0 HIT:          0 MISS:          0 MSHR_MERGE:          0
cpu0->cpu0_DTLB WRITE        ACCESS:          0 HIT:          0 MISS:          0 MSHR_MERGE:          0
cpu0->cpu0_DTLB TRANSLATION  ACCESS:          0 HIT:          0 MISS:          0 MSHR_MERGE:          0
cpu0->cpu0_DTLB PREFETCH REQUESTED:          0 ISSUED:          0 USEFUL:          0 USELESS:          0
cpu0->cpu0_DTLB AVERAGE MISS LATENCY: 213.6 cycles
cpu0->LLC TOTAL        ACCESS:    2613497 HIT:     657476 MISS:    1956021 MSHR_MERGE:      95174
cpu0->LLC LOAD         ACCESS:      52406 HIT:      10378 MISS:      42028 MSHR_MERGE:        533
cpu0->LLC RFO          ACCESS:     316456 HIT:     189502 MISS:     126954 MSHR_MERGE:          0
cpu0->LLC PREFETCH     ACCESS:    1856846 HIT:     211060 MISS:    1645786 MSHR_MERGE:      94641
cpu0->LLC WRITE        ACCESS:     370947 HIT:     245373 MISS:     125574 MSHR_MERGE:          0
cpu0->LLC TRANSLATION  ACCESS:      16842 HIT:       1163 MISS:      15679 MSHR_MERGE:          0
cpu0->LLC PREFETCH REQUESTED:     264130 ISSUED:     262267 USEFUL:     135406 USELESS:      30712
cpu0->LLC AVERAGE MISS LATENCY: 169.1 cycles

DRAM Statistics

Channel 0 RQ ROW_BUFFER_HIT:      12101
  ROW_BUFFER_MISS:    1723087
  AVG DBUS CONGESTED CYCLE: 11.58
Channel 0 WQ ROW_BUFFER_HIT:      26011
  ROW_BUFFER_MISS:     148309
  FULL:        715
Channel 0 REFRESHES ISSUED:       6197
