[VMEM] WARNING: physical memory size is smaller than virtual memory size.

*** ChampSim Multicore Out-of-Order Simulator ***
Warmup Instructions: 50000000
Simulation Instructions: 200000000
Number of CPUs: 1
Page size: 4096
Core 0: /local-ssd/ben/dpc4-traces/Graph/Ligra/ligra_MIS.com-lj.ungraph.gcc_6.3.0_O3.drop_15750M.length_250M.champsimtrace.xz
sBerti (Smart Stride + Berti) Prefetcher Initialized
Off-chip DRAM Size: 64 GiB Channels: 1 Width: 64-bit Data Rate: 4807 MT/s
Heartbeat CPU 0 instructions: 500002 cycles: 138942 heartbeat IPC: 3.599 cumulative IPC: 3.599 (Simulation time: 00 hr 00 min 05 sec)
Heartbeat CPU 0 instructions: 1000004 cycles: 275705 heartbeat IPC: 3.656 cumulative IPC: 3.627 (Simulation time: 00 hr 00 min 09 sec)
Heartbeat CPU 0 instructions: 1500010 cycles: 412608 heartbeat IPC: 3.652 cumulative IPC: 3.635 (Simulation time: 00 hr 00 min 12 sec)
Heartbeat CPU 0 instructions: 2000011 cycles: 548042 heartbeat IPC: 3.692 cumulative IPC: 3.649 (Simulation time: 00 hr 00 min 16 sec)
Heartbeat CPU 0 instructions: 2500018 cycles: 685132 heartbeat IPC: 3.647 cumulative IPC: 3.649 (Simulation time: 00 hr 00 min 20 sec)
Heartbeat CPU 0 instructions: 3000022 cycles: 823130 heartbeat IPC: 3.623 cumulative IPC: 3.645 (Simulation time: 00 hr 00 min 24 sec)
Heartbeat CPU 0 instructions: 3500026 cycles: 959719 heartbeat IPC: 3.661 cumulative IPC: 3.647 (Simulation time: 00 hr 00 min 28 sec)
Heartbeat CPU 0 instructions: 4000026 cycles: 1096874 heartbeat IPC: 3.646 cumulative IPC: 3.647 (Simulation time: 00 hr 00 min 31 sec)
Heartbeat CPU 0 instructions: 4500032 cycles: 1233992 heartbeat IPC: 3.647 cumulative IPC: 3.647 (Simulation time: 00 hr 00 min 35 sec)
Heartbeat CPU 0 instructions: 5000038 cycles: 1370414 heartbeat IPC: 3.665 cumulative IPC: 3.649 (Simulation time: 00 hr 00 min 39 sec)
Heartbeat CPU 0 instructions: 5500045 cycles: 1506556 heartbeat IPC: 3.673 cumulative IPC: 3.651 (Simulation time: 00 hr 00 min 43 sec)
Heartbeat CPU 0 instructions: 6000046 cycles: 1644502 heartbeat IPC: 3.625 cumulative IPC: 3.649 (Simulation time: 00 hr 00 min 47 sec)
Heartbeat CPU 0 instructions: 6500052 cycles: 1781214 heartbeat IPC: 3.657 cumulative IPC: 3.649 (Simulation time: 00 hr 00 min 50 sec)
Heartbeat CPU 0 instructions: 7000058 cycles: 1918915 heartbeat IPC: 3.631 cumulative IPC: 3.648 (Simulation time: 00 hr 00 min 54 sec)
Heartbeat CPU 0 instructions: 7500061 cycles: 2055653 heartbeat IPC: 3.657 cumulative IPC: 3.649 (Simulation time: 00 hr 00 min 58 sec)
Heartbeat CPU 0 instructions: 8000066 cycles: 2192697 heartbeat IPC: 3.648 cumulative IPC: 3.649 (Simulation time: 00 hr 01 min 02 sec)
Heartbeat CPU 0 instructions: 8500069 cycles: 2330055 heartbeat IPC: 3.64 cumulative IPC: 3.648 (Simulation time: 00 hr 01 min 06 sec)
Heartbeat CPU 0 instructions: 9000072 cycles: 2466263 heartbeat IPC: 3.671 cumulative IPC: 3.649 (Simulation time: 00 hr 01 min 10 sec)
Heartbeat CPU 0 instructions: 9500074 cycles: 2605130 heartbeat IPC: 3.601 cumulative IPC: 3.647 (Simulation time: 00 hr 01 min 13 sec)
Heartbeat CPU 0 instructions: 10000078 cycles: 2741732 heartbeat IPC: 3.66 cumulative IPC: 3.647 (Simulation time: 00 hr 01 min 17 sec)
Heartbeat CPU 0 instructions: 10500079 cycles: 2878292 heartbeat IPC: 3.661 cumulative IPC: 3.648 (Simulation time: 00 hr 01 min 21 sec)
Heartbeat CPU 0 instructions: 11000086 cycles: 3014361 heartbeat IPC: 3.675 cumulative IPC: 3.649 (Simulation time: 00 hr 01 min 25 sec)
Heartbeat CPU 0 instructions: 11500090 cycles: 3150774 heartbeat IPC: 3.665 cumulative IPC: 3.65 (Simulation time: 00 hr 01 min 29 sec)
Heartbeat CPU 0 instructions: 12000091 cycles: 3287148 heartbeat IPC: 3.666 cumulative IPC: 3.651 (Simulation time: 00 hr 01 min 32 sec)
Heartbeat CPU 0 instructions: 12500098 cycles: 3423634 heartbeat IPC: 3.663 cumulative IPC: 3.651 (Simulation time: 00 hr 01 min 36 sec)
Heartbeat CPU 0 instructions: 13000098 cycles: 3560592 heartbeat IPC: 3.651 cumulative IPC: 3.651 (Simulation time: 00 hr 01 min 40 sec)
Heartbeat CPU 0 instructions: 13500099 cycles: 3697435 heartbeat IPC: 3.654 cumulative IPC: 3.651 (Simulation time: 00 hr 01 min 44 sec)
Heartbeat CPU 0 instructions: 14000105 cycles: 3834002 heartbeat IPC: 3.661 cumulative IPC: 3.652 (Simulation time: 00 hr 01 min 48 sec)
Heartbeat CPU 0 instructions: 14500110 cycles: 3970539 heartbeat IPC: 3.662 cumulative IPC: 3.652 (Simulation time: 00 hr 01 min 52 sec)
Heartbeat CPU 0 instructions: 15000110 cycles: 4107743 heartbeat IPC: 3.644 cumulative IPC: 3.652 (Simulation time: 00 hr 01 min 55 sec)
Heartbeat CPU 0 instructions: 15500110 cycles: 4244423 heartbeat IPC: 3.658 cumulative IPC: 3.652 (Simulation time: 00 hr 01 min 59 sec)
Heartbeat CPU 0 instructions: 16000117 cycles: 4380457 heartbeat IPC: 3.676 cumulative IPC: 3.653 (Simulation time: 00 hr 02 min 03 sec)
Heartbeat CPU 0 instructions: 16500117 cycles: 4516977 heartbeat IPC: 3.662 cumulative IPC: 3.653 (Simulation time: 00 hr 02 min 07 sec)
Heartbeat CPU 0 instructions: 17000122 cycles: 4653511 heartbeat IPC: 3.662 cumulative IPC: 3.653 (Simulation time: 00 hr 02 min 11 sec)
Heartbeat CPU 0 instructions: 17500126 cycles: 4789980 heartbeat IPC: 3.664 cumulative IPC: 3.653 (Simulation time: 00 hr 02 min 15 sec)
Heartbeat CPU 0 instructions: 18000129 cycles: 4926572 heartbeat IPC: 3.661 cumulative IPC: 3.654 (Simulation time: 00 hr 02 min 18 sec)
Heartbeat CPU 0 instructions: 18500136 cycles: 5061801 heartbeat IPC: 3.697 cumulative IPC: 3.655 (Simulation time: 00 hr 02 min 22 sec)
Heartbeat CPU 0 instructions: 19000142 cycles: 5198041 heartbeat IPC: 3.67 cumulative IPC: 3.655 (Simulation time: 00 hr 02 min 26 sec)
Heartbeat CPU 0 instructions: 19500148 cycles: 5334475 heartbeat IPC: 3.665 cumulative IPC: 3.655 (Simulation time: 00 hr 02 min 30 sec)
Heartbeat CPU 0 instructions: 20000150 cycles: 5470850 heartbeat IPC: 3.666 cumulative IPC: 3.656 (Simulation time: 00 hr 02 min 34 sec)
Heartbeat CPU 0 instructions: 20500157 cycles: 5606015 heartbeat IPC: 3.699 cumulative IPC: 3.657 (Simulation time: 00 hr 02 min 38 sec)
Heartbeat CPU 0 instructions: 21000158 cycles: 5742252 heartbeat IPC: 3.67 cumulative IPC: 3.657 (Simulation time: 00 hr 02 min 41 sec)
Heartbeat CPU 0 instructions: 21500158 cycles: 5877392 heartbeat IPC: 3.7 cumulative IPC: 3.658 (Simulation time: 00 hr 02 min 45 sec)
Heartbeat CPU 0 instructions: 22000164 cycles: 6012724 heartbeat IPC: 3.695 cumulative IPC: 3.659 (Simulation time: 00 hr 02 min 49 sec)
Heartbeat CPU 0 instructions: 22500164 cycles: 6148590 heartbeat IPC: 3.68 cumulative IPC: 3.659 (Simulation time: 00 hr 02 min 53 sec)
Heartbeat CPU 0 instructions: 23000165 cycles: 6284233 heartbeat IPC: 3.686 cumulative IPC: 3.66 (Simulation time: 00 hr 02 min 57 sec)
Heartbeat CPU 0 instructions: 23500171 cycles: 6423409 heartbeat IPC: 3.593 cumulative IPC: 3.659 (Simulation time: 00 hr 03 min 01 sec)
Heartbeat CPU 0 instructions: 24000175 cycles: 6560562 heartbeat IPC: 3.646 cumulative IPC: 3.658 (Simulation time: 00 hr 03 min 04 sec)
Heartbeat CPU 0 instructions: 24500178 cycles: 6696312 heartbeat IPC: 3.683 cumulative IPC: 3.659 (Simulation time: 00 hr 03 min 08 sec)
Heartbeat CPU 0 instructions: 25000178 cycles: 6832359 heartbeat IPC: 3.675 cumulative IPC: 3.659 (Simulation time: 00 hr 03 min 12 sec)
Heartbeat CPU 0 instructions: 25500178 cycles: 6967789 heartbeat IPC: 3.692 cumulative IPC: 3.66 (Simulation time: 00 hr 03 min 16 sec)
Heartbeat CPU 0 instructions: 26000178 cycles: 7103329 heartbeat IPC: 3.689 cumulative IPC: 3.66 (Simulation time: 00 hr 03 min 20 sec)
Heartbeat CPU 0 instructions: 26500178 cycles: 7238970 heartbeat IPC: 3.686 cumulative IPC: 3.661 (Simulation time: 00 hr 03 min 24 sec)
Heartbeat CPU 0 instructions: 27000182 cycles: 7371911 heartbeat IPC: 3.761 cumulative IPC: 3.663 (Simulation time: 00 hr 03 min 27 sec)
Heartbeat CPU 0 instructions: 27500188 cycles: 7506249 heartbeat IPC: 3.722 cumulative IPC: 3.664 (Simulation time: 00 hr 03 min 31 sec)
Heartbeat CPU 0 instructions: 28000190 cycles: 7641777 heartbeat IPC: 3.689 cumulative IPC: 3.664 (Simulation time: 00 hr 03 min 35 sec)
Heartbeat CPU 0 instructions: 28500194 cycles: 7776241 heartbeat IPC: 3.718 cumulative IPC: 3.665 (Simulation time: 00 hr 03 min 39 sec)
Heartbeat CPU 0 instructions: 29000194 cycles: 7910258 heartbeat IPC: 3.731 cumulative IPC: 3.666 (Simulation time: 00 hr 03 min 43 sec)
Heartbeat CPU 0 instructions: 29500198 cycles: 8044617 heartbeat IPC: 3.721 cumulative IPC: 3.667 (Simulation time: 00 hr 03 min 47 sec)
Heartbeat CPU 0 instructions: 30000203 cycles: 8176538 heartbeat IPC: 3.79 cumulative IPC: 3.669 (Simulation time: 00 hr 03 min 50 sec)
Heartbeat CPU 0 instructions: 30500204 cycles: 8307583 heartbeat IPC: 3.815 cumulative IPC: 3.671 (Simulation time: 00 hr 03 min 54 sec)
Heartbeat CPU 0 instructions: 31000204 cycles: 8443995 heartbeat IPC: 3.665 cumulative IPC: 3.671 (Simulation time: 00 hr 03 min 58 sec)
Heartbeat CPU 0 instructions: 31500207 cycles: 8580818 heartbeat IPC: 3.654 cumulative IPC: 3.671 (Simulation time: 00 hr 04 min 02 sec)
Heartbeat CPU 0 instructions: 32000208 cycles: 8717008 heartbeat IPC: 3.671 cumulative IPC: 3.671 (Simulation time: 00 hr 04 min 06 sec)
Heartbeat CPU 0 instructions: 32500214 cycles: 8850465 heartbeat IPC: 3.747 cumulative IPC: 3.672 (Simulation time: 00 hr 04 min 10 sec)
Heartbeat CPU 0 instructions: 33000214 cycles: 8985510 heartbeat IPC: 3.702 cumulative IPC: 3.673 (Simulation time: 00 hr 04 min 13 sec)
Heartbeat CPU 0 instructions: 33500217 cycles: 9121295 heartbeat IPC: 3.682 cumulative IPC: 3.673 (Simulation time: 00 hr 04 min 17 sec)
Heartbeat CPU 0 instructions: 34000222 cycles: 9257753 heartbeat IPC: 3.664 cumulative IPC: 3.673 (Simulation time: 00 hr 04 min 21 sec)
Heartbeat CPU 0 instructions: 34500226 cycles: 9392528 heartbeat IPC: 3.71 cumulative IPC: 3.673 (Simulation time: 00 hr 04 min 25 sec)
Heartbeat CPU 0 instructions: 35000230 cycles: 9527919 heartbeat IPC: 3.693 cumulative IPC: 3.673 (Simulation time: 00 hr 04 min 29 sec)
Heartbeat CPU 0 instructions: 35500234 cycles: 9664353 heartbeat IPC: 3.665 cumulative IPC: 3.673 (Simulation time: 00 hr 04 min 33 sec)
Heartbeat CPU 0 instructions: 36000234 cycles: 9799160 heartbeat IPC: 3.709 cumulative IPC: 3.674 (Simulation time: 00 hr 04 min 37 sec)
Heartbeat CPU 0 instructions: 36500238 cycles: 9934281 heartbeat IPC: 3.7 cumulative IPC: 3.674 (Simulation time: 00 hr 04 min 40 sec)
Heartbeat CPU 0 instructions: 37000242 cycles: 10068684 heartbeat IPC: 3.72 cumulative IPC: 3.675 (Simulation time: 00 hr 04 min 44 sec)
Heartbeat CPU 0 instructions: 37500242 cycles: 10203019 heartbeat IPC: 3.722 cumulative IPC: 3.675 (Simulation time: 00 hr 04 min 48 sec)
Heartbeat CPU 0 instructions: 38000245 cycles: 10338398 heartbeat IPC: 3.693 cumulative IPC: 3.676 (Simulation time: 00 hr 04 min 52 sec)
Heartbeat CPU 0 instructions: 38500250 cycles: 10473588 heartbeat IPC: 3.699 cumulative IPC: 3.676 (Simulation time: 00 hr 04 min 56 sec)
Heartbeat CPU 0 instructions: 39000250 cycles: 10607230 heartbeat IPC: 3.741 cumulative IPC: 3.677 (Simulation time: 00 hr 05 min 00 sec)
Heartbeat CPU 0 instructions: 39500254 cycles: 10741559 heartbeat IPC: 3.722 cumulative IPC: 3.677 (Simulation time: 00 hr 05 min 03 sec)
Heartbeat CPU 0 instructions: 40000254 cycles: 10876658 heartbeat IPC: 3.701 cumulative IPC: 3.678 (Simulation time: 00 hr 05 min 07 sec)
Heartbeat CPU 0 instructions: 40500254 cycles: 11013319 heartbeat IPC: 3.659 cumulative IPC: 3.677 (Simulation time: 00 hr 05 min 11 sec)
Heartbeat CPU 0 instructions: 41000259 cycles: 11148178 heartbeat IPC: 3.708 cumulative IPC: 3.678 (Simulation time: 00 hr 05 min 15 sec)
Heartbeat CPU 0 instructions: 41500266 cycles: 11285128 heartbeat IPC: 3.651 cumulative IPC: 3.677 (Simulation time: 00 hr 05 min 19 sec)
Heartbeat CPU 0 instructions: 42000267 cycles: 11420322 heartbeat IPC: 3.698 cumulative IPC: 3.678 (Simulation time: 00 hr 05 min 23 sec)
Heartbeat CPU 0 instructions: 42500274 cycles: 11555932 heartbeat IPC: 3.687 cumulative IPC: 3.678 (Simulation time: 00 hr 05 min 26 sec)
Heartbeat CPU 0 instructions: 43000276 cycles: 11690165 heartbeat IPC: 3.725 cumulative IPC: 3.678 (Simulation time: 00 hr 05 min 30 sec)
Heartbeat CPU 0 instructions: 43500276 cycles: 11824362 heartbeat IPC: 3.726 cumulative IPC: 3.679 (Simulation time: 00 hr 05 min 34 sec)
Heartbeat CPU 0 instructions: 44000276 cycles: 11958376 heartbeat IPC: 3.731 cumulative IPC: 3.679 (Simulation time: 00 hr 05 min 38 sec)
Heartbeat CPU 0 instructions: 44500278 cycles: 12092714 heartbeat IPC: 3.722 cumulative IPC: 3.68 (Simulation time: 00 hr 05 min 42 sec)
Heartbeat CPU 0 instructions: 45000282 cycles: 12227798 heartbeat IPC: 3.701 cumulative IPC: 3.68 (Simulation time: 00 hr 05 min 46 sec)
Heartbeat CPU 0 instructions: 45500288 cycles: 12360067 heartbeat IPC: 3.78 cumulative IPC: 3.681 (Simulation time: 00 hr 05 min 50 sec)
Heartbeat CPU 0 instructions: 46000292 cycles: 12493497 heartbeat IPC: 3.747 cumulative IPC: 3.682 (Simulation time: 00 hr 05 min 53 sec)
Heartbeat CPU 0 instructions: 46500296 cycles: 12627595 heartbeat IPC: 3.729 cumulative IPC: 3.682 (Simulation time: 00 hr 05 min 57 sec)
Heartbeat CPU 0 instructions: 47000302 cycles: 12760979 heartbeat IPC: 3.749 cumulative IPC: 3.683 (Simulation time: 00 hr 06 min 01 sec)
Heartbeat CPU 0 instructions: 47500307 cycles: 12895883 heartbeat IPC: 3.706 cumulative IPC: 3.683 (Simulation time: 00 hr 06 min 05 sec)
Heartbeat CPU 0 instructions: 48000311 cycles: 13029164 heartbeat IPC: 3.752 cumulative IPC: 3.684 (Simulation time: 00 hr 06 min 09 sec)
Heartbeat CPU 0 instructions: 48500316 cycles: 13163183 heartbeat IPC: 3.731 cumulative IPC: 3.685 (Simulation time: 00 hr 06 min 13 sec)
Heartbeat CPU 0 instructions: 49000322 cycles: 13297615 heartbeat IPC: 3.719 cumulative IPC: 3.685 (Simulation time: 00 hr 06 min 17 sec)
Heartbeat CPU 0 instructions: 49500322 cycles: 13430935 heartbeat IPC: 3.75 cumulative IPC: 3.686 (Simulation time: 00 hr 06 min 20 sec)
Warmup halting CPU 0 at instruction 50000006 cycle 13564413 for remainder of phase
Warmup finished CPU 0 instructions: 50000006 cycles: 13564413 cumulative IPC: 3.686 (Simulation time: 00 hr 06 min 24 sec)
Warmup complete CPU 0 instructions: 50000006 cycles: 13564413 cumulative IPC: 3.686 (Simulation time: 00 hr 06 min 24 sec)
Heartbeat CPU 0 instructions: 50000326 cycles: 13564453 heartbeat IPC: 3.745 cumulative IPC: 8 (Simulation time: 00 hr 06 min 24 sec)
Heartbeat CPU 0 instructions: 50500327 cycles: 13897371 heartbeat IPC: 1.502 cumulative IPC: 1.503 (Simulation time: 00 hr 06 min 31 sec)
Heartbeat CPU 0 instructions: 51000331 cycles: 14227011 heartbeat IPC: 1.517 cumulative IPC: 1.51 (Simulation time: 00 hr 06 min 38 sec)
Heartbeat CPU 0 instructions: 51500338 cycles: 14564504 heartbeat IPC: 1.482 cumulative IPC: 1.5 (Simulation time: 00 hr 06 min 44 sec)
Heartbeat CPU 0 instructions: 52000343 cycles: 14879891 heartbeat IPC: 1.585 cumulative IPC: 1.521 (Simulation time: 00 hr 06 min 51 sec)
Heartbeat CPU 0 instructions: 52500348 cycles: 15208538 heartbeat IPC: 1.521 cumulative IPC: 1.521 (Simulation time: 00 hr 06 min 57 sec)
Heartbeat CPU 0 instructions: 53000355 cycles: 15540645 heartbeat IPC: 1.506 cumulative IPC: 1.518 (Simulation time: 00 hr 07 min 04 sec)
Heartbeat CPU 0 instructions: 53500360 cycles: 15860275 heartbeat IPC: 1.564 cumulative IPC: 1.525 (Simulation time: 00 hr 07 min 11 sec)
Heartbeat CPU 0 instructions: 54000365 cycles: 16191727 heartbeat IPC: 1.509 cumulative IPC: 1.523 (Simulation time: 00 hr 07 min 17 sec)
Heartbeat CPU 0 instructions: 54500367 cycles: 16515517 heartbeat IPC: 1.544 cumulative IPC: 1.525 (Simulation time: 00 hr 07 min 24 sec)
Heartbeat CPU 0 instructions: 55000369 cycles: 16852455 heartbeat IPC: 1.484 cumulative IPC: 1.521 (Simulation time: 00 hr 07 min 31 sec)
Heartbeat CPU 0 instructions: 55500369 cycles: 17180751 heartbeat IPC: 1.523 cumulative IPC: 1.521 (Simulation time: 00 hr 07 min 38 sec)
Heartbeat CPU 0 instructions: 56000373 cycles: 17513040 heartbeat IPC: 1.505 cumulative IPC: 1.52 (Simulation time: 00 hr 07 min 44 sec)
Heartbeat CPU 0 instructions: 56500376 cycles: 17843984 heartbeat IPC: 1.511 cumulative IPC: 1.519 (Simulation time: 00 hr 07 min 51 sec)
Heartbeat CPU 0 instructions: 57000380 cycles: 18170588 heartbeat IPC: 1.531 cumulative IPC: 1.52 (Simulation time: 00 hr 07 min 58 sec)
Heartbeat CPU 0 instructions: 57500385 cycles: 18504167 heartbeat IPC: 1.499 cumulative IPC: 1.518 (Simulation time: 00 hr 08 min 04 sec)
Heartbeat CPU 0 instructions: 58000388 cycles: 18827000 heartbeat IPC: 1.549 cumulative IPC: 1.52 (Simulation time: 00 hr 08 min 11 sec)
Heartbeat CPU 0 instructions: 58500388 cycles: 19159710 heartbeat IPC: 1.503 cumulative IPC: 1.519 (Simulation time: 00 hr 08 min 18 sec)
Heartbeat CPU 0 instructions: 59000394 cycles: 19493076 heartbeat IPC: 1.5 cumulative IPC: 1.518 (Simulation time: 00 hr 08 min 25 sec)
Heartbeat CPU 0 instructions: 59500397 cycles: 19827051 heartbeat IPC: 1.497 cumulative IPC: 1.517 (Simulation time: 00 hr 08 min 32 sec)
Heartbeat CPU 0 instructions: 60000397 cycles: 20166724 heartbeat IPC: 1.472 cumulative IPC: 1.515 (Simulation time: 00 hr 08 min 38 sec)
Heartbeat CPU 0 instructions: 60500398 cycles: 20484797 heartbeat IPC: 1.572 cumulative IPC: 1.517 (Simulation time: 00 hr 08 min 45 sec)
Heartbeat CPU 0 instructions: 61000400 cycles: 20837067 heartbeat IPC: 1.419 cumulative IPC: 1.513 (Simulation time: 00 hr 08 min 52 sec)
Heartbeat CPU 0 instructions: 61500405 cycles: 21167820 heartbeat IPC: 1.512 cumulative IPC: 1.513 (Simulation time: 00 hr 08 min 59 sec)
Heartbeat CPU 0 instructions: 62000409 cycles: 21489726 heartbeat IPC: 1.553 cumulative IPC: 1.514 (Simulation time: 00 hr 09 min 05 sec)
Heartbeat CPU 0 instructions: 62500412 cycles: 21815782 heartbeat IPC: 1.533 cumulative IPC: 1.515 (Simulation time: 00 hr 09 min 12 sec)
Heartbeat CPU 0 instructions: 63000413 cycles: 22132874 heartbeat IPC: 1.577 cumulative IPC: 1.517 (Simulation time: 00 hr 09 min 19 sec)
Heartbeat CPU 0 instructions: 63500417 cycles: 22438867 heartbeat IPC: 1.634 cumulative IPC: 1.521 (Simulation time: 00 hr 09 min 25 sec)
Heartbeat CPU 0 instructions: 64000424 cycles: 22767460 heartbeat IPC: 1.522 cumulative IPC: 1.521 (Simulation time: 00 hr 09 min 32 sec)
Heartbeat CPU 0 instructions: 64500424 cycles: 23097367 heartbeat IPC: 1.516 cumulative IPC: 1.521 (Simulation time: 00 hr 09 min 39 sec)
Heartbeat CPU 0 instructions: 65000428 cycles: 23442463 heartbeat IPC: 1.449 cumulative IPC: 1.519 (Simulation time: 00 hr 09 min 46 sec)
Heartbeat CPU 0 instructions: 65500432 cycles: 23773568 heartbeat IPC: 1.51 cumulative IPC: 1.518 (Simulation time: 00 hr 09 min 53 sec)
Heartbeat CPU 0 instructions: 66000435 cycles: 24108706 heartbeat IPC: 1.492 cumulative IPC: 1.517 (Simulation time: 00 hr 09 min 59 sec)
Heartbeat CPU 0 instructions: 66500440 cycles: 24433776 heartbeat IPC: 1.538 cumulative IPC: 1.518 (Simulation time: 00 hr 10 min 06 sec)
Heartbeat CPU 0 instructions: 67000444 cycles: 24767724 heartbeat IPC: 1.497 cumulative IPC: 1.517 (Simulation time: 00 hr 10 min 13 sec)
Heartbeat CPU 0 instructions: 67500445 cycles: 25116359 heartbeat IPC: 1.434 cumulative IPC: 1.515 (Simulation time: 00 hr 10 min 20 sec)
Heartbeat CPU 0 instructions: 68000446 cycles: 25450814 heartbeat IPC: 1.495 cumulative IPC: 1.514 (Simulation time: 00 hr 10 min 27 sec)
Heartbeat CPU 0 instructions: 68500446 cycles: 25792413 heartbeat IPC: 1.464 cumulative IPC: 1.513 (Simulation time: 00 hr 10 min 33 sec)
Heartbeat CPU 0 instructions: 69000446 cycles: 26155919 heartbeat IPC: 1.375 cumulative IPC: 1.509 (Simulation time: 00 hr 10 min 40 sec)
Heartbeat CPU 0 instructions: 69500446 cycles: 26512656 heartbeat IPC: 1.402 cumulative IPC: 1.506 (Simulation time: 00 hr 10 min 47 sec)
Heartbeat CPU 0 instructions: 70000448 cycles: 26895781 heartbeat IPC: 1.305 cumulative IPC: 1.5 (Simulation time: 00 hr 10 min 55 sec)
Heartbeat CPU 0 instructions: 70500449 cycles: 27243213 heartbeat IPC: 1.439 cumulative IPC: 1.499 (Simulation time: 00 hr 11 min 01 sec)
Heartbeat CPU 0 instructions: 71000452 cycles: 27583709 heartbeat IPC: 1.468 cumulative IPC: 1.498 (Simulation time: 00 hr 11 min 08 sec)
Heartbeat CPU 0 instructions: 71500452 cycles: 27915444 heartbeat IPC: 1.507 cumulative IPC: 1.498 (Simulation time: 00 hr 11 min 15 sec)
Heartbeat CPU 0 instructions: 72000452 cycles: 28229352 heartbeat IPC: 1.593 cumulative IPC: 1.5 (Simulation time: 00 hr 11 min 21 sec)
Heartbeat CPU 0 instructions: 72500456 cycles: 28561311 heartbeat IPC: 1.506 cumulative IPC: 1.5 (Simulation time: 00 hr 11 min 28 sec)
Heartbeat CPU 0 instructions: 73000463 cycles: 28903061 heartbeat IPC: 1.463 cumulative IPC: 1.5 (Simulation time: 00 hr 11 min 34 sec)
Heartbeat CPU 0 instructions: 73500466 cycles: 29263632 heartbeat IPC: 1.387 cumulative IPC: 1.497 (Simulation time: 00 hr 11 min 41 sec)
Heartbeat CPU 0 instructions: 74000468 cycles: 29635700 heartbeat IPC: 1.344 cumulative IPC: 1.493 (Simulation time: 00 hr 11 min 48 sec)
Heartbeat CPU 0 instructions: 74500468 cycles: 29974843 heartbeat IPC: 1.474 cumulative IPC: 1.493 (Simulation time: 00 hr 11 min 55 sec)
Heartbeat CPU 0 instructions: 75000471 cycles: 30300819 heartbeat IPC: 1.534 cumulative IPC: 1.494 (Simulation time: 00 hr 12 min 02 sec)
Heartbeat CPU 0 instructions: 75500472 cycles: 30632046 heartbeat IPC: 1.51 cumulative IPC: 1.494 (Simulation time: 00 hr 12 min 08 sec)
Heartbeat CPU 0 instructions: 76000475 cycles: 30979299 heartbeat IPC: 1.44 cumulative IPC: 1.493 (Simulation time: 00 hr 12 min 15 sec)
Heartbeat CPU 0 instructions: 76500478 cycles: 31319240 heartbeat IPC: 1.471 cumulative IPC: 1.493 (Simulation time: 00 hr 12 min 21 sec)
Heartbeat CPU 0 instructions: 77000478 cycles: 31656803 heartbeat IPC: 1.481 cumulative IPC: 1.492 (Simulation time: 00 hr 12 min 28 sec)
Heartbeat CPU 0 instructions: 77500478 cycles: 32010688 heartbeat IPC: 1.413 cumulative IPC: 1.491 (Simulation time: 00 hr 12 min 35 sec)
Heartbeat CPU 0 instructions: 78000480 cycles: 32365298 heartbeat IPC: 1.41 cumulative IPC: 1.489 (Simulation time: 00 hr 12 min 42 sec)
Heartbeat CPU 0 instructions: 78500483 cycles: 32708266 heartbeat IPC: 1.458 cumulative IPC: 1.489 (Simulation time: 00 hr 12 min 48 sec)
Heartbeat CPU 0 instructions: 79000486 cycles: 33048335 heartbeat IPC: 1.47 cumulative IPC: 1.488 (Simulation time: 00 hr 12 min 55 sec)
Heartbeat CPU 0 instructions: 79500486 cycles: 33384491 heartbeat IPC: 1.487 cumulative IPC: 1.488 (Simulation time: 00 hr 13 min 02 sec)
Heartbeat CPU 0 instructions: 80000492 cycles: 33727927 heartbeat IPC: 1.456 cumulative IPC: 1.488 (Simulation time: 00 hr 13 min 08 sec)
Heartbeat CPU 0 instructions: 80500496 cycles: 34062847 heartbeat IPC: 1.493 cumulative IPC: 1.488 (Simulation time: 00 hr 13 min 15 sec)
Heartbeat CPU 0 instructions: 81000498 cycles: 34415963 heartbeat IPC: 1.416 cumulative IPC: 1.487 (Simulation time: 00 hr 13 min 22 sec)
Heartbeat CPU 0 instructions: 81500501 cycles: 34776722 heartbeat IPC: 1.386 cumulative IPC: 1.485 (Simulation time: 00 hr 13 min 29 sec)
Heartbeat CPU 0 instructions: 82000501 cycles: 35100417 heartbeat IPC: 1.545 cumulative IPC: 1.486 (Simulation time: 00 hr 13 min 35 sec)
Heartbeat CPU 0 instructions: 82500501 cycles: 35429728 heartbeat IPC: 1.518 cumulative IPC: 1.486 (Simulation time: 00 hr 13 min 42 sec)
Heartbeat CPU 0 instructions: 83000502 cycles: 35753229 heartbeat IPC: 1.546 cumulative IPC: 1.487 (Simulation time: 00 hr 13 min 48 sec)
Heartbeat CPU 0 instructions: 83500508 cycles: 36108612 heartbeat IPC: 1.407 cumulative IPC: 1.486 (Simulation time: 00 hr 13 min 55 sec)
Heartbeat CPU 0 instructions: 84000512 cycles: 36435715 heartbeat IPC: 1.529 cumulative IPC: 1.487 (Simulation time: 00 hr 14 min 02 sec)
Heartbeat CPU 0 instructions: 84500516 cycles: 36778254 heartbeat IPC: 1.46 cumulative IPC: 1.486 (Simulation time: 00 hr 14 min 09 sec)
Heartbeat CPU 0 instructions: 85000516 cycles: 37123082 heartbeat IPC: 1.45 cumulative IPC: 1.486 (Simulation time: 00 hr 14 min 15 sec)
Heartbeat CPU 0 instructions: 85500519 cycles: 37482625 heartbeat IPC: 1.391 cumulative IPC: 1.484 (Simulation time: 00 hr 14 min 22 sec)
Heartbeat CPU 0 instructions: 86000522 cycles: 37829125 heartbeat IPC: 1.443 cumulative IPC: 1.484 (Simulation time: 00 hr 14 min 29 sec)
Heartbeat CPU 0 instructions: 86500527 cycles: 38186457 heartbeat IPC: 1.399 cumulative IPC: 1.482 (Simulation time: 00 hr 14 min 36 sec)
Heartbeat CPU 0 instructions: 87000532 cycles: 38522279 heartbeat IPC: 1.489 cumulative IPC: 1.483 (Simulation time: 00 hr 14 min 42 sec)
Heartbeat CPU 0 instructions: 87500534 cycles: 38875070 heartbeat IPC: 1.417 cumulative IPC: 1.482 (Simulation time: 00 hr 14 min 49 sec)
Heartbeat CPU 0 instructions: 88000539 cycles: 39223285 heartbeat IPC: 1.436 cumulative IPC: 1.481 (Simulation time: 00 hr 14 min 56 sec)
Heartbeat CPU 0 instructions: 88500543 cycles: 39635546 heartbeat IPC: 1.213 cumulative IPC: 1.477 (Simulation time: 00 hr 15 min 03 sec)
Heartbeat CPU 0 instructions: 89000549 cycles: 39990972 heartbeat IPC: 1.407 cumulative IPC: 1.476 (Simulation time: 00 hr 15 min 10 sec)
Heartbeat CPU 0 instructions: 89500553 cycles: 40322631 heartbeat IPC: 1.508 cumulative IPC: 1.476 (Simulation time: 00 hr 15 min 16 sec)
Heartbeat CPU 0 instructions: 90000553 cycles: 40664387 heartbeat IPC: 1.463 cumulative IPC: 1.476 (Simulation time: 00 hr 15 min 23 sec)
Heartbeat CPU 0 instructions: 90500559 cycles: 41013802 heartbeat IPC: 1.431 cumulative IPC: 1.475 (Simulation time: 00 hr 15 min 29 sec)
Heartbeat CPU 0 instructions: 91000560 cycles: 41374873 heartbeat IPC: 1.385 cumulative IPC: 1.474 (Simulation time: 00 hr 15 min 36 sec)
Heartbeat CPU 0 instructions: 91500565 cycles: 41747211 heartbeat IPC: 1.343 cumulative IPC: 1.473 (Simulation time: 00 hr 15 min 42 sec)
Heartbeat CPU 0 instructions: 92000570 cycles: 42110237 heartbeat IPC: 1.377 cumulative IPC: 1.471 (Simulation time: 00 hr 15 min 49 sec)
Heartbeat CPU 0 instructions: 92500571 cycles: 42534512 heartbeat IPC: 1.178 cumulative IPC: 1.467 (Simulation time: 00 hr 15 min 55 sec)
Heartbeat CPU 0 instructions: 93000573 cycles: 42880549 heartbeat IPC: 1.445 cumulative IPC: 1.467 (Simulation time: 00 hr 16 min 00 sec)
Heartbeat CPU 0 instructions: 93500578 cycles: 43264722 heartbeat IPC: 1.302 cumulative IPC: 1.465 (Simulation time: 00 hr 16 min 04 sec)
Heartbeat CPU 0 instructions: 94000584 cycles: 43622549 heartbeat IPC: 1.397 cumulative IPC: 1.464 (Simulation time: 00 hr 16 min 09 sec)
Heartbeat CPU 0 instructions: 94500588 cycles: 43969499 heartbeat IPC: 1.441 cumulative IPC: 1.464 (Simulation time: 00 hr 16 min 13 sec)
Heartbeat CPU 0 instructions: 95000590 cycles: 44337019 heartbeat IPC: 1.36 cumulative IPC: 1.462 (Simulation time: 00 hr 16 min 17 sec)
Heartbeat CPU 0 instructions: 95500590 cycles: 44718237 heartbeat IPC: 1.312 cumulative IPC: 1.461 (Simulation time: 00 hr 16 min 22 sec)
Heartbeat CPU 0 instructions: 96000594 cycles: 45129776 heartbeat IPC: 1.215 cumulative IPC: 1.457 (Simulation time: 00 hr 16 min 27 sec)
Heartbeat CPU 0 instructions: 96500600 cycles: 45493883 heartbeat IPC: 1.373 cumulative IPC: 1.456 (Simulation time: 00 hr 16 min 31 sec)
Heartbeat CPU 0 instructions: 97000605 cycles: 45851614 heartbeat IPC: 1.398 cumulative IPC: 1.456 (Simulation time: 00 hr 16 min 35 sec)
Heartbeat CPU 0 instructions: 97500607 cycles: 46157883 heartbeat IPC: 1.633 cumulative IPC: 1.457 (Simulation time: 00 hr 16 min 39 sec)
Heartbeat CPU 0 instructions: 98000611 cycles: 46504739 heartbeat IPC: 1.442 cumulative IPC: 1.457 (Simulation time: 00 hr 16 min 44 sec)
Heartbeat CPU 0 instructions: 98500617 cycles: 46850399 heartbeat IPC: 1.447 cumulative IPC: 1.457 (Simulation time: 00 hr 16 min 48 sec)
Heartbeat CPU 0 instructions: 99000621 cycles: 47210263 heartbeat IPC: 1.389 cumulative IPC: 1.456 (Simulation time: 00 hr 16 min 52 sec)
Heartbeat CPU 0 instructions: 99500626 cycles: 47592720 heartbeat IPC: 1.307 cumulative IPC: 1.455 (Simulation time: 00 hr 16 min 57 sec)
Heartbeat CPU 0 instructions: 100000631 cycles: 47960406 heartbeat IPC: 1.36 cumulative IPC: 1.454 (Simulation time: 00 hr 17 min 01 sec)
Heartbeat CPU 0 instructions: 100500636 cycles: 48335408 heartbeat IPC: 1.333 cumulative IPC: 1.452 (Simulation time: 00 hr 17 min 06 sec)
Heartbeat CPU 0 instructions: 101000641 cycles: 48710327 heartbeat IPC: 1.334 cumulative IPC: 1.451 (Simulation time: 00 hr 17 min 11 sec)
Heartbeat CPU 0 instructions: 101500644 cycles: 49097594 heartbeat IPC: 1.291 cumulative IPC: 1.449 (Simulation time: 00 hr 17 min 15 sec)
Heartbeat CPU 0 instructions: 102000646 cycles: 49462787 heartbeat IPC: 1.369 cumulative IPC: 1.449 (Simulation time: 00 hr 17 min 20 sec)
Heartbeat CPU 0 instructions: 102500646 cycles: 49857627 heartbeat IPC: 1.266 cumulative IPC: 1.447 (Simulation time: 00 hr 17 min 24 sec)
Heartbeat CPU 0 instructions: 103000647 cycles: 50227904 heartbeat IPC: 1.35 cumulative IPC: 1.446 (Simulation time: 00 hr 17 min 29 sec)
Heartbeat CPU 0 instructions: 103500650 cycles: 50615643 heartbeat IPC: 1.29 cumulative IPC: 1.444 (Simulation time: 00 hr 17 min 33 sec)
Heartbeat CPU 0 instructions: 104000655 cycles: 51017137 heartbeat IPC: 1.245 cumulative IPC: 1.442 (Simulation time: 00 hr 17 min 38 sec)
Heartbeat CPU 0 instructions: 104500659 cycles: 51391106 heartbeat IPC: 1.337 cumulative IPC: 1.441 (Simulation time: 00 hr 17 min 42 sec)
Heartbeat CPU 0 instructions: 105000660 cycles: 51774811 heartbeat IPC: 1.303 cumulative IPC: 1.439 (Simulation time: 00 hr 17 min 47 sec)
Heartbeat CPU 0 instructions: 105500664 cycles: 52140921 heartbeat IPC: 1.366 cumulative IPC: 1.439 (Simulation time: 00 hr 17 min 51 sec)
Heartbeat CPU 0 instructions: 106000664 cycles: 52503393 heartbeat IPC: 1.379 cumulative IPC: 1.438 (Simulation time: 00 hr 17 min 55 sec)
Heartbeat CPU 0 instructions: 106500668 cycles: 52887770 heartbeat IPC: 1.301 cumulative IPC: 1.437 (Simulation time: 00 hr 18 min 00 sec)
Heartbeat CPU 0 instructions: 107000668 cycles: 53269205 heartbeat IPC: 1.311 cumulative IPC: 1.436 (Simulation time: 00 hr 18 min 04 sec)
Heartbeat CPU 0 instructions: 107500668 cycles: 53655152 heartbeat IPC: 1.296 cumulative IPC: 1.434 (Simulation time: 00 hr 18 min 09 sec)
Heartbeat CPU 0 instructions: 108000672 cycles: 54029403 heartbeat IPC: 1.336 cumulative IPC: 1.433 (Simulation time: 00 hr 18 min 13 sec)
Heartbeat CPU 0 instructions: 108500672 cycles: 54421154 heartbeat IPC: 1.276 cumulative IPC: 1.432 (Simulation time: 00 hr 18 min 18 sec)
Heartbeat CPU 0 instructions: 109000673 cycles: 54757719 heartbeat IPC: 1.486 cumulative IPC: 1.432 (Simulation time: 00 hr 18 min 22 sec)
Heartbeat CPU 0 instructions: 109500674 cycles: 55147487 heartbeat IPC: 1.283 cumulative IPC: 1.431 (Simulation time: 00 hr 18 min 26 sec)
Heartbeat CPU 0 instructions: 110000681 cycles: 55542751 heartbeat IPC: 1.265 cumulative IPC: 1.429 (Simulation time: 00 hr 18 min 31 sec)
Heartbeat CPU 0 instructions: 110500682 cycles: 55937840 heartbeat IPC: 1.266 cumulative IPC: 1.428 (Simulation time: 00 hr 18 min 36 sec)
Heartbeat CPU 0 instructions: 111000688 cycles: 56329854 heartbeat IPC: 1.275 cumulative IPC: 1.426 (Simulation time: 00 hr 18 min 40 sec)
Heartbeat CPU 0 instructions: 111500688 cycles: 56714794 heartbeat IPC: 1.299 cumulative IPC: 1.425 (Simulation time: 00 hr 18 min 45 sec)
Heartbeat CPU 0 instructions: 112000693 cycles: 57102104 heartbeat IPC: 1.291 cumulative IPC: 1.424 (Simulation time: 00 hr 18 min 50 sec)
Heartbeat CPU 0 instructions: 112500699 cycles: 57430303 heartbeat IPC: 1.523 cumulative IPC: 1.425 (Simulation time: 00 hr 18 min 56 sec)
Heartbeat CPU 0 instructions: 113000699 cycles: 57791053 heartbeat IPC: 1.386 cumulative IPC: 1.424 (Simulation time: 00 hr 19 min 03 sec)
Heartbeat CPU 0 instructions: 113500704 cycles: 58166696 heartbeat IPC: 1.331 cumulative IPC: 1.424 (Simulation time: 00 hr 19 min 10 sec)
Heartbeat CPU 0 instructions: 114000707 cycles: 58594316 heartbeat IPC: 1.169 cumulative IPC: 1.421 (Simulation time: 00 hr 19 min 17 sec)
Heartbeat CPU 0 instructions: 114500707 cycles: 59009326 heartbeat IPC: 1.205 cumulative IPC: 1.419 (Simulation time: 00 hr 19 min 24 sec)
Heartbeat CPU 0 instructions: 115000713 cycles: 59398643 heartbeat IPC: 1.284 cumulative IPC: 1.418 (Simulation time: 00 hr 19 min 31 sec)
Heartbeat CPU 0 instructions: 115500717 cycles: 59808294 heartbeat IPC: 1.221 cumulative IPC: 1.416 (Simulation time: 00 hr 19 min 38 sec)
Heartbeat CPU 0 instructions: 116000719 cycles: 60170526 heartbeat IPC: 1.38 cumulative IPC: 1.416 (Simulation time: 00 hr 19 min 45 sec)
Heartbeat CPU 0 instructions: 116500725 cycles: 60577414 heartbeat IPC: 1.229 cumulative IPC: 1.415 (Simulation time: 00 hr 19 min 51 sec)
Heartbeat CPU 0 instructions: 117000728 cycles: 60887727 heartbeat IPC: 1.611 cumulative IPC: 1.416 (Simulation time: 00 hr 19 min 58 sec)
Heartbeat CPU 0 instructions: 117500731 cycles: 61247075 heartbeat IPC: 1.391 cumulative IPC: 1.416 (Simulation time: 00 hr 20 min 04 sec)
Heartbeat CPU 0 instructions: 118000731 cycles: 61639312 heartbeat IPC: 1.275 cumulative IPC: 1.414 (Simulation time: 00 hr 20 min 11 sec)
Heartbeat CPU 0 instructions: 118500736 cycles: 62067615 heartbeat IPC: 1.167 cumulative IPC: 1.412 (Simulation time: 00 hr 20 min 18 sec)
Heartbeat CPU 0 instructions: 119000736 cycles: 62494980 heartbeat IPC: 1.17 cumulative IPC: 1.41 (Simulation time: 00 hr 20 min 26 sec)
Heartbeat CPU 0 instructions: 119500736 cycles: 62908412 heartbeat IPC: 1.209 cumulative IPC: 1.408 (Simulation time: 00 hr 20 min 33 sec)
Heartbeat CPU 0 instructions: 120000739 cycles: 63344831 heartbeat IPC: 1.146 cumulative IPC: 1.406 (Simulation time: 00 hr 20 min 40 sec)
Heartbeat CPU 0 instructions: 120500742 cycles: 63759674 heartbeat IPC: 1.205 cumulative IPC: 1.405 (Simulation time: 00 hr 20 min 47 sec)
Heartbeat CPU 0 instructions: 121000747 cycles: 64170704 heartbeat IPC: 1.216 cumulative IPC: 1.403 (Simulation time: 00 hr 20 min 54 sec)
Heartbeat CPU 0 instructions: 121500749 cycles: 64492228 heartbeat IPC: 1.555 cumulative IPC: 1.404 (Simulation time: 00 hr 21 min 00 sec)
Heartbeat CPU 0 instructions: 122000756 cycles: 64831208 heartbeat IPC: 1.475 cumulative IPC: 1.404 (Simulation time: 00 hr 21 min 06 sec)
Heartbeat CPU 0 instructions: 122500756 cycles: 65137417 heartbeat IPC: 1.633 cumulative IPC: 1.406 (Simulation time: 00 hr 21 min 13 sec)
Heartbeat CPU 0 instructions: 123000756 cycles: 65559034 heartbeat IPC: 1.186 cumulative IPC: 1.404 (Simulation time: 00 hr 21 min 20 sec)
Heartbeat CPU 0 instructions: 123500756 cycles: 66003971 heartbeat IPC: 1.124 cumulative IPC: 1.402 (Simulation time: 00 hr 21 min 27 sec)
Heartbeat CPU 0 instructions: 124000761 cycles: 66450567 heartbeat IPC: 1.12 cumulative IPC: 1.399 (Simulation time: 00 hr 21 min 35 sec)
Heartbeat CPU 0 instructions: 124500766 cycles: 66897483 heartbeat IPC: 1.119 cumulative IPC: 1.397 (Simulation time: 00 hr 21 min 42 sec)
Heartbeat CPU 0 instructions: 125000766 cycles: 67309533 heartbeat IPC: 1.213 cumulative IPC: 1.395 (Simulation time: 00 hr 21 min 49 sec)
Heartbeat CPU 0 instructions: 125500773 cycles: 67752186 heartbeat IPC: 1.13 cumulative IPC: 1.393 (Simulation time: 00 hr 21 min 56 sec)
Heartbeat CPU 0 instructions: 126000774 cycles: 68175215 heartbeat IPC: 1.182 cumulative IPC: 1.392 (Simulation time: 00 hr 22 min 03 sec)
Heartbeat CPU 0 instructions: 126500779 cycles: 68625886 heartbeat IPC: 1.109 cumulative IPC: 1.389 (Simulation time: 00 hr 22 min 11 sec)
Heartbeat CPU 0 instructions: 127000779 cycles: 69089938 heartbeat IPC: 1.077 cumulative IPC: 1.387 (Simulation time: 00 hr 22 min 18 sec)
Heartbeat CPU 0 instructions: 127500784 cycles: 69525769 heartbeat IPC: 1.147 cumulative IPC: 1.385 (Simulation time: 00 hr 22 min 25 sec)
Heartbeat CPU 0 instructions: 128000789 cycles: 69973325 heartbeat IPC: 1.117 cumulative IPC: 1.383 (Simulation time: 00 hr 22 min 32 sec)
Heartbeat CPU 0 instructions: 128500791 cycles: 70411312 heartbeat IPC: 1.142 cumulative IPC: 1.381 (Simulation time: 00 hr 22 min 39 sec)
Heartbeat CPU 0 instructions: 129000798 cycles: 70832252 heartbeat IPC: 1.188 cumulative IPC: 1.379 (Simulation time: 00 hr 22 min 46 sec)
Heartbeat CPU 0 instructions: 129500798 cycles: 71203100 heartbeat IPC: 1.348 cumulative IPC: 1.379 (Simulation time: 00 hr 22 min 53 sec)
Heartbeat CPU 0 instructions: 130000798 cycles: 71638592 heartbeat IPC: 1.148 cumulative IPC: 1.378 (Simulation time: 00 hr 23 min 00 sec)
Heartbeat CPU 0 instructions: 130500799 cycles: 72048068 heartbeat IPC: 1.221 cumulative IPC: 1.376 (Simulation time: 00 hr 23 min 07 sec)
Heartbeat CPU 0 instructions: 131000800 cycles: 72457875 heartbeat IPC: 1.22 cumulative IPC: 1.375 (Simulation time: 00 hr 23 min 14 sec)
Heartbeat CPU 0 instructions: 131500800 cycles: 72798329 heartbeat IPC: 1.469 cumulative IPC: 1.376 (Simulation time: 00 hr 23 min 20 sec)
Heartbeat CPU 0 instructions: 132000800 cycles: 73167320 heartbeat IPC: 1.355 cumulative IPC: 1.376 (Simulation time: 00 hr 23 min 27 sec)
Heartbeat CPU 0 instructions: 132500801 cycles: 73629662 heartbeat IPC: 1.081 cumulative IPC: 1.374 (Simulation time: 00 hr 23 min 34 sec)
Heartbeat CPU 0 instructions: 133000804 cycles: 74077004 heartbeat IPC: 1.118 cumulative IPC: 1.372 (Simulation time: 00 hr 23 min 41 sec)
Heartbeat CPU 0 instructions: 133500804 cycles: 74579285 heartbeat IPC: 0.9955 cumulative IPC: 1.369 (Simulation time: 00 hr 23 min 49 sec)
Heartbeat CPU 0 instructions: 134000810 cycles: 75000975 heartbeat IPC: 1.186 cumulative IPC: 1.367 (Simulation time: 00 hr 23 min 57 sec)
Heartbeat CPU 0 instructions: 134500810 cycles: 75480400 heartbeat IPC: 1.043 cumulative IPC: 1.365 (Simulation time: 00 hr 24 min 04 sec)
Heartbeat CPU 0 instructions: 135000812 cycles: 75798403 heartbeat IPC: 1.572 cumulative IPC: 1.366 (Simulation time: 00 hr 24 min 10 sec)
Heartbeat CPU 0 instructions: 135500814 cycles: 76243339 heartbeat IPC: 1.124 cumulative IPC: 1.364 (Simulation time: 00 hr 24 min 17 sec)
Heartbeat CPU 0 instructions: 136000815 cycles: 76724965 heartbeat IPC: 1.038 cumulative IPC: 1.362 (Simulation time: 00 hr 24 min 25 sec)
Heartbeat CPU 0 instructions: 136500817 cycles: 77228975 heartbeat IPC: 0.992 cumulative IPC: 1.359 (Simulation time: 00 hr 24 min 33 sec)
Heartbeat CPU 0 instructions: 137000821 cycles: 77724044 heartbeat IPC: 1.01 cumulative IPC: 1.356 (Simulation time: 00 hr 24 min 40 sec)
Heartbeat CPU 0 instructions: 137500826 cycles: 78199736 heartbeat IPC: 1.051 cumulative IPC: 1.354 (Simulation time: 00 hr 24 min 48 sec)
Heartbeat CPU 0 instructions: 138000829 cycles: 78691014 heartbeat IPC: 1.018 cumulative IPC: 1.351 (Simulation time: 00 hr 24 min 55 sec)
Heartbeat CPU 0 instructions: 138500836 cycles: 79144012 heartbeat IPC: 1.104 cumulative IPC: 1.35 (Simulation time: 00 hr 25 min 02 sec)
Heartbeat CPU 0 instructions: 139000838 cycles: 79615798 heartbeat IPC: 1.06 cumulative IPC: 1.347 (Simulation time: 00 hr 25 min 10 sec)
Heartbeat CPU 0 instructions: 139500840 cycles: 79954101 heartbeat IPC: 1.478 cumulative IPC: 1.348 (Simulation time: 00 hr 25 min 16 sec)
Heartbeat CPU 0 instructions: 140000841 cycles: 80209839 heartbeat IPC: 1.955 cumulative IPC: 1.35 (Simulation time: 00 hr 25 min 21 sec)
Heartbeat CPU 0 instructions: 140500841 cycles: 80699239 heartbeat IPC: 1.022 cumulative IPC: 1.348 (Simulation time: 00 hr 25 min 29 sec)
Heartbeat CPU 0 instructions: 141000841 cycles: 81070818 heartbeat IPC: 1.346 cumulative IPC: 1.348 (Simulation time: 00 hr 25 min 35 sec)
Heartbeat CPU 0 instructions: 141500841 cycles: 81595444 heartbeat IPC: 0.9531 cumulative IPC: 1.345 (Simulation time: 00 hr 25 min 43 sec)
Heartbeat CPU 0 instructions: 142000841 cycles: 81984879 heartbeat IPC: 1.284 cumulative IPC: 1.345 (Simulation time: 00 hr 25 min 50 sec)
Heartbeat CPU 0 instructions: 142500847 cycles: 82461944 heartbeat IPC: 1.048 cumulative IPC: 1.343 (Simulation time: 00 hr 25 min 58 sec)
Heartbeat CPU 0 instructions: 143000847 cycles: 82994187 heartbeat IPC: 0.9394 cumulative IPC: 1.339 (Simulation time: 00 hr 26 min 06 sec)
Heartbeat CPU 0 instructions: 143500849 cycles: 83535514 heartbeat IPC: 0.9237 cumulative IPC: 1.336 (Simulation time: 00 hr 26 min 14 sec)
Heartbeat CPU 0 instructions: 144000851 cycles: 84027003 heartbeat IPC: 1.017 cumulative IPC: 1.334 (Simulation time: 00 hr 26 min 22 sec)
Heartbeat CPU 0 instructions: 144500851 cycles: 84540484 heartbeat IPC: 0.9737 cumulative IPC: 1.331 (Simulation time: 00 hr 26 min 29 sec)
Heartbeat CPU 0 instructions: 145000858 cycles: 85000903 heartbeat IPC: 1.086 cumulative IPC: 1.33 (Simulation time: 00 hr 26 min 36 sec)
Heartbeat CPU 0 instructions: 145500858 cycles: 85475149 heartbeat IPC: 1.054 cumulative IPC: 1.328 (Simulation time: 00 hr 26 min 44 sec)
Heartbeat CPU 0 instructions: 146000862 cycles: 85965660 heartbeat IPC: 1.019 cumulative IPC: 1.326 (Simulation time: 00 hr 26 min 51 sec)
Heartbeat CPU 0 instructions: 146500864 cycles: 86428262 heartbeat IPC: 1.081 cumulative IPC: 1.324 (Simulation time: 00 hr 26 min 58 sec)
Heartbeat CPU 0 instructions: 147000866 cycles: 86862113 heartbeat IPC: 1.152 cumulative IPC: 1.323 (Simulation time: 00 hr 27 min 05 sec)
Heartbeat CPU 0 instructions: 147500867 cycles: 87367942 heartbeat IPC: 0.9885 cumulative IPC: 1.321 (Simulation time: 00 hr 27 min 12 sec)
Heartbeat CPU 0 instructions: 148000870 cycles: 87839213 heartbeat IPC: 1.061 cumulative IPC: 1.319 (Simulation time: 00 hr 27 min 20 sec)
Heartbeat CPU 0 instructions: 148500872 cycles: 88348660 heartbeat IPC: 0.9815 cumulative IPC: 1.317 (Simulation time: 00 hr 27 min 28 sec)
Heartbeat CPU 0 instructions: 149000874 cycles: 88843812 heartbeat IPC: 1.01 cumulative IPC: 1.315 (Simulation time: 00 hr 27 min 35 sec)
Heartbeat CPU 0 instructions: 149500874 cycles: 89315481 heartbeat IPC: 1.06 cumulative IPC: 1.314 (Simulation time: 00 hr 27 min 42 sec)
Heartbeat CPU 0 instructions: 150000875 cycles: 89801543 heartbeat IPC: 1.029 cumulative IPC: 1.312 (Simulation time: 00 hr 27 min 50 sec)
Heartbeat CPU 0 instructions: 150500880 cycles: 90299493 heartbeat IPC: 1.004 cumulative IPC: 1.31 (Simulation time: 00 hr 27 min 57 sec)
Heartbeat CPU 0 instructions: 151000886 cycles: 90797752 heartbeat IPC: 1.004 cumulative IPC: 1.308 (Simulation time: 00 hr 28 min 05 sec)
Heartbeat CPU 0 instructions: 151500890 cycles: 91234694 heartbeat IPC: 1.144 cumulative IPC: 1.307 (Simulation time: 00 hr 28 min 12 sec)
Heartbeat CPU 0 instructions: 152000891 cycles: 91751831 heartbeat IPC: 0.9669 cumulative IPC: 1.305 (Simulation time: 00 hr 28 min 19 sec)
Heartbeat CPU 0 instructions: 152500892 cycles: 92267434 heartbeat IPC: 0.9697 cumulative IPC: 1.302 (Simulation time: 00 hr 28 min 27 sec)
Heartbeat CPU 0 instructions: 153000895 cycles: 92749867 heartbeat IPC: 1.036 cumulative IPC: 1.301 (Simulation time: 00 hr 28 min 34 sec)
Heartbeat CPU 0 instructions: 153500895 cycles: 93247529 heartbeat IPC: 1.005 cumulative IPC: 1.299 (Simulation time: 00 hr 28 min 42 sec)
Heartbeat CPU 0 instructions: 154000899 cycles: 93692280 heartbeat IPC: 1.124 cumulative IPC: 1.298 (Simulation time: 00 hr 28 min 49 sec)
Heartbeat CPU 0 instructions: 154500900 cycles: 94127398 heartbeat IPC: 1.149 cumulative IPC: 1.297 (Simulation time: 00 hr 28 min 56 sec)
Heartbeat CPU 0 instructions: 155000903 cycles: 94507590 heartbeat IPC: 1.315 cumulative IPC: 1.297 (Simulation time: 00 hr 29 min 02 sec)
Heartbeat CPU 0 instructions: 155500906 cycles: 94871763 heartbeat IPC: 1.373 cumulative IPC: 1.298 (Simulation time: 00 hr 29 min 08 sec)
Heartbeat CPU 0 instructions: 156000908 cycles: 95379489 heartbeat IPC: 0.9848 cumulative IPC: 1.296 (Simulation time: 00 hr 29 min 16 sec)
Heartbeat CPU 0 instructions: 156500909 cycles: 95848718 heartbeat IPC: 1.066 cumulative IPC: 1.294 (Simulation time: 00 hr 29 min 24 sec)
Heartbeat CPU 0 instructions: 157000911 cycles: 96369129 heartbeat IPC: 0.9608 cumulative IPC: 1.292 (Simulation time: 00 hr 29 min 31 sec)
Heartbeat CPU 0 instructions: 157500912 cycles: 96880070 heartbeat IPC: 0.9786 cumulative IPC: 1.29 (Simulation time: 00 hr 29 min 39 sec)
Heartbeat CPU 0 instructions: 158000917 cycles: 97350290 heartbeat IPC: 1.063 cumulative IPC: 1.289 (Simulation time: 00 hr 29 min 46 sec)
Heartbeat CPU 0 instructions: 158500917 cycles: 97769535 heartbeat IPC: 1.193 cumulative IPC: 1.289 (Simulation time: 00 hr 29 min 53 sec)
Heartbeat CPU 0 instructions: 159000923 cycles: 98207707 heartbeat IPC: 1.141 cumulative IPC: 1.288 (Simulation time: 00 hr 30 min 00 sec)
Heartbeat CPU 0 instructions: 159500924 cycles: 98687514 heartbeat IPC: 1.042 cumulative IPC: 1.286 (Simulation time: 00 hr 30 min 08 sec)
Heartbeat CPU 0 instructions: 160000928 cycles: 99067974 heartbeat IPC: 1.314 cumulative IPC: 1.287 (Simulation time: 00 hr 30 min 14 sec)
Heartbeat CPU 0 instructions: 160500930 cycles: 99536668 heartbeat IPC: 1.067 cumulative IPC: 1.285 (Simulation time: 00 hr 30 min 21 sec)
Heartbeat CPU 0 instructions: 161000931 cycles: 99981431 heartbeat IPC: 1.124 cumulative IPC: 1.284 (Simulation time: 00 hr 30 min 28 sec)
Heartbeat CPU 0 instructions: 161500932 cycles: 100434175 heartbeat IPC: 1.104 cumulative IPC: 1.284 (Simulation time: 00 hr 30 min 36 sec)
Heartbeat CPU 0 instructions: 162000934 cycles: 100905330 heartbeat IPC: 1.061 cumulative IPC: 1.282 (Simulation time: 00 hr 30 min 43 sec)
Heartbeat CPU 0 instructions: 162500934 cycles: 101332360 heartbeat IPC: 1.171 cumulative IPC: 1.282 (Simulation time: 00 hr 30 min 50 sec)
Heartbeat CPU 0 instructions: 163000934 cycles: 101780638 heartbeat IPC: 1.115 cumulative IPC: 1.281 (Simulation time: 00 hr 30 min 57 sec)
Heartbeat CPU 0 instructions: 163500940 cycles: 102255159 heartbeat IPC: 1.054 cumulative IPC: 1.28 (Simulation time: 00 hr 31 min 04 sec)
Heartbeat CPU 0 instructions: 164000940 cycles: 102723198 heartbeat IPC: 1.068 cumulative IPC: 1.279 (Simulation time: 00 hr 31 min 12 sec)
Heartbeat CPU 0 instructions: 164500941 cycles: 103193862 heartbeat IPC: 1.062 cumulative IPC: 1.277 (Simulation time: 00 hr 31 min 19 sec)
Heartbeat CPU 0 instructions: 165000944 cycles: 103644141 heartbeat IPC: 1.11 cumulative IPC: 1.277 (Simulation time: 00 hr 31 min 26 sec)
Heartbeat CPU 0 instructions: 165500947 cycles: 104074732 heartbeat IPC: 1.161 cumulative IPC: 1.276 (Simulation time: 00 hr 31 min 33 sec)
Heartbeat CPU 0 instructions: 166000948 cycles: 104507513 heartbeat IPC: 1.155 cumulative IPC: 1.276 (Simulation time: 00 hr 31 min 40 sec)
Heartbeat CPU 0 instructions: 166500951 cycles: 104978332 heartbeat IPC: 1.062 cumulative IPC: 1.274 (Simulation time: 00 hr 31 min 48 sec)
Heartbeat CPU 0 instructions: 167000953 cycles: 105422855 heartbeat IPC: 1.125 cumulative IPC: 1.274 (Simulation time: 00 hr 31 min 55 sec)
Heartbeat CPU 0 instructions: 167500954 cycles: 105863437 heartbeat IPC: 1.135 cumulative IPC: 1.273 (Simulation time: 00 hr 32 min 02 sec)
Heartbeat CPU 0 instructions: 168000960 cycles: 106260231 heartbeat IPC: 1.26 cumulative IPC: 1.273 (Simulation time: 00 hr 32 min 08 sec)
Heartbeat CPU 0 instructions: 168500962 cycles: 106665817 heartbeat IPC: 1.233 cumulative IPC: 1.273 (Simulation time: 00 hr 32 min 15 sec)
Heartbeat CPU 0 instructions: 169000963 cycles: 107076233 heartbeat IPC: 1.218 cumulative IPC: 1.273 (Simulation time: 00 hr 32 min 22 sec)
Heartbeat CPU 0 instructions: 169500967 cycles: 107473760 heartbeat IPC: 1.258 cumulative IPC: 1.273 (Simulation time: 00 hr 32 min 29 sec)
Heartbeat CPU 0 instructions: 170000971 cycles: 107651822 heartbeat IPC: 2.808 cumulative IPC: 1.275 (Simulation time: 00 hr 32 min 33 sec)
Heartbeat CPU 0 instructions: 170500977 cycles: 107830180 heartbeat IPC: 2.803 cumulative IPC: 1.278 (Simulation time: 00 hr 32 min 38 sec)
Heartbeat CPU 0 instructions: 171000978 cycles: 108001425 heartbeat IPC: 2.92 cumulative IPC: 1.281 (Simulation time: 00 hr 32 min 42 sec)
Heartbeat CPU 0 instructions: 171500979 cycles: 108172917 heartbeat IPC: 2.916 cumulative IPC: 1.284 (Simulation time: 00 hr 32 min 46 sec)
Heartbeat CPU 0 instructions: 172000981 cycles: 108353728 heartbeat IPC: 2.765 cumulative IPC: 1.287 (Simulation time: 00 hr 32 min 51 sec)
Heartbeat CPU 0 instructions: 172500984 cycles: 108542992 heartbeat IPC: 2.642 cumulative IPC: 1.29 (Simulation time: 00 hr 32 min 56 sec)
Heartbeat CPU 0 instructions: 173000989 cycles: 108726069 heartbeat IPC: 2.731 cumulative IPC: 1.293 (Simulation time: 00 hr 33 min 00 sec)
Heartbeat CPU 0 instructions: 173500992 cycles: 108913319 heartbeat IPC: 2.67 cumulative IPC: 1.295 (Simulation time: 00 hr 33 min 05 sec)
Heartbeat CPU 0 instructions: 174000995 cycles: 109109299 heartbeat IPC: 2.551 cumulative IPC: 1.298 (Simulation time: 00 hr 33 min 10 sec)
Heartbeat CPU 0 instructions: 174500996 cycles: 109302171 heartbeat IPC: 2.592 cumulative IPC: 1.3 (Simulation time: 00 hr 33 min 15 sec)
Heartbeat CPU 0 instructions: 175000998 cycles: 109499080 heartbeat IPC: 2.539 cumulative IPC: 1.303 (Simulation time: 00 hr 33 min 20 sec)
Heartbeat CPU 0 instructions: 175501002 cycles: 109704438 heartbeat IPC: 2.435 cumulative IPC: 1.305 (Simulation time: 00 hr 33 min 25 sec)
Heartbeat CPU 0 instructions: 176001006 cycles: 109923965 heartbeat IPC: 2.278 cumulative IPC: 1.308 (Simulation time: 00 hr 33 min 30 sec)
Heartbeat CPU 0 instructions: 176501009 cycles: 110145918 heartbeat IPC: 2.253 cumulative IPC: 1.31 (Simulation time: 00 hr 33 min 35 sec)
Heartbeat CPU 0 instructions: 177001015 cycles: 110367051 heartbeat IPC: 2.261 cumulative IPC: 1.312 (Simulation time: 00 hr 33 min 41 sec)
Heartbeat CPU 0 instructions: 177501022 cycles: 110579682 heartbeat IPC: 2.352 cumulative IPC: 1.314 (Simulation time: 00 hr 33 min 46 sec)
Heartbeat CPU 0 instructions: 178001023 cycles: 110799212 heartbeat IPC: 2.278 cumulative IPC: 1.316 (Simulation time: 00 hr 33 min 52 sec)
Heartbeat CPU 0 instructions: 178501024 cycles: 111027958 heartbeat IPC: 2.186 cumulative IPC: 1.318 (Simulation time: 00 hr 33 min 57 sec)
Heartbeat CPU 0 instructions: 179001024 cycles: 111241837 heartbeat IPC: 2.338 cumulative IPC: 1.321 (Simulation time: 00 hr 34 min 03 sec)
Heartbeat CPU 0 instructions: 179501027 cycles: 111455563 heartbeat IPC: 2.339 cumulative IPC: 1.323 (Simulation time: 00 hr 34 min 08 sec)
Heartbeat CPU 0 instructions: 180001032 cycles: 111688998 heartbeat IPC: 2.142 cumulative IPC: 1.325 (Simulation time: 00 hr 34 min 14 sec)
Heartbeat CPU 0 instructions: 180501037 cycles: 111911241 heartbeat IPC: 2.25 cumulative IPC: 1.327 (Simulation time: 00 hr 34 min 19 sec)
Heartbeat CPU 0 instructions: 181001041 cycles: 112133428 heartbeat IPC: 2.25 cumulative IPC: 1.329 (Simulation time: 00 hr 34 min 25 sec)
Heartbeat CPU 0 instructions: 181501042 cycles: 112341766 heartbeat IPC: 2.4 cumulative IPC: 1.331 (Simulation time: 00 hr 34 min 30 sec)
Heartbeat CPU 0 instructions: 182001048 cycles: 112564624 heartbeat IPC: 2.244 cumulative IPC: 1.333 (Simulation time: 00 hr 34 min 36 sec)
Heartbeat CPU 0 instructions: 182501052 cycles: 112789064 heartbeat IPC: 2.228 cumulative IPC: 1.335 (Simulation time: 00 hr 34 min 41 sec)
Heartbeat CPU 0 instructions: 183001058 cycles: 113001753 heartbeat IPC: 2.351 cumulative IPC: 1.338 (Simulation time: 00 hr 34 min 47 sec)
Heartbeat CPU 0 instructions: 183501058 cycles: 113214600 heartbeat IPC: 2.349 cumulative IPC: 1.34 (Simulation time: 00 hr 34 min 52 sec)
Heartbeat CPU 0 instructions: 184001058 cycles: 113439060 heartbeat IPC: 2.228 cumulative IPC: 1.342 (Simulation time: 00 hr 34 min 58 sec)
Heartbeat CPU 0 instructions: 184501063 cycles: 113654159 heartbeat IPC: 2.325 cumulative IPC: 1.344 (Simulation time: 00 hr 35 min 03 sec)
Heartbeat CPU 0 instructions: 185001067 cycles: 113875562 heartbeat IPC: 2.258 cumulative IPC: 1.346 (Simulation time: 00 hr 35 min 09 sec)
Heartbeat CPU 0 instructions: 185501068 cycles: 114097599 heartbeat IPC: 2.252 cumulative IPC: 1.348 (Simulation time: 00 hr 35 min 14 sec)
Heartbeat CPU 0 instructions: 186001074 cycles: 114326351 heartbeat IPC: 2.186 cumulative IPC: 1.35 (Simulation time: 00 hr 35 min 20 sec)
Heartbeat CPU 0 instructions: 186501079 cycles: 114549329 heartbeat IPC: 2.242 cumulative IPC: 1.352 (Simulation time: 00 hr 35 min 25 sec)
Heartbeat CPU 0 instructions: 187001084 cycles: 114768769 heartbeat IPC: 2.279 cumulative IPC: 1.354 (Simulation time: 00 hr 35 min 31 sec)
Heartbeat CPU 0 instructions: 187501085 cycles: 114986461 heartbeat IPC: 2.297 cumulative IPC: 1.356 (Simulation time: 00 hr 35 min 36 sec)
Heartbeat CPU 0 instructions: 188001090 cycles: 115219508 heartbeat IPC: 2.146 cumulative IPC: 1.358 (Simulation time: 00 hr 35 min 42 sec)
Heartbeat CPU 0 instructions: 188501091 cycles: 115452919 heartbeat IPC: 2.142 cumulative IPC: 1.359 (Simulation time: 00 hr 35 min 47 sec)
Heartbeat CPU 0 instructions: 189001093 cycles: 115673420 heartbeat IPC: 2.268 cumulative IPC: 1.361 (Simulation time: 00 hr 35 min 53 sec)
Heartbeat CPU 0 instructions: 189501094 cycles: 115881891 heartbeat IPC: 2.398 cumulative IPC: 1.363 (Simulation time: 00 hr 35 min 58 sec)
Heartbeat CPU 0 instructions: 190001099 cycles: 116101701 heartbeat IPC: 2.275 cumulative IPC: 1.365 (Simulation time: 00 hr 36 min 04 sec)
Heartbeat CPU 0 instructions: 190501102 cycles: 116333289 heartbeat IPC: 2.159 cumulative IPC: 1.367 (Simulation time: 00 hr 36 min 09 sec)
Heartbeat CPU 0 instructions: 191001102 cycles: 116549711 heartbeat IPC: 2.31 cumulative IPC: 1.369 (Simulation time: 00 hr 36 min 15 sec)
Heartbeat CPU 0 instructions: 191501103 cycles: 116770622 heartbeat IPC: 2.263 cumulative IPC: 1.371 (Simulation time: 00 hr 36 min 20 sec)
Heartbeat CPU 0 instructions: 192001105 cycles: 116997311 heartbeat IPC: 2.206 cumulative IPC: 1.373 (Simulation time: 00 hr 36 min 26 sec)
Heartbeat CPU 0 instructions: 192501111 cycles: 117225777 heartbeat IPC: 2.189 cumulative IPC: 1.375 (Simulation time: 00 hr 36 min 31 sec)
Heartbeat CPU 0 instructions: 193001111 cycles: 117445685 heartbeat IPC: 2.274 cumulative IPC: 1.377 (Simulation time: 00 hr 36 min 37 sec)
Heartbeat CPU 0 instructions: 193501112 cycles: 117664635 heartbeat IPC: 2.284 cumulative IPC: 1.378 (Simulation time: 00 hr 36 min 42 sec)
Heartbeat CPU 0 instructions: 194001118 cycles: 117888484 heartbeat IPC: 2.234 cumulative IPC: 1.38 (Simulation time: 00 hr 36 min 48 sec)
Heartbeat CPU 0 instructions: 194501123 cycles: 118110483 heartbeat IPC: 2.252 cumulative IPC: 1.382 (Simulation time: 00 hr 36 min 53 sec)
Heartbeat CPU 0 instructions: 195001128 cycles: 118336641 heartbeat IPC: 2.211 cumulative IPC: 1.384 (Simulation time: 00 hr 36 min 59 sec)
Heartbeat CPU 0 instructions: 195501129 cycles: 118550859 heartbeat IPC: 2.334 cumulative IPC: 1.386 (Simulation time: 00 hr 37 min 04 sec)
Heartbeat CPU 0 instructions: 196001134 cycles: 118778181 heartbeat IPC: 2.2 cumulative IPC: 1.388 (Simulation time: 00 hr 37 min 10 sec)
Heartbeat CPU 0 instructions: 196501137 cycles: 119013278 heartbeat IPC: 2.127 cumulative IPC: 1.389 (Simulation time: 00 hr 37 min 15 sec)
Heartbeat CPU 0 instructions: 197001137 cycles: 119229345 heartbeat IPC: 2.314 cumulative IPC: 1.391 (Simulation time: 00 hr 37 min 21 sec)
Heartbeat CPU 0 instructions: 197501138 cycles: 119447890 heartbeat IPC: 2.288 cumulative IPC: 1.393 (Simulation time: 00 hr 37 min 26 sec)
Heartbeat CPU 0 instructions: 198001144 cycles: 119666567 heartbeat IPC: 2.287 cumulative IPC: 1.395 (Simulation time: 00 hr 37 min 32 sec)
Heartbeat CPU 0 instructions: 198501149 cycles: 119893018 heartbeat IPC: 2.208 cumulative IPC: 1.397 (Simulation time: 00 hr 37 min 37 sec)
Heartbeat CPU 0 instructions: 199001154 cycles: 120117840 heartbeat IPC: 2.224 cumulative IPC: 1.398 (Simulation time: 00 hr 37 min 43 sec)
Heartbeat CPU 0 instructions: 199501154 cycles: 120340029 heartbeat IPC: 2.25 cumulative IPC: 1.4 (Simulation time: 00 hr 37 min 48 sec)
Heartbeat CPU 0 instructions: 200001160 cycles: 120565708 heartbeat IPC: 2.216 cumulative IPC: 1.402 (Simulation time: 00 hr 37 min 54 sec)
Heartbeat CPU 0 instructions: 200501165 cycles: 120794978 heartbeat IPC: 2.181 cumulative IPC: 1.404 (Simulation time: 00 hr 37 min 59 sec)
Heartbeat CPU 0 instructions: 201001171 cycles: 121022065 heartbeat IPC: 2.202 cumulative IPC: 1.405 (Simulation time: 00 hr 38 min 05 sec)
Heartbeat CPU 0 instructions: 201501172 cycles: 121240959 heartbeat IPC: 2.284 cumulative IPC: 1.407 (Simulation time: 00 hr 38 min 10 sec)
Heartbeat CPU 0 instructions: 202001179 cycles: 121464551 heartbeat IPC: 2.236 cumulative IPC: 1.409 (Simulation time: 00 hr 38 min 16 sec)
Heartbeat CPU 0 instructions: 202501180 cycles: 121691293 heartbeat IPC: 2.205 cumulative IPC: 1.41 (Simulation time: 00 hr 38 min 21 sec)
Heartbeat CPU 0 instructions: 203001180 cycles: 121910088 heartbeat IPC: 2.285 cumulative IPC: 1.412 (Simulation time: 00 hr 38 min 27 sec)
Heartbeat CPU 0 instructions: 203501181 cycles: 122123052 heartbeat IPC: 2.348 cumulative IPC: 1.414 (Simulation time: 00 hr 38 min 32 sec)
Heartbeat CPU 0 instructions: 204001185 cycles: 122344964 heartbeat IPC: 2.253 cumulative IPC: 1.416 (Simulation time: 00 hr 38 min 36 sec)
Heartbeat CPU 0 instructions: 204501189 cycles: 122579518 heartbeat IPC: 2.132 cumulative IPC: 1.417 (Simulation time: 00 hr 38 min 40 sec)
Heartbeat CPU 0 instructions: 205001189 cycles: 122813691 heartbeat IPC: 2.135 cumulative IPC: 1.419 (Simulation time: 00 hr 38 min 44 sec)
Heartbeat CPU 0 instructions: 205501190 cycles: 123035512 heartbeat IPC: 2.254 cumulative IPC: 1.42 (Simulation time: 00 hr 38 min 47 sec)
Heartbeat CPU 0 instructions: 206001195 cycles: 123258100 heartbeat IPC: 2.246 cumulative IPC: 1.422 (Simulation time: 00 hr 38 min 51 sec)
Heartbeat CPU 0 instructions: 206501198 cycles: 123489421 heartbeat IPC: 2.162 cumulative IPC: 1.424 (Simulation time: 00 hr 38 min 55 sec)
Heartbeat CPU 0 instructions: 207001200 cycles: 123713108 heartbeat IPC: 2.235 cumulative IPC: 1.425 (Simulation time: 00 hr 38 min 58 sec)
Heartbeat CPU 0 instructions: 207501207 cycles: 123935317 heartbeat IPC: 2.25 cumulative IPC: 1.427 (Simulation time: 00 hr 39 min 02 sec)
Heartbeat CPU 0 instructions: 208001208 cycles: 124153772 heartbeat IPC: 2.289 cumulative IPC: 1.429 (Simulation time: 00 hr 39 min 05 sec)
Heartbeat CPU 0 instructions: 208501215 cycles: 124379559 heartbeat IPC: 2.215 cumulative IPC: 1.43 (Simulation time: 00 hr 39 min 09 sec)
Heartbeat CPU 0 instructions: 209001217 cycles: 124603746 heartbeat IPC: 2.23 cumulative IPC: 1.432 (Simulation time: 00 hr 39 min 13 sec)
Heartbeat CPU 0 instructions: 209501222 cycles: 124825952 heartbeat IPC: 2.25 cumulative IPC: 1.434 (Simulation time: 00 hr 39 min 16 sec)
Heartbeat CPU 0 instructions: 210001223 cycles: 125052809 heartbeat IPC: 2.204 cumulative IPC: 1.435 (Simulation time: 00 hr 39 min 20 sec)
Heartbeat CPU 0 instructions: 210501225 cycles: 125284730 heartbeat IPC: 2.156 cumulative IPC: 1.437 (Simulation time: 00 hr 39 min 23 sec)
Heartbeat CPU 0 instructions: 211001229 cycles: 125507321 heartbeat IPC: 2.246 cumulative IPC: 1.438 (Simulation time: 00 hr 39 min 27 sec)
Heartbeat CPU 0 instructions: 211501233 cycles: 125726960 heartbeat IPC: 2.276 cumulative IPC: 1.44 (Simulation time: 00 hr 39 min 31 sec)
Heartbeat CPU 0 instructions: 212001235 cycles: 125947715 heartbeat IPC: 2.265 cumulative IPC: 1.442 (Simulation time: 00 hr 39 min 34 sec)
Heartbeat CPU 0 instructions: 212501235 cycles: 126173897 heartbeat IPC: 2.211 cumulative IPC: 1.443 (Simulation time: 00 hr 39 min 38 sec)
Heartbeat CPU 0 instructions: 213001240 cycles: 126402287 heartbeat IPC: 2.189 cumulative IPC: 1.445 (Simulation time: 00 hr 39 min 41 sec)
Heartbeat CPU 0 instructions: 213501242 cycles: 126622741 heartbeat IPC: 2.268 cumulative IPC: 1.446 (Simulation time: 00 hr 39 min 45 sec)
Heartbeat CPU 0 instructions: 214001243 cycles: 126844174 heartbeat IPC: 2.258 cumulative IPC: 1.448 (Simulation time: 00 hr 39 min 48 sec)
Heartbeat CPU 0 instructions: 214501250 cycles: 127081588 heartbeat IPC: 2.106 cumulative IPC: 1.449 (Simulation time: 00 hr 39 min 52 sec)
Heartbeat CPU 0 instructions: 215001256 cycles: 127310529 heartbeat IPC: 2.184 cumulative IPC: 1.451 (Simulation time: 00 hr 39 min 56 sec)
Heartbeat CPU 0 instructions: 215501259 cycles: 127525090 heartbeat IPC: 2.33 cumulative IPC: 1.452 (Simulation time: 00 hr 39 min 59 sec)
Heartbeat CPU 0 instructions: 216001266 cycles: 127751844 heartbeat IPC: 2.205 cumulative IPC: 1.454 (Simulation time: 00 hr 40 min 03 sec)
Heartbeat CPU 0 instructions: 216501267 cycles: 127973611 heartbeat IPC: 2.255 cumulative IPC: 1.455 (Simulation time: 00 hr 40 min 06 sec)
Heartbeat CPU 0 instructions: 217001272 cycles: 128205679 heartbeat IPC: 2.155 cumulative IPC: 1.457 (Simulation time: 00 hr 40 min 10 sec)
Heartbeat CPU 0 instructions: 217501276 cycles: 128428292 heartbeat IPC: 2.246 cumulative IPC: 1.458 (Simulation time: 00 hr 40 min 14 sec)
Heartbeat CPU 0 instructions: 218001278 cycles: 128663042 heartbeat IPC: 2.13 cumulative IPC: 1.46 (Simulation time: 00 hr 40 min 17 sec)
Heartbeat CPU 0 instructions: 218501281 cycles: 128892289 heartbeat IPC: 2.181 cumulative IPC: 1.461 (Simulation time: 00 hr 40 min 21 sec)
Heartbeat CPU 0 instructions: 219001281 cycles: 129123903 heartbeat IPC: 2.159 cumulative IPC: 1.462 (Simulation time: 00 hr 40 min 25 sec)
Heartbeat CPU 0 instructions: 219501285 cycles: 129343266 heartbeat IPC: 2.279 cumulative IPC: 1.464 (Simulation time: 00 hr 40 min 28 sec)
Heartbeat CPU 0 instructions: 220001292 cycles: 129567923 heartbeat IPC: 2.226 cumulative IPC: 1.465 (Simulation time: 00 hr 40 min 32 sec)
Heartbeat CPU 0 instructions: 220501293 cycles: 129799979 heartbeat IPC: 2.155 cumulative IPC: 1.467 (Simulation time: 00 hr 40 min 36 sec)
Heartbeat CPU 0 instructions: 221001299 cycles: 130023542 heartbeat IPC: 2.237 cumulative IPC: 1.468 (Simulation time: 00 hr 40 min 39 sec)
Heartbeat CPU 0 instructions: 221501302 cycles: 130246324 heartbeat IPC: 2.244 cumulative IPC: 1.47 (Simulation time: 00 hr 40 min 43 sec)
Heartbeat CPU 0 instructions: 222001309 cycles: 130453179 heartbeat IPC: 2.417 cumulative IPC: 1.471 (Simulation time: 00 hr 40 min 46 sec)
Heartbeat CPU 0 instructions: 222501315 cycles: 130677952 heartbeat IPC: 2.224 cumulative IPC: 1.473 (Simulation time: 00 hr 40 min 50 sec)
Heartbeat CPU 0 instructions: 223001319 cycles: 130906405 heartbeat IPC: 2.189 cumulative IPC: 1.474 (Simulation time: 00 hr 40 min 53 sec)
Heartbeat CPU 0 instructions: 223501319 cycles: 131113079 heartbeat IPC: 2.419 cumulative IPC: 1.476 (Simulation time: 00 hr 40 min 57 sec)
Heartbeat CPU 0 instructions: 224001320 cycles: 131335270 heartbeat IPC: 2.25 cumulative IPC: 1.477 (Simulation time: 00 hr 41 min 00 sec)
Heartbeat CPU 0 instructions: 224501322 cycles: 131572986 heartbeat IPC: 2.103 cumulative IPC: 1.479 (Simulation time: 00 hr 41 min 04 sec)
Heartbeat CPU 0 instructions: 225001326 cycles: 131808901 heartbeat IPC: 2.119 cumulative IPC: 1.48 (Simulation time: 00 hr 41 min 08 sec)
Heartbeat CPU 0 instructions: 225501328 cycles: 132023760 heartbeat IPC: 2.327 cumulative IPC: 1.482 (Simulation time: 00 hr 41 min 11 sec)
Heartbeat CPU 0 instructions: 226001329 cycles: 132242591 heartbeat IPC: 2.285 cumulative IPC: 1.483 (Simulation time: 00 hr 41 min 15 sec)
Heartbeat CPU 0 instructions: 226501336 cycles: 132470950 heartbeat IPC: 2.19 cumulative IPC: 1.484 (Simulation time: 00 hr 41 min 18 sec)
Heartbeat CPU 0 instructions: 227001339 cycles: 132706718 heartbeat IPC: 2.121 cumulative IPC: 1.486 (Simulation time: 00 hr 41 min 22 sec)
Heartbeat CPU 0 instructions: 227501345 cycles: 132925989 heartbeat IPC: 2.28 cumulative IPC: 1.487 (Simulation time: 00 hr 41 min 26 sec)
Heartbeat CPU 0 instructions: 228001346 cycles: 133136624 heartbeat IPC: 2.374 cumulative IPC: 1.489 (Simulation time: 00 hr 41 min 29 sec)
Heartbeat CPU 0 instructions: 228501350 cycles: 133354859 heartbeat IPC: 2.291 cumulative IPC: 1.49 (Simulation time: 00 hr 41 min 33 sec)
Heartbeat CPU 0 instructions: 229001352 cycles: 133577731 heartbeat IPC: 2.243 cumulative IPC: 1.492 (Simulation time: 00 hr 41 min 36 sec)
Heartbeat CPU 0 instructions: 229501354 cycles: 133804125 heartbeat IPC: 2.209 cumulative IPC: 1.493 (Simulation time: 00 hr 41 min 40 sec)
Heartbeat CPU 0 instructions: 230001355 cycles: 134023197 heartbeat IPC: 2.282 cumulative IPC: 1.494 (Simulation time: 00 hr 41 min 43 sec)
Heartbeat CPU 0 instructions: 230501359 cycles: 134243510 heartbeat IPC: 2.27 cumulative IPC: 1.496 (Simulation time: 00 hr 41 min 47 sec)
Heartbeat CPU 0 instructions: 231001360 cycles: 134470661 heartbeat IPC: 2.201 cumulative IPC: 1.497 (Simulation time: 00 hr 41 min 50 sec)
Heartbeat CPU 0 instructions: 231501363 cycles: 134690822 heartbeat IPC: 2.271 cumulative IPC: 1.498 (Simulation time: 00 hr 41 min 54 sec)
Heartbeat CPU 0 instructions: 232001364 cycles: 134911277 heartbeat IPC: 2.268 cumulative IPC: 1.5 (Simulation time: 00 hr 41 min 57 sec)
Heartbeat CPU 0 instructions: 232501369 cycles: 135135675 heartbeat IPC: 2.228 cumulative IPC: 1.501 (Simulation time: 00 hr 42 min 01 sec)
Heartbeat CPU 0 instructions: 233001375 cycles: 135363923 heartbeat IPC: 2.191 cumulative IPC: 1.502 (Simulation time: 00 hr 42 min 05 sec)
Heartbeat CPU 0 instructions: 233501380 cycles: 135582709 heartbeat IPC: 2.285 cumulative IPC: 1.504 (Simulation time: 00 hr 42 min 08 sec)
Heartbeat CPU 0 instructions: 234001381 cycles: 135807655 heartbeat IPC: 2.223 cumulative IPC: 1.505 (Simulation time: 00 hr 42 min 12 sec)
Heartbeat CPU 0 instructions: 234501385 cycles: 136033371 heartbeat IPC: 2.215 cumulative IPC: 1.507 (Simulation time: 00 hr 42 min 15 sec)
Heartbeat CPU 0 instructions: 235001390 cycles: 136267649 heartbeat IPC: 2.134 cumulative IPC: 1.508 (Simulation time: 00 hr 42 min 19 sec)
Heartbeat CPU 0 instructions: 235501397 cycles: 136487343 heartbeat IPC: 2.276 cumulative IPC: 1.509 (Simulation time: 00 hr 42 min 23 sec)
Heartbeat CPU 0 instructions: 236001398 cycles: 136696619 heartbeat IPC: 2.389 cumulative IPC: 1.511 (Simulation time: 00 hr 42 min 26 sec)
Heartbeat CPU 0 instructions: 236501405 cycles: 136926678 heartbeat IPC: 2.173 cumulative IPC: 1.512 (Simulation time: 00 hr 42 min 30 sec)
Heartbeat CPU 0 instructions: 237001408 cycles: 137152637 heartbeat IPC: 2.213 cumulative IPC: 1.513 (Simulation time: 00 hr 42 min 33 sec)
Heartbeat CPU 0 instructions: 237501414 cycles: 137372784 heartbeat IPC: 2.271 cumulative IPC: 1.514 (Simulation time: 00 hr 42 min 37 sec)
Heartbeat CPU 0 instructions: 238001415 cycles: 137596288 heartbeat IPC: 2.237 cumulative IPC: 1.516 (Simulation time: 00 hr 42 min 41 sec)
Heartbeat CPU 0 instructions: 238501417 cycles: 137822656 heartbeat IPC: 2.209 cumulative IPC: 1.517 (Simulation time: 00 hr 42 min 44 sec)
Heartbeat CPU 0 instructions: 239001421 cycles: 138051502 heartbeat IPC: 2.185 cumulative IPC: 1.518 (Simulation time: 00 hr 42 min 48 sec)
Heartbeat CPU 0 instructions: 239501423 cycles: 138276755 heartbeat IPC: 2.22 cumulative IPC: 1.52 (Simulation time: 00 hr 42 min 52 sec)
Heartbeat CPU 0 instructions: 240001424 cycles: 138500055 heartbeat IPC: 2.239 cumulative IPC: 1.521 (Simulation time: 00 hr 42 min 55 sec)
Heartbeat CPU 0 instructions: 240501428 cycles: 138730806 heartbeat IPC: 2.167 cumulative IPC: 1.522 (Simulation time: 00 hr 42 min 59 sec)
Heartbeat CPU 0 instructions: 241001431 cycles: 138971364 heartbeat IPC: 2.079 cumulative IPC: 1.523 (Simulation time: 00 hr 43 min 02 sec)
Heartbeat CPU 0 instructions: 241501432 cycles: 139190477 heartbeat IPC: 2.282 cumulative IPC: 1.524 (Simulation time: 00 hr 43 min 06 sec)
Heartbeat CPU 0 instructions: 242001433 cycles: 139407681 heartbeat IPC: 2.302 cumulative IPC: 1.526 (Simulation time: 00 hr 43 min 09 sec)
Heartbeat CPU 0 instructions: 242501440 cycles: 139636875 heartbeat IPC: 2.182 cumulative IPC: 1.527 (Simulation time: 00 hr 43 min 13 sec)
Heartbeat CPU 0 instructions: 243001441 cycles: 139868313 heartbeat IPC: 2.16 cumulative IPC: 1.528 (Simulation time: 00 hr 43 min 17 sec)
Heartbeat CPU 0 instructions: 243501441 cycles: 140095204 heartbeat IPC: 2.204 cumulative IPC: 1.529 (Simulation time: 00 hr 43 min 20 sec)
Heartbeat CPU 0 instructions: 244001442 cycles: 140315593 heartbeat IPC: 2.269 cumulative IPC: 1.531 (Simulation time: 00 hr 43 min 24 sec)
Heartbeat CPU 0 instructions: 244501445 cycles: 140538193 heartbeat IPC: 2.246 cumulative IPC: 1.532 (Simulation time: 00 hr 43 min 27 sec)
Heartbeat CPU 0 instructions: 245001450 cycles: 140774228 heartbeat IPC: 2.118 cumulative IPC: 1.533 (Simulation time: 00 hr 43 min 31 sec)
Heartbeat CPU 0 instructions: 245501450 cycles: 140992191 heartbeat IPC: 2.294 cumulative IPC: 1.534 (Simulation time: 00 hr 43 min 35 sec)
Heartbeat CPU 0 instructions: 246001451 cycles: 141209165 heartbeat IPC: 2.304 cumulative IPC: 1.536 (Simulation time: 00 hr 43 min 38 sec)
Heartbeat CPU 0 instructions: 246501455 cycles: 141426522 heartbeat IPC: 2.3 cumulative IPC: 1.537 (Simulation time: 00 hr 43 min 41 sec)
Heartbeat CPU 0 instructions: 247001459 cycles: 141647938 heartbeat IPC: 2.258 cumulative IPC: 1.538 (Simulation time: 00 hr 43 min 45 sec)
Heartbeat CPU 0 instructions: 247501459 cycles: 141865605 heartbeat IPC: 2.297 cumulative IPC: 1.539 (Simulation time: 00 hr 43 min 48 sec)
Heartbeat CPU 0 instructions: 248001460 cycles: 142083795 heartbeat IPC: 2.292 cumulative IPC: 1.541 (Simulation time: 00 hr 43 min 52 sec)
Heartbeat CPU 0 instructions: 248501462 cycles: 142304546 heartbeat IPC: 2.265 cumulative IPC: 1.542 (Simulation time: 00 hr 43 min 55 sec)
Heartbeat CPU 0 instructions: 249001466 cycles: 142526580 heartbeat IPC: 2.252 cumulative IPC: 1.543 (Simulation time: 00 hr 43 min 59 sec)
Heartbeat CPU 0 instructions: 249501468 cycles: 142743143 heartbeat IPC: 2.309 cumulative IPC: 1.544 (Simulation time: 00 hr 44 min 02 sec)
*** Reached end of trace: (0, "/local-ssd/ben/dpc4-traces/Graph/Ligra/ligra_MIS.com-lj.ungraph.gcc_6.3.0_O3.drop_15750M.length_250M.champsimtrace.xz")
Simulation finished CPU 0 instructions: 200000002 cycles: 129388927 cumulative IPC: 1.546 (Simulation time: 00 hr 44 min 06 sec)
Simulation complete CPU 0 instructions: 200000002 cycles: 129388927 cumulative IPC: 1.546 (Simulation time: 00 hr 44 min 06 sec)

ChampSim completed all CPUs

=== Simulation ===
CPU 0 runs /local-ssd/ben/dpc4-traces/Graph/Ligra/ligra_MIS.com-lj.ungraph.gcc_6.3.0_O3.drop_15750M.length_250M.champsimtrace.xz

Region of Interest Statistics

CPU 0 cumulative IPC: 1.546 instructions: 200000002 cycles: 129388927
CPU 0 Branch Prediction Accuracy: 89.85% MPKI: 11.89 Average ROB Occupancy at Mispredict: 26.09
Branch type MPKI
BRANCH_DIRECT_JUMP: 0.000125
BRANCH_INDIRECT: 1e-05
BRANCH_CONDITIONAL: 11.89
BRANCH_DIRECT_CALL: 9.5e-05
BRANCH_INDIRECT_CALL: 1e-05
BRANCH_RETURN: 9e-05

cpu0->cpu0_STLB TOTAL        ACCESS:      65954 HIT:        566 MISS:      65388 MSHR_MERGE:          0
cpu0->cpu0_STLB LOAD         ACCESS:      65954 HIT:        566 MISS:      65388 MSHR_MERGE:          0
cpu0->cpu0_STLB RFO          ACCESS:          0 HIT:          0 MISS:          0 MSHR_MERGE:          0
cpu0->cpu0_STLB PREFETCH     ACCESS:          0 HIT:          0 MISS:          0 MSHR_MERGE:          0
cpu0->cpu0_STLB WRITE        ACCESS:          0 HIT:          0 MISS:          0 MSHR_MERGE:          0
cpu0->cpu0_STLB TRANSLATION  ACCESS:          0 HIT:          0 MISS:          0 MSHR_MERGE:          0
cpu0->cpu0_STLB PREFETCH REQUESTED:          0 ISSUED:          0 USEFUL:          0 USELESS:          0
cpu0->cpu0_STLB AVERAGE MISS LATENCY: 274.1 cycles
cpu0->cpu0_L2C TOTAL        ACCESS:   18235173 HIT:   12533043 MISS:    5702130 MSHR_MERGE:    1512864
cpu0->cpu0_L2C LOAD         ACCESS:     722953 HIT:     666500 MISS:      56453 MSHR_MERGE:      15002
cpu0->cpu0_L2C RFO          ACCESS:    1837829 HIT:      87665 MISS:    1750164 MSHR_MERGE:        277
cpu0->cpu0_L2C PREFETCH     ACCESS:   13820436 HIT:    9933277 MISS:    3887159 MSHR_MERGE:    1497585
cpu0->cpu0_L2C WRITE        ACCESS:    1841804 HIT:    1841804 MISS:          0 MSHR_MERGE:          0
cpu0->cpu0_L2C TRANSLATION  ACCESS:      12151 HIT:       3797 MISS:       8354 MSHR_MERGE:          0
cpu0->cpu0_L2C PREFETCH REQUESTED:   12056253 ISSUED:   11749154 USEFUL:    2045924 USELESS:     134039
cpu0->cpu0_L2C AVERAGE MISS LATENCY: 415.1 cycles
cpu0->cpu0_L1I TOTAL        ACCESS:   13174372 HIT:   13174214 MISS:        158 MSHR_MERGE:         12
cpu0->cpu0_L1I LOAD         ACCESS:   13174372 HIT:   13174214 MISS:        158 MSHR_MERGE:         12
cpu0->cpu0_L1I RFO          ACCESS:          0 HIT:          0 MISS:          0 MSHR_MERGE:          0
cpu0->cpu0_L1I PREFETCH     ACCESS:          0 HIT:          0 MISS:          0 MSHR_MERGE:          0
cpu0->cpu0_L1I WRITE        ACCESS:          0 HIT:          0 MISS:          0 MSHR_MERGE:          0
cpu0->cpu0_L1I TRANSLATION  ACCESS:          0 HIT:          0 MISS:          0 MSHR_MERGE:          0
cpu0->cpu0_L1I PREFETCH REQUESTED:          0 ISSUED:          0 USEFUL:          0 USELESS:          0
cpu0->cpu0_L1I AVERAGE MISS LATENCY: 255.3 cycles
cpu0->cpu0_L1D TOTAL        ACCESS:   58122063 HIT:   26479369 MISS:   31642694 MSHR_MERGE:   26998571
cpu0->cpu0_L1D LOAD         ACCESS:   20361002 HIT:   18564516 MISS:    1796486 MSHR_MERGE:    1073677
cpu0->cpu0_L1D RFO          ACCESS:          0 HIT:          0 MISS:          0 MSHR_MERGE:          0
cpu0->cpu0_L1D PREFETCH     ACCESS:    3842960 HIT:    1561091 MISS:    2281869 MSHR_MERGE:     210599
cpu0->cpu0_L1D WRITE        ACCESS:   33787978 HIT:    6236485 MISS:   27551493 MSHR_MERGE:   25713600
cpu0->cpu0_L1D TRANSLATION  ACCESS:     130123 HIT:     117277 MISS:      12846 MSHR_MERGE:        695
cpu0->cpu0_L1D PREFETCH REQUESTED:    7468345 ISSUED:    3842952 USEFUL:    2068138 USELESS:       3131
cpu0->cpu0_L1D AVERAGE MISS LATENCY: 300.7 cycles
cpu0->cpu0_ITLB TOTAL        ACCESS:   12326200 HIT:   12326170 MISS:         30 MSHR_MERGE:         10
cpu0->cpu0_ITLB LOAD         ACCESS:   12326200 HIT:   12326170 MISS:         30 MSHR_MERGE:         10
cpu0->cpu0_ITLB RFO          ACCESS:          0 HIT:          0 MISS:          0 MSHR_MERGE:          0
cpu0->cpu0_ITLB PREFETCH     ACCESS:          0 HIT:          0 MISS:          0 MSHR_MERGE:          0
cpu0->cpu0_ITLB WRITE        ACCESS:          0 HIT:          0 MISS:          0 MSHR_MERGE:          0
cpu0->cpu0_ITLB TRANSLATION  ACCESS:          0 HIT:          0 MISS:          0 MSHR_MERGE:          0
cpu0->cpu0_ITLB PREFETCH REQUESTED:          0 ISSUED:          0 USEFUL:          0 USELESS:          0
cpu0->cpu0_ITLB AVERAGE MISS LATENCY: 415.5 cycles
cpu0->cpu0_DTLB TOTAL        ACCESS:   52973317 HIT:   52293343 MISS:     679974 MSHR_MERGE:     614040
cpu0->cpu0_DTLB LOAD         ACCESS:   52973317 HIT:   52293343 MISS:     679974 MSHR_MERGE:     614040
cpu0->cpu0_DTLB RFO          ACCESS:          0 HIT:          0 MISS:          0 MSHR_MERGE:          0
cpu0->cpu0_DTLB PREFETCH     ACCESS:          0 HIT:          0 MISS:          0 MSHR_MERGE:          0
cpu0->cpu0_DTLB WRITE        ACCESS:          0 HIT:          0 MISS:          0 MSHR_MERGE:          0
cpu0->cpu0_DTLB TRANSLATION  ACCESS:          0 HIT:          0 MISS:          0 MSHR_MERGE:          0
cpu0->cpu0_DTLB PREFETCH REQUESTED:          0 ISSUED:          0 USEFUL:          0 USELESS:          0
cpu0->cpu0_DTLB AVERAGE MISS LATENCY: 277.7 cycles
cpu0->LLC TOTAL        ACCESS:    8299131 HIT:    1858899 MISS:    6440232 MSHR_MERGE:     706697
cpu0->LLC LOAD         ACCESS:      41451 HIT:       2916 MISS:      38535 MSHR_MERGE:       1153
cpu0->LLC RFO          ACCESS:    1749887 HIT:       3745 MISS:    1746142 MSHR_MERGE:         24
cpu0->LLC PREFETCH     ACCESS:    4742652 HIT:    1635565 MISS:    3107087 MSHR_MERGE:     705520
cpu0->LLC WRITE        ACCESS:    1756787 HIT:     216667 MISS:    1540120 MSHR_MERGE:          0
cpu0->LLC TRANSLATION  ACCESS:       8354 HIT:          6 MISS:       8348 MSHR_MERGE:          0
cpu0->LLC PREFETCH REQUESTED:    2434305 ISSUED:    2353078 USEFUL:    1640859 USELESS:     397836
cpu0->LLC AVERAGE MISS LATENCY: 220 cycles

DRAM Statistics

Channel 0 RQ ROW_BUFFER_HIT:     284044
  ROW_BUFFER_MISS:    3909348
  AVG DBUS CONGESTED CYCLE: 9.405
Channel 0 WQ ROW_BUFFER_HIT:     127225
  ROW_BUFFER_MISS:    1625109
  FULL:     208931
Channel 0 REFRESHES ISSUED:      10782
