[VMEM] WARNING: physical memory size is smaller than virtual memory size.

*** ChampSim Multicore Out-of-Order Simulator ***
Warmup Instructions: 50000000
Simulation Instructions: 200000000
Number of CPUs: 1
Page size: 4096
Core 0: /local-ssd/ben/dpc4-traces/gtraces_v2/tango_0001.champsim.gz
sBerti (Smart Stride + Berti) Prefetcher Initialized
Off-chip DRAM Size: 64 GiB Channels: 1 Width: 64-bit Data Rate: 4807 MT/s
[BTB] WARNING: target of return is a lower address than the corresponding call. This is usually a problem with your trace.
[BTB] WARNING: target of return is a lower address than the corresponding call. This is usually a problem with your trace.
[BTB] WARNING: target of return is a lower address than the corresponding call. This is usually a problem with your trace.
[BTB] WARNING: target of return is a lower address than the corresponding call. This is usually a problem with your trace.
[BTB] WARNING: target of return is a lower address than the corresponding call. This is usually a problem with your trace.
[BTB] WARNING: target of return is a lower address than the corresponding call. This is usually a problem with your trace.
[BTB] WARNING: target of return is a lower address than the corresponding call. This is usually a problem with your trace.
[BTB] WARNING: target of return is a lower address than the corresponding call. This is usually a problem with your trace.
Heartbeat CPU 0 instructions: 500005 cycles: 210234 heartbeat IPC: 2.378 cumulative IPC: 2.378 (Simulation time: 00 hr 00 min 06 sec)
[BTB] WARNING: target of return is a lower address than the corresponding call. This is usually a problem with your trace.
[BTB] WARNING: target of return is a lower address than the corresponding call. This is usually a problem with your trace.
Heartbeat CPU 0 instructions: 1000006 cycles: 455577 heartbeat IPC: 2.038 cumulative IPC: 2.195 (Simulation time: 00 hr 00 min 12 sec)
Heartbeat CPU 0 instructions: 1500010 cycles: 671259 heartbeat IPC: 2.318 cumulative IPC: 2.235 (Simulation time: 00 hr 00 min 17 sec)
Heartbeat CPU 0 instructions: 2000014 cycles: 847076 heartbeat IPC: 2.844 cumulative IPC: 2.361 (Simulation time: 00 hr 00 min 22 sec)
Heartbeat CPU 0 instructions: 2500020 cycles: 1043652 heartbeat IPC: 2.544 cumulative IPC: 2.395 (Simulation time: 00 hr 00 min 27 sec)
Heartbeat CPU 0 instructions: 3000021 cycles: 1284266 heartbeat IPC: 2.078 cumulative IPC: 2.336 (Simulation time: 00 hr 00 min 34 sec)
Heartbeat CPU 0 instructions: 3500026 cycles: 1543631 heartbeat IPC: 1.928 cumulative IPC: 2.267 (Simulation time: 00 hr 00 min 42 sec)
Heartbeat CPU 0 instructions: 4000030 cycles: 1724920 heartbeat IPC: 2.758 cumulative IPC: 2.319 (Simulation time: 00 hr 00 min 47 sec)
Heartbeat CPU 0 instructions: 4500031 cycles: 1876471 heartbeat IPC: 3.299 cumulative IPC: 2.398 (Simulation time: 00 hr 00 min 52 sec)
Heartbeat CPU 0 instructions: 5000032 cycles: 1986743 heartbeat IPC: 4.534 cumulative IPC: 2.517 (Simulation time: 00 hr 00 min 56 sec)
Heartbeat CPU 0 instructions: 5500032 cycles: 2098352 heartbeat IPC: 4.48 cumulative IPC: 2.621 (Simulation time: 00 hr 01 min 00 sec)
Heartbeat CPU 0 instructions: 6000033 cycles: 2208241 heartbeat IPC: 4.55 cumulative IPC: 2.717 (Simulation time: 00 hr 01 min 03 sec)
Heartbeat CPU 0 instructions: 6500034 cycles: 2320950 heartbeat IPC: 4.436 cumulative IPC: 2.801 (Simulation time: 00 hr 01 min 07 sec)
Heartbeat CPU 0 instructions: 7000040 cycles: 2434013 heartbeat IPC: 4.422 cumulative IPC: 2.876 (Simulation time: 00 hr 01 min 11 sec)
Heartbeat CPU 0 instructions: 7500042 cycles: 2540719 heartbeat IPC: 4.686 cumulative IPC: 2.952 (Simulation time: 00 hr 01 min 15 sec)
Heartbeat CPU 0 instructions: 8000046 cycles: 2650655 heartbeat IPC: 4.548 cumulative IPC: 3.018 (Simulation time: 00 hr 01 min 19 sec)
Heartbeat CPU 0 instructions: 8500053 cycles: 2938567 heartbeat IPC: 1.737 cumulative IPC: 2.893 (Simulation time: 00 hr 01 min 24 sec)
Heartbeat CPU 0 instructions: 9000058 cycles: 3105013 heartbeat IPC: 3.004 cumulative IPC: 2.899 (Simulation time: 00 hr 01 min 27 sec)
Heartbeat CPU 0 instructions: 9500065 cycles: 3262455 heartbeat IPC: 3.176 cumulative IPC: 2.912 (Simulation time: 00 hr 01 min 30 sec)
Heartbeat CPU 0 instructions: 10000070 cycles: 3422399 heartbeat IPC: 3.126 cumulative IPC: 2.922 (Simulation time: 00 hr 01 min 33 sec)
Heartbeat CPU 0 instructions: 10500076 cycles: 3551603 heartbeat IPC: 3.87 cumulative IPC: 2.956 (Simulation time: 00 hr 01 min 35 sec)
Heartbeat CPU 0 instructions: 11000076 cycles: 3697986 heartbeat IPC: 3.416 cumulative IPC: 2.975 (Simulation time: 00 hr 01 min 38 sec)
Heartbeat CPU 0 instructions: 11500082 cycles: 3856168 heartbeat IPC: 3.161 cumulative IPC: 2.982 (Simulation time: 00 hr 01 min 41 sec)
Heartbeat CPU 0 instructions: 12000083 cycles: 4003461 heartbeat IPC: 3.395 cumulative IPC: 2.997 (Simulation time: 00 hr 01 min 43 sec)
Heartbeat CPU 0 instructions: 12500086 cycles: 4133023 heartbeat IPC: 3.859 cumulative IPC: 3.024 (Simulation time: 00 hr 01 min 45 sec)
Heartbeat CPU 0 instructions: 13000093 cycles: 4277869 heartbeat IPC: 3.452 cumulative IPC: 3.039 (Simulation time: 00 hr 01 min 48 sec)
Heartbeat CPU 0 instructions: 13500094 cycles: 4470395 heartbeat IPC: 2.597 cumulative IPC: 3.02 (Simulation time: 00 hr 01 min 52 sec)
Heartbeat CPU 0 instructions: 14000094 cycles: 4637820 heartbeat IPC: 2.986 cumulative IPC: 3.019 (Simulation time: 00 hr 01 min 55 sec)
Heartbeat CPU 0 instructions: 14500095 cycles: 4778659 heartbeat IPC: 3.55 cumulative IPC: 3.034 (Simulation time: 00 hr 01 min 57 sec)
Heartbeat CPU 0 instructions: 15000095 cycles: 4910325 heartbeat IPC: 3.797 cumulative IPC: 3.055 (Simulation time: 00 hr 02 min 00 sec)
Heartbeat CPU 0 instructions: 15500101 cycles: 5054399 heartbeat IPC: 3.47 cumulative IPC: 3.067 (Simulation time: 00 hr 02 min 02 sec)
Heartbeat CPU 0 instructions: 16000108 cycles: 5225591 heartbeat IPC: 2.921 cumulative IPC: 3.062 (Simulation time: 00 hr 02 min 06 sec)
Heartbeat CPU 0 instructions: 16500110 cycles: 5380937 heartbeat IPC: 3.219 cumulative IPC: 3.066 (Simulation time: 00 hr 02 min 11 sec)
Heartbeat CPU 0 instructions: 17000115 cycles: 5539457 heartbeat IPC: 3.154 cumulative IPC: 3.069 (Simulation time: 00 hr 02 min 15 sec)
Heartbeat CPU 0 instructions: 17500117 cycles: 5698258 heartbeat IPC: 3.149 cumulative IPC: 3.071 (Simulation time: 00 hr 02 min 20 sec)
Heartbeat CPU 0 instructions: 18000119 cycles: 5840902 heartbeat IPC: 3.505 cumulative IPC: 3.082 (Simulation time: 00 hr 02 min 24 sec)
Heartbeat CPU 0 instructions: 18500122 cycles: 5987535 heartbeat IPC: 3.41 cumulative IPC: 3.09 (Simulation time: 00 hr 02 min 28 sec)
Heartbeat CPU 0 instructions: 19000123 cycles: 6154215 heartbeat IPC: 3 cumulative IPC: 3.087 (Simulation time: 00 hr 02 min 33 sec)
Heartbeat CPU 0 instructions: 19500125 cycles: 6314809 heartbeat IPC: 3.113 cumulative IPC: 3.088 (Simulation time: 00 hr 02 min 37 sec)
Heartbeat CPU 0 instructions: 20000128 cycles: 6464957 heartbeat IPC: 3.33 cumulative IPC: 3.094 (Simulation time: 00 hr 02 min 42 sec)
Heartbeat CPU 0 instructions: 20500130 cycles: 6615785 heartbeat IPC: 3.315 cumulative IPC: 3.099 (Simulation time: 00 hr 02 min 46 sec)
Heartbeat CPU 0 instructions: 21000132 cycles: 6764116 heartbeat IPC: 3.371 cumulative IPC: 3.105 (Simulation time: 00 hr 02 min 50 sec)
Heartbeat CPU 0 instructions: 21500136 cycles: 6912130 heartbeat IPC: 3.378 cumulative IPC: 3.11 (Simulation time: 00 hr 02 min 55 sec)
Heartbeat CPU 0 instructions: 22000143 cycles: 7080310 heartbeat IPC: 2.973 cumulative IPC: 3.107 (Simulation time: 00 hr 03 min 00 sec)
Heartbeat CPU 0 instructions: 22500150 cycles: 7195118 heartbeat IPC: 4.355 cumulative IPC: 3.127 (Simulation time: 00 hr 03 min 03 sec)
Heartbeat CPU 0 instructions: 23000152 cycles: 7304115 heartbeat IPC: 4.587 cumulative IPC: 3.149 (Simulation time: 00 hr 03 min 06 sec)
Heartbeat CPU 0 instructions: 23500155 cycles: 7443389 heartbeat IPC: 3.59 cumulative IPC: 3.157 (Simulation time: 00 hr 03 min 10 sec)
Heartbeat CPU 0 instructions: 24000161 cycles: 7596873 heartbeat IPC: 3.258 cumulative IPC: 3.159 (Simulation time: 00 hr 03 min 14 sec)
Heartbeat CPU 0 instructions: 24500165 cycles: 7744149 heartbeat IPC: 3.395 cumulative IPC: 3.164 (Simulation time: 00 hr 03 min 18 sec)
Heartbeat CPU 0 instructions: 25000172 cycles: 7858114 heartbeat IPC: 4.387 cumulative IPC: 3.181 (Simulation time: 00 hr 03 min 22 sec)
Heartbeat CPU 0 instructions: 25500176 cycles: 7980961 heartbeat IPC: 4.07 cumulative IPC: 3.195 (Simulation time: 00 hr 03 min 25 sec)
Heartbeat CPU 0 instructions: 26000176 cycles: 8149290 heartbeat IPC: 2.97 cumulative IPC: 3.19 (Simulation time: 00 hr 03 min 30 sec)
Heartbeat CPU 0 instructions: 26500178 cycles: 8288100 heartbeat IPC: 3.602 cumulative IPC: 3.197 (Simulation time: 00 hr 03 min 34 sec)
Heartbeat CPU 0 instructions: 27000184 cycles: 8427872 heartbeat IPC: 3.577 cumulative IPC: 3.204 (Simulation time: 00 hr 03 min 38 sec)
Heartbeat CPU 0 instructions: 27500187 cycles: 8551790 heartbeat IPC: 4.035 cumulative IPC: 3.216 (Simulation time: 00 hr 03 min 42 sec)
Heartbeat CPU 0 instructions: 28000194 cycles: 8713868 heartbeat IPC: 3.085 cumulative IPC: 3.213 (Simulation time: 00 hr 03 min 46 sec)
Heartbeat CPU 0 instructions: 28500199 cycles: 8853200 heartbeat IPC: 3.589 cumulative IPC: 3.219 (Simulation time: 00 hr 03 min 50 sec)
Heartbeat CPU 0 instructions: 29000199 cycles: 8990358 heartbeat IPC: 3.645 cumulative IPC: 3.226 (Simulation time: 00 hr 03 min 54 sec)
Heartbeat CPU 0 instructions: 29500199 cycles: 9126086 heartbeat IPC: 3.684 cumulative IPC: 3.233 (Simulation time: 00 hr 03 min 58 sec)
Heartbeat CPU 0 instructions: 30000205 cycles: 9249057 heartbeat IPC: 4.066 cumulative IPC: 3.244 (Simulation time: 00 hr 04 min 01 sec)
Heartbeat CPU 0 instructions: 30500205 cycles: 9389323 heartbeat IPC: 3.565 cumulative IPC: 3.248 (Simulation time: 00 hr 04 min 06 sec)
Heartbeat CPU 0 instructions: 31000207 cycles: 9528341 heartbeat IPC: 3.597 cumulative IPC: 3.253 (Simulation time: 00 hr 04 min 10 sec)
Heartbeat CPU 0 instructions: 31500210 cycles: 9684481 heartbeat IPC: 3.202 cumulative IPC: 3.253 (Simulation time: 00 hr 04 min 15 sec)
Heartbeat CPU 0 instructions: 32000211 cycles: 9823511 heartbeat IPC: 3.596 cumulative IPC: 3.258 (Simulation time: 00 hr 04 min 19 sec)
Heartbeat CPU 0 instructions: 32500217 cycles: 9962822 heartbeat IPC: 3.589 cumulative IPC: 3.262 (Simulation time: 00 hr 04 min 23 sec)
Heartbeat CPU 0 instructions: 33000217 cycles: 10112175 heartbeat IPC: 3.348 cumulative IPC: 3.263 (Simulation time: 00 hr 04 min 27 sec)
Heartbeat CPU 0 instructions: 33500217 cycles: 10247009 heartbeat IPC: 3.708 cumulative IPC: 3.269 (Simulation time: 00 hr 04 min 31 sec)
Heartbeat CPU 0 instructions: 34000219 cycles: 10391712 heartbeat IPC: 3.455 cumulative IPC: 3.272 (Simulation time: 00 hr 04 min 35 sec)
Heartbeat CPU 0 instructions: 34500220 cycles: 10531077 heartbeat IPC: 3.588 cumulative IPC: 3.276 (Simulation time: 00 hr 04 min 39 sec)
Heartbeat CPU 0 instructions: 35000225 cycles: 10659874 heartbeat IPC: 3.882 cumulative IPC: 3.283 (Simulation time: 00 hr 04 min 43 sec)
Heartbeat CPU 0 instructions: 35500225 cycles: 10792388 heartbeat IPC: 3.773 cumulative IPC: 3.289 (Simulation time: 00 hr 04 min 47 sec)
Heartbeat CPU 0 instructions: 36000229 cycles: 10915036 heartbeat IPC: 4.077 cumulative IPC: 3.298 (Simulation time: 00 hr 04 min 50 sec)
Heartbeat CPU 0 instructions: 36500231 cycles: 11042580 heartbeat IPC: 3.92 cumulative IPC: 3.305 (Simulation time: 00 hr 04 min 54 sec)
Heartbeat CPU 0 instructions: 37000236 cycles: 11174972 heartbeat IPC: 3.777 cumulative IPC: 3.311 (Simulation time: 00 hr 04 min 58 sec)
Heartbeat CPU 0 instructions: 37500237 cycles: 11287005 heartbeat IPC: 4.463 cumulative IPC: 3.322 (Simulation time: 00 hr 05 min 02 sec)
Heartbeat CPU 0 instructions: 38000238 cycles: 11425725 heartbeat IPC: 3.604 cumulative IPC: 3.326 (Simulation time: 00 hr 05 min 06 sec)
Heartbeat CPU 0 instructions: 38500240 cycles: 11565064 heartbeat IPC: 3.588 cumulative IPC: 3.329 (Simulation time: 00 hr 05 min 10 sec)
Heartbeat CPU 0 instructions: 39000241 cycles: 11715435 heartbeat IPC: 3.325 cumulative IPC: 3.329 (Simulation time: 00 hr 05 min 14 sec)
Heartbeat CPU 0 instructions: 39500243 cycles: 11871222 heartbeat IPC: 3.21 cumulative IPC: 3.327 (Simulation time: 00 hr 05 min 19 sec)
Heartbeat CPU 0 instructions: 40000250 cycles: 11990224 heartbeat IPC: 4.202 cumulative IPC: 3.336 (Simulation time: 00 hr 05 min 22 sec)
Heartbeat CPU 0 instructions: 40500251 cycles: 12098851 heartbeat IPC: 4.603 cumulative IPC: 3.347 (Simulation time: 00 hr 05 min 24 sec)
Heartbeat CPU 0 instructions: 41000251 cycles: 12226731 heartbeat IPC: 3.91 cumulative IPC: 3.353 (Simulation time: 00 hr 05 min 27 sec)
Heartbeat CPU 0 instructions: 41500251 cycles: 12353946 heartbeat IPC: 3.93 cumulative IPC: 3.359 (Simulation time: 00 hr 05 min 29 sec)
Heartbeat CPU 0 instructions: 42000252 cycles: 12482151 heartbeat IPC: 3.9 cumulative IPC: 3.365 (Simulation time: 00 hr 05 min 31 sec)
Heartbeat CPU 0 instructions: 42500255 cycles: 12620952 heartbeat IPC: 3.602 cumulative IPC: 3.367 (Simulation time: 00 hr 05 min 34 sec)
Heartbeat CPU 0 instructions: 43000255 cycles: 12768550 heartbeat IPC: 3.388 cumulative IPC: 3.368 (Simulation time: 00 hr 05 min 37 sec)
Heartbeat CPU 0 instructions: 43500262 cycles: 12880770 heartbeat IPC: 4.456 cumulative IPC: 3.377 (Simulation time: 00 hr 05 min 39 sec)
Heartbeat CPU 0 instructions: 44000265 cycles: 13010974 heartbeat IPC: 3.84 cumulative IPC: 3.382 (Simulation time: 00 hr 05 min 42 sec)
Heartbeat CPU 0 instructions: 44500271 cycles: 13145037 heartbeat IPC: 3.73 cumulative IPC: 3.385 (Simulation time: 00 hr 05 min 44 sec)
Heartbeat CPU 0 instructions: 45000278 cycles: 13291296 heartbeat IPC: 3.419 cumulative IPC: 3.386 (Simulation time: 00 hr 05 min 47 sec)
Heartbeat CPU 0 instructions: 45500283 cycles: 13443275 heartbeat IPC: 3.29 cumulative IPC: 3.385 (Simulation time: 00 hr 05 min 50 sec)
Heartbeat CPU 0 instructions: 46000285 cycles: 13579019 heartbeat IPC: 3.683 cumulative IPC: 3.388 (Simulation time: 00 hr 05 min 53 sec)
Heartbeat CPU 0 instructions: 46500292 cycles: 13707975 heartbeat IPC: 3.877 cumulative IPC: 3.392 (Simulation time: 00 hr 05 min 55 sec)
Heartbeat CPU 0 instructions: 47000299 cycles: 13850723 heartbeat IPC: 3.503 cumulative IPC: 3.393 (Simulation time: 00 hr 05 min 58 sec)
Heartbeat CPU 0 instructions: 47500306 cycles: 13983632 heartbeat IPC: 3.762 cumulative IPC: 3.397 (Simulation time: 00 hr 06 min 01 sec)
Heartbeat CPU 0 instructions: 48000307 cycles: 14113495 heartbeat IPC: 3.85 cumulative IPC: 3.401 (Simulation time: 00 hr 06 min 03 sec)
Heartbeat CPU 0 instructions: 48500308 cycles: 14250344 heartbeat IPC: 3.654 cumulative IPC: 3.403 (Simulation time: 00 hr 06 min 06 sec)
Heartbeat CPU 0 instructions: 49000310 cycles: 14373007 heartbeat IPC: 4.076 cumulative IPC: 3.409 (Simulation time: 00 hr 06 min 08 sec)
Heartbeat CPU 0 instructions: 49500311 cycles: 14482983 heartbeat IPC: 4.546 cumulative IPC: 3.418 (Simulation time: 00 hr 06 min 10 sec)
Warmup halting CPU 0 at instruction 50000000 cycle 14624525 for remainder of phase
Warmup finished CPU 0 instructions: 50000000 cycles: 14624525 cumulative IPC: 3.419 (Simulation time: 00 hr 06 min 13 sec)
Warmup complete CPU 0 instructions: 50000000 cycles: 14624525 cumulative IPC: 3.419 (Simulation time: 00 hr 06 min 13 sec)
Heartbeat CPU 0 instructions: 50000311 cycles: 14625235 heartbeat IPC: 3.515 cumulative IPC: 0.438 (Simulation time: 00 hr 06 min 13 sec)
Heartbeat CPU 0 instructions: 50500311 cycles: 16012863 heartbeat IPC: 0.3603 cumulative IPC: 0.3604 (Simulation time: 00 hr 06 min 23 sec)
Heartbeat CPU 0 instructions: 51000311 cycles: 17330464 heartbeat IPC: 0.3795 cumulative IPC: 0.3697 (Simulation time: 00 hr 06 min 34 sec)
Heartbeat CPU 0 instructions: 51500313 cycles: 17877399 heartbeat IPC: 0.9142 cumulative IPC: 0.4612 (Simulation time: 00 hr 06 min 39 sec)
Heartbeat CPU 0 instructions: 52000313 cycles: 18415134 heartbeat IPC: 0.9298 cumulative IPC: 0.5277 (Simulation time: 00 hr 06 min 45 sec)
Heartbeat CPU 0 instructions: 52500317 cycles: 19066568 heartbeat IPC: 0.7675 cumulative IPC: 0.5629 (Simulation time: 00 hr 06 min 50 sec)
Heartbeat CPU 0 instructions: 53000319 cycles: 20574048 heartbeat IPC: 0.3317 cumulative IPC: 0.5043 (Simulation time: 00 hr 07 min 01 sec)
Heartbeat CPU 0 instructions: 53500322 cycles: 21753472 heartbeat IPC: 0.4239 cumulative IPC: 0.491 (Simulation time: 00 hr 07 min 10 sec)
Heartbeat CPU 0 instructions: 54000322 cycles: 22666965 heartbeat IPC: 0.5473 cumulative IPC: 0.4974 (Simulation time: 00 hr 07 min 18 sec)
Heartbeat CPU 0 instructions: 54500322 cycles: 23224576 heartbeat IPC: 0.8967 cumulative IPC: 0.5233 (Simulation time: 00 hr 07 min 23 sec)
Heartbeat CPU 0 instructions: 55000329 cycles: 23806408 heartbeat IPC: 0.8594 cumulative IPC: 0.5446 (Simulation time: 00 hr 07 min 28 sec)
Heartbeat CPU 0 instructions: 55500329 cycles: 24299939 heartbeat IPC: 1.013 cumulative IPC: 0.5685 (Simulation time: 00 hr 07 min 33 sec)
Heartbeat CPU 0 instructions: 56000336 cycles: 24825431 heartbeat IPC: 0.9515 cumulative IPC: 0.5882 (Simulation time: 00 hr 07 min 38 sec)
Heartbeat CPU 0 instructions: 56500336 cycles: 25295316 heartbeat IPC: 1.064 cumulative IPC: 0.6092 (Simulation time: 00 hr 07 min 42 sec)
Heartbeat CPU 0 instructions: 57000341 cycles: 25817295 heartbeat IPC: 0.9579 cumulative IPC: 0.6254 (Simulation time: 00 hr 07 min 47 sec)
Heartbeat CPU 0 instructions: 57500344 cycles: 26345326 heartbeat IPC: 0.9469 cumulative IPC: 0.6399 (Simulation time: 00 hr 07 min 52 sec)
Heartbeat CPU 0 instructions: 58000344 cycles: 26791433 heartbeat IPC: 1.121 cumulative IPC: 0.6575 (Simulation time: 00 hr 07 min 57 sec)
Heartbeat CPU 0 instructions: 58500348 cycles: 27281380 heartbeat IPC: 1.021 cumulative IPC: 0.6716 (Simulation time: 00 hr 08 min 01 sec)
Heartbeat CPU 0 instructions: 59000352 cycles: 27757200 heartbeat IPC: 1.051 cumulative IPC: 0.6853 (Simulation time: 00 hr 08 min 06 sec)
Heartbeat CPU 0 instructions: 59500352 cycles: 28865689 heartbeat IPC: 0.4511 cumulative IPC: 0.6671 (Simulation time: 00 hr 08 min 18 sec)
Heartbeat CPU 0 instructions: 60000359 cycles: 30621810 heartbeat IPC: 0.2847 cumulative IPC: 0.6251 (Simulation time: 00 hr 08 min 38 sec)
Heartbeat CPU 0 instructions: 60500360 cycles: 31473381 heartbeat IPC: 0.5872 cumulative IPC: 0.6232 (Simulation time: 00 hr 08 min 47 sec)
Heartbeat CPU 0 instructions: 61000361 cycles: 31844461 heartbeat IPC: 1.347 cumulative IPC: 0.6388 (Simulation time: 00 hr 08 min 51 sec)
Heartbeat CPU 0 instructions: 61500362 cycles: 32028558 heartbeat IPC: 2.716 cumulative IPC: 0.6608 (Simulation time: 00 hr 08 min 54 sec)
Heartbeat CPU 0 instructions: 62000369 cycles: 32357383 heartbeat IPC: 1.521 cumulative IPC: 0.6767 (Simulation time: 00 hr 08 min 58 sec)
Heartbeat CPU 0 instructions: 62500370 cycles: 32862344 heartbeat IPC: 0.9902 cumulative IPC: 0.6854 (Simulation time: 00 hr 09 min 03 sec)
Heartbeat CPU 0 instructions: 63000371 cycles: 33121585 heartbeat IPC: 1.929 cumulative IPC: 0.7028 (Simulation time: 00 hr 09 min 06 sec)
Heartbeat CPU 0 instructions: 63500375 cycles: 33602234 heartbeat IPC: 1.04 cumulative IPC: 0.7114 (Simulation time: 00 hr 09 min 11 sec)
Heartbeat CPU 0 instructions: 64000376 cycles: 35319842 heartbeat IPC: 0.2911 cumulative IPC: 0.6765 (Simulation time: 00 hr 09 min 23 sec)
Heartbeat CPU 0 instructions: 64500376 cycles: 37378799 heartbeat IPC: 0.2428 cumulative IPC: 0.6373 (Simulation time: 00 hr 09 min 38 sec)
Heartbeat CPU 0 instructions: 65000376 cycles: 38351314 heartbeat IPC: 0.5141 cumulative IPC: 0.6322 (Simulation time: 00 hr 09 min 46 sec)
Heartbeat CPU 0 instructions: 65500377 cycles: 39649326 heartbeat IPC: 0.3852 cumulative IPC: 0.6194 (Simulation time: 00 hr 09 min 56 sec)
Heartbeat CPU 0 instructions: 66000377 cycles: 40705799 heartbeat IPC: 0.4733 cumulative IPC: 0.6135 (Simulation time: 00 hr 10 min 04 sec)
Heartbeat CPU 0 instructions: 66500379 cycles: 42434293 heartbeat IPC: 0.2893 cumulative IPC: 0.5933 (Simulation time: 00 hr 10 min 17 sec)
Heartbeat CPU 0 instructions: 67000379 cycles: 43858271 heartbeat IPC: 0.3511 cumulative IPC: 0.5815 (Simulation time: 00 hr 10 min 28 sec)
Heartbeat CPU 0 instructions: 67500383 cycles: 45174595 heartbeat IPC: 0.3798 cumulative IPC: 0.5728 (Simulation time: 00 hr 10 min 38 sec)
Heartbeat CPU 0 instructions: 68000384 cycles: 45755363 heartbeat IPC: 0.8609 cumulative IPC: 0.5782 (Simulation time: 00 hr 10 min 43 sec)
Heartbeat CPU 0 instructions: 68500385 cycles: 47068431 heartbeat IPC: 0.3808 cumulative IPC: 0.5702 (Simulation time: 00 hr 10 min 53 sec)
Heartbeat CPU 0 instructions: 69000389 cycles: 47693897 heartbeat IPC: 0.7994 cumulative IPC: 0.5746 (Simulation time: 00 hr 10 min 58 sec)
Heartbeat CPU 0 instructions: 69500393 cycles: 48507525 heartbeat IPC: 0.6145 cumulative IPC: 0.5755 (Simulation time: 00 hr 11 min 05 sec)
Heartbeat CPU 0 instructions: 70000394 cycles: 48937656 heartbeat IPC: 1.162 cumulative IPC: 0.5829 (Simulation time: 00 hr 11 min 10 sec)
Heartbeat CPU 0 instructions: 70500394 cycles: 49328957 heartbeat IPC: 1.278 cumulative IPC: 0.5907 (Simulation time: 00 hr 11 min 14 sec)
Heartbeat CPU 0 instructions: 71000394 cycles: 49735446 heartbeat IPC: 1.23 cumulative IPC: 0.5981 (Simulation time: 00 hr 11 min 19 sec)
Heartbeat CPU 0 instructions: 71500399 cycles: 50259192 heartbeat IPC: 0.9547 cumulative IPC: 0.6034 (Simulation time: 00 hr 11 min 24 sec)
Heartbeat CPU 0 instructions: 72000403 cycles: 50746217 heartbeat IPC: 1.027 cumulative IPC: 0.6091 (Simulation time: 00 hr 11 min 29 sec)
Heartbeat CPU 0 instructions: 72500407 cycles: 51073039 heartbeat IPC: 1.53 cumulative IPC: 0.6173 (Simulation time: 00 hr 11 min 33 sec)
Heartbeat CPU 0 instructions: 73000407 cycles: 52151595 heartbeat IPC: 0.4636 cumulative IPC: 0.6129 (Simulation time: 00 hr 11 min 42 sec)
Heartbeat CPU 0 instructions: 73500410 cycles: 53147228 heartbeat IPC: 0.5022 cumulative IPC: 0.61 (Simulation time: 00 hr 11 min 51 sec)
Heartbeat CPU 0 instructions: 74000417 cycles: 53813805 heartbeat IPC: 0.7501 cumulative IPC: 0.6124 (Simulation time: 00 hr 11 min 57 sec)
Heartbeat CPU 0 instructions: 74500417 cycles: 54713743 heartbeat IPC: 0.5556 cumulative IPC: 0.6111 (Simulation time: 00 hr 12 min 06 sec)
Heartbeat CPU 0 instructions: 75000421 cycles: 57158750 heartbeat IPC: 0.2045 cumulative IPC: 0.5878 (Simulation time: 00 hr 12 min 24 sec)
Heartbeat CPU 0 instructions: 75500421 cycles: 58717520 heartbeat IPC: 0.3208 cumulative IPC: 0.5783 (Simulation time: 00 hr 12 min 35 sec)
Heartbeat CPU 0 instructions: 76000421 cycles: 60046082 heartbeat IPC: 0.3763 cumulative IPC: 0.5724 (Simulation time: 00 hr 12 min 46 sec)
Heartbeat CPU 0 instructions: 76500421 cycles: 61273975 heartbeat IPC: 0.4072 cumulative IPC: 0.5681 (Simulation time: 00 hr 12 min 55 sec)
Heartbeat CPU 0 instructions: 77000427 cycles: 62047723 heartbeat IPC: 0.6462 cumulative IPC: 0.5694 (Simulation time: 00 hr 13 min 02 sec)
Heartbeat CPU 0 instructions: 77500433 cycles: 63382619 heartbeat IPC: 0.3746 cumulative IPC: 0.564 (Simulation time: 00 hr 13 min 13 sec)
Heartbeat CPU 0 instructions: 78000433 cycles: 64499352 heartbeat IPC: 0.4477 cumulative IPC: 0.5614 (Simulation time: 00 hr 13 min 22 sec)
Heartbeat CPU 0 instructions: 78500437 cycles: 65129802 heartbeat IPC: 0.7931 cumulative IPC: 0.5643 (Simulation time: 00 hr 13 min 29 sec)
Heartbeat CPU 0 instructions: 79000437 cycles: 66807883 heartbeat IPC: 0.298 cumulative IPC: 0.5557 (Simulation time: 00 hr 13 min 41 sec)
Heartbeat CPU 0 instructions: 79500438 cycles: 68202832 heartbeat IPC: 0.3584 cumulative IPC: 0.5506 (Simulation time: 00 hr 13 min 52 sec)
Heartbeat CPU 0 instructions: 80000445 cycles: 69163397 heartbeat IPC: 0.5205 cumulative IPC: 0.5501 (Simulation time: 00 hr 13 min 59 sec)
Heartbeat CPU 0 instructions: 80500446 cycles: 70522851 heartbeat IPC: 0.3678 cumulative IPC: 0.5456 (Simulation time: 00 hr 14 min 09 sec)
Heartbeat CPU 0 instructions: 81000446 cycles: 71466262 heartbeat IPC: 0.53 cumulative IPC: 0.5454 (Simulation time: 00 hr 14 min 17 sec)
Heartbeat CPU 0 instructions: 81500448 cycles: 72162816 heartbeat IPC: 0.7178 cumulative IPC: 0.5475 (Simulation time: 00 hr 14 min 23 sec)
Heartbeat CPU 0 instructions: 82000448 cycles: 73850316 heartbeat IPC: 0.2963 cumulative IPC: 0.5403 (Simulation time: 00 hr 14 min 35 sec)
Heartbeat CPU 0 instructions: 82500451 cycles: 74941835 heartbeat IPC: 0.4581 cumulative IPC: 0.5388 (Simulation time: 00 hr 14 min 44 sec)
Heartbeat CPU 0 instructions: 83000453 cycles: 76221946 heartbeat IPC: 0.3906 cumulative IPC: 0.5357 (Simulation time: 00 hr 14 min 54 sec)
Heartbeat CPU 0 instructions: 83500460 cycles: 76896515 heartbeat IPC: 0.7412 cumulative IPC: 0.538 (Simulation time: 00 hr 14 min 59 sec)
Heartbeat CPU 0 instructions: 84000460 cycles: 77271005 heartbeat IPC: 1.335 cumulative IPC: 0.5427 (Simulation time: 00 hr 15 min 03 sec)
Heartbeat CPU 0 instructions: 84500467 cycles: 77803875 heartbeat IPC: 0.9383 cumulative IPC: 0.5461 (Simulation time: 00 hr 15 min 08 sec)
Heartbeat CPU 0 instructions: 85000467 cycles: 78198858 heartbeat IPC: 1.266 cumulative IPC: 0.5505 (Simulation time: 00 hr 15 min 13 sec)
Heartbeat CPU 0 instructions: 85500469 cycles: 78866760 heartbeat IPC: 0.7486 cumulative IPC: 0.5526 (Simulation time: 00 hr 15 min 19 sec)
Heartbeat CPU 0 instructions: 86000475 cycles: 80341674 heartbeat IPC: 0.339 cumulative IPC: 0.5478 (Simulation time: 00 hr 15 min 31 sec)
Heartbeat CPU 0 instructions: 86500476 cycles: 82025619 heartbeat IPC: 0.2969 cumulative IPC: 0.5415 (Simulation time: 00 hr 15 min 44 sec)
Heartbeat CPU 0 instructions: 87000477 cycles: 83381646 heartbeat IPC: 0.3687 cumulative IPC: 0.5381 (Simulation time: 00 hr 15 min 54 sec)
Heartbeat CPU 0 instructions: 87500477 cycles: 83966103 heartbeat IPC: 0.8555 cumulative IPC: 0.5408 (Simulation time: 00 hr 15 min 59 sec)
Heartbeat CPU 0 instructions: 88000480 cycles: 85547711 heartbeat IPC: 0.3161 cumulative IPC: 0.5358 (Simulation time: 00 hr 16 min 11 sec)
Heartbeat CPU 0 instructions: 88500480 cycles: 86035505 heartbeat IPC: 1.025 cumulative IPC: 0.5391 (Simulation time: 00 hr 16 min 16 sec)
Heartbeat CPU 0 instructions: 89000483 cycles: 86444160 heartbeat IPC: 1.224 cumulative IPC: 0.543 (Simulation time: 00 hr 16 min 21 sec)
Heartbeat CPU 0 instructions: 89500483 cycles: 86820728 heartbeat IPC: 1.328 cumulative IPC: 0.5471 (Simulation time: 00 hr 16 min 25 sec)
Heartbeat CPU 0 instructions: 90000483 cycles: 87813575 heartbeat IPC: 0.5036 cumulative IPC: 0.5465 (Simulation time: 00 hr 16 min 34 sec)
Heartbeat CPU 0 instructions: 90500483 cycles: 88466443 heartbeat IPC: 0.7659 cumulative IPC: 0.5485 (Simulation time: 00 hr 16 min 40 sec)
Heartbeat CPU 0 instructions: 91000485 cycles: 88910853 heartbeat IPC: 1.125 cumulative IPC: 0.5519 (Simulation time: 00 hr 16 min 45 sec)
Heartbeat CPU 0 instructions: 91500492 cycles: 89311630 heartbeat IPC: 1.248 cumulative IPC: 0.5557 (Simulation time: 00 hr 16 min 49 sec)
Heartbeat CPU 0 instructions: 92000498 cycles: 89559171 heartbeat IPC: 2.02 cumulative IPC: 0.5605 (Simulation time: 00 hr 16 min 53 sec)
Heartbeat CPU 0 instructions: 92500499 cycles: 89870555 heartbeat IPC: 1.606 cumulative IPC: 0.5648 (Simulation time: 00 hr 16 min 56 sec)
Heartbeat CPU 0 instructions: 93000499 cycles: 91111094 heartbeat IPC: 0.4031 cumulative IPC: 0.5622 (Simulation time: 00 hr 17 min 07 sec)
Heartbeat CPU 0 instructions: 93500499 cycles: 91750359 heartbeat IPC: 0.7821 cumulative IPC: 0.564 (Simulation time: 00 hr 17 min 14 sec)
Heartbeat CPU 0 instructions: 94000502 cycles: 92214035 heartbeat IPC: 1.078 cumulative IPC: 0.5671 (Simulation time: 00 hr 17 min 19 sec)
Heartbeat CPU 0 instructions: 94500504 cycles: 92886076 heartbeat IPC: 0.744 cumulative IPC: 0.5686 (Simulation time: 00 hr 17 min 26 sec)
Heartbeat CPU 0 instructions: 95000507 cycles: 93365563 heartbeat IPC: 1.043 cumulative IPC: 0.5715 (Simulation time: 00 hr 17 min 31 sec)
Heartbeat CPU 0 instructions: 95500513 cycles: 95020429 heartbeat IPC: 0.3021 cumulative IPC: 0.566 (Simulation time: 00 hr 17 min 43 sec)
Heartbeat CPU 0 instructions: 96000520 cycles: 95566629 heartbeat IPC: 0.9154 cumulative IPC: 0.5683 (Simulation time: 00 hr 17 min 48 sec)
Heartbeat CPU 0 instructions: 96500526 cycles: 97000344 heartbeat IPC: 0.3487 cumulative IPC: 0.5645 (Simulation time: 00 hr 17 min 58 sec)
Heartbeat CPU 0 instructions: 97000531 cycles: 98027288 heartbeat IPC: 0.4869 cumulative IPC: 0.5635 (Simulation time: 00 hr 18 min 07 sec)
Heartbeat CPU 0 instructions: 97500531 cycles: 99080320 heartbeat IPC: 0.4748 cumulative IPC: 0.5624 (Simulation time: 00 hr 18 min 15 sec)
Heartbeat CPU 0 instructions: 98000532 cycles: 100421960 heartbeat IPC: 0.3727 cumulative IPC: 0.5595 (Simulation time: 00 hr 18 min 24 sec)
Heartbeat CPU 0 instructions: 98500538 cycles: 101659403 heartbeat IPC: 0.4041 cumulative IPC: 0.5573 (Simulation time: 00 hr 18 min 34 sec)
Heartbeat CPU 0 instructions: 99000538 cycles: 102385499 heartbeat IPC: 0.6886 cumulative IPC: 0.5583 (Simulation time: 00 hr 18 min 40 sec)
Heartbeat CPU 0 instructions: 99500545 cycles: 103154907 heartbeat IPC: 0.6499 cumulative IPC: 0.5591 (Simulation time: 00 hr 18 min 47 sec)
Heartbeat CPU 0 instructions: 100000551 cycles: 103527294 heartbeat IPC: 1.343 cumulative IPC: 0.5624 (Simulation time: 00 hr 18 min 51 sec)
Heartbeat CPU 0 instructions: 100500551 cycles: 105124796 heartbeat IPC: 0.313 cumulative IPC: 0.558 (Simulation time: 00 hr 19 min 02 sec)
Heartbeat CPU 0 instructions: 101000552 cycles: 106014732 heartbeat IPC: 0.5618 cumulative IPC: 0.5581 (Simulation time: 00 hr 19 min 09 sec)
Heartbeat CPU 0 instructions: 101500553 cycles: 107116695 heartbeat IPC: 0.4537 cumulative IPC: 0.5568 (Simulation time: 00 hr 19 min 18 sec)
Heartbeat CPU 0 instructions: 102000554 cycles: 108149530 heartbeat IPC: 0.4841 cumulative IPC: 0.556 (Simulation time: 00 hr 19 min 26 sec)
Heartbeat CPU 0 instructions: 102500559 cycles: 109062938 heartbeat IPC: 0.5474 cumulative IPC: 0.5559 (Simulation time: 00 hr 19 min 33 sec)
Heartbeat CPU 0 instructions: 103000561 cycles: 110308954 heartbeat IPC: 0.4013 cumulative IPC: 0.5539 (Simulation time: 00 hr 19 min 44 sec)
Heartbeat CPU 0 instructions: 103500562 cycles: 111266701 heartbeat IPC: 0.5221 cumulative IPC: 0.5536 (Simulation time: 00 hr 19 min 52 sec)
Heartbeat CPU 0 instructions: 104000563 cycles: 112922101 heartbeat IPC: 0.302 cumulative IPC: 0.5494 (Simulation time: 00 hr 20 min 04 sec)
Heartbeat CPU 0 instructions: 104500563 cycles: 113291423 heartbeat IPC: 1.354 cumulative IPC: 0.5524 (Simulation time: 00 hr 20 min 08 sec)
Heartbeat CPU 0 instructions: 105000563 cycles: 114613677 heartbeat IPC: 0.3781 cumulative IPC: 0.5501 (Simulation time: 00 hr 20 min 18 sec)
Heartbeat CPU 0 instructions: 105500568 cycles: 115059180 heartbeat IPC: 1.122 cumulative IPC: 0.5526 (Simulation time: 00 hr 20 min 22 sec)
Heartbeat CPU 0 instructions: 106000570 cycles: 115487838 heartbeat IPC: 1.166 cumulative IPC: 0.5552 (Simulation time: 00 hr 20 min 26 sec)
Heartbeat CPU 0 instructions: 106500572 cycles: 115815572 heartbeat IPC: 1.526 cumulative IPC: 0.5584 (Simulation time: 00 hr 20 min 29 sec)
Heartbeat CPU 0 instructions: 107000572 cycles: 116123105 heartbeat IPC: 1.626 cumulative IPC: 0.5616 (Simulation time: 00 hr 20 min 33 sec)
Heartbeat CPU 0 instructions: 107500573 cycles: 117971523 heartbeat IPC: 0.2705 cumulative IPC: 0.5564 (Simulation time: 00 hr 20 min 45 sec)
Heartbeat CPU 0 instructions: 108000574 cycles: 119641332 heartbeat IPC: 0.2994 cumulative IPC: 0.5523 (Simulation time: 00 hr 20 min 57 sec)
Heartbeat CPU 0 instructions: 108500576 cycles: 120861284 heartbeat IPC: 0.4099 cumulative IPC: 0.5507 (Simulation time: 00 hr 21 min 05 sec)
Heartbeat CPU 0 instructions: 109000576 cycles: 121739766 heartbeat IPC: 0.5692 cumulative IPC: 0.5508 (Simulation time: 00 hr 21 min 12 sec)
Heartbeat CPU 0 instructions: 109500576 cycles: 122569661 heartbeat IPC: 0.6025 cumulative IPC: 0.5512 (Simulation time: 00 hr 21 min 19 sec)
Heartbeat CPU 0 instructions: 110000578 cycles: 123615001 heartbeat IPC: 0.4783 cumulative IPC: 0.5505 (Simulation time: 00 hr 21 min 26 sec)
Heartbeat CPU 0 instructions: 110500578 cycles: 124937982 heartbeat IPC: 0.3779 cumulative IPC: 0.5484 (Simulation time: 00 hr 21 min 35 sec)
Heartbeat CPU 0 instructions: 111000581 cycles: 126253027 heartbeat IPC: 0.3802 cumulative IPC: 0.5465 (Simulation time: 00 hr 21 min 45 sec)
Heartbeat CPU 0 instructions: 111500582 cycles: 127011781 heartbeat IPC: 0.659 cumulative IPC: 0.5472 (Simulation time: 00 hr 21 min 51 sec)
Heartbeat CPU 0 instructions: 112000583 cycles: 128063182 heartbeat IPC: 0.4756 cumulative IPC: 0.5466 (Simulation time: 00 hr 21 min 59 sec)
Heartbeat CPU 0 instructions: 112500587 cycles: 128678300 heartbeat IPC: 0.8129 cumulative IPC: 0.548 (Simulation time: 00 hr 22 min 04 sec)
Heartbeat CPU 0 instructions: 113000594 cycles: 129281396 heartbeat IPC: 0.8291 cumulative IPC: 0.5495 (Simulation time: 00 hr 22 min 09 sec)
Heartbeat CPU 0 instructions: 113500597 cycles: 129559854 heartbeat IPC: 1.796 cumulative IPC: 0.5525 (Simulation time: 00 hr 22 min 12 sec)
Heartbeat CPU 0 instructions: 114000600 cycles: 129900392 heartbeat IPC: 1.468 cumulative IPC: 0.5552 (Simulation time: 00 hr 22 min 15 sec)
Heartbeat CPU 0 instructions: 114500603 cycles: 130188914 heartbeat IPC: 1.733 cumulative IPC: 0.5581 (Simulation time: 00 hr 22 min 18 sec)
Heartbeat CPU 0 instructions: 115000605 cycles: 131583998 heartbeat IPC: 0.3584 cumulative IPC: 0.5558 (Simulation time: 00 hr 22 min 29 sec)
Heartbeat CPU 0 instructions: 115500605 cycles: 133149744 heartbeat IPC: 0.3193 cumulative IPC: 0.5526 (Simulation time: 00 hr 22 min 39 sec)
Heartbeat CPU 0 instructions: 116000607 cycles: 134469813 heartbeat IPC: 0.3788 cumulative IPC: 0.5507 (Simulation time: 00 hr 22 min 49 sec)
Heartbeat CPU 0 instructions: 116500607 cycles: 135282279 heartbeat IPC: 0.6154 cumulative IPC: 0.5512 (Simulation time: 00 hr 22 min 55 sec)
Heartbeat CPU 0 instructions: 117000609 cycles: 136068563 heartbeat IPC: 0.6359 cumulative IPC: 0.5517 (Simulation time: 00 hr 23 min 02 sec)
Heartbeat CPU 0 instructions: 117500609 cycles: 136882617 heartbeat IPC: 0.6142 cumulative IPC: 0.5521 (Simulation time: 00 hr 23 min 08 sec)
Heartbeat CPU 0 instructions: 118000613 cycles: 137902844 heartbeat IPC: 0.4901 cumulative IPC: 0.5516 (Simulation time: 00 hr 23 min 15 sec)
Heartbeat CPU 0 instructions: 118500618 cycles: 138422780 heartbeat IPC: 0.9617 cumulative IPC: 0.5533 (Simulation time: 00 hr 23 min 20 sec)
Heartbeat CPU 0 instructions: 119000618 cycles: 139744120 heartbeat IPC: 0.3784 cumulative IPC: 0.5515 (Simulation time: 00 hr 23 min 29 sec)
Heartbeat CPU 0 instructions: 119500619 cycles: 140393216 heartbeat IPC: 0.7703 cumulative IPC: 0.5526 (Simulation time: 00 hr 23 min 35 sec)
Heartbeat CPU 0 instructions: 120000619 cycles: 141270340 heartbeat IPC: 0.57 cumulative IPC: 0.5527 (Simulation time: 00 hr 23 min 41 sec)
Heartbeat CPU 0 instructions: 120500621 cycles: 142305343 heartbeat IPC: 0.4831 cumulative IPC: 0.5522 (Simulation time: 00 hr 23 min 49 sec)
Heartbeat CPU 0 instructions: 121000625 cycles: 143045985 heartbeat IPC: 0.6751 cumulative IPC: 0.5529 (Simulation time: 00 hr 23 min 55 sec)
Heartbeat CPU 0 instructions: 121500626 cycles: 143673504 heartbeat IPC: 0.7968 cumulative IPC: 0.5541 (Simulation time: 00 hr 24 min 00 sec)
Heartbeat CPU 0 instructions: 122000627 cycles: 144874784 heartbeat IPC: 0.4162 cumulative IPC: 0.5528 (Simulation time: 00 hr 24 min 09 sec)
Heartbeat CPU 0 instructions: 122500629 cycles: 146054779 heartbeat IPC: 0.4237 cumulative IPC: 0.5516 (Simulation time: 00 hr 24 min 17 sec)
Heartbeat CPU 0 instructions: 123000629 cycles: 148079691 heartbeat IPC: 0.2469 cumulative IPC: 0.547 (Simulation time: 00 hr 24 min 33 sec)
Heartbeat CPU 0 instructions: 123500635 cycles: 149192512 heartbeat IPC: 0.4493 cumulative IPC: 0.5462 (Simulation time: 00 hr 24 min 42 sec)
Heartbeat CPU 0 instructions: 124000641 cycles: 150019522 heartbeat IPC: 0.6046 cumulative IPC: 0.5466 (Simulation time: 00 hr 24 min 49 sec)
Heartbeat CPU 0 instructions: 124500646 cycles: 150608760 heartbeat IPC: 0.8486 cumulative IPC: 0.5479 (Simulation time: 00 hr 24 min 54 sec)
Heartbeat CPU 0 instructions: 125000647 cycles: 152047120 heartbeat IPC: 0.3476 cumulative IPC: 0.5458 (Simulation time: 00 hr 25 min 03 sec)
Heartbeat CPU 0 instructions: 125500651 cycles: 153416064 heartbeat IPC: 0.3652 cumulative IPC: 0.544 (Simulation time: 00 hr 25 min 13 sec)
Heartbeat CPU 0 instructions: 126000656 cycles: 154903765 heartbeat IPC: 0.3361 cumulative IPC: 0.5418 (Simulation time: 00 hr 25 min 25 sec)
Heartbeat CPU 0 instructions: 126500662 cycles: 155739382 heartbeat IPC: 0.5984 cumulative IPC: 0.5421 (Simulation time: 00 hr 25 min 33 sec)
Heartbeat CPU 0 instructions: 127000664 cycles: 156973796 heartbeat IPC: 0.4051 cumulative IPC: 0.5409 (Simulation time: 00 hr 25 min 44 sec)
Heartbeat CPU 0 instructions: 127500665 cycles: 158568640 heartbeat IPC: 0.3135 cumulative IPC: 0.5384 (Simulation time: 00 hr 25 min 58 sec)
Heartbeat CPU 0 instructions: 128000665 cycles: 159715362 heartbeat IPC: 0.436 cumulative IPC: 0.5376 (Simulation time: 00 hr 26 min 08 sec)
Heartbeat CPU 0 instructions: 128500668 cycles: 160820686 heartbeat IPC: 0.4524 cumulative IPC: 0.537 (Simulation time: 00 hr 26 min 17 sec)
Heartbeat CPU 0 instructions: 129000675 cycles: 162181725 heartbeat IPC: 0.3674 cumulative IPC: 0.5354 (Simulation time: 00 hr 26 min 27 sec)
Heartbeat CPU 0 instructions: 129500681 cycles: 162748929 heartbeat IPC: 0.8815 cumulative IPC: 0.5367 (Simulation time: 00 hr 26 min 32 sec)
Heartbeat CPU 0 instructions: 130000683 cycles: 163467068 heartbeat IPC: 0.6962 cumulative IPC: 0.5375 (Simulation time: 00 hr 26 min 38 sec)
Heartbeat CPU 0 instructions: 130500688 cycles: 163942601 heartbeat IPC: 1.051 cumulative IPC: 0.5391 (Simulation time: 00 hr 26 min 42 sec)
Heartbeat CPU 0 instructions: 131000689 cycles: 164518446 heartbeat IPC: 0.8683 cumulative IPC: 0.5404 (Simulation time: 00 hr 26 min 47 sec)
Heartbeat CPU 0 instructions: 131500696 cycles: 165056624 heartbeat IPC: 0.9291 cumulative IPC: 0.5418 (Simulation time: 00 hr 26 min 52 sec)
Heartbeat CPU 0 instructions: 132000697 cycles: 165638444 heartbeat IPC: 0.8594 cumulative IPC: 0.543 (Simulation time: 00 hr 26 min 58 sec)
Heartbeat CPU 0 instructions: 132500697 cycles: 166018049 heartbeat IPC: 1.317 cumulative IPC: 0.5449 (Simulation time: 00 hr 27 min 02 sec)
Heartbeat CPU 0 instructions: 133000703 cycles: 166558952 heartbeat IPC: 0.9244 cumulative IPC: 0.5463 (Simulation time: 00 hr 27 min 07 sec)
Heartbeat CPU 0 instructions: 133500706 cycles: 166989066 heartbeat IPC: 1.162 cumulative IPC: 0.548 (Simulation time: 00 hr 27 min 11 sec)
Heartbeat CPU 0 instructions: 134000706 cycles: 167453676 heartbeat IPC: 1.076 cumulative IPC: 0.5496 (Simulation time: 00 hr 27 min 15 sec)
Heartbeat CPU 0 instructions: 134500712 cycles: 167754424 heartbeat IPC: 1.663 cumulative IPC: 0.5518 (Simulation time: 00 hr 27 min 18 sec)
Heartbeat CPU 0 instructions: 135000715 cycles: 168166491 heartbeat IPC: 1.213 cumulative IPC: 0.5536 (Simulation time: 00 hr 27 min 22 sec)
Heartbeat CPU 0 instructions: 135500722 cycles: 168536333 heartbeat IPC: 1.352 cumulative IPC: 0.5555 (Simulation time: 00 hr 27 min 25 sec)
Heartbeat CPU 0 instructions: 136000722 cycles: 168814265 heartbeat IPC: 1.799 cumulative IPC: 0.5578 (Simulation time: 00 hr 27 min 28 sec)
Heartbeat CPU 0 instructions: 136500725 cycles: 169340312 heartbeat IPC: 0.9505 cumulative IPC: 0.5591 (Simulation time: 00 hr 27 min 33 sec)
Heartbeat CPU 0 instructions: 137000730 cycles: 169725080 heartbeat IPC: 1.299 cumulative IPC: 0.5609 (Simulation time: 00 hr 27 min 37 sec)
Heartbeat CPU 0 instructions: 137500732 cycles: 170191427 heartbeat IPC: 1.072 cumulative IPC: 0.5625 (Simulation time: 00 hr 27 min 41 sec)
Heartbeat CPU 0 instructions: 138000732 cycles: 170619802 heartbeat IPC: 1.167 cumulative IPC: 0.5641 (Simulation time: 00 hr 27 min 45 sec)
Heartbeat CPU 0 instructions: 138500736 cycles: 171086653 heartbeat IPC: 1.071 cumulative IPC: 0.5656 (Simulation time: 00 hr 27 min 49 sec)
Heartbeat CPU 0 instructions: 139000736 cycles: 171371574 heartbeat IPC: 1.755 cumulative IPC: 0.5678 (Simulation time: 00 hr 27 min 52 sec)
Heartbeat CPU 0 instructions: 139500736 cycles: 171589993 heartbeat IPC: 2.289 cumulative IPC: 0.5702 (Simulation time: 00 hr 27 min 55 sec)
Heartbeat CPU 0 instructions: 140000736 cycles: 171827911 heartbeat IPC: 2.102 cumulative IPC: 0.5725 (Simulation time: 00 hr 27 min 58 sec)
Heartbeat CPU 0 instructions: 140500743 cycles: 172420804 heartbeat IPC: 0.8433 cumulative IPC: 0.5735 (Simulation time: 00 hr 28 min 04 sec)
Heartbeat CPU 0 instructions: 141000743 cycles: 172724138 heartbeat IPC: 1.648 cumulative IPC: 0.5756 (Simulation time: 00 hr 28 min 07 sec)
Heartbeat CPU 0 instructions: 141500743 cycles: 173555753 heartbeat IPC: 0.6012 cumulative IPC: 0.5757 (Simulation time: 00 hr 28 min 14 sec)
Heartbeat CPU 0 instructions: 142000743 cycles: 173995264 heartbeat IPC: 1.138 cumulative IPC: 0.5773 (Simulation time: 00 hr 28 min 18 sec)
Heartbeat CPU 0 instructions: 142500745 cycles: 174315620 heartbeat IPC: 1.561 cumulative IPC: 0.5792 (Simulation time: 00 hr 28 min 21 sec)
Heartbeat CPU 0 instructions: 143000746 cycles: 174676665 heartbeat IPC: 1.385 cumulative IPC: 0.5811 (Simulation time: 00 hr 28 min 25 sec)
Heartbeat CPU 0 instructions: 143500750 cycles: 175095802 heartbeat IPC: 1.193 cumulative IPC: 0.5827 (Simulation time: 00 hr 28 min 29 sec)
Heartbeat CPU 0 instructions: 144000752 cycles: 176293518 heartbeat IPC: 0.4175 cumulative IPC: 0.5814 (Simulation time: 00 hr 28 min 38 sec)
Heartbeat CPU 0 instructions: 144500755 cycles: 177318296 heartbeat IPC: 0.4879 cumulative IPC: 0.5809 (Simulation time: 00 hr 28 min 47 sec)
Heartbeat CPU 0 instructions: 145000755 cycles: 178093382 heartbeat IPC: 0.6451 cumulative IPC: 0.5812 (Simulation time: 00 hr 28 min 54 sec)
Heartbeat CPU 0 instructions: 145500759 cycles: 178730158 heartbeat IPC: 0.7852 cumulative IPC: 0.5819 (Simulation time: 00 hr 29 min 00 sec)
Heartbeat CPU 0 instructions: 146000760 cycles: 179857876 heartbeat IPC: 0.4434 cumulative IPC: 0.581 (Simulation time: 00 hr 29 min 08 sec)
Heartbeat CPU 0 instructions: 146500766 cycles: 180603463 heartbeat IPC: 0.6706 cumulative IPC: 0.5814 (Simulation time: 00 hr 29 min 14 sec)
Heartbeat CPU 0 instructions: 147000767 cycles: 181438499 heartbeat IPC: 0.5988 cumulative IPC: 0.5815 (Simulation time: 00 hr 29 min 22 sec)
Heartbeat CPU 0 instructions: 147500768 cycles: 181863052 heartbeat IPC: 1.178 cumulative IPC: 0.583 (Simulation time: 00 hr 29 min 26 sec)
Heartbeat CPU 0 instructions: 148000773 cycles: 182071446 heartbeat IPC: 2.399 cumulative IPC: 0.5853 (Simulation time: 00 hr 29 min 28 sec)
Heartbeat CPU 0 instructions: 148500775 cycles: 183554938 heartbeat IPC: 0.337 cumulative IPC: 0.5831 (Simulation time: 00 hr 29 min 39 sec)
Heartbeat CPU 0 instructions: 149000777 cycles: 184017323 heartbeat IPC: 1.081 cumulative IPC: 0.5844 (Simulation time: 00 hr 29 min 44 sec)
Heartbeat CPU 0 instructions: 149500781 cycles: 185001709 heartbeat IPC: 0.5079 cumulative IPC: 0.584 (Simulation time: 00 hr 29 min 51 sec)
Heartbeat CPU 0 instructions: 150000784 cycles: 185336316 heartbeat IPC: 1.494 cumulative IPC: 0.5858 (Simulation time: 00 hr 29 min 55 sec)
Heartbeat CPU 0 instructions: 150500784 cycles: 186630941 heartbeat IPC: 0.3862 cumulative IPC: 0.5843 (Simulation time: 00 hr 30 min 04 sec)
Heartbeat CPU 0 instructions: 151000784 cycles: 188231748 heartbeat IPC: 0.3123 cumulative IPC: 0.5818 (Simulation time: 00 hr 30 min 14 sec)
Heartbeat CPU 0 instructions: 151500784 cycles: 188969269 heartbeat IPC: 0.6779 cumulative IPC: 0.5822 (Simulation time: 00 hr 30 min 20 sec)
Heartbeat CPU 0 instructions: 152000788 cycles: 189867228 heartbeat IPC: 0.5568 cumulative IPC: 0.5821 (Simulation time: 00 hr 30 min 26 sec)
Heartbeat CPU 0 instructions: 152500795 cycles: 190995557 heartbeat IPC: 0.4431 cumulative IPC: 0.5812 (Simulation time: 00 hr 30 min 36 sec)
Heartbeat CPU 0 instructions: 153000795 cycles: 192165675 heartbeat IPC: 0.4273 cumulative IPC: 0.5802 (Simulation time: 00 hr 30 min 44 sec)
Heartbeat CPU 0 instructions: 153500799 cycles: 192498885 heartbeat IPC: 1.501 cumulative IPC: 0.5819 (Simulation time: 00 hr 30 min 48 sec)
Heartbeat CPU 0 instructions: 154000805 cycles: 193093754 heartbeat IPC: 0.8405 cumulative IPC: 0.5827 (Simulation time: 00 hr 30 min 54 sec)
Heartbeat CPU 0 instructions: 154500806 cycles: 194888983 heartbeat IPC: 0.2785 cumulative IPC: 0.5797 (Simulation time: 00 hr 31 min 06 sec)
Heartbeat CPU 0 instructions: 155000807 cycles: 195899567 heartbeat IPC: 0.4948 cumulative IPC: 0.5792 (Simulation time: 00 hr 31 min 13 sec)
Heartbeat CPU 0 instructions: 155500813 cycles: 196887812 heartbeat IPC: 0.506 cumulative IPC: 0.5788 (Simulation time: 00 hr 31 min 20 sec)
Heartbeat CPU 0 instructions: 156000814 cycles: 197480635 heartbeat IPC: 0.8434 cumulative IPC: 0.5797 (Simulation time: 00 hr 31 min 25 sec)
Heartbeat CPU 0 instructions: 156500815 cycles: 198280681 heartbeat IPC: 0.625 cumulative IPC: 0.5799 (Simulation time: 00 hr 31 min 31 sec)
Heartbeat CPU 0 instructions: 157000818 cycles: 198574396 heartbeat IPC: 1.702 cumulative IPC: 0.5817 (Simulation time: 00 hr 31 min 34 sec)
Heartbeat CPU 0 instructions: 157500821 cycles: 199419484 heartbeat IPC: 0.5917 cumulative IPC: 0.5817 (Simulation time: 00 hr 31 min 40 sec)
Heartbeat CPU 0 instructions: 158000822 cycles: 200771776 heartbeat IPC: 0.3697 cumulative IPC: 0.5802 (Simulation time: 00 hr 31 min 48 sec)
Heartbeat CPU 0 instructions: 158500824 cycles: 202045419 heartbeat IPC: 0.3926 cumulative IPC: 0.5789 (Simulation time: 00 hr 31 min 57 sec)
Heartbeat CPU 0 instructions: 159000826 cycles: 203888803 heartbeat IPC: 0.2712 cumulative IPC: 0.5759 (Simulation time: 00 hr 32 min 09 sec)
Heartbeat CPU 0 instructions: 159500826 cycles: 204567100 heartbeat IPC: 0.7371 cumulative IPC: 0.5765 (Simulation time: 00 hr 32 min 15 sec)
Heartbeat CPU 0 instructions: 160000828 cycles: 205395522 heartbeat IPC: 0.6036 cumulative IPC: 0.5766 (Simulation time: 00 hr 32 min 22 sec)
Heartbeat CPU 0 instructions: 160500832 cycles: 206298363 heartbeat IPC: 0.5538 cumulative IPC: 0.5765 (Simulation time: 00 hr 32 min 30 sec)
Heartbeat CPU 0 instructions: 161000836 cycles: 207164606 heartbeat IPC: 0.5772 cumulative IPC: 0.5765 (Simulation time: 00 hr 32 min 38 sec)
Heartbeat CPU 0 instructions: 161500839 cycles: 207592875 heartbeat IPC: 1.167 cumulative IPC: 0.5778 (Simulation time: 00 hr 32 min 43 sec)
Heartbeat CPU 0 instructions: 162000841 cycles: 208963602 heartbeat IPC: 0.3648 cumulative IPC: 0.5763 (Simulation time: 00 hr 32 min 52 sec)
Heartbeat CPU 0 instructions: 162500841 cycles: 209868517 heartbeat IPC: 0.5525 cumulative IPC: 0.5762 (Simulation time: 00 hr 32 min 59 sec)
Heartbeat CPU 0 instructions: 163000841 cycles: 210838377 heartbeat IPC: 0.5155 cumulative IPC: 0.5759 (Simulation time: 00 hr 33 min 06 sec)
Heartbeat CPU 0 instructions: 163500844 cycles: 211712462 heartbeat IPC: 0.572 cumulative IPC: 0.5759 (Simulation time: 00 hr 33 min 13 sec)
Heartbeat CPU 0 instructions: 164000844 cycles: 212738102 heartbeat IPC: 0.4875 cumulative IPC: 0.5754 (Simulation time: 00 hr 33 min 20 sec)
Heartbeat CPU 0 instructions: 164500847 cycles: 213684881 heartbeat IPC: 0.5281 cumulative IPC: 0.5752 (Simulation time: 00 hr 33 min 27 sec)
Heartbeat CPU 0 instructions: 165000848 cycles: 214634484 heartbeat IPC: 0.5265 cumulative IPC: 0.575 (Simulation time: 00 hr 33 min 33 sec)
Heartbeat CPU 0 instructions: 165500850 cycles: 215570542 heartbeat IPC: 0.5342 cumulative IPC: 0.5748 (Simulation time: 00 hr 33 min 40 sec)
Heartbeat CPU 0 instructions: 166000856 cycles: 216503711 heartbeat IPC: 0.5358 cumulative IPC: 0.5746 (Simulation time: 00 hr 33 min 46 sec)
Heartbeat CPU 0 instructions: 166500859 cycles: 217430440 heartbeat IPC: 0.5395 cumulative IPC: 0.5744 (Simulation time: 00 hr 33 min 53 sec)
Heartbeat CPU 0 instructions: 167000859 cycles: 218353541 heartbeat IPC: 0.5417 cumulative IPC: 0.5743 (Simulation time: 00 hr 34 min 00 sec)
Heartbeat CPU 0 instructions: 167500862 cycles: 218542775 heartbeat IPC: 2.642 cumulative IPC: 0.5762 (Simulation time: 00 hr 34 min 03 sec)
Heartbeat CPU 0 instructions: 168000864 cycles: 218744355 heartbeat IPC: 2.48 cumulative IPC: 0.5781 (Simulation time: 00 hr 34 min 06 sec)
Heartbeat CPU 0 instructions: 168500864 cycles: 219185209 heartbeat IPC: 1.134 cumulative IPC: 0.5793 (Simulation time: 00 hr 34 min 10 sec)
Heartbeat CPU 0 instructions: 169000864 cycles: 219548510 heartbeat IPC: 1.376 cumulative IPC: 0.5807 (Simulation time: 00 hr 34 min 15 sec)
Heartbeat CPU 0 instructions: 169500864 cycles: 219994213 heartbeat IPC: 1.122 cumulative IPC: 0.5819 (Simulation time: 00 hr 34 min 20 sec)
Heartbeat CPU 0 instructions: 170000864 cycles: 220353305 heartbeat IPC: 1.392 cumulative IPC: 0.5833 (Simulation time: 00 hr 34 min 25 sec)
Heartbeat CPU 0 instructions: 170500864 cycles: 220758470 heartbeat IPC: 1.234 cumulative IPC: 0.5846 (Simulation time: 00 hr 34 min 30 sec)
Heartbeat CPU 0 instructions: 171000868 cycles: 221039416 heartbeat IPC: 1.78 cumulative IPC: 0.5862 (Simulation time: 00 hr 34 min 34 sec)
Heartbeat CPU 0 instructions: 171500869 cycles: 222764510 heartbeat IPC: 0.2898 cumulative IPC: 0.5837 (Simulation time: 00 hr 34 min 45 sec)
Heartbeat CPU 0 instructions: 172000871 cycles: 223480715 heartbeat IPC: 0.6981 cumulative IPC: 0.5841 (Simulation time: 00 hr 34 min 51 sec)
Heartbeat CPU 0 instructions: 172500871 cycles: 223842416 heartbeat IPC: 1.382 cumulative IPC: 0.5855 (Simulation time: 00 hr 34 min 55 sec)
Heartbeat CPU 0 instructions: 173000875 cycles: 224203405 heartbeat IPC: 1.385 cumulative IPC: 0.5869 (Simulation time: 00 hr 34 min 59 sec)
Heartbeat CPU 0 instructions: 173500881 cycles: 224837486 heartbeat IPC: 0.7886 cumulative IPC: 0.5875 (Simulation time: 00 hr 35 min 05 sec)
Heartbeat CPU 0 instructions: 174000882 cycles: 225558204 heartbeat IPC: 0.6938 cumulative IPC: 0.5879 (Simulation time: 00 hr 35 min 10 sec)
Heartbeat CPU 0 instructions: 174500884 cycles: 226264922 heartbeat IPC: 0.7075 cumulative IPC: 0.5883 (Simulation time: 00 hr 35 min 15 sec)
Heartbeat CPU 0 instructions: 175000885 cycles: 227637685 heartbeat IPC: 0.3642 cumulative IPC: 0.5868 (Simulation time: 00 hr 35 min 24 sec)
Heartbeat CPU 0 instructions: 175500889 cycles: 228064011 heartbeat IPC: 1.173 cumulative IPC: 0.588 (Simulation time: 00 hr 35 min 28 sec)
Heartbeat CPU 0 instructions: 176000891 cycles: 228704278 heartbeat IPC: 0.7809 cumulative IPC: 0.5886 (Simulation time: 00 hr 35 min 34 sec)
Heartbeat CPU 0 instructions: 176500892 cycles: 229295264 heartbeat IPC: 0.846 cumulative IPC: 0.5893 (Simulation time: 00 hr 35 min 38 sec)
Heartbeat CPU 0 instructions: 177000894 cycles: 230368176 heartbeat IPC: 0.466 cumulative IPC: 0.5887 (Simulation time: 00 hr 35 min 45 sec)
Heartbeat CPU 0 instructions: 177500899 cycles: 231184912 heartbeat IPC: 0.6122 cumulative IPC: 0.5888 (Simulation time: 00 hr 35 min 51 sec)
Heartbeat CPU 0 instructions: 178000899 cycles: 231838359 heartbeat IPC: 0.7652 cumulative IPC: 0.5893 (Simulation time: 00 hr 35 min 56 sec)
Heartbeat CPU 0 instructions: 178500900 cycles: 232566561 heartbeat IPC: 0.6866 cumulative IPC: 0.5896 (Simulation time: 00 hr 36 min 01 sec)
Heartbeat CPU 0 instructions: 179000907 cycles: 232973688 heartbeat IPC: 1.228 cumulative IPC: 0.5908 (Simulation time: 00 hr 36 min 06 sec)
Heartbeat CPU 0 instructions: 179500908 cycles: 233300641 heartbeat IPC: 1.529 cumulative IPC: 0.5922 (Simulation time: 00 hr 36 min 10 sec)
Heartbeat CPU 0 instructions: 180000912 cycles: 233546695 heartbeat IPC: 2.032 cumulative IPC: 0.5938 (Simulation time: 00 hr 36 min 13 sec)
Heartbeat CPU 0 instructions: 180500917 cycles: 233851019 heartbeat IPC: 1.643 cumulative IPC: 0.5953 (Simulation time: 00 hr 36 min 17 sec)
Heartbeat CPU 0 instructions: 181000920 cycles: 234618414 heartbeat IPC: 0.6516 cumulative IPC: 0.5955 (Simulation time: 00 hr 36 min 24 sec)
Heartbeat CPU 0 instructions: 181500921 cycles: 235677701 heartbeat IPC: 0.472 cumulative IPC: 0.5949 (Simulation time: 00 hr 36 min 32 sec)
Heartbeat CPU 0 instructions: 182000928 cycles: 236379657 heartbeat IPC: 0.7123 cumulative IPC: 0.5953 (Simulation time: 00 hr 36 min 38 sec)
Heartbeat CPU 0 instructions: 182500928 cycles: 237083734 heartbeat IPC: 0.7101 cumulative IPC: 0.5956 (Simulation time: 00 hr 36 min 43 sec)
Heartbeat CPU 0 instructions: 183000929 cycles: 237662237 heartbeat IPC: 0.8643 cumulative IPC: 0.5963 (Simulation time: 00 hr 36 min 48 sec)
Heartbeat CPU 0 instructions: 183500932 cycles: 238541210 heartbeat IPC: 0.5688 cumulative IPC: 0.5962 (Simulation time: 00 hr 36 min 54 sec)
Heartbeat CPU 0 instructions: 184000932 cycles: 239807849 heartbeat IPC: 0.3947 cumulative IPC: 0.5951 (Simulation time: 00 hr 37 min 02 sec)
Heartbeat CPU 0 instructions: 184500932 cycles: 240426155 heartbeat IPC: 0.8087 cumulative IPC: 0.5957 (Simulation time: 00 hr 37 min 07 sec)
Heartbeat CPU 0 instructions: 185000936 cycles: 241010827 heartbeat IPC: 0.8552 cumulative IPC: 0.5963 (Simulation time: 00 hr 37 min 12 sec)
Heartbeat CPU 0 instructions: 185500936 cycles: 242047013 heartbeat IPC: 0.4825 cumulative IPC: 0.5958 (Simulation time: 00 hr 37 min 19 sec)
Heartbeat CPU 0 instructions: 186000940 cycles: 242939077 heartbeat IPC: 0.5605 cumulative IPC: 0.5957 (Simulation time: 00 hr 37 min 25 sec)
Heartbeat CPU 0 instructions: 186500946 cycles: 243519455 heartbeat IPC: 0.8615 cumulative IPC: 0.5963 (Simulation time: 00 hr 37 min 29 sec)
Heartbeat CPU 0 instructions: 187000946 cycles: 244241793 heartbeat IPC: 0.6922 cumulative IPC: 0.5966 (Simulation time: 00 hr 37 min 34 sec)
Heartbeat CPU 0 instructions: 187500952 cycles: 245050019 heartbeat IPC: 0.6186 cumulative IPC: 0.5967 (Simulation time: 00 hr 37 min 40 sec)
Heartbeat CPU 0 instructions: 188000955 cycles: 245791660 heartbeat IPC: 0.6742 cumulative IPC: 0.597 (Simulation time: 00 hr 37 min 46 sec)
Heartbeat CPU 0 instructions: 188500960 cycles: 246454942 heartbeat IPC: 0.7538 cumulative IPC: 0.5974 (Simulation time: 00 hr 37 min 51 sec)
Heartbeat CPU 0 instructions: 189000963 cycles: 247139756 heartbeat IPC: 0.7301 cumulative IPC: 0.5978 (Simulation time: 00 hr 37 min 56 sec)
Heartbeat CPU 0 instructions: 189500968 cycles: 248395414 heartbeat IPC: 0.3982 cumulative IPC: 0.5967 (Simulation time: 00 hr 38 min 04 sec)
Heartbeat CPU 0 instructions: 190000971 cycles: 248997297 heartbeat IPC: 0.8307 cumulative IPC: 0.5973 (Simulation time: 00 hr 38 min 09 sec)
Heartbeat CPU 0 instructions: 190500973 cycles: 249794564 heartbeat IPC: 0.6271 cumulative IPC: 0.5974 (Simulation time: 00 hr 38 min 14 sec)
Heartbeat CPU 0 instructions: 191000977 cycles: 250450520 heartbeat IPC: 0.7623 cumulative IPC: 0.5979 (Simulation time: 00 hr 38 min 19 sec)
Heartbeat CPU 0 instructions: 191500981 cycles: 251145241 heartbeat IPC: 0.7197 cumulative IPC: 0.5983 (Simulation time: 00 hr 38 min 24 sec)
Heartbeat CPU 0 instructions: 192000981 cycles: 252193145 heartbeat IPC: 0.4771 cumulative IPC: 0.5977 (Simulation time: 00 hr 38 min 31 sec)
Heartbeat CPU 0 instructions: 192500985 cycles: 253045387 heartbeat IPC: 0.5867 cumulative IPC: 0.5977 (Simulation time: 00 hr 38 min 37 sec)
Heartbeat CPU 0 instructions: 193000987 cycles: 253742600 heartbeat IPC: 0.7171 cumulative IPC: 0.598 (Simulation time: 00 hr 38 min 42 sec)
Heartbeat CPU 0 instructions: 193500992 cycles: 254507691 heartbeat IPC: 0.6535 cumulative IPC: 0.5982 (Simulation time: 00 hr 38 min 48 sec)
Heartbeat CPU 0 instructions: 194000994 cycles: 255427037 heartbeat IPC: 0.5439 cumulative IPC: 0.598 (Simulation time: 00 hr 38 min 54 sec)
Heartbeat CPU 0 instructions: 194500999 cycles: 256238803 heartbeat IPC: 0.6159 cumulative IPC: 0.5981 (Simulation time: 00 hr 38 min 59 sec)
Heartbeat CPU 0 instructions: 195000999 cycles: 257035126 heartbeat IPC: 0.6279 cumulative IPC: 0.5982 (Simulation time: 00 hr 39 min 05 sec)
Heartbeat CPU 0 instructions: 195500999 cycles: 257657822 heartbeat IPC: 0.803 cumulative IPC: 0.5987 (Simulation time: 00 hr 39 min 10 sec)
Heartbeat CPU 0 instructions: 196000999 cycles: 258544286 heartbeat IPC: 0.564 cumulative IPC: 0.5986 (Simulation time: 00 hr 39 min 16 sec)
Heartbeat CPU 0 instructions: 196500999 cycles: 259358365 heartbeat IPC: 0.6142 cumulative IPC: 0.5986 (Simulation time: 00 hr 39 min 21 sec)
Heartbeat CPU 0 instructions: 197001000 cycles: 259970488 heartbeat IPC: 0.8168 cumulative IPC: 0.5992 (Simulation time: 00 hr 39 min 26 sec)
Heartbeat CPU 0 instructions: 197501000 cycles: 260159684 heartbeat IPC: 2.643 cumulative IPC: 0.6007 (Simulation time: 00 hr 39 min 29 sec)
Heartbeat CPU 0 instructions: 198001002 cycles: 260358939 heartbeat IPC: 2.509 cumulative IPC: 0.6023 (Simulation time: 00 hr 39 min 32 sec)
Heartbeat CPU 0 instructions: 198501009 cycles: 260898659 heartbeat IPC: 0.9264 cumulative IPC: 0.603 (Simulation time: 00 hr 39 min 37 sec)
Heartbeat CPU 0 instructions: 199001009 cycles: 262035779 heartbeat IPC: 0.4397 cumulative IPC: 0.6022 (Simulation time: 00 hr 39 min 45 sec)
Heartbeat CPU 0 instructions: 199501009 cycles: 263180622 heartbeat IPC: 0.4367 cumulative IPC: 0.6015 (Simulation time: 00 hr 39 min 52 sec)
Heartbeat CPU 0 instructions: 200001014 cycles: 263548043 heartbeat IPC: 1.361 cumulative IPC: 0.6026 (Simulation time: 00 hr 39 min 57 sec)
Heartbeat CPU 0 instructions: 200501014 cycles: 263947281 heartbeat IPC: 1.252 cumulative IPC: 0.6036 (Simulation time: 00 hr 40 min 02 sec)
Heartbeat CPU 0 instructions: 201001021 cycles: 264333934 heartbeat IPC: 1.293 cumulative IPC: 0.6047 (Simulation time: 00 hr 40 min 06 sec)
Heartbeat CPU 0 instructions: 201501023 cycles: 264679463 heartbeat IPC: 1.447 cumulative IPC: 0.6059 (Simulation time: 00 hr 40 min 10 sec)
Heartbeat CPU 0 instructions: 202001023 cycles: 264950731 heartbeat IPC: 1.843 cumulative IPC: 0.6072 (Simulation time: 00 hr 40 min 14 sec)
Heartbeat CPU 0 instructions: 202501025 cycles: 265272367 heartbeat IPC: 1.555 cumulative IPC: 0.6084 (Simulation time: 00 hr 40 min 18 sec)
Heartbeat CPU 0 instructions: 203001026 cycles: 265572187 heartbeat IPC: 1.668 cumulative IPC: 0.6097 (Simulation time: 00 hr 40 min 22 sec)
Heartbeat CPU 0 instructions: 203501030 cycles: 265772935 heartbeat IPC: 2.491 cumulative IPC: 0.6112 (Simulation time: 00 hr 40 min 25 sec)
Heartbeat CPU 0 instructions: 204001030 cycles: 266382783 heartbeat IPC: 0.8199 cumulative IPC: 0.6117 (Simulation time: 00 hr 40 min 30 sec)
Heartbeat CPU 0 instructions: 204501032 cycles: 267851363 heartbeat IPC: 0.3405 cumulative IPC: 0.6101 (Simulation time: 00 hr 40 min 40 sec)
Heartbeat CPU 0 instructions: 205001032 cycles: 268677724 heartbeat IPC: 0.6051 cumulative IPC: 0.6101 (Simulation time: 00 hr 40 min 46 sec)
Heartbeat CPU 0 instructions: 205501037 cycles: 269416788 heartbeat IPC: 0.6765 cumulative IPC: 0.6103 (Simulation time: 00 hr 40 min 52 sec)
Heartbeat CPU 0 instructions: 206001041 cycles: 270026101 heartbeat IPC: 0.8206 cumulative IPC: 0.6108 (Simulation time: 00 hr 40 min 56 sec)
Heartbeat CPU 0 instructions: 206501048 cycles: 271087789 heartbeat IPC: 0.471 cumulative IPC: 0.6102 (Simulation time: 00 hr 41 min 03 sec)
Heartbeat CPU 0 instructions: 207001050 cycles: 271493858 heartbeat IPC: 1.231 cumulative IPC: 0.6112 (Simulation time: 00 hr 41 min 08 sec)
Heartbeat CPU 0 instructions: 207501056 cycles: 271827888 heartbeat IPC: 1.497 cumulative IPC: 0.6124 (Simulation time: 00 hr 41 min 12 sec)
Heartbeat CPU 0 instructions: 208001061 cycles: 272087114 heartbeat IPC: 1.929 cumulative IPC: 0.6137 (Simulation time: 00 hr 41 min 16 sec)
Heartbeat CPU 0 instructions: 208501067 cycles: 272354381 heartbeat IPC: 1.871 cumulative IPC: 0.615 (Simulation time: 00 hr 41 min 19 sec)
Heartbeat CPU 0 instructions: 209001069 cycles: 273856850 heartbeat IPC: 0.3328 cumulative IPC: 0.6134 (Simulation time: 00 hr 41 min 28 sec)
Heartbeat CPU 0 instructions: 209501070 cycles: 274649557 heartbeat IPC: 0.6308 cumulative IPC: 0.6134 (Simulation time: 00 hr 41 min 34 sec)
Heartbeat CPU 0 instructions: 210001072 cycles: 275426365 heartbeat IPC: 0.6437 cumulative IPC: 0.6135 (Simulation time: 00 hr 41 min 39 sec)
Heartbeat CPU 0 instructions: 210501072 cycles: 276388041 heartbeat IPC: 0.5199 cumulative IPC: 0.6132 (Simulation time: 00 hr 41 min 46 sec)
Heartbeat CPU 0 instructions: 211001076 cycles: 277091860 heartbeat IPC: 0.7104 cumulative IPC: 0.6134 (Simulation time: 00 hr 41 min 51 sec)
Heartbeat CPU 0 instructions: 211501082 cycles: 278036016 heartbeat IPC: 0.5296 cumulative IPC: 0.6131 (Simulation time: 00 hr 41 min 57 sec)
Heartbeat CPU 0 instructions: 212001088 cycles: 278756257 heartbeat IPC: 0.6942 cumulative IPC: 0.6133 (Simulation time: 00 hr 42 min 02 sec)
Heartbeat CPU 0 instructions: 212501090 cycles: 279365431 heartbeat IPC: 0.8208 cumulative IPC: 0.6138 (Simulation time: 00 hr 42 min 07 sec)
Heartbeat CPU 0 instructions: 213001090 cycles: 280234094 heartbeat IPC: 0.5756 cumulative IPC: 0.6137 (Simulation time: 00 hr 42 min 12 sec)
Heartbeat CPU 0 instructions: 213501091 cycles: 281051019 heartbeat IPC: 0.6121 cumulative IPC: 0.6137 (Simulation time: 00 hr 42 min 18 sec)
Heartbeat CPU 0 instructions: 214001091 cycles: 281866868 heartbeat IPC: 0.6129 cumulative IPC: 0.6137 (Simulation time: 00 hr 42 min 24 sec)
Heartbeat CPU 0 instructions: 214501092 cycles: 282796202 heartbeat IPC: 0.538 cumulative IPC: 0.6134 (Simulation time: 00 hr 42 min 30 sec)
Heartbeat CPU 0 instructions: 215001098 cycles: 283532044 heartbeat IPC: 0.6795 cumulative IPC: 0.6136 (Simulation time: 00 hr 42 min 35 sec)
Heartbeat CPU 0 instructions: 215501099 cycles: 284152588 heartbeat IPC: 0.8057 cumulative IPC: 0.614 (Simulation time: 00 hr 42 min 40 sec)
Heartbeat CPU 0 instructions: 216001099 cycles: 284943531 heartbeat IPC: 0.6322 cumulative IPC: 0.6141 (Simulation time: 00 hr 42 min 45 sec)
Heartbeat CPU 0 instructions: 216501099 cycles: 285707150 heartbeat IPC: 0.6548 cumulative IPC: 0.6142 (Simulation time: 00 hr 42 min 51 sec)
Heartbeat CPU 0 instructions: 217001102 cycles: 286262713 heartbeat IPC: 0.9 cumulative IPC: 0.6148 (Simulation time: 00 hr 42 min 55 sec)
Heartbeat CPU 0 instructions: 217501108 cycles: 286452921 heartbeat IPC: 2.629 cumulative IPC: 0.6162 (Simulation time: 00 hr 42 min 58 sec)
Heartbeat CPU 0 instructions: 218001110 cycles: 286775738 heartbeat IPC: 1.549 cumulative IPC: 0.6173 (Simulation time: 00 hr 43 min 02 sec)
Heartbeat CPU 0 instructions: 218501116 cycles: 287167690 heartbeat IPC: 1.276 cumulative IPC: 0.6183 (Simulation time: 00 hr 43 min 06 sec)
Heartbeat CPU 0 instructions: 219001122 cycles: 287498369 heartbeat IPC: 1.512 cumulative IPC: 0.6193 (Simulation time: 00 hr 43 min 10 sec)
Heartbeat CPU 0 instructions: 219501125 cycles: 287865233 heartbeat IPC: 1.363 cumulative IPC: 0.6203 (Simulation time: 00 hr 43 min 14 sec)
Heartbeat CPU 0 instructions: 220001128 cycles: 288210118 heartbeat IPC: 1.45 cumulative IPC: 0.6214 (Simulation time: 00 hr 43 min 18 sec)
Heartbeat CPU 0 instructions: 220501132 cycles: 288553438 heartbeat IPC: 1.456 cumulative IPC: 0.6224 (Simulation time: 00 hr 43 min 23 sec)
Heartbeat CPU 0 instructions: 221001136 cycles: 288927357 heartbeat IPC: 1.337 cumulative IPC: 0.6234 (Simulation time: 00 hr 43 min 27 sec)
Heartbeat CPU 0 instructions: 221501136 cycles: 289293235 heartbeat IPC: 1.367 cumulative IPC: 0.6244 (Simulation time: 00 hr 43 min 31 sec)
Heartbeat CPU 0 instructions: 222001139 cycles: 290165387 heartbeat IPC: 0.5733 cumulative IPC: 0.6242 (Simulation time: 00 hr 43 min 38 sec)
Heartbeat CPU 0 instructions: 222501142 cycles: 290536980 heartbeat IPC: 1.346 cumulative IPC: 0.6252 (Simulation time: 00 hr 43 min 42 sec)
Heartbeat CPU 0 instructions: 223001143 cycles: 290883227 heartbeat IPC: 1.444 cumulative IPC: 0.6262 (Simulation time: 00 hr 43 min 46 sec)
Heartbeat CPU 0 instructions: 223501149 cycles: 291291253 heartbeat IPC: 1.225 cumulative IPC: 0.6271 (Simulation time: 00 hr 43 min 50 sec)
Heartbeat CPU 0 instructions: 224001154 cycles: 291708462 heartbeat IPC: 1.198 cumulative IPC: 0.628 (Simulation time: 00 hr 43 min 55 sec)
Heartbeat CPU 0 instructions: 224501154 cycles: 293253882 heartbeat IPC: 0.3235 cumulative IPC: 0.6263 (Simulation time: 00 hr 44 min 04 sec)
Heartbeat CPU 0 instructions: 225001156 cycles: 294107482 heartbeat IPC: 0.5858 cumulative IPC: 0.6262 (Simulation time: 00 hr 44 min 10 sec)
Heartbeat CPU 0 instructions: 225501156 cycles: 294554334 heartbeat IPC: 1.119 cumulative IPC: 0.6269 (Simulation time: 00 hr 44 min 14 sec)
Heartbeat CPU 0 instructions: 226001158 cycles: 294812417 heartbeat IPC: 1.937 cumulative IPC: 0.6282 (Simulation time: 00 hr 44 min 17 sec)
Heartbeat CPU 0 instructions: 226501161 cycles: 295158849 heartbeat IPC: 1.443 cumulative IPC: 0.6292 (Simulation time: 00 hr 44 min 21 sec)
Heartbeat CPU 0 instructions: 227001161 cycles: 296592526 heartbeat IPC: 0.3488 cumulative IPC: 0.6277 (Simulation time: 00 hr 44 min 30 sec)
Heartbeat CPU 0 instructions: 227501163 cycles: 297529070 heartbeat IPC: 0.5339 cumulative IPC: 0.6274 (Simulation time: 00 hr 44 min 37 sec)
Heartbeat CPU 0 instructions: 228001165 cycles: 298170817 heartbeat IPC: 0.7791 cumulative IPC: 0.6278 (Simulation time: 00 hr 44 min 41 sec)
Heartbeat CPU 0 instructions: 228501167 cycles: 298719166 heartbeat IPC: 0.9118 cumulative IPC: 0.6283 (Simulation time: 00 hr 44 min 45 sec)
Heartbeat CPU 0 instructions: 229001168 cycles: 299883425 heartbeat IPC: 0.4295 cumulative IPC: 0.6275 (Simulation time: 00 hr 44 min 52 sec)
Heartbeat CPU 0 instructions: 229501168 cycles: 300871463 heartbeat IPC: 0.5061 cumulative IPC: 0.6271 (Simulation time: 00 hr 44 min 59 sec)
Heartbeat CPU 0 instructions: 230001168 cycles: 301711021 heartbeat IPC: 0.5956 cumulative IPC: 0.627 (Simulation time: 00 hr 45 min 04 sec)
Heartbeat CPU 0 instructions: 230501169 cycles: 302610177 heartbeat IPC: 0.5561 cumulative IPC: 0.6268 (Simulation time: 00 hr 45 min 10 sec)
Heartbeat CPU 0 instructions: 231001176 cycles: 303565171 heartbeat IPC: 0.5236 cumulative IPC: 0.6264 (Simulation time: 00 hr 45 min 16 sec)
Heartbeat CPU 0 instructions: 231501182 cycles: 304207142 heartbeat IPC: 0.7789 cumulative IPC: 0.6268 (Simulation time: 00 hr 45 min 21 sec)
Heartbeat CPU 0 instructions: 232001183 cycles: 305167958 heartbeat IPC: 0.5204 cumulative IPC: 0.6264 (Simulation time: 00 hr 45 min 27 sec)
Heartbeat CPU 0 instructions: 232501185 cycles: 306054660 heartbeat IPC: 0.5639 cumulative IPC: 0.6262 (Simulation time: 00 hr 45 min 33 sec)
Heartbeat CPU 0 instructions: 233001189 cycles: 307135689 heartbeat IPC: 0.4625 cumulative IPC: 0.6256 (Simulation time: 00 hr 45 min 40 sec)
Heartbeat CPU 0 instructions: 233501189 cycles: 307603923 heartbeat IPC: 1.068 cumulative IPC: 0.6263 (Simulation time: 00 hr 45 min 44 sec)
Heartbeat CPU 0 instructions: 234001196 cycles: 307807284 heartbeat IPC: 2.459 cumulative IPC: 0.6276 (Simulation time: 00 hr 45 min 47 sec)
Heartbeat CPU 0 instructions: 234501201 cycles: 308236392 heartbeat IPC: 1.165 cumulative IPC: 0.6284 (Simulation time: 00 hr 45 min 51 sec)
Heartbeat CPU 0 instructions: 235001201 cycles: 309580034 heartbeat IPC: 0.3721 cumulative IPC: 0.6272 (Simulation time: 00 hr 46 min 01 sec)
Heartbeat CPU 0 instructions: 235501202 cycles: 310089670 heartbeat IPC: 0.9811 cumulative IPC: 0.6278 (Simulation time: 00 hr 46 min 06 sec)
Heartbeat CPU 0 instructions: 236001205 cycles: 310854223 heartbeat IPC: 0.654 cumulative IPC: 0.6279 (Simulation time: 00 hr 46 min 12 sec)
Heartbeat CPU 0 instructions: 236501211 cycles: 311095955 heartbeat IPC: 2.068 cumulative IPC: 0.6291 (Simulation time: 00 hr 46 min 15 sec)
Heartbeat CPU 0 instructions: 237001213 cycles: 311369732 heartbeat IPC: 1.826 cumulative IPC: 0.6302 (Simulation time: 00 hr 46 min 18 sec)
Heartbeat CPU 0 instructions: 237501216 cycles: 311701122 heartbeat IPC: 1.509 cumulative IPC: 0.6312 (Simulation time: 00 hr 46 min 22 sec)
Heartbeat CPU 0 instructions: 238001216 cycles: 312040892 heartbeat IPC: 1.472 cumulative IPC: 0.6321 (Simulation time: 00 hr 46 min 26 sec)
Heartbeat CPU 0 instructions: 238501216 cycles: 312355259 heartbeat IPC: 1.59 cumulative IPC: 0.6331 (Simulation time: 00 hr 46 min 29 sec)
Heartbeat CPU 0 instructions: 239001216 cycles: 312627601 heartbeat IPC: 1.836 cumulative IPC: 0.6342 (Simulation time: 00 hr 46 min 33 sec)
Heartbeat CPU 0 instructions: 239501216 cycles: 312994307 heartbeat IPC: 1.363 cumulative IPC: 0.6351 (Simulation time: 00 hr 46 min 37 sec)
Heartbeat CPU 0 instructions: 240001219 cycles: 313377765 heartbeat IPC: 1.304 cumulative IPC: 0.636 (Simulation time: 00 hr 46 min 41 sec)
Heartbeat CPU 0 instructions: 240501223 cycles: 313735491 heartbeat IPC: 1.398 cumulative IPC: 0.6369 (Simulation time: 00 hr 46 min 45 sec)
Heartbeat CPU 0 instructions: 241001228 cycles: 314047577 heartbeat IPC: 1.602 cumulative IPC: 0.6379 (Simulation time: 00 hr 46 min 49 sec)
Heartbeat CPU 0 instructions: 241501235 cycles: 314302043 heartbeat IPC: 1.965 cumulative IPC: 0.639 (Simulation time: 00 hr 46 min 52 sec)
Heartbeat CPU 0 instructions: 242001238 cycles: 314620036 heartbeat IPC: 1.572 cumulative IPC: 0.64 (Simulation time: 00 hr 46 min 56 sec)
Heartbeat CPU 0 instructions: 242501239 cycles: 314945001 heartbeat IPC: 1.539 cumulative IPC: 0.641 (Simulation time: 00 hr 46 min 59 sec)
Heartbeat CPU 0 instructions: 243001241 cycles: 316249998 heartbeat IPC: 0.3831 cumulative IPC: 0.6399 (Simulation time: 00 hr 47 min 07 sec)
Heartbeat CPU 0 instructions: 243501241 cycles: 317701614 heartbeat IPC: 0.3444 cumulative IPC: 0.6385 (Simulation time: 00 hr 47 min 17 sec)
Heartbeat CPU 0 instructions: 244001241 cycles: 318451695 heartbeat IPC: 0.6666 cumulative IPC: 0.6385 (Simulation time: 00 hr 47 min 22 sec)
Heartbeat CPU 0 instructions: 244501243 cycles: 320211763 heartbeat IPC: 0.2841 cumulative IPC: 0.6365 (Simulation time: 00 hr 47 min 32 sec)
Heartbeat CPU 0 instructions: 245001243 cycles: 321995103 heartbeat IPC: 0.2804 cumulative IPC: 0.6344 (Simulation time: 00 hr 47 min 42 sec)
Heartbeat CPU 0 instructions: 245501250 cycles: 323347335 heartbeat IPC: 0.3698 cumulative IPC: 0.6333 (Simulation time: 00 hr 47 min 50 sec)
Heartbeat CPU 0 instructions: 246001257 cycles: 324465221 heartbeat IPC: 0.4473 cumulative IPC: 0.6326 (Simulation time: 00 hr 47 min 56 sec)
Heartbeat CPU 0 instructions: 246501263 cycles: 325789048 heartbeat IPC: 0.3777 cumulative IPC: 0.6315 (Simulation time: 00 hr 48 min 04 sec)
Heartbeat CPU 0 instructions: 247001263 cycles: 326689056 heartbeat IPC: 0.5556 cumulative IPC: 0.6313 (Simulation time: 00 hr 48 min 09 sec)
Heartbeat CPU 0 instructions: 247501264 cycles: 327413407 heartbeat IPC: 0.6903 cumulative IPC: 0.6314 (Simulation time: 00 hr 48 min 14 sec)
Heartbeat CPU 0 instructions: 248001264 cycles: 328758058 heartbeat IPC: 0.3718 cumulative IPC: 0.6303 (Simulation time: 00 hr 48 min 22 sec)
Heartbeat CPU 0 instructions: 248501265 cycles: 329991347 heartbeat IPC: 0.4054 cumulative IPC: 0.6294 (Simulation time: 00 hr 48 min 30 sec)
Heartbeat CPU 0 instructions: 249001266 cycles: 331508536 heartbeat IPC: 0.3296 cumulative IPC: 0.628 (Simulation time: 00 hr 48 min 41 sec)
Heartbeat CPU 0 instructions: 249501273 cycles: 333195370 heartbeat IPC: 0.2964 cumulative IPC: 0.6262 (Simulation time: 00 hr 48 min 51 sec)
Simulation finished CPU 0 instructions: 200000000 cycles: 319586251 cumulative IPC: 0.6258 (Simulation time: 00 hr 48 min 58 sec)
Simulation complete CPU 0 instructions: 200000000 cycles: 319586251 cumulative IPC: 0.6258 (Simulation time: 00 hr 48 min 58 sec)

ChampSim completed all CPUs

=== Simulation ===
CPU 0 runs /local-ssd/ben/dpc4-traces/gtraces_v2/tango_0001.champsim.gz

Region of Interest Statistics

CPU 0 cumulative IPC: 0.6258 instructions: 200000000 cycles: 319586251
CPU 0 Branch Prediction Accuracy: 92.19% MPKI: 14.1 Average ROB Occupancy at Mispredict: 28.79
Branch type MPKI
BRANCH_DIRECT_JUMP: 0.3006
BRANCH_INDIRECT: 0.1757
BRANCH_CONDITIONAL: 12.47
BRANCH_DIRECT_CALL: 0.4152
BRANCH_INDIRECT_CALL: 0.3046
BRANCH_RETURN: 0.4265

cpu0->cpu0_STLB TOTAL        ACCESS:    2008807 HIT:    1373544 MISS:     635263 MSHR_MERGE:          0
cpu0->cpu0_STLB LOAD         ACCESS:    2008807 HIT:    1373544 MISS:     635263 MSHR_MERGE:          0
cpu0->cpu0_STLB RFO          ACCESS:          0 HIT:          0 MISS:          0 MSHR_MERGE:          0
cpu0->cpu0_STLB PREFETCH     ACCESS:          0 HIT:          0 MISS:          0 MSHR_MERGE:          0
cpu0->cpu0_STLB WRITE        ACCESS:          0 HIT:          0 MISS:          0 MSHR_MERGE:          0
cpu0->cpu0_STLB TRANSLATION  ACCESS:          0 HIT:          0 MISS:          0 MSHR_MERGE:          0
cpu0->cpu0_STLB PREFETCH REQUESTED:          0 ISSUED:          0 USEFUL:          0 USELESS:          0
cpu0->cpu0_STLB AVERAGE MISS LATENCY: 177.7 cycles
cpu0->cpu0_L2C TOTAL        ACCESS:   11210026 HIT:    7392610 MISS:    3817416 MSHR_MERGE:     538236
cpu0->cpu0_L2C LOAD         ACCESS:    3150886 HIT:    2154306 MISS:     996580 MSHR_MERGE:      15836
cpu0->cpu0_L2C RFO          ACCESS:     721111 HIT:     216958 MISS:     504153 MSHR_MERGE:       2160
cpu0->cpu0_L2C PREFETCH     ACCESS:    5399441 HIT:    3378920 MISS:    2020521 MSHR_MERGE:     520240
cpu0->cpu0_L2C WRITE        ACCESS:    1211785 HIT:    1211728 MISS:         57 MSHR_MERGE:          0
cpu0->cpu0_L2C TRANSLATION  ACCESS:     726803 HIT:     430698 MISS:     296105 MSHR_MERGE:          0
cpu0->cpu0_L2C PREFETCH REQUESTED:    4666473 ISSUED:    4481456 USEFUL:     345538 USELESS:     769916
cpu0->cpu0_L2C AVERAGE MISS LATENCY: 231.9 cycles
cpu0->cpu0_L1I TOTAL        ACCESS:   18226289 HIT:   16016498 MISS:    2209791 MSHR_MERGE:     487668
cpu0->cpu0_L1I LOAD         ACCESS:   18226289 HIT:   16016498 MISS:    2209791 MSHR_MERGE:     487668
cpu0->cpu0_L1I RFO          ACCESS:          0 HIT:          0 MISS:          0 MSHR_MERGE:          0
cpu0->cpu0_L1I PREFETCH     ACCESS:          0 HIT:          0 MISS:          0 MSHR_MERGE:          0
cpu0->cpu0_L1I WRITE        ACCESS:          0 HIT:          0 MISS:          0 MSHR_MERGE:          0
cpu0->cpu0_L1I TRANSLATION  ACCESS:          0 HIT:          0 MISS:          0 MSHR_MERGE:          0
cpu0->cpu0_L1I PREFETCH REQUESTED:          0 ISSUED:          0 USEFUL:          0 USELESS:          0
cpu0->cpu0_L1I AVERAGE MISS LATENCY: 57.74 cycles
cpu0->cpu0_L1D TOTAL        ACCESS:   59233142 HIT:   52379027 MISS:    6854115 MSHR_MERGE:    3059441
cpu0->cpu0_L1D LOAD         ACCESS:   29632928 HIT:   27567064 MISS:    2065864 MSHR_MERGE:     637091
cpu0->cpu0_L1D RFO          ACCESS:          0 HIT:          0 MISS:          0 MSHR_MERGE:          0
cpu0->cpu0_L1D PREFETCH     ACCESS:    2265508 HIT:    1199107 MISS:    1066401 MSHR_MERGE:     148430
cpu0->cpu0_L1D WRITE        ACCESS:   25646874 HIT:   22657822 MISS:    2989052 MSHR_MERGE:    2267925
cpu0->cpu0_L1D TRANSLATION  ACCESS:    1687832 HIT:     955034 MISS:     732798 MSHR_MERGE:       5995
cpu0->cpu0_L1D PREFETCH REQUESTED:    4123594 ISSUED:    2265506 USEFUL:     366283 USELESS:     551648
cpu0->cpu0_L1D AVERAGE MISS LATENCY: 123.2 cycles
cpu0->cpu0_ITLB TOTAL        ACCESS:   15395371 HIT:   15111888 MISS:     283483 MSHR_MERGE:     133430
cpu0->cpu0_ITLB LOAD         ACCESS:   15395371 HIT:   15111888 MISS:     283483 MSHR_MERGE:     133430
cpu0->cpu0_ITLB RFO          ACCESS:          0 HIT:          0 MISS:          0 MSHR_MERGE:          0
cpu0->cpu0_ITLB PREFETCH     ACCESS:          0 HIT:          0 MISS:          0 MSHR_MERGE:          0
cpu0->cpu0_ITLB WRITE        ACCESS:          0 HIT:          0 MISS:          0 MSHR_MERGE:          0
cpu0->cpu0_ITLB TRANSLATION  ACCESS:          0 HIT:          0 MISS:          0 MSHR_MERGE:          0
cpu0->cpu0_ITLB PREFETCH REQUESTED:          0 ISSUED:          0 USEFUL:          0 USELESS:          0
cpu0->cpu0_ITLB AVERAGE MISS LATENCY: 29.5 cycles
cpu0->cpu0_DTLB TOTAL        ACCESS:   54256451 HIT:   50637325 MISS:    3619126 MSHR_MERGE:    1760372
cpu0->cpu0_DTLB LOAD         ACCESS:   54256451 HIT:   50637325 MISS:    3619126 MSHR_MERGE:    1760372
cpu0->cpu0_DTLB RFO          ACCESS:          0 HIT:          0 MISS:          0 MSHR_MERGE:          0
cpu0->cpu0_DTLB PREFETCH     ACCESS:          0 HIT:          0 MISS:          0 MSHR_MERGE:          0
cpu0->cpu0_DTLB WRITE        ACCESS:          0 HIT:          0 MISS:          0 MSHR_MERGE:          0
cpu0->cpu0_DTLB TRANSLATION  ACCESS:          0 HIT:          0 MISS:          0 MSHR_MERGE:          0
cpu0->cpu0_DTLB PREFETCH REQUESTED:          0 ISSUED:          0 USEFUL:          0 USELESS:          0
cpu0->cpu0_DTLB AVERAGE MISS LATENCY: 64.09 cycles
cpu0->LLC TOTAL        ACCESS:    5277201 HIT:     915712 MISS:    4361489 MSHR_MERGE:     368810
cpu0->LLC LOAD         ACCESS:     980744 HIT:     141904 MISS:     838840 MSHR_MERGE:       2914
cpu0->LLC RFO          ACCESS:     501993 HIT:      14488 MISS:     487505 MSHR_MERGE:        153
cpu0->LLC PREFETCH     ACCESS:    2631257 HIT:     347593 MISS:    2283664 MSHR_MERGE:     365743
cpu0->LLC WRITE        ACCESS:     867102 HIT:     381988 MISS:     485114 MSHR_MERGE:          0
cpu0->LLC TRANSLATION  ACCESS:     296105 HIT:      29739 MISS:     266366 MSHR_MERGE:          0
cpu0->LLC PREFETCH REQUESTED:    1138431 ISSUED:    1130976 USEFUL:     150337 USELESS:     511536
cpu0->LLC AVERAGE MISS LATENCY: 183.5 cycles

DRAM Statistics

Channel 0 RQ ROW_BUFFER_HIT:      40820
  ROW_BUFFER_MISS:    3466672
  AVG DBUS CONGESTED CYCLE: 20.26
Channel 0 WQ ROW_BUFFER_HIT:     209301
  ROW_BUFFER_MISS:     627289
  FULL:          0
Channel 0 REFRESHES ISSUED:      26631
