[VMEM] WARNING: physical memory size is smaller than virtual memory size.

*** ChampSim Multicore Out-of-Order Simulator ***
Warmup Instructions: 50000000
Simulation Instructions: 200000000
Number of CPUs: 1
Page size: 4096
Core 0: /local-ssd/ben/dpc4-traces/gtraces_v2/sierra.a.4_0000.champsim.gz
sBerti (Smart Stride + Berti) Prefetcher Initialized
Off-chip DRAM Size: 64 GiB Channels: 1 Width: 64-bit Data Rate: 4807 MT/s
[BTB] WARNING: target of return is a lower address than the corresponding call. This is usually a problem with your trace.
[BTB] WARNING: target of return is a lower address than the corresponding call. This is usually a problem with your trace.
[BTB] WARNING: target of return is a lower address than the corresponding call. This is usually a problem with your trace.
[BTB] WARNING: target of return is a lower address than the corresponding call. This is usually a problem with your trace.
[BTB] WARNING: target of return is a lower address than the corresponding call. This is usually a problem with your trace.
[BTB] WARNING: target of return is a lower address than the corresponding call. This is usually a problem with your trace.
Heartbeat CPU 0 instructions: 500005 cycles: 283258 heartbeat IPC: 1.765 cumulative IPC: 1.765 (Simulation time: 00 hr 00 min 07 sec)
[BTB] WARNING: target of return is a lower address than the corresponding call. This is usually a problem with your trace.
[BTB] WARNING: target of return is a lower address than the corresponding call. This is usually a problem with your trace.
[BTB] WARNING: target of return is a lower address than the corresponding call. This is usually a problem with your trace.
[BTB] WARNING: target of return is a lower address than the corresponding call. This is usually a problem with your trace.
Heartbeat CPU 0 instructions: 1000008 cycles: 509546 heartbeat IPC: 2.21 cumulative IPC: 1.963 (Simulation time: 00 hr 00 min 12 sec)
Heartbeat CPU 0 instructions: 1500012 cycles: 707147 heartbeat IPC: 2.53 cumulative IPC: 2.121 (Simulation time: 00 hr 00 min 16 sec)
Heartbeat CPU 0 instructions: 2000013 cycles: 851364 heartbeat IPC: 3.467 cumulative IPC: 2.349 (Simulation time: 00 hr 00 min 20 sec)
Heartbeat CPU 0 instructions: 2500016 cycles: 1066174 heartbeat IPC: 2.328 cumulative IPC: 2.345 (Simulation time: 00 hr 00 min 25 sec)
Heartbeat CPU 0 instructions: 3000016 cycles: 1273032 heartbeat IPC: 2.417 cumulative IPC: 2.357 (Simulation time: 00 hr 00 min 31 sec)
Heartbeat CPU 0 instructions: 3500022 cycles: 1466286 heartbeat IPC: 2.587 cumulative IPC: 2.387 (Simulation time: 00 hr 00 min 35 sec)
Heartbeat CPU 0 instructions: 4000023 cycles: 1633633 heartbeat IPC: 2.988 cumulative IPC: 2.449 (Simulation time: 00 hr 00 min 39 sec)
Heartbeat CPU 0 instructions: 4500027 cycles: 1833409 heartbeat IPC: 2.503 cumulative IPC: 2.454 (Simulation time: 00 hr 00 min 44 sec)
Heartbeat CPU 0 instructions: 5000030 cycles: 1982387 heartbeat IPC: 3.356 cumulative IPC: 2.522 (Simulation time: 00 hr 00 min 48 sec)
Heartbeat CPU 0 instructions: 5500030 cycles: 2161380 heartbeat IPC: 2.793 cumulative IPC: 2.545 (Simulation time: 00 hr 00 min 53 sec)
Heartbeat CPU 0 instructions: 6000034 cycles: 2309726 heartbeat IPC: 3.371 cumulative IPC: 2.598 (Simulation time: 00 hr 00 min 57 sec)
Heartbeat CPU 0 instructions: 6500035 cycles: 2502323 heartbeat IPC: 2.596 cumulative IPC: 2.598 (Simulation time: 00 hr 01 min 02 sec)
Heartbeat CPU 0 instructions: 7000035 cycles: 2633964 heartbeat IPC: 3.798 cumulative IPC: 2.658 (Simulation time: 00 hr 01 min 05 sec)
Heartbeat CPU 0 instructions: 7500042 cycles: 2771738 heartbeat IPC: 3.629 cumulative IPC: 2.706 (Simulation time: 00 hr 01 min 09 sec)
Heartbeat CPU 0 instructions: 8000047 cycles: 2901862 heartbeat IPC: 3.843 cumulative IPC: 2.757 (Simulation time: 00 hr 01 min 13 sec)
Heartbeat CPU 0 instructions: 8500053 cycles: 3050014 heartbeat IPC: 3.375 cumulative IPC: 2.787 (Simulation time: 00 hr 01 min 16 sec)
Heartbeat CPU 0 instructions: 9000058 cycles: 3201925 heartbeat IPC: 3.291 cumulative IPC: 2.811 (Simulation time: 00 hr 01 min 21 sec)
Heartbeat CPU 0 instructions: 9500061 cycles: 3362347 heartbeat IPC: 3.117 cumulative IPC: 2.825 (Simulation time: 00 hr 01 min 25 sec)
Heartbeat CPU 0 instructions: 10000064 cycles: 3516113 heartbeat IPC: 3.252 cumulative IPC: 2.844 (Simulation time: 00 hr 01 min 29 sec)
Heartbeat CPU 0 instructions: 10500067 cycles: 3653763 heartbeat IPC: 3.632 cumulative IPC: 2.874 (Simulation time: 00 hr 01 min 33 sec)
Heartbeat CPU 0 instructions: 11000070 cycles: 3796048 heartbeat IPC: 3.514 cumulative IPC: 2.898 (Simulation time: 00 hr 01 min 37 sec)
Heartbeat CPU 0 instructions: 11500074 cycles: 3972274 heartbeat IPC: 2.837 cumulative IPC: 2.895 (Simulation time: 00 hr 01 min 41 sec)
Heartbeat CPU 0 instructions: 12000075 cycles: 4126526 heartbeat IPC: 3.241 cumulative IPC: 2.908 (Simulation time: 00 hr 01 min 46 sec)
Heartbeat CPU 0 instructions: 12500080 cycles: 4256583 heartbeat IPC: 3.845 cumulative IPC: 2.937 (Simulation time: 00 hr 01 min 49 sec)
Heartbeat CPU 0 instructions: 13000087 cycles: 4392193 heartbeat IPC: 3.687 cumulative IPC: 2.96 (Simulation time: 00 hr 01 min 53 sec)
Heartbeat CPU 0 instructions: 13500092 cycles: 4540798 heartbeat IPC: 3.365 cumulative IPC: 2.973 (Simulation time: 00 hr 01 min 56 sec)
Heartbeat CPU 0 instructions: 14000097 cycles: 4682695 heartbeat IPC: 3.524 cumulative IPC: 2.99 (Simulation time: 00 hr 01 min 58 sec)
Heartbeat CPU 0 instructions: 14500102 cycles: 4811430 heartbeat IPC: 3.884 cumulative IPC: 3.014 (Simulation time: 00 hr 02 min 00 sec)
Heartbeat CPU 0 instructions: 15000103 cycles: 4942361 heartbeat IPC: 3.819 cumulative IPC: 3.035 (Simulation time: 00 hr 02 min 03 sec)
Heartbeat CPU 0 instructions: 15500105 cycles: 5074895 heartbeat IPC: 3.773 cumulative IPC: 3.054 (Simulation time: 00 hr 02 min 05 sec)
Heartbeat CPU 0 instructions: 16000105 cycles: 5235038 heartbeat IPC: 3.122 cumulative IPC: 3.056 (Simulation time: 00 hr 02 min 08 sec)
Heartbeat CPU 0 instructions: 16500112 cycles: 5374249 heartbeat IPC: 3.592 cumulative IPC: 3.07 (Simulation time: 00 hr 02 min 11 sec)
Heartbeat CPU 0 instructions: 17000113 cycles: 5542498 heartbeat IPC: 2.972 cumulative IPC: 3.067 (Simulation time: 00 hr 02 min 14 sec)
Heartbeat CPU 0 instructions: 17500118 cycles: 5687268 heartbeat IPC: 3.454 cumulative IPC: 3.077 (Simulation time: 00 hr 02 min 16 sec)
Heartbeat CPU 0 instructions: 18000125 cycles: 5865810 heartbeat IPC: 2.801 cumulative IPC: 3.069 (Simulation time: 00 hr 02 min 20 sec)
Heartbeat CPU 0 instructions: 18500127 cycles: 6019056 heartbeat IPC: 3.263 cumulative IPC: 3.074 (Simulation time: 00 hr 02 min 22 sec)
Heartbeat CPU 0 instructions: 19000131 cycles: 6190632 heartbeat IPC: 2.914 cumulative IPC: 3.069 (Simulation time: 00 hr 02 min 26 sec)
Heartbeat CPU 0 instructions: 19500137 cycles: 6337329 heartbeat IPC: 3.408 cumulative IPC: 3.077 (Simulation time: 00 hr 02 min 28 sec)
Heartbeat CPU 0 instructions: 20000142 cycles: 6490816 heartbeat IPC: 3.258 cumulative IPC: 3.081 (Simulation time: 00 hr 02 min 31 sec)
Heartbeat CPU 0 instructions: 20500144 cycles: 6666058 heartbeat IPC: 2.853 cumulative IPC: 3.075 (Simulation time: 00 hr 02 min 35 sec)
Heartbeat CPU 0 instructions: 21000147 cycles: 6835741 heartbeat IPC: 2.947 cumulative IPC: 3.072 (Simulation time: 00 hr 02 min 38 sec)
Heartbeat CPU 0 instructions: 21500150 cycles: 7022044 heartbeat IPC: 2.684 cumulative IPC: 3.062 (Simulation time: 00 hr 02 min 42 sec)
Heartbeat CPU 0 instructions: 22000153 cycles: 7194343 heartbeat IPC: 2.902 cumulative IPC: 3.058 (Simulation time: 00 hr 02 min 45 sec)
Heartbeat CPU 0 instructions: 22500153 cycles: 7364874 heartbeat IPC: 2.932 cumulative IPC: 3.055 (Simulation time: 00 hr 02 min 48 sec)
Heartbeat CPU 0 instructions: 23000160 cycles: 7516736 heartbeat IPC: 3.293 cumulative IPC: 3.06 (Simulation time: 00 hr 02 min 51 sec)
Heartbeat CPU 0 instructions: 23500165 cycles: 7661191 heartbeat IPC: 3.461 cumulative IPC: 3.067 (Simulation time: 00 hr 02 min 54 sec)
Heartbeat CPU 0 instructions: 24000169 cycles: 7837839 heartbeat IPC: 2.831 cumulative IPC: 3.062 (Simulation time: 00 hr 02 min 57 sec)
Heartbeat CPU 0 instructions: 24500170 cycles: 8020263 heartbeat IPC: 2.741 cumulative IPC: 3.055 (Simulation time: 00 hr 03 min 00 sec)
Heartbeat CPU 0 instructions: 25000176 cycles: 8144129 heartbeat IPC: 4.037 cumulative IPC: 3.07 (Simulation time: 00 hr 03 min 02 sec)
Heartbeat CPU 0 instructions: 25500182 cycles: 8279477 heartbeat IPC: 3.694 cumulative IPC: 3.08 (Simulation time: 00 hr 03 min 05 sec)
Heartbeat CPU 0 instructions: 26000186 cycles: 8445113 heartbeat IPC: 3.019 cumulative IPC: 3.079 (Simulation time: 00 hr 03 min 08 sec)
Heartbeat CPU 0 instructions: 26500188 cycles: 8586937 heartbeat IPC: 3.526 cumulative IPC: 3.086 (Simulation time: 00 hr 03 min 10 sec)
Heartbeat CPU 0 instructions: 27000193 cycles: 8723146 heartbeat IPC: 3.671 cumulative IPC: 3.095 (Simulation time: 00 hr 03 min 13 sec)
Heartbeat CPU 0 instructions: 27500198 cycles: 8852405 heartbeat IPC: 3.868 cumulative IPC: 3.107 (Simulation time: 00 hr 03 min 15 sec)
Heartbeat CPU 0 instructions: 28000199 cycles: 9015664 heartbeat IPC: 3.063 cumulative IPC: 3.106 (Simulation time: 00 hr 03 min 18 sec)
Heartbeat CPU 0 instructions: 28500200 cycles: 9203014 heartbeat IPC: 2.669 cumulative IPC: 3.097 (Simulation time: 00 hr 03 min 22 sec)
Heartbeat CPU 0 instructions: 29000205 cycles: 9376425 heartbeat IPC: 2.883 cumulative IPC: 3.093 (Simulation time: 00 hr 03 min 25 sec)
Heartbeat CPU 0 instructions: 29500205 cycles: 9497375 heartbeat IPC: 4.134 cumulative IPC: 3.106 (Simulation time: 00 hr 03 min 27 sec)
Heartbeat CPU 0 instructions: 30000206 cycles: 9642059 heartbeat IPC: 3.456 cumulative IPC: 3.111 (Simulation time: 00 hr 03 min 30 sec)
Heartbeat CPU 0 instructions: 30500210 cycles: 9916821 heartbeat IPC: 1.82 cumulative IPC: 3.076 (Simulation time: 00 hr 03 min 35 sec)
Heartbeat CPU 0 instructions: 31000215 cycles: 10121333 heartbeat IPC: 2.445 cumulative IPC: 3.063 (Simulation time: 00 hr 03 min 39 sec)
Heartbeat CPU 0 instructions: 31500219 cycles: 10299781 heartbeat IPC: 2.802 cumulative IPC: 3.058 (Simulation time: 00 hr 03 min 42 sec)
Heartbeat CPU 0 instructions: 32000222 cycles: 10525806 heartbeat IPC: 2.212 cumulative IPC: 3.04 (Simulation time: 00 hr 03 min 46 sec)
Heartbeat CPU 0 instructions: 32500227 cycles: 10759163 heartbeat IPC: 2.143 cumulative IPC: 3.021 (Simulation time: 00 hr 03 min 51 sec)
Heartbeat CPU 0 instructions: 33000229 cycles: 10875938 heartbeat IPC: 4.282 cumulative IPC: 3.034 (Simulation time: 00 hr 03 min 53 sec)
Heartbeat CPU 0 instructions: 33500232 cycles: 10995029 heartbeat IPC: 4.198 cumulative IPC: 3.047 (Simulation time: 00 hr 03 min 56 sec)
Heartbeat CPU 0 instructions: 34000234 cycles: 11142003 heartbeat IPC: 3.402 cumulative IPC: 3.052 (Simulation time: 00 hr 03 min 59 sec)
Heartbeat CPU 0 instructions: 34500238 cycles: 11267581 heartbeat IPC: 3.982 cumulative IPC: 3.062 (Simulation time: 00 hr 04 min 02 sec)
Heartbeat CPU 0 instructions: 35000241 cycles: 11449345 heartbeat IPC: 2.751 cumulative IPC: 3.057 (Simulation time: 00 hr 04 min 05 sec)
Heartbeat CPU 0 instructions: 35500241 cycles: 11610315 heartbeat IPC: 3.106 cumulative IPC: 3.058 (Simulation time: 00 hr 04 min 08 sec)
Heartbeat CPU 0 instructions: 36000243 cycles: 11774048 heartbeat IPC: 3.054 cumulative IPC: 3.058 (Simulation time: 00 hr 04 min 12 sec)
Heartbeat CPU 0 instructions: 36500245 cycles: 11907514 heartbeat IPC: 3.746 cumulative IPC: 3.065 (Simulation time: 00 hr 04 min 14 sec)
Heartbeat CPU 0 instructions: 37000247 cycles: 12055443 heartbeat IPC: 3.38 cumulative IPC: 3.069 (Simulation time: 00 hr 04 min 16 sec)
Heartbeat CPU 0 instructions: 37500254 cycles: 12212982 heartbeat IPC: 3.174 cumulative IPC: 3.071 (Simulation time: 00 hr 04 min 20 sec)
Heartbeat CPU 0 instructions: 38000259 cycles: 12382479 heartbeat IPC: 2.95 cumulative IPC: 3.069 (Simulation time: 00 hr 04 min 23 sec)
Heartbeat CPU 0 instructions: 38500260 cycles: 12548416 heartbeat IPC: 3.013 cumulative IPC: 3.068 (Simulation time: 00 hr 04 min 26 sec)
Heartbeat CPU 0 instructions: 39000264 cycles: 12730363 heartbeat IPC: 2.748 cumulative IPC: 3.064 (Simulation time: 00 hr 04 min 30 sec)
Heartbeat CPU 0 instructions: 39500264 cycles: 12866554 heartbeat IPC: 3.671 cumulative IPC: 3.07 (Simulation time: 00 hr 04 min 32 sec)
Heartbeat CPU 0 instructions: 40000266 cycles: 13030808 heartbeat IPC: 3.044 cumulative IPC: 3.07 (Simulation time: 00 hr 04 min 36 sec)
Heartbeat CPU 0 instructions: 40500272 cycles: 13158331 heartbeat IPC: 3.921 cumulative IPC: 3.078 (Simulation time: 00 hr 04 min 38 sec)
Heartbeat CPU 0 instructions: 41000275 cycles: 13280434 heartbeat IPC: 4.095 cumulative IPC: 3.087 (Simulation time: 00 hr 04 min 40 sec)
Heartbeat CPU 0 instructions: 41500275 cycles: 13394975 heartbeat IPC: 4.365 cumulative IPC: 3.098 (Simulation time: 00 hr 04 min 42 sec)
Heartbeat CPU 0 instructions: 42000275 cycles: 13508056 heartbeat IPC: 4.422 cumulative IPC: 3.109 (Simulation time: 00 hr 04 min 45 sec)
Heartbeat CPU 0 instructions: 42500280 cycles: 13618247 heartbeat IPC: 4.538 cumulative IPC: 3.121 (Simulation time: 00 hr 04 min 47 sec)
Heartbeat CPU 0 instructions: 43000282 cycles: 13729235 heartbeat IPC: 4.505 cumulative IPC: 3.132 (Simulation time: 00 hr 04 min 49 sec)
Heartbeat CPU 0 instructions: 43500286 cycles: 13844374 heartbeat IPC: 4.343 cumulative IPC: 3.142 (Simulation time: 00 hr 04 min 51 sec)
Heartbeat CPU 0 instructions: 44000289 cycles: 13967528 heartbeat IPC: 4.06 cumulative IPC: 3.15 (Simulation time: 00 hr 04 min 53 sec)
Heartbeat CPU 0 instructions: 44500294 cycles: 14079547 heartbeat IPC: 4.464 cumulative IPC: 3.161 (Simulation time: 00 hr 04 min 55 sec)
Heartbeat CPU 0 instructions: 45000299 cycles: 14192271 heartbeat IPC: 4.436 cumulative IPC: 3.171 (Simulation time: 00 hr 04 min 57 sec)
Heartbeat CPU 0 instructions: 45500305 cycles: 14306630 heartbeat IPC: 4.372 cumulative IPC: 3.18 (Simulation time: 00 hr 04 min 59 sec)
Heartbeat CPU 0 instructions: 46000312 cycles: 14442844 heartbeat IPC: 3.671 cumulative IPC: 3.185 (Simulation time: 00 hr 05 min 02 sec)
Heartbeat CPU 0 instructions: 46500314 cycles: 14610071 heartbeat IPC: 2.99 cumulative IPC: 3.183 (Simulation time: 00 hr 05 min 05 sec)
Heartbeat CPU 0 instructions: 47000321 cycles: 14757532 heartbeat IPC: 3.391 cumulative IPC: 3.185 (Simulation time: 00 hr 05 min 08 sec)
Heartbeat CPU 0 instructions: 47500328 cycles: 14917610 heartbeat IPC: 3.124 cumulative IPC: 3.184 (Simulation time: 00 hr 05 min 11 sec)
Heartbeat CPU 0 instructions: 48000330 cycles: 15059590 heartbeat IPC: 3.522 cumulative IPC: 3.187 (Simulation time: 00 hr 05 min 14 sec)
Heartbeat CPU 0 instructions: 48500332 cycles: 15211696 heartbeat IPC: 3.287 cumulative IPC: 3.188 (Simulation time: 00 hr 05 min 17 sec)
Heartbeat CPU 0 instructions: 49000333 cycles: 15363638 heartbeat IPC: 3.291 cumulative IPC: 3.189 (Simulation time: 00 hr 05 min 20 sec)
Heartbeat CPU 0 instructions: 49500335 cycles: 15511604 heartbeat IPC: 3.379 cumulative IPC: 3.191 (Simulation time: 00 hr 05 min 23 sec)
Warmup halting CPU 0 at instruction 50000007 cycle 15653401 for remainder of phase
Warmup finished CPU 0 instructions: 50000007 cycles: 15653401 cumulative IPC: 3.194 (Simulation time: 00 hr 05 min 25 sec)
Warmup complete CPU 0 instructions: 50000007 cycles: 15653401 cumulative IPC: 3.194 (Simulation time: 00 hr 05 min 25 sec)
Heartbeat CPU 0 instructions: 50000335 cycles: 15653474 heartbeat IPC: 3.524 cumulative IPC: 4.493 (Simulation time: 00 hr 05 min 25 sec)
Heartbeat CPU 0 instructions: 50500335 cycles: 18472974 heartbeat IPC: 0.1773 cumulative IPC: 0.1774 (Simulation time: 00 hr 05 min 44 sec)
Heartbeat CPU 0 instructions: 51000338 cycles: 20524862 heartbeat IPC: 0.2437 cumulative IPC: 0.2053 (Simulation time: 00 hr 05 min 59 sec)
Heartbeat CPU 0 instructions: 51500339 cycles: 22282579 heartbeat IPC: 0.2845 cumulative IPC: 0.2263 (Simulation time: 00 hr 06 min 14 sec)
Heartbeat CPU 0 instructions: 52000339 cycles: 24510704 heartbeat IPC: 0.2244 cumulative IPC: 0.2258 (Simulation time: 00 hr 06 min 31 sec)
Heartbeat CPU 0 instructions: 52500343 cycles: 26697127 heartbeat IPC: 0.2287 cumulative IPC: 0.2264 (Simulation time: 00 hr 06 min 49 sec)
Heartbeat CPU 0 instructions: 53000343 cycles: 28517739 heartbeat IPC: 0.2746 cumulative IPC: 0.2332 (Simulation time: 00 hr 07 min 02 sec)
Heartbeat CPU 0 instructions: 53500344 cycles: 30246699 heartbeat IPC: 0.2892 cumulative IPC: 0.2399 (Simulation time: 00 hr 07 min 15 sec)
Heartbeat CPU 0 instructions: 54000344 cycles: 30815611 heartbeat IPC: 0.8789 cumulative IPC: 0.2638 (Simulation time: 00 hr 07 min 20 sec)
Heartbeat CPU 0 instructions: 54500350 cycles: 31241263 heartbeat IPC: 1.175 cumulative IPC: 0.2887 (Simulation time: 00 hr 07 min 24 sec)
Heartbeat CPU 0 instructions: 55000355 cycles: 31649294 heartbeat IPC: 1.225 cumulative IPC: 0.3126 (Simulation time: 00 hr 07 min 28 sec)
Heartbeat CPU 0 instructions: 55500356 cycles: 32029058 heartbeat IPC: 1.317 cumulative IPC: 0.3359 (Simulation time: 00 hr 07 min 32 sec)
Heartbeat CPU 0 instructions: 56000357 cycles: 34295105 heartbeat IPC: 0.2206 cumulative IPC: 0.3219 (Simulation time: 00 hr 07 min 47 sec)
Heartbeat CPU 0 instructions: 56500362 cycles: 36198985 heartbeat IPC: 0.2626 cumulative IPC: 0.3164 (Simulation time: 00 hr 08 min 01 sec)
Heartbeat CPU 0 instructions: 57000365 cycles: 38581217 heartbeat IPC: 0.2099 cumulative IPC: 0.3053 (Simulation time: 00 hr 08 min 17 sec)
Heartbeat CPU 0 instructions: 57500367 cycles: 39811483 heartbeat IPC: 0.4064 cumulative IPC: 0.3105 (Simulation time: 00 hr 08 min 27 sec)
Heartbeat CPU 0 instructions: 58000367 cycles: 40246194 heartbeat IPC: 1.15 cumulative IPC: 0.3253 (Simulation time: 00 hr 08 min 31 sec)
Heartbeat CPU 0 instructions: 58500369 cycles: 40525718 heartbeat IPC: 1.789 cumulative IPC: 0.3418 (Simulation time: 00 hr 08 min 34 sec)
Heartbeat CPU 0 instructions: 59000371 cycles: 42943304 heartbeat IPC: 0.2068 cumulative IPC: 0.3298 (Simulation time: 00 hr 08 min 51 sec)
Heartbeat CPU 0 instructions: 59500371 cycles: 45322443 heartbeat IPC: 0.2102 cumulative IPC: 0.3202 (Simulation time: 00 hr 09 min 08 sec)
Heartbeat CPU 0 instructions: 60000374 cycles: 46925445 heartbeat IPC: 0.3119 cumulative IPC: 0.3198 (Simulation time: 00 hr 09 min 20 sec)
Heartbeat CPU 0 instructions: 60500376 cycles: 47553345 heartbeat IPC: 0.7963 cumulative IPC: 0.3292 (Simulation time: 00 hr 09 min 25 sec)
Heartbeat CPU 0 instructions: 61000376 cycles: 48042461 heartbeat IPC: 1.022 cumulative IPC: 0.3396 (Simulation time: 00 hr 09 min 30 sec)
Heartbeat CPU 0 instructions: 61500380 cycles: 49687233 heartbeat IPC: 0.304 cumulative IPC: 0.3379 (Simulation time: 00 hr 09 min 42 sec)
Heartbeat CPU 0 instructions: 62000382 cycles: 52309824 heartbeat IPC: 0.1907 cumulative IPC: 0.3274 (Simulation time: 00 hr 10 min 00 sec)
Heartbeat CPU 0 instructions: 62500386 cycles: 53488438 heartbeat IPC: 0.4242 cumulative IPC: 0.3304 (Simulation time: 00 hr 10 min 09 sec)
Heartbeat CPU 0 instructions: 63000387 cycles: 55793727 heartbeat IPC: 0.2169 cumulative IPC: 0.3239 (Simulation time: 00 hr 10 min 25 sec)
Heartbeat CPU 0 instructions: 63500387 cycles: 57875066 heartbeat IPC: 0.2402 cumulative IPC: 0.3198 (Simulation time: 00 hr 10 min 41 sec)
Heartbeat CPU 0 instructions: 64000393 cycles: 59315446 heartbeat IPC: 0.3471 cumulative IPC: 0.3207 (Simulation time: 00 hr 10 min 53 sec)
Heartbeat CPU 0 instructions: 64500393 cycles: 62134776 heartbeat IPC: 0.1773 cumulative IPC: 0.312 (Simulation time: 00 hr 11 min 12 sec)
Heartbeat CPU 0 instructions: 65000396 cycles: 63032479 heartbeat IPC: 0.557 cumulative IPC: 0.3166 (Simulation time: 00 hr 11 min 20 sec)
Heartbeat CPU 0 instructions: 65500397 cycles: 63434485 heartbeat IPC: 1.244 cumulative IPC: 0.3244 (Simulation time: 00 hr 11 min 24 sec)
Heartbeat CPU 0 instructions: 66000398 cycles: 65770021 heartbeat IPC: 0.2141 cumulative IPC: 0.3193 (Simulation time: 00 hr 11 min 41 sec)
Heartbeat CPU 0 instructions: 66500402 cycles: 66431500 heartbeat IPC: 0.7559 cumulative IPC: 0.325 (Simulation time: 00 hr 11 min 47 sec)
Heartbeat CPU 0 instructions: 67000402 cycles: 68307406 heartbeat IPC: 0.2665 cumulative IPC: 0.3229 (Simulation time: 00 hr 12 min 01 sec)
Heartbeat CPU 0 instructions: 67500402 cycles: 70069951 heartbeat IPC: 0.2837 cumulative IPC: 0.3216 (Simulation time: 00 hr 12 min 13 sec)
Heartbeat CPU 0 instructions: 68000402 cycles: 71783798 heartbeat IPC: 0.2917 cumulative IPC: 0.3207 (Simulation time: 00 hr 12 min 26 sec)
Heartbeat CPU 0 instructions: 68500403 cycles: 73508348 heartbeat IPC: 0.2899 cumulative IPC: 0.3198 (Simulation time: 00 hr 12 min 38 sec)
Heartbeat CPU 0 instructions: 69000403 cycles: 75336934 heartbeat IPC: 0.2734 cumulative IPC: 0.3184 (Simulation time: 00 hr 12 min 51 sec)
Heartbeat CPU 0 instructions: 69500403 cycles: 77167400 heartbeat IPC: 0.2732 cumulative IPC: 0.317 (Simulation time: 00 hr 13 min 04 sec)
Heartbeat CPU 0 instructions: 70000408 cycles: 78912237 heartbeat IPC: 0.2866 cumulative IPC: 0.3162 (Simulation time: 00 hr 13 min 17 sec)
Heartbeat CPU 0 instructions: 70500411 cycles: 81214514 heartbeat IPC: 0.2172 cumulative IPC: 0.3127 (Simulation time: 00 hr 13 min 34 sec)
Heartbeat CPU 0 instructions: 71000413 cycles: 82876571 heartbeat IPC: 0.3008 cumulative IPC: 0.3124 (Simulation time: 00 hr 13 min 46 sec)
Heartbeat CPU 0 instructions: 71500420 cycles: 83654180 heartbeat IPC: 0.643 cumulative IPC: 0.3162 (Simulation time: 00 hr 13 min 52 sec)
Heartbeat CPU 0 instructions: 72000421 cycles: 84009727 heartbeat IPC: 1.406 cumulative IPC: 0.3218 (Simulation time: 00 hr 13 min 56 sec)
Heartbeat CPU 0 instructions: 72500421 cycles: 84267222 heartbeat IPC: 1.942 cumulative IPC: 0.3279 (Simulation time: 00 hr 13 min 59 sec)
Heartbeat CPU 0 instructions: 73000421 cycles: 84515278 heartbeat IPC: 2.016 cumulative IPC: 0.334 (Simulation time: 00 hr 14 min 02 sec)
Heartbeat CPU 0 instructions: 73500421 cycles: 86524366 heartbeat IPC: 0.2489 cumulative IPC: 0.3316 (Simulation time: 00 hr 14 min 16 sec)
Heartbeat CPU 0 instructions: 74000423 cycles: 88962194 heartbeat IPC: 0.2051 cumulative IPC: 0.3274 (Simulation time: 00 hr 14 min 34 sec)
Heartbeat CPU 0 instructions: 74500425 cycles: 90465641 heartbeat IPC: 0.3326 cumulative IPC: 0.3275 (Simulation time: 00 hr 14 min 45 sec)
Heartbeat CPU 0 instructions: 75000430 cycles: 92209864 heartbeat IPC: 0.2867 cumulative IPC: 0.3266 (Simulation time: 00 hr 14 min 57 sec)
Heartbeat CPU 0 instructions: 75500434 cycles: 94080777 heartbeat IPC: 0.2673 cumulative IPC: 0.3251 (Simulation time: 00 hr 15 min 11 sec)
Heartbeat CPU 0 instructions: 76000434 cycles: 94624080 heartbeat IPC: 0.9203 cumulative IPC: 0.3292 (Simulation time: 00 hr 15 min 16 sec)
Heartbeat CPU 0 instructions: 76500437 cycles: 95589517 heartbeat IPC: 0.5179 cumulative IPC: 0.3315 (Simulation time: 00 hr 15 min 24 sec)
Heartbeat CPU 0 instructions: 77000441 cycles: 96213423 heartbeat IPC: 0.8014 cumulative IPC: 0.3352 (Simulation time: 00 hr 15 min 31 sec)
Heartbeat CPU 0 instructions: 77500443 cycles: 97350406 heartbeat IPC: 0.4398 cumulative IPC: 0.3366 (Simulation time: 00 hr 15 min 41 sec)
Heartbeat CPU 0 instructions: 78000448 cycles: 98796001 heartbeat IPC: 0.3459 cumulative IPC: 0.3368 (Simulation time: 00 hr 15 min 51 sec)
Heartbeat CPU 0 instructions: 78500454 cycles: 100022239 heartbeat IPC: 0.4078 cumulative IPC: 0.3378 (Simulation time: 00 hr 16 min 00 sec)
Heartbeat CPU 0 instructions: 79000454 cycles: 100517906 heartbeat IPC: 1.009 cumulative IPC: 0.3417 (Simulation time: 00 hr 16 min 05 sec)
Heartbeat CPU 0 instructions: 79500454 cycles: 100977702 heartbeat IPC: 1.087 cumulative IPC: 0.3457 (Simulation time: 00 hr 16 min 10 sec)
Heartbeat CPU 0 instructions: 80000455 cycles: 101398274 heartbeat IPC: 1.189 cumulative IPC: 0.3499 (Simulation time: 00 hr 16 min 14 sec)
Heartbeat CPU 0 instructions: 80500456 cycles: 101773603 heartbeat IPC: 1.332 cumulative IPC: 0.3542 (Simulation time: 00 hr 16 min 18 sec)
Heartbeat CPU 0 instructions: 81000459 cycles: 102191117 heartbeat IPC: 1.198 cumulative IPC: 0.3582 (Simulation time: 00 hr 16 min 22 sec)
Heartbeat CPU 0 instructions: 81500463 cycles: 103964186 heartbeat IPC: 0.282 cumulative IPC: 0.3567 (Simulation time: 00 hr 16 min 35 sec)
Heartbeat CPU 0 instructions: 82000463 cycles: 105553561 heartbeat IPC: 0.3146 cumulative IPC: 0.356 (Simulation time: 00 hr 16 min 47 sec)
Heartbeat CPU 0 instructions: 82500463 cycles: 106154267 heartbeat IPC: 0.8324 cumulative IPC: 0.3591 (Simulation time: 00 hr 16 min 53 sec)
Heartbeat CPU 0 instructions: 83000463 cycles: 108789539 heartbeat IPC: 0.1897 cumulative IPC: 0.3543 (Simulation time: 00 hr 17 min 13 sec)
Heartbeat CPU 0 instructions: 83500465 cycles: 109776324 heartbeat IPC: 0.5067 cumulative IPC: 0.3559 (Simulation time: 00 hr 17 min 23 sec)
Heartbeat CPU 0 instructions: 84000471 cycles: 110523138 heartbeat IPC: 0.6695 cumulative IPC: 0.3584 (Simulation time: 00 hr 17 min 32 sec)
Heartbeat CPU 0 instructions: 84500473 cycles: 111003521 heartbeat IPC: 1.041 cumulative IPC: 0.3618 (Simulation time: 00 hr 17 min 39 sec)
Heartbeat CPU 0 instructions: 85000473 cycles: 111479717 heartbeat IPC: 1.05 cumulative IPC: 0.3652 (Simulation time: 00 hr 17 min 47 sec)
Heartbeat CPU 0 instructions: 85500474 cycles: 111988995 heartbeat IPC: 0.9818 cumulative IPC: 0.3685 (Simulation time: 00 hr 17 min 54 sec)
Heartbeat CPU 0 instructions: 86000480 cycles: 112463551 heartbeat IPC: 1.054 cumulative IPC: 0.3719 (Simulation time: 00 hr 18 min 01 sec)
Heartbeat CPU 0 instructions: 86500480 cycles: 112923909 heartbeat IPC: 1.086 cumulative IPC: 0.3752 (Simulation time: 00 hr 18 min 07 sec)
Heartbeat CPU 0 instructions: 87000483 cycles: 113410149 heartbeat IPC: 1.028 cumulative IPC: 0.3785 (Simulation time: 00 hr 18 min 15 sec)
Heartbeat CPU 0 instructions: 87500484 cycles: 113874947 heartbeat IPC: 1.076 cumulative IPC: 0.3818 (Simulation time: 00 hr 18 min 21 sec)
Heartbeat CPU 0 instructions: 88000491 cycles: 114370677 heartbeat IPC: 1.009 cumulative IPC: 0.3849 (Simulation time: 00 hr 18 min 28 sec)
Heartbeat CPU 0 instructions: 88500494 cycles: 114847200 heartbeat IPC: 1.049 cumulative IPC: 0.3881 (Simulation time: 00 hr 18 min 35 sec)
Heartbeat CPU 0 instructions: 89000495 cycles: 115302788 heartbeat IPC: 1.097 cumulative IPC: 0.3914 (Simulation time: 00 hr 18 min 42 sec)
Heartbeat CPU 0 instructions: 89500499 cycles: 115777747 heartbeat IPC: 1.053 cumulative IPC: 0.3945 (Simulation time: 00 hr 18 min 49 sec)
Heartbeat CPU 0 instructions: 90000504 cycles: 116256261 heartbeat IPC: 1.045 cumulative IPC: 0.3976 (Simulation time: 00 hr 18 min 57 sec)
Heartbeat CPU 0 instructions: 90500504 cycles: 117466860 heartbeat IPC: 0.413 cumulative IPC: 0.3978 (Simulation time: 00 hr 19 min 07 sec)
Heartbeat CPU 0 instructions: 91000506 cycles: 117986321 heartbeat IPC: 0.9625 cumulative IPC: 0.4007 (Simulation time: 00 hr 19 min 12 sec)
Heartbeat CPU 0 instructions: 91500508 cycles: 118948205 heartbeat IPC: 0.5198 cumulative IPC: 0.4018 (Simulation time: 00 hr 19 min 19 sec)
Heartbeat CPU 0 instructions: 92000508 cycles: 121797911 heartbeat IPC: 0.1755 cumulative IPC: 0.3957 (Simulation time: 00 hr 19 min 39 sec)
Heartbeat CPU 0 instructions: 92500508 cycles: 124000309 heartbeat IPC: 0.227 cumulative IPC: 0.3923 (Simulation time: 00 hr 19 min 55 sec)
Heartbeat CPU 0 instructions: 93000508 cycles: 125155603 heartbeat IPC: 0.4328 cumulative IPC: 0.3927 (Simulation time: 00 hr 20 min 04 sec)
Heartbeat CPU 0 instructions: 93500512 cycles: 127513798 heartbeat IPC: 0.212 cumulative IPC: 0.3889 (Simulation time: 00 hr 20 min 20 sec)
Heartbeat CPU 0 instructions: 94000512 cycles: 128666938 heartbeat IPC: 0.4336 cumulative IPC: 0.3893 (Simulation time: 00 hr 20 min 29 sec)
Heartbeat CPU 0 instructions: 94500513 cycles: 129384473 heartbeat IPC: 0.6968 cumulative IPC: 0.3913 (Simulation time: 00 hr 20 min 35 sec)
Heartbeat CPU 0 instructions: 95000516 cycles: 130677623 heartbeat IPC: 0.3867 cumulative IPC: 0.3912 (Simulation time: 00 hr 20 min 44 sec)
Heartbeat CPU 0 instructions: 95500519 cycles: 131591884 heartbeat IPC: 0.5469 cumulative IPC: 0.3925 (Simulation time: 00 hr 20 min 54 sec)
Heartbeat CPU 0 instructions: 96000526 cycles: 132115327 heartbeat IPC: 0.9552 cumulative IPC: 0.395 (Simulation time: 00 hr 21 min 01 sec)
Heartbeat CPU 0 instructions: 96500530 cycles: 132549825 heartbeat IPC: 1.151 cumulative IPC: 0.3978 (Simulation time: 00 hr 21 min 07 sec)
Heartbeat CPU 0 instructions: 97000533 cycles: 133032573 heartbeat IPC: 1.036 cumulative IPC: 0.4004 (Simulation time: 00 hr 21 min 14 sec)
Heartbeat CPU 0 instructions: 97500536 cycles: 133739757 heartbeat IPC: 0.707 cumulative IPC: 0.4023 (Simulation time: 00 hr 21 min 25 sec)
Heartbeat CPU 0 instructions: 98000543 cycles: 134307692 heartbeat IPC: 0.8804 cumulative IPC: 0.4045 (Simulation time: 00 hr 21 min 35 sec)
Heartbeat CPU 0 instructions: 98500544 cycles: 134792234 heartbeat IPC: 1.032 cumulative IPC: 0.4071 (Simulation time: 00 hr 21 min 41 sec)
Heartbeat CPU 0 instructions: 99000544 cycles: 135247854 heartbeat IPC: 1.097 cumulative IPC: 0.4097 (Simulation time: 00 hr 21 min 47 sec)
Heartbeat CPU 0 instructions: 99500551 cycles: 135689504 heartbeat IPC: 1.132 cumulative IPC: 0.4124 (Simulation time: 00 hr 21 min 52 sec)
Heartbeat CPU 0 instructions: 100000558 cycles: 136185396 heartbeat IPC: 1.008 cumulative IPC: 0.4148 (Simulation time: 00 hr 21 min 58 sec)
Heartbeat CPU 0 instructions: 100500558 cycles: 136817524 heartbeat IPC: 0.791 cumulative IPC: 0.4168 (Simulation time: 00 hr 22 min 03 sec)
Heartbeat CPU 0 instructions: 101000562 cycles: 139049239 heartbeat IPC: 0.224 cumulative IPC: 0.4133 (Simulation time: 00 hr 22 min 21 sec)
Heartbeat CPU 0 instructions: 101500563 cycles: 141780461 heartbeat IPC: 0.1831 cumulative IPC: 0.4083 (Simulation time: 00 hr 22 min 39 sec)
Heartbeat CPU 0 instructions: 102000563 cycles: 144035342 heartbeat IPC: 0.2217 cumulative IPC: 0.405 (Simulation time: 00 hr 22 min 53 sec)
Heartbeat CPU 0 instructions: 102500563 cycles: 145856090 heartbeat IPC: 0.2746 cumulative IPC: 0.4032 (Simulation time: 00 hr 23 min 06 sec)
Heartbeat CPU 0 instructions: 103000566 cycles: 146480107 heartbeat IPC: 0.8013 cumulative IPC: 0.4051 (Simulation time: 00 hr 23 min 12 sec)
Heartbeat CPU 0 instructions: 103500572 cycles: 147371330 heartbeat IPC: 0.561 cumulative IPC: 0.4062 (Simulation time: 00 hr 23 min 18 sec)
Heartbeat CPU 0 instructions: 104000576 cycles: 148735005 heartbeat IPC: 0.3667 cumulative IPC: 0.4058 (Simulation time: 00 hr 23 min 28 sec)
Heartbeat CPU 0 instructions: 104500576 cycles: 150856980 heartbeat IPC: 0.2356 cumulative IPC: 0.4031 (Simulation time: 00 hr 23 min 42 sec)
Heartbeat CPU 0 instructions: 105000576 cycles: 153377106 heartbeat IPC: 0.1984 cumulative IPC: 0.3994 (Simulation time: 00 hr 23 min 58 sec)
Heartbeat CPU 0 instructions: 105500576 cycles: 154820022 heartbeat IPC: 0.3465 cumulative IPC: 0.3988 (Simulation time: 00 hr 24 min 08 sec)
Heartbeat CPU 0 instructions: 106000579 cycles: 156506568 heartbeat IPC: 0.2965 cumulative IPC: 0.3976 (Simulation time: 00 hr 24 min 20 sec)
Heartbeat CPU 0 instructions: 106500579 cycles: 159182141 heartbeat IPC: 0.1869 cumulative IPC: 0.3937 (Simulation time: 00 hr 24 min 37 sec)
Heartbeat CPU 0 instructions: 107000583 cycles: 161118245 heartbeat IPC: 0.2583 cumulative IPC: 0.3919 (Simulation time: 00 hr 24 min 50 sec)
Heartbeat CPU 0 instructions: 107500589 cycles: 163338815 heartbeat IPC: 0.2252 cumulative IPC: 0.3893 (Simulation time: 00 hr 25 min 05 sec)
Heartbeat CPU 0 instructions: 108000593 cycles: 164886168 heartbeat IPC: 0.3231 cumulative IPC: 0.3887 (Simulation time: 00 hr 25 min 16 sec)
Heartbeat CPU 0 instructions: 108500595 cycles: 166789532 heartbeat IPC: 0.2627 cumulative IPC: 0.3871 (Simulation time: 00 hr 25 min 29 sec)
Heartbeat CPU 0 instructions: 109000602 cycles: 169522398 heartbeat IPC: 0.183 cumulative IPC: 0.3834 (Simulation time: 00 hr 25 min 47 sec)
Heartbeat CPU 0 instructions: 109500606 cycles: 171365328 heartbeat IPC: 0.2713 cumulative IPC: 0.3821 (Simulation time: 00 hr 25 min 59 sec)
Heartbeat CPU 0 instructions: 110000608 cycles: 173796548 heartbeat IPC: 0.2057 cumulative IPC: 0.3794 (Simulation time: 00 hr 26 min 15 sec)
Heartbeat CPU 0 instructions: 110500610 cycles: 175616800 heartbeat IPC: 0.2747 cumulative IPC: 0.3782 (Simulation time: 00 hr 26 min 27 sec)
Heartbeat CPU 0 instructions: 111000610 cycles: 177500041 heartbeat IPC: 0.2655 cumulative IPC: 0.3769 (Simulation time: 00 hr 26 min 39 sec)
Heartbeat CPU 0 instructions: 111500616 cycles: 179673347 heartbeat IPC: 0.2301 cumulative IPC: 0.375 (Simulation time: 00 hr 26 min 53 sec)
Heartbeat CPU 0 instructions: 112000618 cycles: 181191618 heartbeat IPC: 0.3293 cumulative IPC: 0.3745 (Simulation time: 00 hr 27 min 04 sec)
Heartbeat CPU 0 instructions: 112500621 cycles: 183180949 heartbeat IPC: 0.2513 cumulative IPC: 0.3731 (Simulation time: 00 hr 27 min 17 sec)
Heartbeat CPU 0 instructions: 113000625 cycles: 185054346 heartbeat IPC: 0.2669 cumulative IPC: 0.3719 (Simulation time: 00 hr 27 min 29 sec)
Heartbeat CPU 0 instructions: 113500625 cycles: 186208290 heartbeat IPC: 0.4333 cumulative IPC: 0.3723 (Simulation time: 00 hr 27 min 37 sec)
Heartbeat CPU 0 instructions: 114000627 cycles: 187777437 heartbeat IPC: 0.3186 cumulative IPC: 0.3718 (Simulation time: 00 hr 27 min 48 sec)
Heartbeat CPU 0 instructions: 114500629 cycles: 188808332 heartbeat IPC: 0.485 cumulative IPC: 0.3725 (Simulation time: 00 hr 27 min 55 sec)
Heartbeat CPU 0 instructions: 115000629 cycles: 190234683 heartbeat IPC: 0.3505 cumulative IPC: 0.3723 (Simulation time: 00 hr 28 min 05 sec)
Heartbeat CPU 0 instructions: 115500629 cycles: 191779661 heartbeat IPC: 0.3236 cumulative IPC: 0.3719 (Simulation time: 00 hr 28 min 16 sec)
Heartbeat CPU 0 instructions: 116000629 cycles: 192986458 heartbeat IPC: 0.4143 cumulative IPC: 0.3722 (Simulation time: 00 hr 28 min 25 sec)
Heartbeat CPU 0 instructions: 116500631 cycles: 193503174 heartbeat IPC: 0.9677 cumulative IPC: 0.3739 (Simulation time: 00 hr 28 min 30 sec)
Heartbeat CPU 0 instructions: 117000632 cycles: 193905352 heartbeat IPC: 1.243 cumulative IPC: 0.3759 (Simulation time: 00 hr 28 min 34 sec)
Heartbeat CPU 0 instructions: 117500633 cycles: 194263199 heartbeat IPC: 1.397 cumulative IPC: 0.3779 (Simulation time: 00 hr 28 min 38 sec)
Heartbeat CPU 0 instructions: 118000638 cycles: 194653638 heartbeat IPC: 1.281 cumulative IPC: 0.3799 (Simulation time: 00 hr 28 min 42 sec)
Heartbeat CPU 0 instructions: 118500645 cycles: 195324141 heartbeat IPC: 0.7457 cumulative IPC: 0.3813 (Simulation time: 00 hr 28 min 49 sec)
Heartbeat CPU 0 instructions: 119000652 cycles: 197152009 heartbeat IPC: 0.2735 cumulative IPC: 0.3802 (Simulation time: 00 hr 29 min 03 sec)
Heartbeat CPU 0 instructions: 119500652 cycles: 197691833 heartbeat IPC: 0.9262 cumulative IPC: 0.3818 (Simulation time: 00 hr 29 min 07 sec)
Heartbeat CPU 0 instructions: 120000659 cycles: 199511613 heartbeat IPC: 0.2748 cumulative IPC: 0.3807 (Simulation time: 00 hr 29 min 20 sec)
Heartbeat CPU 0 instructions: 120500661 cycles: 201774553 heartbeat IPC: 0.221 cumulative IPC: 0.3788 (Simulation time: 00 hr 29 min 34 sec)
Heartbeat CPU 0 instructions: 121000665 cycles: 203298455 heartbeat IPC: 0.3281 cumulative IPC: 0.3784 (Simulation time: 00 hr 29 min 44 sec)
Heartbeat CPU 0 instructions: 121500665 cycles: 203622447 heartbeat IPC: 1.543 cumulative IPC: 0.3804 (Simulation time: 00 hr 29 min 48 sec)
Heartbeat CPU 0 instructions: 122000668 cycles: 203873982 heartbeat IPC: 1.988 cumulative IPC: 0.3825 (Simulation time: 00 hr 29 min 51 sec)
Heartbeat CPU 0 instructions: 122500670 cycles: 204151428 heartbeat IPC: 1.802 cumulative IPC: 0.3846 (Simulation time: 00 hr 29 min 53 sec)
Heartbeat CPU 0 instructions: 123000670 cycles: 204762005 heartbeat IPC: 0.8189 cumulative IPC: 0.386 (Simulation time: 00 hr 29 min 58 sec)
Heartbeat CPU 0 instructions: 123500670 cycles: 207575835 heartbeat IPC: 0.1777 cumulative IPC: 0.383 (Simulation time: 00 hr 30 min 16 sec)
Heartbeat CPU 0 instructions: 124000677 cycles: 210376426 heartbeat IPC: 0.1785 cumulative IPC: 0.38 (Simulation time: 00 hr 30 min 35 sec)
Heartbeat CPU 0 instructions: 124500680 cycles: 212562929 heartbeat IPC: 0.2287 cumulative IPC: 0.3783 (Simulation time: 00 hr 30 min 50 sec)
Heartbeat CPU 0 instructions: 125000685 cycles: 214611733 heartbeat IPC: 0.244 cumulative IPC: 0.377 (Simulation time: 00 hr 31 min 03 sec)
Heartbeat CPU 0 instructions: 125500692 cycles: 216171786 heartbeat IPC: 0.3205 cumulative IPC: 0.3765 (Simulation time: 00 hr 31 min 14 sec)
Heartbeat CPU 0 instructions: 126000699 cycles: 217358087 heartbeat IPC: 0.4215 cumulative IPC: 0.3768 (Simulation time: 00 hr 31 min 22 sec)
Heartbeat CPU 0 instructions: 126500700 cycles: 217853002 heartbeat IPC: 1.01 cumulative IPC: 0.3783 (Simulation time: 00 hr 31 min 27 sec)
Heartbeat CPU 0 instructions: 127000702 cycles: 218185175 heartbeat IPC: 1.505 cumulative IPC: 0.3802 (Simulation time: 00 hr 31 min 30 sec)
Heartbeat CPU 0 instructions: 127500709 cycles: 218640825 heartbeat IPC: 1.097 cumulative IPC: 0.3818 (Simulation time: 00 hr 31 min 35 sec)
Heartbeat CPU 0 instructions: 128000713 cycles: 221032161 heartbeat IPC: 0.2091 cumulative IPC: 0.3798 (Simulation time: 00 hr 31 min 51 sec)
Heartbeat CPU 0 instructions: 128500714 cycles: 222384257 heartbeat IPC: 0.3698 cumulative IPC: 0.3797 (Simulation time: 00 hr 32 min 01 sec)
Heartbeat CPU 0 instructions: 129000714 cycles: 223214999 heartbeat IPC: 0.6019 cumulative IPC: 0.3806 (Simulation time: 00 hr 32 min 08 sec)
Heartbeat CPU 0 instructions: 129500718 cycles: 223820949 heartbeat IPC: 0.8252 cumulative IPC: 0.3819 (Simulation time: 00 hr 32 min 13 sec)
Heartbeat CPU 0 instructions: 130000723 cycles: 224419270 heartbeat IPC: 0.8357 cumulative IPC: 0.3832 (Simulation time: 00 hr 32 min 18 sec)
Heartbeat CPU 0 instructions: 130500725 cycles: 225072980 heartbeat IPC: 0.7649 cumulative IPC: 0.3844 (Simulation time: 00 hr 32 min 23 sec)
Heartbeat CPU 0 instructions: 131000729 cycles: 225778787 heartbeat IPC: 0.7084 cumulative IPC: 0.3855 (Simulation time: 00 hr 32 min 28 sec)
Heartbeat CPU 0 instructions: 131500730 cycles: 227939070 heartbeat IPC: 0.2315 cumulative IPC: 0.3839 (Simulation time: 00 hr 32 min 42 sec)
Heartbeat CPU 0 instructions: 132000732 cycles: 228125566 heartbeat IPC: 2.681 cumulative IPC: 0.3859 (Simulation time: 00 hr 32 min 45 sec)
Heartbeat CPU 0 instructions: 132500734 cycles: 228302656 heartbeat IPC: 2.823 cumulative IPC: 0.388 (Simulation time: 00 hr 32 min 48 sec)
Heartbeat CPU 0 instructions: 133000734 cycles: 230355998 heartbeat IPC: 0.2435 cumulative IPC: 0.3866 (Simulation time: 00 hr 33 min 02 sec)
Heartbeat CPU 0 instructions: 133500737 cycles: 232193496 heartbeat IPC: 0.2721 cumulative IPC: 0.3856 (Simulation time: 00 hr 33 min 13 sec)
Heartbeat CPU 0 instructions: 134000739 cycles: 234336325 heartbeat IPC: 0.2333 cumulative IPC: 0.3841 (Simulation time: 00 hr 33 min 26 sec)
Heartbeat CPU 0 instructions: 134500741 cycles: 236274406 heartbeat IPC: 0.258 cumulative IPC: 0.383 (Simulation time: 00 hr 33 min 39 sec)
Heartbeat CPU 0 instructions: 135000744 cycles: 238713461 heartbeat IPC: 0.205 cumulative IPC: 0.3811 (Simulation time: 00 hr 33 min 53 sec)
Heartbeat CPU 0 instructions: 135500744 cycles: 241241931 heartbeat IPC: 0.1977 cumulative IPC: 0.379 (Simulation time: 00 hr 34 min 08 sec)
Heartbeat CPU 0 instructions: 136000744 cycles: 243013420 heartbeat IPC: 0.2822 cumulative IPC: 0.3783 (Simulation time: 00 hr 34 min 19 sec)
Heartbeat CPU 0 instructions: 136500744 cycles: 244662308 heartbeat IPC: 0.3032 cumulative IPC: 0.3777 (Simulation time: 00 hr 34 min 30 sec)
Heartbeat CPU 0 instructions: 137000745 cycles: 246052334 heartbeat IPC: 0.3597 cumulative IPC: 0.3776 (Simulation time: 00 hr 34 min 39 sec)
Heartbeat CPU 0 instructions: 137500750 cycles: 246858066 heartbeat IPC: 0.6206 cumulative IPC: 0.3785 (Simulation time: 00 hr 34 min 45 sec)
Heartbeat CPU 0 instructions: 138000751 cycles: 248188514 heartbeat IPC: 0.3758 cumulative IPC: 0.3784 (Simulation time: 00 hr 34 min 53 sec)
Heartbeat CPU 0 instructions: 138500753 cycles: 249827433 heartbeat IPC: 0.3051 cumulative IPC: 0.3779 (Simulation time: 00 hr 35 min 04 sec)
Heartbeat CPU 0 instructions: 139000756 cycles: 252204451 heartbeat IPC: 0.2103 cumulative IPC: 0.3762 (Simulation time: 00 hr 35 min 18 sec)
Heartbeat CPU 0 instructions: 139500756 cycles: 254861729 heartbeat IPC: 0.1882 cumulative IPC: 0.3742 (Simulation time: 00 hr 35 min 34 sec)
Heartbeat CPU 0 instructions: 140000756 cycles: 257023559 heartbeat IPC: 0.2313 cumulative IPC: 0.3729 (Simulation time: 00 hr 35 min 47 sec)
Heartbeat CPU 0 instructions: 140500756 cycles: 258559583 heartbeat IPC: 0.3255 cumulative IPC: 0.3726 (Simulation time: 00 hr 35 min 57 sec)
Heartbeat CPU 0 instructions: 141000756 cycles: 260488434 heartbeat IPC: 0.2592 cumulative IPC: 0.3717 (Simulation time: 00 hr 36 min 09 sec)
Heartbeat CPU 0 instructions: 141500756 cycles: 261944803 heartbeat IPC: 0.3433 cumulative IPC: 0.3715 (Simulation time: 00 hr 36 min 18 sec)
Heartbeat CPU 0 instructions: 142000760 cycles: 262549265 heartbeat IPC: 0.8272 cumulative IPC: 0.3726 (Simulation time: 00 hr 36 min 23 sec)
Heartbeat CPU 0 instructions: 142500762 cycles: 264007527 heartbeat IPC: 0.3429 cumulative IPC: 0.3725 (Simulation time: 00 hr 36 min 32 sec)
Heartbeat CPU 0 instructions: 143000765 cycles: 266211488 heartbeat IPC: 0.2269 cumulative IPC: 0.3712 (Simulation time: 00 hr 36 min 44 sec)
Heartbeat CPU 0 instructions: 143500765 cycles: 267737638 heartbeat IPC: 0.3276 cumulative IPC: 0.3709 (Simulation time: 00 hr 36 min 54 sec)
Heartbeat CPU 0 instructions: 144000768 cycles: 270545121 heartbeat IPC: 0.1781 cumulative IPC: 0.3688 (Simulation time: 00 hr 37 min 11 sec)
Heartbeat CPU 0 instructions: 144500769 cycles: 272911505 heartbeat IPC: 0.2113 cumulative IPC: 0.3673 (Simulation time: 00 hr 37 min 25 sec)
Heartbeat CPU 0 instructions: 145000773 cycles: 274173087 heartbeat IPC: 0.3963 cumulative IPC: 0.3675 (Simulation time: 00 hr 37 min 33 sec)
Heartbeat CPU 0 instructions: 145500773 cycles: 274532303 heartbeat IPC: 1.392 cumulative IPC: 0.3689 (Simulation time: 00 hr 37 min 37 sec)
Heartbeat CPU 0 instructions: 146000775 cycles: 275345217 heartbeat IPC: 0.6151 cumulative IPC: 0.3697 (Simulation time: 00 hr 37 min 43 sec)
Heartbeat CPU 0 instructions: 146500777 cycles: 275983368 heartbeat IPC: 0.7835 cumulative IPC: 0.3707 (Simulation time: 00 hr 37 min 47 sec)
Heartbeat CPU 0 instructions: 147000780 cycles: 276987160 heartbeat IPC: 0.4981 cumulative IPC: 0.3712 (Simulation time: 00 hr 37 min 54 sec)
Heartbeat CPU 0 instructions: 147500781 cycles: 278343052 heartbeat IPC: 0.3688 cumulative IPC: 0.3712 (Simulation time: 00 hr 38 min 03 sec)
Heartbeat CPU 0 instructions: 148000781 cycles: 281378884 heartbeat IPC: 0.1647 cumulative IPC: 0.3688 (Simulation time: 00 hr 38 min 21 sec)
Heartbeat CPU 0 instructions: 148500783 cycles: 283176315 heartbeat IPC: 0.2782 cumulative IPC: 0.3682 (Simulation time: 00 hr 38 min 32 sec)
Heartbeat CPU 0 instructions: 149000789 cycles: 284335986 heartbeat IPC: 0.4312 cumulative IPC: 0.3685 (Simulation time: 00 hr 38 min 40 sec)
Heartbeat CPU 0 instructions: 149500793 cycles: 284735852 heartbeat IPC: 1.25 cumulative IPC: 0.3698 (Simulation time: 00 hr 38 min 44 sec)
Heartbeat CPU 0 instructions: 150000799 cycles: 285131010 heartbeat IPC: 1.265 cumulative IPC: 0.3711 (Simulation time: 00 hr 38 min 48 sec)
Heartbeat CPU 0 instructions: 150500806 cycles: 285497832 heartbeat IPC: 1.363 cumulative IPC: 0.3724 (Simulation time: 00 hr 38 min 51 sec)
Heartbeat CPU 0 instructions: 151000807 cycles: 286857684 heartbeat IPC: 0.3677 cumulative IPC: 0.3724 (Simulation time: 00 hr 39 min 00 sec)
Heartbeat CPU 0 instructions: 151500813 cycles: 288555673 heartbeat IPC: 0.2945 cumulative IPC: 0.3719 (Simulation time: 00 hr 39 min 11 sec)
Heartbeat CPU 0 instructions: 152000816 cycles: 289077571 heartbeat IPC: 0.958 cumulative IPC: 0.373 (Simulation time: 00 hr 39 min 15 sec)
Heartbeat CPU 0 instructions: 152500816 cycles: 290751185 heartbeat IPC: 0.2988 cumulative IPC: 0.3726 (Simulation time: 00 hr 39 min 27 sec)
Heartbeat CPU 0 instructions: 153000816 cycles: 293454316 heartbeat IPC: 0.185 cumulative IPC: 0.3708 (Simulation time: 00 hr 39 min 43 sec)
Heartbeat CPU 0 instructions: 153500821 cycles: 295830281 heartbeat IPC: 0.2104 cumulative IPC: 0.3694 (Simulation time: 00 hr 39 min 57 sec)
Heartbeat CPU 0 instructions: 154000822 cycles: 297353954 heartbeat IPC: 0.3282 cumulative IPC: 0.3692 (Simulation time: 00 hr 40 min 07 sec)
Heartbeat CPU 0 instructions: 154500825 cycles: 298751384 heartbeat IPC: 0.3578 cumulative IPC: 0.3691 (Simulation time: 00 hr 40 min 16 sec)
Heartbeat CPU 0 instructions: 155000831 cycles: 300332901 heartbeat IPC: 0.3162 cumulative IPC: 0.3688 (Simulation time: 00 hr 40 min 25 sec)
Heartbeat CPU 0 instructions: 155500832 cycles: 302217671 heartbeat IPC: 0.2653 cumulative IPC: 0.3682 (Simulation time: 00 hr 40 min 36 sec)
Heartbeat CPU 0 instructions: 156000832 cycles: 302772983 heartbeat IPC: 0.9004 cumulative IPC: 0.3692 (Simulation time: 00 hr 40 min 41 sec)
Heartbeat CPU 0 instructions: 156500832 cycles: 304363455 heartbeat IPC: 0.3144 cumulative IPC: 0.3689 (Simulation time: 00 hr 40 min 51 sec)
Heartbeat CPU 0 instructions: 157000833 cycles: 305308479 heartbeat IPC: 0.5291 cumulative IPC: 0.3694 (Simulation time: 00 hr 40 min 58 sec)
Heartbeat CPU 0 instructions: 157500834 cycles: 305672244 heartbeat IPC: 1.375 cumulative IPC: 0.3707 (Simulation time: 00 hr 41 min 01 sec)
Heartbeat CPU 0 instructions: 158000841 cycles: 306085961 heartbeat IPC: 1.209 cumulative IPC: 0.3719 (Simulation time: 00 hr 41 min 05 sec)
Heartbeat CPU 0 instructions: 158500841 cycles: 306446058 heartbeat IPC: 1.389 cumulative IPC: 0.3731 (Simulation time: 00 hr 41 min 08 sec)
Heartbeat CPU 0 instructions: 159000845 cycles: 307042083 heartbeat IPC: 0.8389 cumulative IPC: 0.3741 (Simulation time: 00 hr 41 min 14 sec)
Heartbeat CPU 0 instructions: 159500846 cycles: 308739877 heartbeat IPC: 0.2945 cumulative IPC: 0.3736 (Simulation time: 00 hr 41 min 25 sec)
Heartbeat CPU 0 instructions: 160000853 cycles: 309483494 heartbeat IPC: 0.6724 cumulative IPC: 0.3744 (Simulation time: 00 hr 41 min 30 sec)
Heartbeat CPU 0 instructions: 160500855 cycles: 310407732 heartbeat IPC: 0.541 cumulative IPC: 0.3749 (Simulation time: 00 hr 41 min 36 sec)
Heartbeat CPU 0 instructions: 161000860 cycles: 311031570 heartbeat IPC: 0.8015 cumulative IPC: 0.3758 (Simulation time: 00 hr 41 min 41 sec)
Heartbeat CPU 0 instructions: 161500866 cycles: 311375217 heartbeat IPC: 1.455 cumulative IPC: 0.377 (Simulation time: 00 hr 41 min 44 sec)
Heartbeat CPU 0 instructions: 162000871 cycles: 311728316 heartbeat IPC: 1.416 cumulative IPC: 0.3783 (Simulation time: 00 hr 41 min 48 sec)
Heartbeat CPU 0 instructions: 162500872 cycles: 312113937 heartbeat IPC: 1.297 cumulative IPC: 0.3795 (Simulation time: 00 hr 41 min 51 sec)
Heartbeat CPU 0 instructions: 163000877 cycles: 314066153 heartbeat IPC: 0.2561 cumulative IPC: 0.3787 (Simulation time: 00 hr 42 min 04 sec)
Heartbeat CPU 0 instructions: 163500881 cycles: 316289678 heartbeat IPC: 0.2249 cumulative IPC: 0.3775 (Simulation time: 00 hr 42 min 18 sec)
Heartbeat CPU 0 instructions: 164000887 cycles: 318363201 heartbeat IPC: 0.2411 cumulative IPC: 0.3766 (Simulation time: 00 hr 42 min 30 sec)
Heartbeat CPU 0 instructions: 164500887 cycles: 320545243 heartbeat IPC: 0.2291 cumulative IPC: 0.3755 (Simulation time: 00 hr 42 min 42 sec)
Heartbeat CPU 0 instructions: 165000893 cycles: 322727287 heartbeat IPC: 0.2291 cumulative IPC: 0.3745 (Simulation time: 00 hr 42 min 54 sec)
Heartbeat CPU 0 instructions: 165500894 cycles: 324850857 heartbeat IPC: 0.2355 cumulative IPC: 0.3736 (Simulation time: 00 hr 43 min 08 sec)
Heartbeat CPU 0 instructions: 166000894 cycles: 325898205 heartbeat IPC: 0.4774 cumulative IPC: 0.3739 (Simulation time: 00 hr 43 min 16 sec)
Heartbeat CPU 0 instructions: 166500896 cycles: 328623113 heartbeat IPC: 0.1835 cumulative IPC: 0.3722 (Simulation time: 00 hr 43 min 32 sec)
Heartbeat CPU 0 instructions: 167000900 cycles: 330841639 heartbeat IPC: 0.2254 cumulative IPC: 0.3712 (Simulation time: 00 hr 43 min 45 sec)
Heartbeat CPU 0 instructions: 167500902 cycles: 331515274 heartbeat IPC: 0.7422 cumulative IPC: 0.372 (Simulation time: 00 hr 43 min 50 sec)
Heartbeat CPU 0 instructions: 168000903 cycles: 333831734 heartbeat IPC: 0.2158 cumulative IPC: 0.3709 (Simulation time: 00 hr 44 min 03 sec)
Heartbeat CPU 0 instructions: 168500907 cycles: 335081582 heartbeat IPC: 0.4001 cumulative IPC: 0.371 (Simulation time: 00 hr 44 min 10 sec)
Heartbeat CPU 0 instructions: 169000908 cycles: 337692005 heartbeat IPC: 0.1915 cumulative IPC: 0.3695 (Simulation time: 00 hr 44 min 25 sec)
Heartbeat CPU 0 instructions: 169500911 cycles: 339008885 heartbeat IPC: 0.3797 cumulative IPC: 0.3696 (Simulation time: 00 hr 44 min 33 sec)
Heartbeat CPU 0 instructions: 170000913 cycles: 340852562 heartbeat IPC: 0.2712 cumulative IPC: 0.369 (Simulation time: 00 hr 44 min 43 sec)
Heartbeat CPU 0 instructions: 170500913 cycles: 342899171 heartbeat IPC: 0.2443 cumulative IPC: 0.3682 (Simulation time: 00 hr 44 min 55 sec)
Heartbeat CPU 0 instructions: 171000920 cycles: 344531933 heartbeat IPC: 0.3062 cumulative IPC: 0.3679 (Simulation time: 00 hr 45 min 05 sec)
Heartbeat CPU 0 instructions: 171500920 cycles: 345314554 heartbeat IPC: 0.6389 cumulative IPC: 0.3686 (Simulation time: 00 hr 45 min 10 sec)
Heartbeat CPU 0 instructions: 172000921 cycles: 347259414 heartbeat IPC: 0.2571 cumulative IPC: 0.3679 (Simulation time: 00 hr 45 min 21 sec)
Heartbeat CPU 0 instructions: 172500924 cycles: 349325851 heartbeat IPC: 0.242 cumulative IPC: 0.3671 (Simulation time: 00 hr 45 min 32 sec)
Heartbeat CPU 0 instructions: 173000930 cycles: 350756901 heartbeat IPC: 0.3494 cumulative IPC: 0.3671 (Simulation time: 00 hr 45 min 41 sec)
Heartbeat CPU 0 instructions: 173500930 cycles: 352802456 heartbeat IPC: 0.2444 cumulative IPC: 0.3663 (Simulation time: 00 hr 45 min 52 sec)
Heartbeat CPU 0 instructions: 174000932 cycles: 355335321 heartbeat IPC: 0.1974 cumulative IPC: 0.3651 (Simulation time: 00 hr 46 min 06 sec)
Heartbeat CPU 0 instructions: 174500932 cycles: 357008447 heartbeat IPC: 0.2988 cumulative IPC: 0.3647 (Simulation time: 00 hr 46 min 15 sec)
Heartbeat CPU 0 instructions: 175000939 cycles: 358411448 heartbeat IPC: 0.3564 cumulative IPC: 0.3647 (Simulation time: 00 hr 46 min 24 sec)
Heartbeat CPU 0 instructions: 175500940 cycles: 360265445 heartbeat IPC: 0.2697 cumulative IPC: 0.3642 (Simulation time: 00 hr 46 min 34 sec)
Heartbeat CPU 0 instructions: 176000942 cycles: 362586706 heartbeat IPC: 0.2154 cumulative IPC: 0.3632 (Simulation time: 00 hr 46 min 47 sec)
Heartbeat CPU 0 instructions: 176500945 cycles: 363755226 heartbeat IPC: 0.4279 cumulative IPC: 0.3634 (Simulation time: 00 hr 46 min 54 sec)
Heartbeat CPU 0 instructions: 177000952 cycles: 365274882 heartbeat IPC: 0.329 cumulative IPC: 0.3633 (Simulation time: 00 hr 47 min 03 sec)
Heartbeat CPU 0 instructions: 177500952 cycles: 366844298 heartbeat IPC: 0.3186 cumulative IPC: 0.3631 (Simulation time: 00 hr 47 min 12 sec)
Heartbeat CPU 0 instructions: 178000952 cycles: 369494631 heartbeat IPC: 0.1887 cumulative IPC: 0.3617 (Simulation time: 00 hr 47 min 27 sec)
Heartbeat CPU 0 instructions: 178500953 cycles: 370642598 heartbeat IPC: 0.4356 cumulative IPC: 0.362 (Simulation time: 00 hr 47 min 35 sec)
Heartbeat CPU 0 instructions: 179000953 cycles: 372187896 heartbeat IPC: 0.3236 cumulative IPC: 0.3618 (Simulation time: 00 hr 47 min 44 sec)
Heartbeat CPU 0 instructions: 179500953 cycles: 374675304 heartbeat IPC: 0.201 cumulative IPC: 0.3607 (Simulation time: 00 hr 47 min 58 sec)
Heartbeat CPU 0 instructions: 180000957 cycles: 376877251 heartbeat IPC: 0.2271 cumulative IPC: 0.3599 (Simulation time: 00 hr 48 min 10 sec)
Heartbeat CPU 0 instructions: 180500958 cycles: 379127597 heartbeat IPC: 0.2222 cumulative IPC: 0.359 (Simulation time: 00 hr 48 min 23 sec)
Heartbeat CPU 0 instructions: 181000961 cycles: 381282896 heartbeat IPC: 0.232 cumulative IPC: 0.3583 (Simulation time: 00 hr 48 min 34 sec)
Heartbeat CPU 0 instructions: 181500961 cycles: 383592555 heartbeat IPC: 0.2165 cumulative IPC: 0.3574 (Simulation time: 00 hr 48 min 47 sec)
Heartbeat CPU 0 instructions: 182000962 cycles: 385649905 heartbeat IPC: 0.243 cumulative IPC: 0.3568 (Simulation time: 00 hr 48 min 58 sec)
Heartbeat CPU 0 instructions: 182500964 cycles: 386984283 heartbeat IPC: 0.3747 cumulative IPC: 0.3568 (Simulation time: 00 hr 49 min 06 sec)
Heartbeat CPU 0 instructions: 183000965 cycles: 388814455 heartbeat IPC: 0.2732 cumulative IPC: 0.3564 (Simulation time: 00 hr 49 min 16 sec)
Heartbeat CPU 0 instructions: 183500966 cycles: 391415813 heartbeat IPC: 0.1922 cumulative IPC: 0.3553 (Simulation time: 00 hr 49 min 30 sec)
Heartbeat CPU 0 instructions: 184000966 cycles: 393694786 heartbeat IPC: 0.2194 cumulative IPC: 0.3545 (Simulation time: 00 hr 49 min 42 sec)
Heartbeat CPU 0 instructions: 184500967 cycles: 395158508 heartbeat IPC: 0.3416 cumulative IPC: 0.3544 (Simulation time: 00 hr 49 min 50 sec)
Heartbeat CPU 0 instructions: 185000967 cycles: 397147868 heartbeat IPC: 0.2513 cumulative IPC: 0.3539 (Simulation time: 00 hr 50 min 01 sec)
Heartbeat CPU 0 instructions: 185500967 cycles: 398844443 heartbeat IPC: 0.2947 cumulative IPC: 0.3536 (Simulation time: 00 hr 50 min 10 sec)
Heartbeat CPU 0 instructions: 186000968 cycles: 400179888 heartbeat IPC: 0.3744 cumulative IPC: 0.3537 (Simulation time: 00 hr 50 min 18 sec)
Heartbeat CPU 0 instructions: 186500971 cycles: 401657844 heartbeat IPC: 0.3383 cumulative IPC: 0.3536 (Simulation time: 00 hr 50 min 26 sec)
Heartbeat CPU 0 instructions: 187000976 cycles: 404240798 heartbeat IPC: 0.1936 cumulative IPC: 0.3526 (Simulation time: 00 hr 50 min 40 sec)
Heartbeat CPU 0 instructions: 187500976 cycles: 406349147 heartbeat IPC: 0.2372 cumulative IPC: 0.3519 (Simulation time: 00 hr 50 min 51 sec)
Heartbeat CPU 0 instructions: 188000979 cycles: 408475107 heartbeat IPC: 0.2352 cumulative IPC: 0.3513 (Simulation time: 00 hr 51 min 02 sec)
Heartbeat CPU 0 instructions: 188500983 cycles: 410245593 heartbeat IPC: 0.2824 cumulative IPC: 0.351 (Simulation time: 00 hr 51 min 12 sec)
Heartbeat CPU 0 instructions: 189000985 cycles: 410710864 heartbeat IPC: 1.075 cumulative IPC: 0.3519 (Simulation time: 00 hr 51 min 15 sec)
Heartbeat CPU 0 instructions: 189500986 cycles: 412378319 heartbeat IPC: 0.2999 cumulative IPC: 0.3516 (Simulation time: 00 hr 51 min 25 sec)
Heartbeat CPU 0 instructions: 190000986 cycles: 414672272 heartbeat IPC: 0.218 cumulative IPC: 0.3509 (Simulation time: 00 hr 51 min 37 sec)
Heartbeat CPU 0 instructions: 190500992 cycles: 416892609 heartbeat IPC: 0.2252 cumulative IPC: 0.3502 (Simulation time: 00 hr 51 min 49 sec)
Heartbeat CPU 0 instructions: 191000993 cycles: 417801527 heartbeat IPC: 0.5501 cumulative IPC: 0.3506 (Simulation time: 00 hr 51 min 55 sec)
Heartbeat CPU 0 instructions: 191500995 cycles: 418786446 heartbeat IPC: 0.5077 cumulative IPC: 0.351 (Simulation time: 00 hr 52 min 01 sec)
Heartbeat CPU 0 instructions: 192000995 cycles: 420761573 heartbeat IPC: 0.2531 cumulative IPC: 0.3505 (Simulation time: 00 hr 52 min 12 sec)
Heartbeat CPU 0 instructions: 192500998 cycles: 422366765 heartbeat IPC: 0.3115 cumulative IPC: 0.3504 (Simulation time: 00 hr 52 min 21 sec)
Heartbeat CPU 0 instructions: 193001000 cycles: 423405110 heartbeat IPC: 0.4815 cumulative IPC: 0.3507 (Simulation time: 00 hr 52 min 28 sec)
Heartbeat CPU 0 instructions: 193501001 cycles: 424099344 heartbeat IPC: 0.7202 cumulative IPC: 0.3513 (Simulation time: 00 hr 52 min 32 sec)
Heartbeat CPU 0 instructions: 194001005 cycles: 425506884 heartbeat IPC: 0.3552 cumulative IPC: 0.3513 (Simulation time: 00 hr 52 min 40 sec)
Heartbeat CPU 0 instructions: 194501007 cycles: 426553594 heartbeat IPC: 0.4777 cumulative IPC: 0.3517 (Simulation time: 00 hr 52 min 47 sec)
Heartbeat CPU 0 instructions: 195001007 cycles: 428931363 heartbeat IPC: 0.2103 cumulative IPC: 0.3509 (Simulation time: 00 hr 53 min 00 sec)
Heartbeat CPU 0 instructions: 195501009 cycles: 429974785 heartbeat IPC: 0.4792 cumulative IPC: 0.3512 (Simulation time: 00 hr 53 min 07 sec)
Heartbeat CPU 0 instructions: 196001016 cycles: 431317979 heartbeat IPC: 0.3723 cumulative IPC: 0.3512 (Simulation time: 00 hr 53 min 15 sec)
Heartbeat CPU 0 instructions: 196501016 cycles: 433813462 heartbeat IPC: 0.2004 cumulative IPC: 0.3503 (Simulation time: 00 hr 53 min 29 sec)
Heartbeat CPU 0 instructions: 197001023 cycles: 435369444 heartbeat IPC: 0.3213 cumulative IPC: 0.3502 (Simulation time: 00 hr 53 min 39 sec)
Heartbeat CPU 0 instructions: 197501024 cycles: 437879493 heartbeat IPC: 0.1992 cumulative IPC: 0.3493 (Simulation time: 00 hr 53 min 52 sec)
Heartbeat CPU 0 instructions: 198001024 cycles: 439355169 heartbeat IPC: 0.3388 cumulative IPC: 0.3493 (Simulation time: 00 hr 54 min 01 sec)
Heartbeat CPU 0 instructions: 198501029 cycles: 442337972 heartbeat IPC: 0.1676 cumulative IPC: 0.348 (Simulation time: 00 hr 54 min 17 sec)
Heartbeat CPU 0 instructions: 199001031 cycles: 444816150 heartbeat IPC: 0.2018 cumulative IPC: 0.3472 (Simulation time: 00 hr 54 min 30 sec)
Heartbeat CPU 0 instructions: 199501034 cycles: 446039839 heartbeat IPC: 0.4086 cumulative IPC: 0.3474 (Simulation time: 00 hr 54 min 38 sec)
Heartbeat CPU 0 instructions: 200001041 cycles: 448326761 heartbeat IPC: 0.2186 cumulative IPC: 0.3467 (Simulation time: 00 hr 54 min 49 sec)
Heartbeat CPU 0 instructions: 200501046 cycles: 449895464 heartbeat IPC: 0.3187 cumulative IPC: 0.3466 (Simulation time: 00 hr 54 min 59 sec)
Heartbeat CPU 0 instructions: 201001046 cycles: 451873002 heartbeat IPC: 0.2528 cumulative IPC: 0.3462 (Simulation time: 00 hr 55 min 09 sec)
Heartbeat CPU 0 instructions: 201501052 cycles: 454175744 heartbeat IPC: 0.2171 cumulative IPC: 0.3455 (Simulation time: 00 hr 55 min 22 sec)
Heartbeat CPU 0 instructions: 202001052 cycles: 455926352 heartbeat IPC: 0.2856 cumulative IPC: 0.3452 (Simulation time: 00 hr 55 min 32 sec)
Heartbeat CPU 0 instructions: 202501058 cycles: 457714232 heartbeat IPC: 0.2797 cumulative IPC: 0.345 (Simulation time: 00 hr 55 min 42 sec)
Heartbeat CPU 0 instructions: 203001062 cycles: 459526635 heartbeat IPC: 0.2759 cumulative IPC: 0.3447 (Simulation time: 00 hr 55 min 52 sec)
Heartbeat CPU 0 instructions: 203501062 cycles: 461143819 heartbeat IPC: 0.3092 cumulative IPC: 0.3446 (Simulation time: 00 hr 56 min 01 sec)
Heartbeat CPU 0 instructions: 204001063 cycles: 464187818 heartbeat IPC: 0.1643 cumulative IPC: 0.3433 (Simulation time: 00 hr 56 min 17 sec)
Heartbeat CPU 0 instructions: 204501063 cycles: 466635629 heartbeat IPC: 0.2043 cumulative IPC: 0.3426 (Simulation time: 00 hr 56 min 31 sec)
Heartbeat CPU 0 instructions: 205001063 cycles: 468542116 heartbeat IPC: 0.2623 cumulative IPC: 0.3422 (Simulation time: 00 hr 56 min 41 sec)
Heartbeat CPU 0 instructions: 205501063 cycles: 469700694 heartbeat IPC: 0.4316 cumulative IPC: 0.3425 (Simulation time: 00 hr 56 min 48 sec)
Heartbeat CPU 0 instructions: 206001066 cycles: 471138036 heartbeat IPC: 0.3479 cumulative IPC: 0.3425 (Simulation time: 00 hr 56 min 56 sec)
Heartbeat CPU 0 instructions: 206501073 cycles: 473070717 heartbeat IPC: 0.2587 cumulative IPC: 0.3421 (Simulation time: 00 hr 57 min 07 sec)
Heartbeat CPU 0 instructions: 207001077 cycles: 475522762 heartbeat IPC: 0.2039 cumulative IPC: 0.3414 (Simulation time: 00 hr 57 min 20 sec)
Heartbeat CPU 0 instructions: 207501078 cycles: 477268044 heartbeat IPC: 0.2865 cumulative IPC: 0.3412 (Simulation time: 00 hr 57 min 30 sec)
Heartbeat CPU 0 instructions: 208001078 cycles: 478177331 heartbeat IPC: 0.5499 cumulative IPC: 0.3416 (Simulation time: 00 hr 57 min 35 sec)
Heartbeat CPU 0 instructions: 208501083 cycles: 479301013 heartbeat IPC: 0.445 cumulative IPC: 0.3419 (Simulation time: 00 hr 57 min 42 sec)
Heartbeat CPU 0 instructions: 209001083 cycles: 479757311 heartbeat IPC: 1.096 cumulative IPC: 0.3426 (Simulation time: 00 hr 57 min 45 sec)
Heartbeat CPU 0 instructions: 209501083 cycles: 482201136 heartbeat IPC: 0.2046 cumulative IPC: 0.3419 (Simulation time: 00 hr 57 min 58 sec)
Heartbeat CPU 0 instructions: 210001083 cycles: 484419089 heartbeat IPC: 0.2254 cumulative IPC: 0.3413 (Simulation time: 00 hr 58 min 10 sec)
Heartbeat CPU 0 instructions: 210501083 cycles: 485398286 heartbeat IPC: 0.5106 cumulative IPC: 0.3417 (Simulation time: 00 hr 58 min 16 sec)
Heartbeat CPU 0 instructions: 211001084 cycles: 487699162 heartbeat IPC: 0.2173 cumulative IPC: 0.3411 (Simulation time: 00 hr 58 min 29 sec)
Heartbeat CPU 0 instructions: 211501085 cycles: 488303761 heartbeat IPC: 0.827 cumulative IPC: 0.3417 (Simulation time: 00 hr 58 min 34 sec)
Heartbeat CPU 0 instructions: 212001085 cycles: 488821490 heartbeat IPC: 0.9658 cumulative IPC: 0.3424 (Simulation time: 00 hr 58 min 38 sec)
Heartbeat CPU 0 instructions: 212501086 cycles: 489257187 heartbeat IPC: 1.148 cumulative IPC: 0.3431 (Simulation time: 00 hr 58 min 42 sec)
Heartbeat CPU 0 instructions: 213001086 cycles: 489585955 heartbeat IPC: 1.521 cumulative IPC: 0.3439 (Simulation time: 00 hr 58 min 45 sec)
Heartbeat CPU 0 instructions: 213501089 cycles: 490390437 heartbeat IPC: 0.6215 cumulative IPC: 0.3444 (Simulation time: 00 hr 58 min 50 sec)
Heartbeat CPU 0 instructions: 214001096 cycles: 492768055 heartbeat IPC: 0.2103 cumulative IPC: 0.3437 (Simulation time: 00 hr 59 min 04 sec)
Heartbeat CPU 0 instructions: 214501103 cycles: 493759368 heartbeat IPC: 0.5044 cumulative IPC: 0.3441 (Simulation time: 00 hr 59 min 11 sec)
Heartbeat CPU 0 instructions: 215001103 cycles: 495555685 heartbeat IPC: 0.2783 cumulative IPC: 0.3438 (Simulation time: 00 hr 59 min 21 sec)
Heartbeat CPU 0 instructions: 215501105 cycles: 498578660 heartbeat IPC: 0.1654 cumulative IPC: 0.3427 (Simulation time: 00 hr 59 min 38 sec)
Heartbeat CPU 0 instructions: 216001105 cycles: 500793873 heartbeat IPC: 0.2257 cumulative IPC: 0.3422 (Simulation time: 00 hr 59 min 50 sec)
Heartbeat CPU 0 instructions: 216501105 cycles: 502949683 heartbeat IPC: 0.2319 cumulative IPC: 0.3417 (Simulation time: 01 hr 00 min 02 sec)
Heartbeat CPU 0 instructions: 217001106 cycles: 504571295 heartbeat IPC: 0.3083 cumulative IPC: 0.3416 (Simulation time: 01 hr 00 min 11 sec)
Heartbeat CPU 0 instructions: 217501106 cycles: 506515873 heartbeat IPC: 0.2571 cumulative IPC: 0.3412 (Simulation time: 01 hr 00 min 22 sec)
Heartbeat CPU 0 instructions: 218001107 cycles: 507524471 heartbeat IPC: 0.4957 cumulative IPC: 0.3416 (Simulation time: 01 hr 00 min 28 sec)
Heartbeat CPU 0 instructions: 218501109 cycles: 509005858 heartbeat IPC: 0.3375 cumulative IPC: 0.3415 (Simulation time: 01 hr 00 min 36 sec)
Heartbeat CPU 0 instructions: 219001112 cycles: 511079286 heartbeat IPC: 0.2411 cumulative IPC: 0.3411 (Simulation time: 01 hr 00 min 47 sec)
Heartbeat CPU 0 instructions: 219501116 cycles: 511985398 heartbeat IPC: 0.5518 cumulative IPC: 0.3415 (Simulation time: 01 hr 00 min 53 sec)
Heartbeat CPU 0 instructions: 220001116 cycles: 512345140 heartbeat IPC: 1.39 cumulative IPC: 0.3423 (Simulation time: 01 hr 00 min 56 sec)
Heartbeat CPU 0 instructions: 220501117 cycles: 512654112 heartbeat IPC: 1.618 cumulative IPC: 0.3431 (Simulation time: 01 hr 00 min 59 sec)
Heartbeat CPU 0 instructions: 221001120 cycles: 512977794 heartbeat IPC: 1.545 cumulative IPC: 0.3438 (Simulation time: 01 hr 01 min 02 sec)
Heartbeat CPU 0 instructions: 221501124 cycles: 513270600 heartbeat IPC: 1.708 cumulative IPC: 0.3446 (Simulation time: 01 hr 01 min 05 sec)
Heartbeat CPU 0 instructions: 222001124 cycles: 514779940 heartbeat IPC: 0.3313 cumulative IPC: 0.3446 (Simulation time: 01 hr 01 min 13 sec)
Heartbeat CPU 0 instructions: 222501126 cycles: 515527032 heartbeat IPC: 0.6693 cumulative IPC: 0.3451 (Simulation time: 01 hr 01 min 19 sec)
Heartbeat CPU 0 instructions: 223001126 cycles: 515888507 heartbeat IPC: 1.383 cumulative IPC: 0.3458 (Simulation time: 01 hr 01 min 22 sec)
Heartbeat CPU 0 instructions: 223501130 cycles: 516279646 heartbeat IPC: 1.278 cumulative IPC: 0.3466 (Simulation time: 01 hr 01 min 25 sec)
Heartbeat CPU 0 instructions: 224001130 cycles: 516838632 heartbeat IPC: 0.8945 cumulative IPC: 0.3472 (Simulation time: 01 hr 01 min 30 sec)
Heartbeat CPU 0 instructions: 224501130 cycles: 518219382 heartbeat IPC: 0.3621 cumulative IPC: 0.3472 (Simulation time: 01 hr 01 min 38 sec)
Heartbeat CPU 0 instructions: 225001130 cycles: 519164760 heartbeat IPC: 0.5289 cumulative IPC: 0.3476 (Simulation time: 01 hr 01 min 45 sec)
Heartbeat CPU 0 instructions: 225501130 cycles: 519613419 heartbeat IPC: 1.114 cumulative IPC: 0.3482 (Simulation time: 01 hr 01 min 49 sec)
Heartbeat CPU 0 instructions: 226001130 cycles: 519943346 heartbeat IPC: 1.515 cumulative IPC: 0.349 (Simulation time: 01 hr 01 min 52 sec)
Heartbeat CPU 0 instructions: 226501132 cycles: 520517521 heartbeat IPC: 0.8708 cumulative IPC: 0.3496 (Simulation time: 01 hr 01 min 56 sec)
Heartbeat CPU 0 instructions: 227001137 cycles: 521803218 heartbeat IPC: 0.3889 cumulative IPC: 0.3497 (Simulation time: 01 hr 02 min 06 sec)
Heartbeat CPU 0 instructions: 227501143 cycles: 522588469 heartbeat IPC: 0.6367 cumulative IPC: 0.3501 (Simulation time: 01 hr 02 min 11 sec)
Heartbeat CPU 0 instructions: 228001150 cycles: 525552901 heartbeat IPC: 0.1687 cumulative IPC: 0.3491 (Simulation time: 01 hr 02 min 28 sec)
Heartbeat CPU 0 instructions: 228501154 cycles: 526287890 heartbeat IPC: 0.6803 cumulative IPC: 0.3496 (Simulation time: 01 hr 02 min 33 sec)
Heartbeat CPU 0 instructions: 229001155 cycles: 528253269 heartbeat IPC: 0.2544 cumulative IPC: 0.3492 (Simulation time: 01 hr 02 min 44 sec)
Heartbeat CPU 0 instructions: 229501156 cycles: 529589976 heartbeat IPC: 0.3741 cumulative IPC: 0.3493 (Simulation time: 01 hr 02 min 51 sec)
Heartbeat CPU 0 instructions: 230001158 cycles: 531649270 heartbeat IPC: 0.2428 cumulative IPC: 0.3488 (Simulation time: 01 hr 03 min 02 sec)
Heartbeat CPU 0 instructions: 230501158 cycles: 532518459 heartbeat IPC: 0.5752 cumulative IPC: 0.3492 (Simulation time: 01 hr 03 min 08 sec)
Heartbeat CPU 0 instructions: 231001161 cycles: 533170137 heartbeat IPC: 0.7673 cumulative IPC: 0.3497 (Simulation time: 01 hr 03 min 12 sec)
Heartbeat CPU 0 instructions: 231501166 cycles: 533596278 heartbeat IPC: 1.173 cumulative IPC: 0.3504 (Simulation time: 01 hr 03 min 16 sec)
Heartbeat CPU 0 instructions: 232001169 cycles: 534026696 heartbeat IPC: 1.162 cumulative IPC: 0.3511 (Simulation time: 01 hr 03 min 19 sec)
Heartbeat CPU 0 instructions: 232501169 cycles: 536281660 heartbeat IPC: 0.2217 cumulative IPC: 0.3505 (Simulation time: 01 hr 03 min 32 sec)
Heartbeat CPU 0 instructions: 233001171 cycles: 537057923 heartbeat IPC: 0.6441 cumulative IPC: 0.351 (Simulation time: 01 hr 03 min 38 sec)
Heartbeat CPU 0 instructions: 233501171 cycles: 537917634 heartbeat IPC: 0.5816 cumulative IPC: 0.3514 (Simulation time: 01 hr 03 min 43 sec)
Heartbeat CPU 0 instructions: 234001172 cycles: 538686616 heartbeat IPC: 0.6502 cumulative IPC: 0.3518 (Simulation time: 01 hr 03 min 49 sec)
Heartbeat CPU 0 instructions: 234501173 cycles: 539118681 heartbeat IPC: 1.157 cumulative IPC: 0.3525 (Simulation time: 01 hr 03 min 52 sec)
Heartbeat CPU 0 instructions: 235001176 cycles: 539510791 heartbeat IPC: 1.275 cumulative IPC: 0.3532 (Simulation time: 01 hr 03 min 55 sec)
Heartbeat CPU 0 instructions: 235501182 cycles: 539921128 heartbeat IPC: 1.219 cumulative IPC: 0.3538 (Simulation time: 01 hr 03 min 59 sec)
Heartbeat CPU 0 instructions: 236001182 cycles: 540289118 heartbeat IPC: 1.359 cumulative IPC: 0.3545 (Simulation time: 01 hr 04 min 02 sec)
Heartbeat CPU 0 instructions: 236501188 cycles: 540632148 heartbeat IPC: 1.458 cumulative IPC: 0.3553 (Simulation time: 01 hr 04 min 05 sec)
Heartbeat CPU 0 instructions: 237001194 cycles: 541597983 heartbeat IPC: 0.5177 cumulative IPC: 0.3556 (Simulation time: 01 hr 04 min 12 sec)
Heartbeat CPU 0 instructions: 237501196 cycles: 543006809 heartbeat IPC: 0.3549 cumulative IPC: 0.3556 (Simulation time: 01 hr 04 min 20 sec)
Heartbeat CPU 0 instructions: 238001198 cycles: 545373492 heartbeat IPC: 0.2113 cumulative IPC: 0.3549 (Simulation time: 01 hr 04 min 33 sec)
Heartbeat CPU 0 instructions: 238501201 cycles: 545981294 heartbeat IPC: 0.8226 cumulative IPC: 0.3554 (Simulation time: 01 hr 04 min 38 sec)
Heartbeat CPU 0 instructions: 239001201 cycles: 548127221 heartbeat IPC: 0.233 cumulative IPC: 0.3549 (Simulation time: 01 hr 04 min 49 sec)
Heartbeat CPU 0 instructions: 239501201 cycles: 549925341 heartbeat IPC: 0.2781 cumulative IPC: 0.3547 (Simulation time: 01 hr 04 min 59 sec)
Heartbeat CPU 0 instructions: 240001202 cycles: 551950709 heartbeat IPC: 0.2469 cumulative IPC: 0.3543 (Simulation time: 01 hr 05 min 10 sec)
Heartbeat CPU 0 instructions: 240501204 cycles: 553041942 heartbeat IPC: 0.4582 cumulative IPC: 0.3545 (Simulation time: 01 hr 05 min 17 sec)
Heartbeat CPU 0 instructions: 241001206 cycles: 554612245 heartbeat IPC: 0.3184 cumulative IPC: 0.3544 (Simulation time: 01 hr 05 min 26 sec)
Heartbeat CPU 0 instructions: 241501210 cycles: 556278550 heartbeat IPC: 0.3001 cumulative IPC: 0.3542 (Simulation time: 01 hr 05 min 35 sec)
Heartbeat CPU 0 instructions: 242001215 cycles: 558083495 heartbeat IPC: 0.277 cumulative IPC: 0.354 (Simulation time: 01 hr 05 min 45 sec)
Heartbeat CPU 0 instructions: 242501215 cycles: 560087383 heartbeat IPC: 0.2495 cumulative IPC: 0.3536 (Simulation time: 01 hr 05 min 56 sec)
Heartbeat CPU 0 instructions: 243001218 cycles: 560474599 heartbeat IPC: 1.291 cumulative IPC: 0.3542 (Simulation time: 01 hr 06 min 00 sec)
Heartbeat CPU 0 instructions: 243501218 cycles: 562127948 heartbeat IPC: 0.3024 cumulative IPC: 0.3541 (Simulation time: 01 hr 06 min 12 sec)
Heartbeat CPU 0 instructions: 244001218 cycles: 563959594 heartbeat IPC: 0.273 cumulative IPC: 0.3538 (Simulation time: 01 hr 06 min 23 sec)
Heartbeat CPU 0 instructions: 244501220 cycles: 564586063 heartbeat IPC: 0.7981 cumulative IPC: 0.3543 (Simulation time: 01 hr 06 min 27 sec)
Heartbeat CPU 0 instructions: 245001225 cycles: 565370780 heartbeat IPC: 0.6372 cumulative IPC: 0.3547 (Simulation time: 01 hr 06 min 32 sec)
Heartbeat CPU 0 instructions: 245501225 cycles: 567704740 heartbeat IPC: 0.2142 cumulative IPC: 0.3541 (Simulation time: 01 hr 06 min 45 sec)
Heartbeat CPU 0 instructions: 246001225 cycles: 569834151 heartbeat IPC: 0.2348 cumulative IPC: 0.3537 (Simulation time: 01 hr 06 min 57 sec)
Heartbeat CPU 0 instructions: 246501225 cycles: 570997843 heartbeat IPC: 0.4297 cumulative IPC: 0.3538 (Simulation time: 01 hr 07 min 04 sec)
Heartbeat CPU 0 instructions: 247001225 cycles: 573663263 heartbeat IPC: 0.1876 cumulative IPC: 0.353 (Simulation time: 01 hr 07 min 18 sec)
Heartbeat CPU 0 instructions: 247501225 cycles: 574582409 heartbeat IPC: 0.544 cumulative IPC: 0.3534 (Simulation time: 01 hr 07 min 24 sec)
Heartbeat CPU 0 instructions: 248001226 cycles: 575224361 heartbeat IPC: 0.7789 cumulative IPC: 0.3538 (Simulation time: 01 hr 07 min 30 sec)
Heartbeat CPU 0 instructions: 248501227 cycles: 576586843 heartbeat IPC: 0.367 cumulative IPC: 0.3539 (Simulation time: 01 hr 07 min 39 sec)
Heartbeat CPU 0 instructions: 249001228 cycles: 577140199 heartbeat IPC: 0.9036 cumulative IPC: 0.3544 (Simulation time: 01 hr 07 min 43 sec)
Heartbeat CPU 0 instructions: 249501230 cycles: 577617080 heartbeat IPC: 1.048 cumulative IPC: 0.355 (Simulation time: 01 hr 07 min 47 sec)
Simulation finished CPU 0 instructions: 200000001 cycles: 562370870 cumulative IPC: 0.3556 (Simulation time: 01 hr 07 min 51 sec)
Simulation complete CPU 0 instructions: 200000001 cycles: 562370870 cumulative IPC: 0.3556 (Simulation time: 01 hr 07 min 51 sec)

ChampSim completed all CPUs

=== Simulation ===
CPU 0 runs /local-ssd/ben/dpc4-traces/gtraces_v2/sierra.a.4_0000.champsim.gz

Region of Interest Statistics

CPU 0 cumulative IPC: 0.3556 instructions: 200000001 cycles: 562370870
CPU 0 Branch Prediction Accuracy: 86.01% MPKI: 21.96 Average ROB Occupancy at Mispredict: 23.03
Branch type MPKI
BRANCH_DIRECT_JUMP: 2.134
BRANCH_INDIRECT: 0.205
BRANCH_CONDITIONAL: 16.38
BRANCH_DIRECT_CALL: 1.747
BRANCH_INDIRECT_CALL: 0.3394
BRANCH_RETURN: 1.159

cpu0->cpu0_STLB TOTAL        ACCESS:    2509546 HIT:    1734033 MISS:     775513 MSHR_MERGE:          0
cpu0->cpu0_STLB LOAD         ACCESS:    2509546 HIT:    1734033 MISS:     775513 MSHR_MERGE:          0
cpu0->cpu0_STLB RFO          ACCESS:          0 HIT:          0 MISS:          0 MSHR_MERGE:          0
cpu0->cpu0_STLB PREFETCH     ACCESS:          0 HIT:          0 MISS:          0 MSHR_MERGE:          0
cpu0->cpu0_STLB WRITE        ACCESS:          0 HIT:          0 MISS:          0 MSHR_MERGE:          0
cpu0->cpu0_STLB TRANSLATION  ACCESS:          0 HIT:          0 MISS:          0 MSHR_MERGE:          0
cpu0->cpu0_STLB PREFETCH REQUESTED:          0 ISSUED:          0 USEFUL:          0 USELESS:          0
cpu0->cpu0_STLB AVERAGE MISS LATENCY: 209.3 cycles
cpu0->cpu0_L2C TOTAL        ACCESS:   22042507 HIT:   15122367 MISS:    6920140 MSHR_MERGE:     915507
cpu0->cpu0_L2C LOAD         ACCESS:    6946960 HIT:    4365344 MISS:    2581616 MSHR_MERGE:      58722
cpu0->cpu0_L2C RFO          ACCESS:    1707405 HIT:     909883 MISS:     797522 MSHR_MERGE:       2224
cpu0->cpu0_L2C PREFETCH     ACCESS:    9842471 HIT:    6760110 MISS:    3082361 MSHR_MERGE:     854561
cpu0->cpu0_L2C WRITE        ACCESS:    2595363 HIT:    2595316 MISS:         47 MSHR_MERGE:          0
cpu0->cpu0_L2C TRANSLATION  ACCESS:     950308 HIT:     491714 MISS:     458594 MSHR_MERGE:          0
cpu0->cpu0_L2C PREFETCH REQUESTED:    9529781 ISSUED:    8130419 USEFUL:     681687 USELESS:    1022910
cpu0->cpu0_L2C AVERAGE MISS LATENCY: 217.4 cycles
cpu0->cpu0_L1I TOTAL        ACCESS:   21341980 HIT:   16108627 MISS:    5233353 MSHR_MERGE:    1157913
cpu0->cpu0_L1I LOAD         ACCESS:   21341980 HIT:   16108627 MISS:    5233353 MSHR_MERGE:    1157913
cpu0->cpu0_L1I RFO          ACCESS:          0 HIT:          0 MISS:          0 MSHR_MERGE:          0
cpu0->cpu0_L1I PREFETCH     ACCESS:          0 HIT:          0 MISS:          0 MSHR_MERGE:          0
cpu0->cpu0_L1I WRITE        ACCESS:          0 HIT:          0 MISS:          0 MSHR_MERGE:          0
cpu0->cpu0_L1I TRANSLATION  ACCESS:          0 HIT:          0 MISS:          0 MSHR_MERGE:          0
cpu0->cpu0_L1I PREFETCH REQUESTED:          0 ISSUED:          0 USEFUL:          0 USELESS:          0
cpu0->cpu0_L1I AVERAGE MISS LATENCY: 98.59 cycles
cpu0->cpu0_L1D TOTAL        ACCESS:   67096808 HIT:   56182091 MISS:   10914717 MSHR_MERGE:    3673242
cpu0->cpu0_L1D LOAD         ACCESS:   36081873 HIT:   32471115 MISS:    3610758 MSHR_MERGE:     739156
cpu0->cpu0_L1D RFO          ACCESS:          0 HIT:          0 MISS:          0 MSHR_MERGE:          0
cpu0->cpu0_L1D PREFETCH     ACCESS:    5233581 HIT:    3128240 MISS:    2105341 MSHR_MERGE:     393237
cpu0->cpu0_L1D WRITE        ACCESS:   23681278 HIT:   19440100 MISS:    4241178 MSHR_MERGE:    2533717
cpu0->cpu0_L1D TRANSLATION  ACCESS:    2100076 HIT:    1142636 MISS:     957440 MSHR_MERGE:       7132
cpu0->cpu0_L1D PREFETCH REQUESTED:   25584863 ISSUED:    5233573 USEFUL:     830082 USELESS:     881954
cpu0->cpu0_L1D AVERAGE MISS LATENCY: 94.41 cycles
cpu0->cpu0_ITLB TOTAL        ACCESS:   17185026 HIT:   16561548 MISS:     623478 MSHR_MERGE:     283001
cpu0->cpu0_ITLB LOAD         ACCESS:   17185026 HIT:   16561548 MISS:     623478 MSHR_MERGE:     283001
cpu0->cpu0_ITLB RFO          ACCESS:          0 HIT:          0 MISS:          0 MSHR_MERGE:          0
cpu0->cpu0_ITLB PREFETCH     ACCESS:          0 HIT:          0 MISS:          0 MSHR_MERGE:          0
cpu0->cpu0_ITLB WRITE        ACCESS:          0 HIT:          0 MISS:          0 MSHR_MERGE:          0
cpu0->cpu0_ITLB TRANSLATION  ACCESS:          0 HIT:          0 MISS:          0 MSHR_MERGE:          0
cpu0->cpu0_ITLB PREFETCH REQUESTED:          0 ISSUED:          0 USEFUL:          0 USELESS:          0
cpu0->cpu0_ITLB AVERAGE MISS LATENCY: 37.61 cycles
cpu0->cpu0_DTLB TOTAL        ACCESS:   60941209 HIT:   57387520 MISS:    3553689 MSHR_MERGE:    1384620
cpu0->cpu0_DTLB LOAD         ACCESS:   60941209 HIT:   57387520 MISS:    3553689 MSHR_MERGE:    1384620
cpu0->cpu0_DTLB RFO          ACCESS:          0 HIT:          0 MISS:          0 MSHR_MERGE:          0
cpu0->cpu0_DTLB PREFETCH     ACCESS:          0 HIT:          0 MISS:          0 MSHR_MERGE:          0
cpu0->cpu0_DTLB WRITE        ACCESS:          0 HIT:          0 MISS:          0 MSHR_MERGE:          0
cpu0->cpu0_DTLB TRANSLATION  ACCESS:          0 HIT:          0 MISS:          0 MSHR_MERGE:          0
cpu0->cpu0_DTLB PREFETCH REQUESTED:          0 ISSUED:          0 USEFUL:          0 USELESS:          0
cpu0->cpu0_DTLB AVERAGE MISS LATENCY: 75.07 cycles
cpu0->LLC TOTAL        ACCESS:    8688906 HIT:    1683512 MISS:    7005394 MSHR_MERGE:     369077
cpu0->LLC LOAD         ACCESS:    2522894 HIT:     385783 MISS:    2137111 MSHR_MERGE:      25707
cpu0->LLC RFO          ACCESS:     795298 HIT:      41851 MISS:     753447 MSHR_MERGE:        190
cpu0->LLC PREFETCH     ACCESS:    3682199 HIT:     590474 MISS:    3091725 MSHR_MERGE:     343180
cpu0->LLC WRITE        ACCESS:    1229921 HIT:     628500 MISS:     601421 MSHR_MERGE:          0
cpu0->LLC TRANSLATION  ACCESS:     458594 HIT:      36904 MISS:     421690 MSHR_MERGE:          0
cpu0->LLC PREFETCH REQUESTED:    1551726 ISSUED:    1454399 USEFUL:     299320 USELESS:     683079
cpu0->LLC AVERAGE MISS LATENCY: 191.5 cycles

DRAM Statistics

Channel 0 RQ ROW_BUFFER_HIT:     322425
  ROW_BUFFER_MISS:    5712377
  AVG DBUS CONGESTED CYCLE: 20.94
Channel 0 WQ ROW_BUFFER_HIT:     284941
  ROW_BUFFER_MISS:     881671
  FULL:         30
Channel 0 REFRESHES ISSUED:      46861
