[VMEM] WARNING: physical memory size is smaller than virtual memory size.

*** ChampSim Multicore Out-of-Order Simulator ***
Warmup Instructions: 50000000
Simulation Instructions: 200000000
Number of CPUs: 1
Page size: 4096
Core 0: /local-ssd/ben/dpc4-traces/gtraces_v2/tahoe_0002.champsim.gz
sBerti (Smart Stride + Berti) Prefetcher Initialized
Off-chip DRAM Size: 64 GiB Channels: 1 Width: 64-bit Data Rate: 4807 MT/s
[BTB] WARNING: target of return is a lower address than the corresponding call. This is usually a problem with your trace.
[BTB] WARNING: target of return is a lower address than the corresponding call. This is usually a problem with your trace.
Heartbeat CPU 0 instructions: 500001 cycles: 116755 heartbeat IPC: 4.282 cumulative IPC: 4.282 (Simulation time: 00 hr 00 min 04 sec)
[BTB] WARNING: target of return is a lower address than the corresponding call. This is usually a problem with your trace.
[BTB] WARNING: target of return is a lower address than the corresponding call. This is usually a problem with your trace.
Heartbeat CPU 0 instructions: 1000005 cycles: 383526 heartbeat IPC: 1.874 cumulative IPC: 2.607 (Simulation time: 00 hr 00 min 10 sec)
[BTB] WARNING: target of return is a lower address than the corresponding call. This is usually a problem with your trace.
[BTB] WARNING: target of return is a lower address than the corresponding call. This is usually a problem with your trace.
[BTB] WARNING: target of return is a lower address than the corresponding call. This is usually a problem with your trace.
Heartbeat CPU 0 instructions: 1500010 cycles: 602469 heartbeat IPC: 2.284 cumulative IPC: 2.49 (Simulation time: 00 hr 00 min 15 sec)
[BTB] WARNING: target of return is a lower address than the corresponding call. This is usually a problem with your trace.
[BTB] WARNING: target of return is a lower address than the corresponding call. This is usually a problem with your trace.
[BTB] WARNING: target of return is a lower address than the corresponding call. This is usually a problem with your trace.
Heartbeat CPU 0 instructions: 2000015 cycles: 757199 heartbeat IPC: 3.231 cumulative IPC: 2.641 (Simulation time: 00 hr 00 min 19 sec)
Heartbeat CPU 0 instructions: 2500021 cycles: 951667 heartbeat IPC: 2.571 cumulative IPC: 2.627 (Simulation time: 00 hr 00 min 25 sec)
Heartbeat CPU 0 instructions: 3000028 cycles: 1109090 heartbeat IPC: 3.176 cumulative IPC: 2.705 (Simulation time: 00 hr 00 min 29 sec)
Heartbeat CPU 0 instructions: 3500029 cycles: 1292278 heartbeat IPC: 2.729 cumulative IPC: 2.708 (Simulation time: 00 hr 00 min 34 sec)
Heartbeat CPU 0 instructions: 4000036 cycles: 1437765 heartbeat IPC: 3.437 cumulative IPC: 2.782 (Simulation time: 00 hr 00 min 38 sec)
Heartbeat CPU 0 instructions: 4500036 cycles: 1659463 heartbeat IPC: 2.255 cumulative IPC: 2.712 (Simulation time: 00 hr 00 min 44 sec)
Heartbeat CPU 0 instructions: 5000042 cycles: 1854554 heartbeat IPC: 2.563 cumulative IPC: 2.696 (Simulation time: 00 hr 00 min 49 sec)
Heartbeat CPU 0 instructions: 5500049 cycles: 2012219 heartbeat IPC: 3.171 cumulative IPC: 2.733 (Simulation time: 00 hr 00 min 53 sec)
Heartbeat CPU 0 instructions: 6000049 cycles: 2190603 heartbeat IPC: 2.803 cumulative IPC: 2.739 (Simulation time: 00 hr 00 min 58 sec)
Heartbeat CPU 0 instructions: 6500050 cycles: 2331699 heartbeat IPC: 3.544 cumulative IPC: 2.788 (Simulation time: 00 hr 01 min 01 sec)
Heartbeat CPU 0 instructions: 7000050 cycles: 2493514 heartbeat IPC: 3.09 cumulative IPC: 2.807 (Simulation time: 00 hr 01 min 06 sec)
Heartbeat CPU 0 instructions: 7500057 cycles: 2704560 heartbeat IPC: 2.369 cumulative IPC: 2.773 (Simulation time: 00 hr 01 min 11 sec)
Heartbeat CPU 0 instructions: 8000063 cycles: 2846315 heartbeat IPC: 3.527 cumulative IPC: 2.811 (Simulation time: 00 hr 01 min 15 sec)
Heartbeat CPU 0 instructions: 8500068 cycles: 2962649 heartbeat IPC: 4.298 cumulative IPC: 2.869 (Simulation time: 00 hr 01 min 18 sec)
Heartbeat CPU 0 instructions: 9000069 cycles: 3116780 heartbeat IPC: 3.244 cumulative IPC: 2.888 (Simulation time: 00 hr 01 min 22 sec)
Heartbeat CPU 0 instructions: 9500076 cycles: 3259546 heartbeat IPC: 3.502 cumulative IPC: 2.915 (Simulation time: 00 hr 01 min 26 sec)
Heartbeat CPU 0 instructions: 10000079 cycles: 3392193 heartbeat IPC: 3.769 cumulative IPC: 2.948 (Simulation time: 00 hr 01 min 30 sec)
Heartbeat CPU 0 instructions: 10500086 cycles: 3558514 heartbeat IPC: 3.006 cumulative IPC: 2.951 (Simulation time: 00 hr 01 min 35 sec)
Heartbeat CPU 0 instructions: 11000091 cycles: 3709854 heartbeat IPC: 3.304 cumulative IPC: 2.965 (Simulation time: 00 hr 01 min 39 sec)
Heartbeat CPU 0 instructions: 11500092 cycles: 3835278 heartbeat IPC: 3.986 cumulative IPC: 2.999 (Simulation time: 00 hr 01 min 43 sec)
Heartbeat CPU 0 instructions: 12000097 cycles: 3953337 heartbeat IPC: 4.235 cumulative IPC: 3.035 (Simulation time: 00 hr 01 min 46 sec)
Heartbeat CPU 0 instructions: 12500098 cycles: 4076787 heartbeat IPC: 4.05 cumulative IPC: 3.066 (Simulation time: 00 hr 01 min 50 sec)
Heartbeat CPU 0 instructions: 13000098 cycles: 4198838 heartbeat IPC: 4.097 cumulative IPC: 3.096 (Simulation time: 00 hr 01 min 53 sec)
Heartbeat CPU 0 instructions: 13500098 cycles: 4310532 heartbeat IPC: 4.477 cumulative IPC: 3.132 (Simulation time: 00 hr 01 min 56 sec)
Heartbeat CPU 0 instructions: 14000099 cycles: 4413119 heartbeat IPC: 4.874 cumulative IPC: 3.172 (Simulation time: 00 hr 01 min 59 sec)
Heartbeat CPU 0 instructions: 14500104 cycles: 4515157 heartbeat IPC: 4.9 cumulative IPC: 3.211 (Simulation time: 00 hr 02 min 03 sec)
Heartbeat CPU 0 instructions: 15000105 cycles: 4618310 heartbeat IPC: 4.847 cumulative IPC: 3.248 (Simulation time: 00 hr 02 min 05 sec)
Heartbeat CPU 0 instructions: 15500109 cycles: 4722904 heartbeat IPC: 4.78 cumulative IPC: 3.282 (Simulation time: 00 hr 02 min 08 sec)
Heartbeat CPU 0 instructions: 16000110 cycles: 4827572 heartbeat IPC: 4.777 cumulative IPC: 3.314 (Simulation time: 00 hr 02 min 10 sec)
Heartbeat CPU 0 instructions: 16500115 cycles: 4929915 heartbeat IPC: 4.886 cumulative IPC: 3.347 (Simulation time: 00 hr 02 min 12 sec)
Heartbeat CPU 0 instructions: 17000117 cycles: 5032076 heartbeat IPC: 4.894 cumulative IPC: 3.378 (Simulation time: 00 hr 02 min 14 sec)
Heartbeat CPU 0 instructions: 17500123 cycles: 5134521 heartbeat IPC: 4.881 cumulative IPC: 3.408 (Simulation time: 00 hr 02 min 17 sec)
Heartbeat CPU 0 instructions: 18000123 cycles: 5237166 heartbeat IPC: 4.871 cumulative IPC: 3.437 (Simulation time: 00 hr 02 min 19 sec)
Heartbeat CPU 0 instructions: 18500127 cycles: 5340129 heartbeat IPC: 4.856 cumulative IPC: 3.464 (Simulation time: 00 hr 02 min 21 sec)
Heartbeat CPU 0 instructions: 19000131 cycles: 5441939 heartbeat IPC: 4.911 cumulative IPC: 3.491 (Simulation time: 00 hr 02 min 23 sec)
Heartbeat CPU 0 instructions: 19500134 cycles: 5544490 heartbeat IPC: 4.876 cumulative IPC: 3.517 (Simulation time: 00 hr 02 min 25 sec)
Heartbeat CPU 0 instructions: 20000141 cycles: 5648101 heartbeat IPC: 4.826 cumulative IPC: 3.541 (Simulation time: 00 hr 02 min 28 sec)
Heartbeat CPU 0 instructions: 20500142 cycles: 5782822 heartbeat IPC: 3.711 cumulative IPC: 3.545 (Simulation time: 00 hr 02 min 30 sec)
Heartbeat CPU 0 instructions: 21000143 cycles: 5906125 heartbeat IPC: 4.055 cumulative IPC: 3.556 (Simulation time: 00 hr 02 min 32 sec)
Heartbeat CPU 0 instructions: 21500149 cycles: 6046074 heartbeat IPC: 3.573 cumulative IPC: 3.556 (Simulation time: 00 hr 02 min 35 sec)
Heartbeat CPU 0 instructions: 22000154 cycles: 6178755 heartbeat IPC: 3.768 cumulative IPC: 3.561 (Simulation time: 00 hr 02 min 37 sec)
Heartbeat CPU 0 instructions: 22500157 cycles: 6341789 heartbeat IPC: 3.067 cumulative IPC: 3.548 (Simulation time: 00 hr 02 min 40 sec)
Heartbeat CPU 0 instructions: 23000157 cycles: 6559273 heartbeat IPC: 2.299 cumulative IPC: 3.507 (Simulation time: 00 hr 02 min 44 sec)
Heartbeat CPU 0 instructions: 23500161 cycles: 6773922 heartbeat IPC: 2.329 cumulative IPC: 3.469 (Simulation time: 00 hr 02 min 48 sec)
Heartbeat CPU 0 instructions: 24000166 cycles: 6970126 heartbeat IPC: 2.548 cumulative IPC: 3.443 (Simulation time: 00 hr 02 min 52 sec)
Heartbeat CPU 0 instructions: 24500167 cycles: 7153137 heartbeat IPC: 2.732 cumulative IPC: 3.425 (Simulation time: 00 hr 02 min 56 sec)
Heartbeat CPU 0 instructions: 25000173 cycles: 7344912 heartbeat IPC: 2.607 cumulative IPC: 3.404 (Simulation time: 00 hr 03 min 00 sec)
Heartbeat CPU 0 instructions: 25500179 cycles: 7472994 heartbeat IPC: 3.904 cumulative IPC: 3.412 (Simulation time: 00 hr 03 min 02 sec)
Heartbeat CPU 0 instructions: 26000185 cycles: 7585339 heartbeat IPC: 4.451 cumulative IPC: 3.428 (Simulation time: 00 hr 03 min 05 sec)
Heartbeat CPU 0 instructions: 26500190 cycles: 7698206 heartbeat IPC: 4.43 cumulative IPC: 3.442 (Simulation time: 00 hr 03 min 07 sec)
Heartbeat CPU 0 instructions: 27000193 cycles: 7807907 heartbeat IPC: 4.558 cumulative IPC: 3.458 (Simulation time: 00 hr 03 min 09 sec)
Heartbeat CPU 0 instructions: 27500197 cycles: 7916902 heartbeat IPC: 4.587 cumulative IPC: 3.474 (Simulation time: 00 hr 03 min 12 sec)
Heartbeat CPU 0 instructions: 28000203 cycles: 8032858 heartbeat IPC: 4.312 cumulative IPC: 3.486 (Simulation time: 00 hr 03 min 14 sec)
Heartbeat CPU 0 instructions: 28500209 cycles: 8164080 heartbeat IPC: 3.81 cumulative IPC: 3.491 (Simulation time: 00 hr 03 min 17 sec)
Heartbeat CPU 0 instructions: 29000215 cycles: 8323934 heartbeat IPC: 3.128 cumulative IPC: 3.484 (Simulation time: 00 hr 03 min 20 sec)
Heartbeat CPU 0 instructions: 29500219 cycles: 8470325 heartbeat IPC: 3.416 cumulative IPC: 3.483 (Simulation time: 00 hr 03 min 23 sec)
Heartbeat CPU 0 instructions: 30000221 cycles: 8600970 heartbeat IPC: 3.827 cumulative IPC: 3.488 (Simulation time: 00 hr 03 min 25 sec)
Heartbeat CPU 0 instructions: 30500221 cycles: 8723809 heartbeat IPC: 4.07 cumulative IPC: 3.496 (Simulation time: 00 hr 03 min 27 sec)
Heartbeat CPU 0 instructions: 31000227 cycles: 8832420 heartbeat IPC: 4.604 cumulative IPC: 3.51 (Simulation time: 00 hr 03 min 30 sec)
Heartbeat CPU 0 instructions: 31500229 cycles: 8942133 heartbeat IPC: 4.557 cumulative IPC: 3.523 (Simulation time: 00 hr 03 min 32 sec)
Heartbeat CPU 0 instructions: 32000234 cycles: 9057128 heartbeat IPC: 4.348 cumulative IPC: 3.533 (Simulation time: 00 hr 03 min 35 sec)
Heartbeat CPU 0 instructions: 32500239 cycles: 9169576 heartbeat IPC: 4.447 cumulative IPC: 3.544 (Simulation time: 00 hr 03 min 37 sec)
Heartbeat CPU 0 instructions: 33000245 cycles: 9280186 heartbeat IPC: 4.52 cumulative IPC: 3.556 (Simulation time: 00 hr 03 min 39 sec)
Heartbeat CPU 0 instructions: 33500245 cycles: 9392589 heartbeat IPC: 4.448 cumulative IPC: 3.567 (Simulation time: 00 hr 03 min 42 sec)
Heartbeat CPU 0 instructions: 34000247 cycles: 9503893 heartbeat IPC: 4.492 cumulative IPC: 3.578 (Simulation time: 00 hr 03 min 44 sec)
Heartbeat CPU 0 instructions: 34500247 cycles: 9618099 heartbeat IPC: 4.378 cumulative IPC: 3.587 (Simulation time: 00 hr 03 min 46 sec)
Heartbeat CPU 0 instructions: 35000254 cycles: 9731916 heartbeat IPC: 4.393 cumulative IPC: 3.596 (Simulation time: 00 hr 03 min 48 sec)
Heartbeat CPU 0 instructions: 35500258 cycles: 9843846 heartbeat IPC: 4.467 cumulative IPC: 3.606 (Simulation time: 00 hr 03 min 50 sec)
Heartbeat CPU 0 instructions: 36000258 cycles: 9978972 heartbeat IPC: 3.7 cumulative IPC: 3.608 (Simulation time: 00 hr 03 min 53 sec)
Heartbeat CPU 0 instructions: 36500261 cycles: 10107415 heartbeat IPC: 3.893 cumulative IPC: 3.611 (Simulation time: 00 hr 03 min 55 sec)
Heartbeat CPU 0 instructions: 37000266 cycles: 10228923 heartbeat IPC: 4.115 cumulative IPC: 3.617 (Simulation time: 00 hr 03 min 58 sec)
Heartbeat CPU 0 instructions: 37500271 cycles: 10346757 heartbeat IPC: 4.243 cumulative IPC: 3.624 (Simulation time: 00 hr 04 min 00 sec)
Heartbeat CPU 0 instructions: 38000275 cycles: 10479577 heartbeat IPC: 3.765 cumulative IPC: 3.626 (Simulation time: 00 hr 04 min 03 sec)
Heartbeat CPU 0 instructions: 38500276 cycles: 10600384 heartbeat IPC: 4.139 cumulative IPC: 3.632 (Simulation time: 00 hr 04 min 06 sec)
Heartbeat CPU 0 instructions: 39000280 cycles: 10726014 heartbeat IPC: 3.98 cumulative IPC: 3.636 (Simulation time: 00 hr 04 min 08 sec)
Heartbeat CPU 0 instructions: 39500281 cycles: 10851118 heartbeat IPC: 3.997 cumulative IPC: 3.64 (Simulation time: 00 hr 04 min 11 sec)
Heartbeat CPU 0 instructions: 40000282 cycles: 10992704 heartbeat IPC: 3.531 cumulative IPC: 3.639 (Simulation time: 00 hr 04 min 13 sec)
Heartbeat CPU 0 instructions: 40500286 cycles: 11115830 heartbeat IPC: 4.061 cumulative IPC: 3.643 (Simulation time: 00 hr 04 min 16 sec)
Heartbeat CPU 0 instructions: 41000293 cycles: 11233341 heartbeat IPC: 4.255 cumulative IPC: 3.65 (Simulation time: 00 hr 04 min 18 sec)
Heartbeat CPU 0 instructions: 41500294 cycles: 11341832 heartbeat IPC: 4.609 cumulative IPC: 3.659 (Simulation time: 00 hr 04 min 21 sec)
Heartbeat CPU 0 instructions: 42000296 cycles: 11455195 heartbeat IPC: 4.411 cumulative IPC: 3.666 (Simulation time: 00 hr 04 min 23 sec)
Heartbeat CPU 0 instructions: 42500300 cycles: 11558587 heartbeat IPC: 4.836 cumulative IPC: 3.677 (Simulation time: 00 hr 04 min 25 sec)
Heartbeat CPU 0 instructions: 43000300 cycles: 11658973 heartbeat IPC: 4.981 cumulative IPC: 3.688 (Simulation time: 00 hr 04 min 26 sec)
Heartbeat CPU 0 instructions: 43500302 cycles: 11760995 heartbeat IPC: 4.901 cumulative IPC: 3.699 (Simulation time: 00 hr 04 min 28 sec)
Heartbeat CPU 0 instructions: 44000308 cycles: 11861913 heartbeat IPC: 4.955 cumulative IPC: 3.709 (Simulation time: 00 hr 04 min 30 sec)
Heartbeat CPU 0 instructions: 44500310 cycles: 11984171 heartbeat IPC: 4.09 cumulative IPC: 3.713 (Simulation time: 00 hr 04 min 32 sec)
Heartbeat CPU 0 instructions: 45000316 cycles: 12149488 heartbeat IPC: 3.025 cumulative IPC: 3.704 (Simulation time: 00 hr 04 min 36 sec)
Heartbeat CPU 0 instructions: 45500321 cycles: 12263203 heartbeat IPC: 4.397 cumulative IPC: 3.71 (Simulation time: 00 hr 04 min 38 sec)
Heartbeat CPU 0 instructions: 46000322 cycles: 12387746 heartbeat IPC: 4.015 cumulative IPC: 3.713 (Simulation time: 00 hr 04 min 40 sec)
Heartbeat CPU 0 instructions: 46500326 cycles: 12499146 heartbeat IPC: 4.488 cumulative IPC: 3.72 (Simulation time: 00 hr 04 min 42 sec)
Heartbeat CPU 0 instructions: 47000327 cycles: 12624274 heartbeat IPC: 3.996 cumulative IPC: 3.723 (Simulation time: 00 hr 04 min 45 sec)
Heartbeat CPU 0 instructions: 47500334 cycles: 12760633 heartbeat IPC: 3.667 cumulative IPC: 3.722 (Simulation time: 00 hr 04 min 47 sec)
Heartbeat CPU 0 instructions: 48000336 cycles: 12901177 heartbeat IPC: 3.558 cumulative IPC: 3.721 (Simulation time: 00 hr 04 min 50 sec)
Heartbeat CPU 0 instructions: 48500341 cycles: 13035480 heartbeat IPC: 3.723 cumulative IPC: 3.721 (Simulation time: 00 hr 04 min 53 sec)
Heartbeat CPU 0 instructions: 49000346 cycles: 13177564 heartbeat IPC: 3.519 cumulative IPC: 3.718 (Simulation time: 00 hr 04 min 55 sec)
Heartbeat CPU 0 instructions: 49500347 cycles: 13326348 heartbeat IPC: 3.361 cumulative IPC: 3.714 (Simulation time: 00 hr 04 min 58 sec)
Warmup halting CPU 0 at instruction 50000002 cycle 13503266 for remainder of phase
Warmup finished CPU 0 instructions: 50000002 cycles: 13503266 cumulative IPC: 3.703 (Simulation time: 00 hr 05 min 02 sec)
Warmup complete CPU 0 instructions: 50000002 cycles: 13503266 cumulative IPC: 3.703 (Simulation time: 00 hr 05 min 02 sec)
Heartbeat CPU 0 instructions: 50000351 cycles: 13503722 heartbeat IPC: 2.819 cumulative IPC: 0.7654 (Simulation time: 00 hr 05 min 02 sec)
Heartbeat CPU 0 instructions: 50500353 cycles: 14656632 heartbeat IPC: 0.4337 cumulative IPC: 0.4338 (Simulation time: 00 hr 05 min 15 sec)
Heartbeat CPU 0 instructions: 51000355 cycles: 15935084 heartbeat IPC: 0.3911 cumulative IPC: 0.4114 (Simulation time: 00 hr 05 min 31 sec)
Heartbeat CPU 0 instructions: 51500355 cycles: 17261984 heartbeat IPC: 0.3768 cumulative IPC: 0.3992 (Simulation time: 00 hr 05 min 49 sec)
Heartbeat CPU 0 instructions: 52000359 cycles: 18561737 heartbeat IPC: 0.3847 cumulative IPC: 0.3954 (Simulation time: 00 hr 06 min 05 sec)
Heartbeat CPU 0 instructions: 52500362 cycles: 19919219 heartbeat IPC: 0.3683 cumulative IPC: 0.3897 (Simulation time: 00 hr 06 min 22 sec)
Heartbeat CPU 0 instructions: 53000365 cycles: 21252521 heartbeat IPC: 0.375 cumulative IPC: 0.3872 (Simulation time: 00 hr 06 min 36 sec)
Heartbeat CPU 0 instructions: 53500372 cycles: 21610136 heartbeat IPC: 1.398 cumulative IPC: 0.4318 (Simulation time: 00 hr 06 min 39 sec)
Heartbeat CPU 0 instructions: 54000372 cycles: 22373023 heartbeat IPC: 0.6554 cumulative IPC: 0.451 (Simulation time: 00 hr 06 min 46 sec)
Heartbeat CPU 0 instructions: 54500372 cycles: 22806862 heartbeat IPC: 1.153 cumulative IPC: 0.4837 (Simulation time: 00 hr 06 min 50 sec)
Heartbeat CPU 0 instructions: 55000372 cycles: 23753185 heartbeat IPC: 0.5284 cumulative IPC: 0.4878 (Simulation time: 00 hr 07 min 01 sec)
Heartbeat CPU 0 instructions: 55500372 cycles: 24889377 heartbeat IPC: 0.4401 cumulative IPC: 0.4831 (Simulation time: 00 hr 07 min 14 sec)
Heartbeat CPU 0 instructions: 56000372 cycles: 26172649 heartbeat IPC: 0.3896 cumulative IPC: 0.4736 (Simulation time: 00 hr 07 min 30 sec)
Heartbeat CPU 0 instructions: 56500372 cycles: 27488820 heartbeat IPC: 0.3799 cumulative IPC: 0.4648 (Simulation time: 00 hr 07 min 44 sec)
Heartbeat CPU 0 instructions: 57000373 cycles: 28606601 heartbeat IPC: 0.4473 cumulative IPC: 0.4635 (Simulation time: 00 hr 07 min 53 sec)
Heartbeat CPU 0 instructions: 57500373 cycles: 30021349 heartbeat IPC: 0.3534 cumulative IPC: 0.4541 (Simulation time: 00 hr 08 min 05 sec)
Heartbeat CPU 0 instructions: 58000373 cycles: 30576138 heartbeat IPC: 0.9012 cumulative IPC: 0.4686 (Simulation time: 00 hr 08 min 10 sec)
Heartbeat CPU 0 instructions: 58500380 cycles: 30997881 heartbeat IPC: 1.186 cumulative IPC: 0.4859 (Simulation time: 00 hr 08 min 14 sec)
Heartbeat CPU 0 instructions: 59000380 cycles: 31437919 heartbeat IPC: 1.136 cumulative IPC: 0.5018 (Simulation time: 00 hr 08 min 18 sec)
Heartbeat CPU 0 instructions: 59500380 cycles: 31815816 heartbeat IPC: 1.323 cumulative IPC: 0.5188 (Simulation time: 00 hr 08 min 22 sec)
Heartbeat CPU 0 instructions: 60000382 cycles: 32170765 heartbeat IPC: 1.409 cumulative IPC: 0.5357 (Simulation time: 00 hr 08 min 25 sec)
Heartbeat CPU 0 instructions: 60500382 cycles: 32635476 heartbeat IPC: 1.076 cumulative IPC: 0.5488 (Simulation time: 00 hr 08 min 30 sec)
Heartbeat CPU 0 instructions: 61000382 cycles: 33364575 heartbeat IPC: 0.6858 cumulative IPC: 0.5539 (Simulation time: 00 hr 08 min 36 sec)
Heartbeat CPU 0 instructions: 61500384 cycles: 34086429 heartbeat IPC: 0.6927 cumulative IPC: 0.5587 (Simulation time: 00 hr 08 min 43 sec)
Heartbeat CPU 0 instructions: 62000384 cycles: 34600158 heartbeat IPC: 0.9733 cumulative IPC: 0.5688 (Simulation time: 00 hr 08 min 48 sec)
Heartbeat CPU 0 instructions: 62500391 cycles: 35073727 heartbeat IPC: 1.056 cumulative IPC: 0.5795 (Simulation time: 00 hr 08 min 52 sec)
Heartbeat CPU 0 instructions: 63000396 cycles: 35626958 heartbeat IPC: 0.9038 cumulative IPC: 0.5876 (Simulation time: 00 hr 08 min 57 sec)
Heartbeat CPU 0 instructions: 63500396 cycles: 36012081 heartbeat IPC: 1.298 cumulative IPC: 0.5998 (Simulation time: 00 hr 09 min 01 sec)
Heartbeat CPU 0 instructions: 64000396 cycles: 36393347 heartbeat IPC: 1.311 cumulative IPC: 0.6116 (Simulation time: 00 hr 09 min 05 sec)
Heartbeat CPU 0 instructions: 64500397 cycles: 37088709 heartbeat IPC: 0.7191 cumulative IPC: 0.6148 (Simulation time: 00 hr 09 min 11 sec)
Heartbeat CPU 0 instructions: 65000402 cycles: 37590984 heartbeat IPC: 0.9955 cumulative IPC: 0.6227 (Simulation time: 00 hr 09 min 16 sec)
Heartbeat CPU 0 instructions: 65500405 cycles: 38069432 heartbeat IPC: 1.045 cumulative IPC: 0.631 (Simulation time: 00 hr 09 min 21 sec)
Heartbeat CPU 0 instructions: 66000406 cycles: 38504737 heartbeat IPC: 1.149 cumulative IPC: 0.64 (Simulation time: 00 hr 09 min 25 sec)
Heartbeat CPU 0 instructions: 66500407 cycles: 39019180 heartbeat IPC: 0.9719 cumulative IPC: 0.6467 (Simulation time: 00 hr 09 min 30 sec)
Heartbeat CPU 0 instructions: 67000408 cycles: 39326564 heartbeat IPC: 1.627 cumulative IPC: 0.6583 (Simulation time: 00 hr 09 min 34 sec)
Heartbeat CPU 0 instructions: 67500415 cycles: 39616902 heartbeat IPC: 1.722 cumulative IPC: 0.6702 (Simulation time: 00 hr 09 min 37 sec)
Heartbeat CPU 0 instructions: 68000415 cycles: 39941161 heartbeat IPC: 1.542 cumulative IPC: 0.6809 (Simulation time: 00 hr 09 min 40 sec)
Heartbeat CPU 0 instructions: 68500415 cycles: 40495444 heartbeat IPC: 0.9021 cumulative IPC: 0.6854 (Simulation time: 00 hr 09 min 46 sec)
Heartbeat CPU 0 instructions: 69000416 cycles: 41041634 heartbeat IPC: 0.9154 cumulative IPC: 0.69 (Simulation time: 00 hr 09 min 51 sec)
Heartbeat CPU 0 instructions: 69500418 cycles: 41514370 heartbeat IPC: 1.058 cumulative IPC: 0.6962 (Simulation time: 00 hr 09 min 55 sec)
Heartbeat CPU 0 instructions: 70000421 cycles: 42014142 heartbeat IPC: 1 cumulative IPC: 0.7015 (Simulation time: 00 hr 10 min 00 sec)
Heartbeat CPU 0 instructions: 70500426 cycles: 42512988 heartbeat IPC: 1.002 cumulative IPC: 0.7067 (Simulation time: 00 hr 10 min 05 sec)
Heartbeat CPU 0 instructions: 71000429 cycles: 43079504 heartbeat IPC: 0.8826 cumulative IPC: 0.71 (Simulation time: 00 hr 10 min 10 sec)
Heartbeat CPU 0 instructions: 71500432 cycles: 43555259 heartbeat IPC: 1.051 cumulative IPC: 0.7154 (Simulation time: 00 hr 10 min 15 sec)
Heartbeat CPU 0 instructions: 72000432 cycles: 44060379 heartbeat IPC: 0.9899 cumulative IPC: 0.72 (Simulation time: 00 hr 10 min 20 sec)
Heartbeat CPU 0 instructions: 72500432 cycles: 44662187 heartbeat IPC: 0.8308 cumulative IPC: 0.7221 (Simulation time: 00 hr 10 min 25 sec)
Heartbeat CPU 0 instructions: 73000432 cycles: 45264857 heartbeat IPC: 0.8296 cumulative IPC: 0.7242 (Simulation time: 00 hr 10 min 31 sec)
Heartbeat CPU 0 instructions: 73500433 cycles: 46022485 heartbeat IPC: 0.66 cumulative IPC: 0.7227 (Simulation time: 00 hr 10 min 38 sec)
Heartbeat CPU 0 instructions: 74000433 cycles: 47386344 heartbeat IPC: 0.3666 cumulative IPC: 0.7083 (Simulation time: 00 hr 10 min 54 sec)
Heartbeat CPU 0 instructions: 74500434 cycles: 47815698 heartbeat IPC: 1.165 cumulative IPC: 0.714 (Simulation time: 00 hr 10 min 58 sec)
Heartbeat CPU 0 instructions: 75000434 cycles: 48164926 heartbeat IPC: 1.432 cumulative IPC: 0.7213 (Simulation time: 00 hr 11 min 02 sec)
Heartbeat CPU 0 instructions: 75500436 cycles: 48558859 heartbeat IPC: 1.269 cumulative IPC: 0.7274 (Simulation time: 00 hr 11 min 07 sec)
Heartbeat CPU 0 instructions: 76000438 cycles: 48977509 heartbeat IPC: 1.194 cumulative IPC: 0.7329 (Simulation time: 00 hr 11 min 12 sec)
Heartbeat CPU 0 instructions: 76500438 cycles: 49432901 heartbeat IPC: 1.098 cumulative IPC: 0.7376 (Simulation time: 00 hr 11 min 17 sec)
Heartbeat CPU 0 instructions: 77000438 cycles: 51619424 heartbeat IPC: 0.2287 cumulative IPC: 0.7084 (Simulation time: 00 hr 11 min 34 sec)
Heartbeat CPU 0 instructions: 77500439 cycles: 52297897 heartbeat IPC: 0.737 cumulative IPC: 0.7089 (Simulation time: 00 hr 11 min 40 sec)
Heartbeat CPU 0 instructions: 78000439 cycles: 53044867 heartbeat IPC: 0.6694 cumulative IPC: 0.7081 (Simulation time: 00 hr 11 min 46 sec)
Heartbeat CPU 0 instructions: 78500442 cycles: 53868986 heartbeat IPC: 0.6067 cumulative IPC: 0.7061 (Simulation time: 00 hr 11 min 53 sec)
Heartbeat CPU 0 instructions: 79000444 cycles: 54425838 heartbeat IPC: 0.8979 cumulative IPC: 0.7087 (Simulation time: 00 hr 11 min 58 sec)
Heartbeat CPU 0 instructions: 79500449 cycles: 55014324 heartbeat IPC: 0.8496 cumulative IPC: 0.7107 (Simulation time: 00 hr 12 min 03 sec)
Heartbeat CPU 0 instructions: 80000451 cycles: 55621210 heartbeat IPC: 0.8239 cumulative IPC: 0.7123 (Simulation time: 00 hr 12 min 09 sec)
Heartbeat CPU 0 instructions: 80500451 cycles: 56563875 heartbeat IPC: 0.5304 cumulative IPC: 0.7083 (Simulation time: 00 hr 12 min 16 sec)
Heartbeat CPU 0 instructions: 81000453 cycles: 57839747 heartbeat IPC: 0.3919 cumulative IPC: 0.6992 (Simulation time: 00 hr 12 min 27 sec)
Heartbeat CPU 0 instructions: 81500459 cycles: 58755265 heartbeat IPC: 0.5461 cumulative IPC: 0.6961 (Simulation time: 00 hr 12 min 36 sec)
Heartbeat CPU 0 instructions: 82000460 cycles: 59899671 heartbeat IPC: 0.4369 cumulative IPC: 0.6897 (Simulation time: 00 hr 12 min 48 sec)
Heartbeat CPU 0 instructions: 82500463 cycles: 61139311 heartbeat IPC: 0.4033 cumulative IPC: 0.6823 (Simulation time: 00 hr 12 min 59 sec)
Heartbeat CPU 0 instructions: 83000465 cycles: 62326197 heartbeat IPC: 0.4213 cumulative IPC: 0.6759 (Simulation time: 00 hr 13 min 10 sec)
Heartbeat CPU 0 instructions: 83500471 cycles: 63607767 heartbeat IPC: 0.3902 cumulative IPC: 0.6686 (Simulation time: 00 hr 13 min 21 sec)
Heartbeat CPU 0 instructions: 84000471 cycles: 65000683 heartbeat IPC: 0.359 cumulative IPC: 0.6602 (Simulation time: 00 hr 13 min 34 sec)
Heartbeat CPU 0 instructions: 84500471 cycles: 65889345 heartbeat IPC: 0.5626 cumulative IPC: 0.6586 (Simulation time: 00 hr 13 min 41 sec)
Heartbeat CPU 0 instructions: 85000471 cycles: 66543281 heartbeat IPC: 0.7646 cumulative IPC: 0.6599 (Simulation time: 00 hr 13 min 47 sec)
Heartbeat CPU 0 instructions: 85500472 cycles: 66933292 heartbeat IPC: 1.282 cumulative IPC: 0.6644 (Simulation time: 00 hr 13 min 51 sec)
Heartbeat CPU 0 instructions: 86000474 cycles: 67458221 heartbeat IPC: 0.9525 cumulative IPC: 0.6672 (Simulation time: 00 hr 13 min 55 sec)
Heartbeat CPU 0 instructions: 86500476 cycles: 68762003 heartbeat IPC: 0.3835 cumulative IPC: 0.6605 (Simulation time: 00 hr 14 min 05 sec)
Heartbeat CPU 0 instructions: 87000481 cycles: 69914030 heartbeat IPC: 0.434 cumulative IPC: 0.6559 (Simulation time: 00 hr 14 min 15 sec)
Heartbeat CPU 0 instructions: 87500484 cycles: 71199206 heartbeat IPC: 0.3891 cumulative IPC: 0.65 (Simulation time: 00 hr 14 min 25 sec)
Heartbeat CPU 0 instructions: 88000484 cycles: 72405237 heartbeat IPC: 0.4146 cumulative IPC: 0.6451 (Simulation time: 00 hr 14 min 34 sec)
Heartbeat CPU 0 instructions: 88500486 cycles: 73530502 heartbeat IPC: 0.4443 cumulative IPC: 0.6414 (Simulation time: 00 hr 14 min 43 sec)
Heartbeat CPU 0 instructions: 89000486 cycles: 74688873 heartbeat IPC: 0.4316 cumulative IPC: 0.6374 (Simulation time: 00 hr 14 min 53 sec)
Heartbeat CPU 0 instructions: 89500488 cycles: 75146025 heartbeat IPC: 1.094 cumulative IPC: 0.6408 (Simulation time: 00 hr 14 min 57 sec)
Heartbeat CPU 0 instructions: 90000491 cycles: 75594398 heartbeat IPC: 1.115 cumulative IPC: 0.6442 (Simulation time: 00 hr 15 min 01 sec)
Heartbeat CPU 0 instructions: 90500491 cycles: 75966830 heartbeat IPC: 1.343 cumulative IPC: 0.6484 (Simulation time: 00 hr 15 min 05 sec)
Heartbeat CPU 0 instructions: 91000498 cycles: 76322684 heartbeat IPC: 1.405 cumulative IPC: 0.6527 (Simulation time: 00 hr 15 min 08 sec)
Heartbeat CPU 0 instructions: 91500498 cycles: 76728638 heartbeat IPC: 1.232 cumulative IPC: 0.6564 (Simulation time: 00 hr 15 min 12 sec)
Heartbeat CPU 0 instructions: 92000498 cycles: 77232498 heartbeat IPC: 0.9923 cumulative IPC: 0.659 (Simulation time: 00 hr 15 min 17 sec)
Heartbeat CPU 0 instructions: 92500505 cycles: 78029441 heartbeat IPC: 0.6274 cumulative IPC: 0.6587 (Simulation time: 00 hr 15 min 23 sec)
Heartbeat CPU 0 instructions: 93000508 cycles: 78705534 heartbeat IPC: 0.7395 cumulative IPC: 0.6595 (Simulation time: 00 hr 15 min 30 sec)
Heartbeat CPU 0 instructions: 93500515 cycles: 79213349 heartbeat IPC: 0.9846 cumulative IPC: 0.662 (Simulation time: 00 hr 15 min 34 sec)
Heartbeat CPU 0 instructions: 94000516 cycles: 79762753 heartbeat IPC: 0.9101 cumulative IPC: 0.6641 (Simulation time: 00 hr 15 min 39 sec)
Heartbeat CPU 0 instructions: 94500517 cycles: 80182356 heartbeat IPC: 1.192 cumulative IPC: 0.6674 (Simulation time: 00 hr 15 min 43 sec)
Heartbeat CPU 0 instructions: 95000520 cycles: 80631385 heartbeat IPC: 1.114 cumulative IPC: 0.6704 (Simulation time: 00 hr 15 min 47 sec)
Heartbeat CPU 0 instructions: 95500522 cycles: 81068104 heartbeat IPC: 1.145 cumulative IPC: 0.6734 (Simulation time: 00 hr 15 min 52 sec)
Heartbeat CPU 0 instructions: 96000522 cycles: 81551043 heartbeat IPC: 1.035 cumulative IPC: 0.676 (Simulation time: 00 hr 15 min 56 sec)
Heartbeat CPU 0 instructions: 96500525 cycles: 82043295 heartbeat IPC: 1.016 cumulative IPC: 0.6784 (Simulation time: 00 hr 16 min 01 sec)
Heartbeat CPU 0 instructions: 97000525 cycles: 82496969 heartbeat IPC: 1.102 cumulative IPC: 0.6812 (Simulation time: 00 hr 16 min 05 sec)
Heartbeat CPU 0 instructions: 97500526 cycles: 82940967 heartbeat IPC: 1.126 cumulative IPC: 0.6841 (Simulation time: 00 hr 16 min 09 sec)
Heartbeat CPU 0 instructions: 98000527 cycles: 83396226 heartbeat IPC: 1.098 cumulative IPC: 0.6868 (Simulation time: 00 hr 16 min 14 sec)
Heartbeat CPU 0 instructions: 98500533 cycles: 83680493 heartbeat IPC: 1.759 cumulative IPC: 0.6911 (Simulation time: 00 hr 16 min 17 sec)
Heartbeat CPU 0 instructions: 99000539 cycles: 83961090 heartbeat IPC: 1.782 cumulative IPC: 0.6955 (Simulation time: 00 hr 16 min 19 sec)
Heartbeat CPU 0 instructions: 99500540 cycles: 84397497 heartbeat IPC: 1.146 cumulative IPC: 0.6982 (Simulation time: 00 hr 16 min 24 sec)
Heartbeat CPU 0 instructions: 100000544 cycles: 84926252 heartbeat IPC: 0.9456 cumulative IPC: 0.7001 (Simulation time: 00 hr 16 min 28 sec)
Heartbeat CPU 0 instructions: 100500544 cycles: 85390526 heartbeat IPC: 1.077 cumulative IPC: 0.7025 (Simulation time: 00 hr 16 min 33 sec)
Heartbeat CPU 0 instructions: 101000546 cycles: 85817340 heartbeat IPC: 1.171 cumulative IPC: 0.7053 (Simulation time: 00 hr 16 min 37 sec)
Heartbeat CPU 0 instructions: 101500548 cycles: 86335215 heartbeat IPC: 0.9655 cumulative IPC: 0.7071 (Simulation time: 00 hr 16 min 41 sec)
Heartbeat CPU 0 instructions: 102000549 cycles: 86857333 heartbeat IPC: 0.9576 cumulative IPC: 0.7089 (Simulation time: 00 hr 16 min 46 sec)
Heartbeat CPU 0 instructions: 102500556 cycles: 87381294 heartbeat IPC: 0.9543 cumulative IPC: 0.7106 (Simulation time: 00 hr 16 min 51 sec)
Heartbeat CPU 0 instructions: 103000560 cycles: 87945952 heartbeat IPC: 0.8855 cumulative IPC: 0.712 (Simulation time: 00 hr 16 min 56 sec)
Heartbeat CPU 0 instructions: 103500560 cycles: 88420788 heartbeat IPC: 1.053 cumulative IPC: 0.7141 (Simulation time: 00 hr 17 min 00 sec)
Heartbeat CPU 0 instructions: 104000562 cycles: 89041543 heartbeat IPC: 0.8055 cumulative IPC: 0.7149 (Simulation time: 00 hr 17 min 05 sec)
Heartbeat CPU 0 instructions: 104500568 cycles: 89607516 heartbeat IPC: 0.8834 cumulative IPC: 0.7161 (Simulation time: 00 hr 17 min 10 sec)
Heartbeat CPU 0 instructions: 105000574 cycles: 90850542 heartbeat IPC: 0.4022 cumulative IPC: 0.7111 (Simulation time: 00 hr 17 min 21 sec)
Heartbeat CPU 0 instructions: 105500581 cycles: 92134007 heartbeat IPC: 0.3896 cumulative IPC: 0.7058 (Simulation time: 00 hr 17 min 34 sec)
Heartbeat CPU 0 instructions: 106000585 cycles: 92453510 heartbeat IPC: 1.565 cumulative IPC: 0.7093 (Simulation time: 00 hr 17 min 37 sec)
Heartbeat CPU 0 instructions: 106500585 cycles: 92800259 heartbeat IPC: 1.442 cumulative IPC: 0.7125 (Simulation time: 00 hr 17 min 41 sec)
Heartbeat CPU 0 instructions: 107000591 cycles: 93184842 heartbeat IPC: 1.3 cumulative IPC: 0.7154 (Simulation time: 00 hr 17 min 46 sec)
Heartbeat CPU 0 instructions: 107500592 cycles: 93601034 heartbeat IPC: 1.201 cumulative IPC: 0.7179 (Simulation time: 00 hr 17 min 50 sec)
Heartbeat CPU 0 instructions: 108000592 cycles: 94133078 heartbeat IPC: 0.9398 cumulative IPC: 0.7193 (Simulation time: 00 hr 17 min 55 sec)
Heartbeat CPU 0 instructions: 108500593 cycles: 95518474 heartbeat IPC: 0.3609 cumulative IPC: 0.7133 (Simulation time: 00 hr 18 min 07 sec)
Heartbeat CPU 0 instructions: 109000597 cycles: 96094189 heartbeat IPC: 0.8685 cumulative IPC: 0.7144 (Simulation time: 00 hr 18 min 11 sec)
Heartbeat CPU 0 instructions: 109500597 cycles: 96767125 heartbeat IPC: 0.743 cumulative IPC: 0.7146 (Simulation time: 00 hr 18 min 17 sec)
Heartbeat CPU 0 instructions: 110000603 cycles: 97630367 heartbeat IPC: 0.5792 cumulative IPC: 0.7132 (Simulation time: 00 hr 18 min 23 sec)
Heartbeat CPU 0 instructions: 110500605 cycles: 98246605 heartbeat IPC: 0.8114 cumulative IPC: 0.7139 (Simulation time: 00 hr 18 min 28 sec)
Heartbeat CPU 0 instructions: 111000607 cycles: 98907629 heartbeat IPC: 0.7564 cumulative IPC: 0.7143 (Simulation time: 00 hr 18 min 33 sec)
Heartbeat CPU 0 instructions: 111500613 cycles: 99485979 heartbeat IPC: 0.8645 cumulative IPC: 0.7153 (Simulation time: 00 hr 18 min 38 sec)
Heartbeat CPU 0 instructions: 112000615 cycles: 100133186 heartbeat IPC: 0.7726 cumulative IPC: 0.7157 (Simulation time: 00 hr 18 min 43 sec)
Heartbeat CPU 0 instructions: 112500616 cycles: 100575392 heartbeat IPC: 1.131 cumulative IPC: 0.7178 (Simulation time: 00 hr 18 min 49 sec)
Heartbeat CPU 0 instructions: 113000623 cycles: 100947739 heartbeat IPC: 1.343 cumulative IPC: 0.7205 (Simulation time: 00 hr 18 min 55 sec)
Heartbeat CPU 0 instructions: 113500623 cycles: 101520331 heartbeat IPC: 0.8732 cumulative IPC: 0.7215 (Simulation time: 00 hr 19 min 02 sec)
Heartbeat CPU 0 instructions: 114000628 cycles: 103081670 heartbeat IPC: 0.3202 cumulative IPC: 0.7145 (Simulation time: 00 hr 19 min 14 sec)
Heartbeat CPU 0 instructions: 114500629 cycles: 104103514 heartbeat IPC: 0.4893 cumulative IPC: 0.7119 (Simulation time: 00 hr 19 min 24 sec)
Heartbeat CPU 0 instructions: 115000629 cycles: 105125856 heartbeat IPC: 0.4891 cumulative IPC: 0.7094 (Simulation time: 00 hr 19 min 33 sec)
Heartbeat CPU 0 instructions: 115500634 cycles: 106325716 heartbeat IPC: 0.4167 cumulative IPC: 0.7057 (Simulation time: 00 hr 19 min 44 sec)
Heartbeat CPU 0 instructions: 116000640 cycles: 107729246 heartbeat IPC: 0.3562 cumulative IPC: 0.7005 (Simulation time: 00 hr 19 min 55 sec)
Heartbeat CPU 0 instructions: 116500645 cycles: 108904169 heartbeat IPC: 0.4256 cumulative IPC: 0.6971 (Simulation time: 00 hr 20 min 05 sec)
Heartbeat CPU 0 instructions: 117000646 cycles: 110250089 heartbeat IPC: 0.3715 cumulative IPC: 0.6925 (Simulation time: 00 hr 20 min 16 sec)
Heartbeat CPU 0 instructions: 117500647 cycles: 111464371 heartbeat IPC: 0.4118 cumulative IPC: 0.6891 (Simulation time: 00 hr 20 min 27 sec)
Heartbeat CPU 0 instructions: 118000647 cycles: 112567260 heartbeat IPC: 0.4534 cumulative IPC: 0.6864 (Simulation time: 00 hr 20 min 35 sec)
Heartbeat CPU 0 instructions: 118500647 cycles: 113070093 heartbeat IPC: 0.9944 cumulative IPC: 0.688 (Simulation time: 00 hr 20 min 39 sec)
Heartbeat CPU 0 instructions: 119000647 cycles: 113702395 heartbeat IPC: 0.7908 cumulative IPC: 0.6886 (Simulation time: 00 hr 20 min 44 sec)
Heartbeat CPU 0 instructions: 119500649 cycles: 114123758 heartbeat IPC: 1.187 cumulative IPC: 0.6907 (Simulation time: 00 hr 20 min 48 sec)
Heartbeat CPU 0 instructions: 120000653 cycles: 115202545 heartbeat IPC: 0.4635 cumulative IPC: 0.6883 (Simulation time: 00 hr 20 min 56 sec)
Heartbeat CPU 0 instructions: 120500658 cycles: 116254707 heartbeat IPC: 0.4752 cumulative IPC: 0.6861 (Simulation time: 00 hr 21 min 04 sec)
Heartbeat CPU 0 instructions: 121000659 cycles: 117559717 heartbeat IPC: 0.3831 cumulative IPC: 0.6823 (Simulation time: 00 hr 21 min 14 sec)
Heartbeat CPU 0 instructions: 121500661 cycles: 118828840 heartbeat IPC: 0.394 cumulative IPC: 0.6789 (Simulation time: 00 hr 21 min 23 sec)
Heartbeat CPU 0 instructions: 122000662 cycles: 119893306 heartbeat IPC: 0.4697 cumulative IPC: 0.6768 (Simulation time: 00 hr 21 min 31 sec)
Heartbeat CPU 0 instructions: 122500663 cycles: 121335186 heartbeat IPC: 0.3468 cumulative IPC: 0.6723 (Simulation time: 00 hr 21 min 43 sec)
Heartbeat CPU 0 instructions: 123000665 cycles: 121999311 heartbeat IPC: 0.7529 cumulative IPC: 0.6728 (Simulation time: 00 hr 21 min 48 sec)
Heartbeat CPU 0 instructions: 123500667 cycles: 122539222 heartbeat IPC: 0.9261 cumulative IPC: 0.6741 (Simulation time: 00 hr 21 min 52 sec)
Heartbeat CPU 0 instructions: 124000667 cycles: 123014148 heartbeat IPC: 1.053 cumulative IPC: 0.6757 (Simulation time: 00 hr 21 min 56 sec)
Heartbeat CPU 0 instructions: 124500667 cycles: 123461386 heartbeat IPC: 1.118 cumulative IPC: 0.6775 (Simulation time: 00 hr 22 min 00 sec)
Heartbeat CPU 0 instructions: 125000667 cycles: 123833298 heartbeat IPC: 1.344 cumulative IPC: 0.6798 (Simulation time: 00 hr 22 min 03 sec)
Heartbeat CPU 0 instructions: 125500672 cycles: 124346281 heartbeat IPC: 0.9747 cumulative IPC: 0.6811 (Simulation time: 00 hr 22 min 08 sec)
Heartbeat CPU 0 instructions: 126000679 cycles: 124754687 heartbeat IPC: 1.224 cumulative IPC: 0.6831 (Simulation time: 00 hr 22 min 12 sec)
Heartbeat CPU 0 instructions: 126500679 cycles: 125317013 heartbeat IPC: 0.8892 cumulative IPC: 0.6842 (Simulation time: 00 hr 22 min 16 sec)
Heartbeat CPU 0 instructions: 127000681 cycles: 126019744 heartbeat IPC: 0.7115 cumulative IPC: 0.6844 (Simulation time: 00 hr 22 min 22 sec)
Heartbeat CPU 0 instructions: 127500681 cycles: 126496665 heartbeat IPC: 1.048 cumulative IPC: 0.6859 (Simulation time: 00 hr 22 min 26 sec)
Heartbeat CPU 0 instructions: 128000682 cycles: 127135100 heartbeat IPC: 0.7832 cumulative IPC: 0.6864 (Simulation time: 00 hr 22 min 31 sec)
Heartbeat CPU 0 instructions: 128500683 cycles: 127985569 heartbeat IPC: 0.5879 cumulative IPC: 0.6857 (Simulation time: 00 hr 22 min 38 sec)
Heartbeat CPU 0 instructions: 129000690 cycles: 128499234 heartbeat IPC: 0.9734 cumulative IPC: 0.687 (Simulation time: 00 hr 22 min 42 sec)
Heartbeat CPU 0 instructions: 129500696 cycles: 128960171 heartbeat IPC: 1.085 cumulative IPC: 0.6886 (Simulation time: 00 hr 22 min 46 sec)
Heartbeat CPU 0 instructions: 130000697 cycles: 129542681 heartbeat IPC: 0.8584 cumulative IPC: 0.6894 (Simulation time: 00 hr 22 min 51 sec)
Heartbeat CPU 0 instructions: 130500697 cycles: 129977277 heartbeat IPC: 1.15 cumulative IPC: 0.6911 (Simulation time: 00 hr 22 min 55 sec)
Heartbeat CPU 0 instructions: 131000700 cycles: 130426201 heartbeat IPC: 1.114 cumulative IPC: 0.6928 (Simulation time: 00 hr 22 min 59 sec)
Heartbeat CPU 0 instructions: 131500702 cycles: 130911070 heartbeat IPC: 1.031 cumulative IPC: 0.6942 (Simulation time: 00 hr 23 min 04 sec)
Heartbeat CPU 0 instructions: 132000704 cycles: 131431784 heartbeat IPC: 0.9602 cumulative IPC: 0.6953 (Simulation time: 00 hr 23 min 08 sec)
Heartbeat CPU 0 instructions: 132500708 cycles: 131905168 heartbeat IPC: 1.056 cumulative IPC: 0.6968 (Simulation time: 00 hr 23 min 12 sec)
Heartbeat CPU 0 instructions: 133000710 cycles: 132348755 heartbeat IPC: 1.127 cumulative IPC: 0.6984 (Simulation time: 00 hr 23 min 16 sec)
Heartbeat CPU 0 instructions: 133500713 cycles: 132857831 heartbeat IPC: 0.9822 cumulative IPC: 0.6996 (Simulation time: 00 hr 23 min 21 sec)
Heartbeat CPU 0 instructions: 134000713 cycles: 133237574 heartbeat IPC: 1.317 cumulative IPC: 0.7016 (Simulation time: 00 hr 23 min 24 sec)
Heartbeat CPU 0 instructions: 134500717 cycles: 133542334 heartbeat IPC: 1.641 cumulative IPC: 0.7039 (Simulation time: 00 hr 23 min 27 sec)
Heartbeat CPU 0 instructions: 135000719 cycles: 133831631 heartbeat IPC: 1.728 cumulative IPC: 0.7064 (Simulation time: 00 hr 23 min 30 sec)
Heartbeat CPU 0 instructions: 135500719 cycles: 134470184 heartbeat IPC: 0.783 cumulative IPC: 0.7068 (Simulation time: 00 hr 23 min 35 sec)
Heartbeat CPU 0 instructions: 136000722 cycles: 135041674 heartbeat IPC: 0.8749 cumulative IPC: 0.7076 (Simulation time: 00 hr 23 min 40 sec)
Heartbeat CPU 0 instructions: 136500722 cycles: 135505882 heartbeat IPC: 1.077 cumulative IPC: 0.709 (Simulation time: 00 hr 23 min 44 sec)
Heartbeat CPU 0 instructions: 137000724 cycles: 135921658 heartbeat IPC: 1.203 cumulative IPC: 0.7107 (Simulation time: 00 hr 23 min 48 sec)
Heartbeat CPU 0 instructions: 137500724 cycles: 136397313 heartbeat IPC: 1.051 cumulative IPC: 0.712 (Simulation time: 00 hr 23 min 52 sec)
Heartbeat CPU 0 instructions: 138000724 cycles: 136939269 heartbeat IPC: 0.9226 cumulative IPC: 0.7129 (Simulation time: 00 hr 23 min 57 sec)
Heartbeat CPU 0 instructions: 138500729 cycles: 137446059 heartbeat IPC: 0.9866 cumulative IPC: 0.714 (Simulation time: 00 hr 24 min 01 sec)
Heartbeat CPU 0 instructions: 139000733 cycles: 138003859 heartbeat IPC: 0.8964 cumulative IPC: 0.7149 (Simulation time: 00 hr 24 min 06 sec)
Heartbeat CPU 0 instructions: 139500733 cycles: 138514710 heartbeat IPC: 0.9788 cumulative IPC: 0.7159 (Simulation time: 00 hr 24 min 10 sec)
Heartbeat CPU 0 instructions: 140000733 cycles: 139165142 heartbeat IPC: 0.7687 cumulative IPC: 0.7162 (Simulation time: 00 hr 24 min 15 sec)
Heartbeat CPU 0 instructions: 140500733 cycles: 139767471 heartbeat IPC: 0.8301 cumulative IPC: 0.7168 (Simulation time: 00 hr 24 min 21 sec)
Heartbeat CPU 0 instructions: 141000740 cycles: 141090303 heartbeat IPC: 0.378 cumulative IPC: 0.7132 (Simulation time: 00 hr 24 min 33 sec)
Heartbeat CPU 0 instructions: 141500743 cycles: 142020044 heartbeat IPC: 0.5378 cumulative IPC: 0.712 (Simulation time: 00 hr 24 min 42 sec)
Heartbeat CPU 0 instructions: 142000749 cycles: 142368341 heartbeat IPC: 1.436 cumulative IPC: 0.7139 (Simulation time: 00 hr 24 min 46 sec)
Heartbeat CPU 0 instructions: 142500749 cycles: 142743337 heartbeat IPC: 1.333 cumulative IPC: 0.7157 (Simulation time: 00 hr 24 min 50 sec)
Heartbeat CPU 0 instructions: 143000751 cycles: 143126489 heartbeat IPC: 1.305 cumulative IPC: 0.7175 (Simulation time: 00 hr 24 min 54 sec)
Heartbeat CPU 0 instructions: 143500751 cycles: 143548859 heartbeat IPC: 1.184 cumulative IPC: 0.719 (Simulation time: 00 hr 24 min 59 sec)
Heartbeat CPU 0 instructions: 144000753 cycles: 143951059 heartbeat IPC: 1.243 cumulative IPC: 0.7206 (Simulation time: 00 hr 25 min 03 sec)
Heartbeat CPU 0 instructions: 144500759 cycles: 145034606 heartbeat IPC: 0.4615 cumulative IPC: 0.7185 (Simulation time: 00 hr 25 min 12 sec)
Heartbeat CPU 0 instructions: 145000764 cycles: 146242608 heartbeat IPC: 0.4139 cumulative IPC: 0.7157 (Simulation time: 00 hr 25 min 21 sec)
Heartbeat CPU 0 instructions: 145500766 cycles: 146837365 heartbeat IPC: 0.8407 cumulative IPC: 0.7163 (Simulation time: 00 hr 25 min 26 sec)
Heartbeat CPU 0 instructions: 146000766 cycles: 147732019 heartbeat IPC: 0.5589 cumulative IPC: 0.7152 (Simulation time: 00 hr 25 min 33 sec)
Heartbeat CPU 0 instructions: 146500767 cycles: 148344216 heartbeat IPC: 0.8167 cumulative IPC: 0.7157 (Simulation time: 00 hr 25 min 38 sec)
Heartbeat CPU 0 instructions: 147000767 cycles: 149047512 heartbeat IPC: 0.7109 cumulative IPC: 0.7156 (Simulation time: 00 hr 25 min 43 sec)
Heartbeat CPU 0 instructions: 147500772 cycles: 149628024 heartbeat IPC: 0.8613 cumulative IPC: 0.7163 (Simulation time: 00 hr 25 min 48 sec)
Heartbeat CPU 0 instructions: 148000775 cycles: 150251916 heartbeat IPC: 0.8014 cumulative IPC: 0.7166 (Simulation time: 00 hr 25 min 52 sec)
Heartbeat CPU 0 instructions: 148500777 cycles: 151484995 heartbeat IPC: 0.4055 cumulative IPC: 0.7139 (Simulation time: 00 hr 26 min 01 sec)
Heartbeat CPU 0 instructions: 149000781 cycles: 152432469 heartbeat IPC: 0.5277 cumulative IPC: 0.7126 (Simulation time: 00 hr 26 min 10 sec)
Heartbeat CPU 0 instructions: 149500784 cycles: 153491642 heartbeat IPC: 0.4721 cumulative IPC: 0.7108 (Simulation time: 00 hr 26 min 20 sec)
Heartbeat CPU 0 instructions: 150000784 cycles: 154714152 heartbeat IPC: 0.409 cumulative IPC: 0.7082 (Simulation time: 00 hr 26 min 30 sec)
Heartbeat CPU 0 instructions: 150500787 cycles: 155893819 heartbeat IPC: 0.4239 cumulative IPC: 0.7058 (Simulation time: 00 hr 26 min 40 sec)
Heartbeat CPU 0 instructions: 151000787 cycles: 157132565 heartbeat IPC: 0.4036 cumulative IPC: 0.7032 (Simulation time: 00 hr 26 min 50 sec)
Heartbeat CPU 0 instructions: 151500789 cycles: 158368874 heartbeat IPC: 0.4044 cumulative IPC: 0.7007 (Simulation time: 00 hr 27 min 00 sec)
Heartbeat CPU 0 instructions: 152000789 cycles: 159386963 heartbeat IPC: 0.4911 cumulative IPC: 0.6992 (Simulation time: 00 hr 27 min 08 sec)
Heartbeat CPU 0 instructions: 152500789 cycles: 159884274 heartbeat IPC: 1.005 cumulative IPC: 0.7002 (Simulation time: 00 hr 27 min 12 sec)
Heartbeat CPU 0 instructions: 153000791 cycles: 160508854 heartbeat IPC: 0.8005 cumulative IPC: 0.7007 (Simulation time: 00 hr 27 min 17 sec)
Heartbeat CPU 0 instructions: 153500797 cycles: 160909345 heartbeat IPC: 1.248 cumulative IPC: 0.7021 (Simulation time: 00 hr 27 min 20 sec)
Heartbeat CPU 0 instructions: 154000798 cycles: 162014044 heartbeat IPC: 0.4526 cumulative IPC: 0.7003 (Simulation time: 00 hr 27 min 28 sec)
Heartbeat CPU 0 instructions: 154500802 cycles: 163070878 heartbeat IPC: 0.4731 cumulative IPC: 0.6987 (Simulation time: 00 hr 27 min 36 sec)
Heartbeat CPU 0 instructions: 155000802 cycles: 164353874 heartbeat IPC: 0.3897 cumulative IPC: 0.6961 (Simulation time: 00 hr 27 min 45 sec)
Heartbeat CPU 0 instructions: 155500802 cycles: 165677310 heartbeat IPC: 0.3778 cumulative IPC: 0.6933 (Simulation time: 00 hr 27 min 53 sec)
Heartbeat CPU 0 instructions: 156000806 cycles: 166769835 heartbeat IPC: 0.4577 cumulative IPC: 0.6916 (Simulation time: 00 hr 28 min 01 sec)
Heartbeat CPU 0 instructions: 156500806 cycles: 168125386 heartbeat IPC: 0.3689 cumulative IPC: 0.6888 (Simulation time: 00 hr 28 min 11 sec)
Heartbeat CPU 0 instructions: 157000807 cycles: 168637420 heartbeat IPC: 0.9765 cumulative IPC: 0.6897 (Simulation time: 00 hr 28 min 15 sec)
Heartbeat CPU 0 instructions: 157500808 cycles: 169070687 heartbeat IPC: 1.154 cumulative IPC: 0.691 (Simulation time: 00 hr 28 min 19 sec)
Heartbeat CPU 0 instructions: 158000809 cycles: 169505882 heartbeat IPC: 1.149 cumulative IPC: 0.6923 (Simulation time: 00 hr 28 min 22 sec)
Heartbeat CPU 0 instructions: 158500811 cycles: 169874816 heartbeat IPC: 1.355 cumulative IPC: 0.6939 (Simulation time: 00 hr 28 min 26 sec)
Heartbeat CPU 0 instructions: 159000817 cycles: 170246744 heartbeat IPC: 1.344 cumulative IPC: 0.6954 (Simulation time: 00 hr 28 min 29 sec)
Heartbeat CPU 0 instructions: 159500817 cycles: 170702601 heartbeat IPC: 1.097 cumulative IPC: 0.6966 (Simulation time: 00 hr 28 min 33 sec)
Heartbeat CPU 0 instructions: 160000817 cycles: 171418752 heartbeat IPC: 0.6982 cumulative IPC: 0.6966 (Simulation time: 00 hr 28 min 38 sec)
Heartbeat CPU 0 instructions: 160500819 cycles: 172205427 heartbeat IPC: 0.6356 cumulative IPC: 0.6963 (Simulation time: 00 hr 28 min 44 sec)
Heartbeat CPU 0 instructions: 161000822 cycles: 172732615 heartbeat IPC: 0.9484 cumulative IPC: 0.6971 (Simulation time: 00 hr 28 min 49 sec)
Heartbeat CPU 0 instructions: 161500822 cycles: 173198554 heartbeat IPC: 1.073 cumulative IPC: 0.6982 (Simulation time: 00 hr 28 min 52 sec)
Heartbeat CPU 0 instructions: 162000822 cycles: 173764691 heartbeat IPC: 0.8832 cumulative IPC: 0.6989 (Simulation time: 00 hr 28 min 57 sec)
Heartbeat CPU 0 instructions: 162500822 cycles: 174172630 heartbeat IPC: 1.226 cumulative IPC: 0.7002 (Simulation time: 00 hr 29 min 00 sec)
Heartbeat CPU 0 instructions: 163000828 cycles: 174608943 heartbeat IPC: 1.146 cumulative IPC: 0.7014 (Simulation time: 00 hr 29 min 04 sec)
Heartbeat CPU 0 instructions: 163500833 cycles: 175125151 heartbeat IPC: 0.9686 cumulative IPC: 0.7023 (Simulation time: 00 hr 29 min 08 sec)
Heartbeat CPU 0 instructions: 164000835 cycles: 175592451 heartbeat IPC: 1.07 cumulative IPC: 0.7033 (Simulation time: 00 hr 29 min 12 sec)
Heartbeat CPU 0 instructions: 164500842 cycles: 176061176 heartbeat IPC: 1.067 cumulative IPC: 0.7044 (Simulation time: 00 hr 29 min 16 sec)
Heartbeat CPU 0 instructions: 165000843 cycles: 176492168 heartbeat IPC: 1.16 cumulative IPC: 0.7056 (Simulation time: 00 hr 29 min 20 sec)
Heartbeat CPU 0 instructions: 165500847 cycles: 177037688 heartbeat IPC: 0.9166 cumulative IPC: 0.7063 (Simulation time: 00 hr 29 min 25 sec)
Heartbeat CPU 0 instructions: 166000851 cycles: 177348900 heartbeat IPC: 1.607 cumulative IPC: 0.708 (Simulation time: 00 hr 29 min 27 sec)
Heartbeat CPU 0 instructions: 166500851 cycles: 177616830 heartbeat IPC: 1.866 cumulative IPC: 0.7099 (Simulation time: 00 hr 29 min 30 sec)
Heartbeat CPU 0 instructions: 167000852 cycles: 177926649 heartbeat IPC: 1.614 cumulative IPC: 0.7116 (Simulation time: 00 hr 29 min 33 sec)
Heartbeat CPU 0 instructions: 167500858 cycles: 178482211 heartbeat IPC: 0.9 cumulative IPC: 0.7122 (Simulation time: 00 hr 29 min 37 sec)
Heartbeat CPU 0 instructions: 168000859 cycles: 178998601 heartbeat IPC: 0.9683 cumulative IPC: 0.713 (Simulation time: 00 hr 29 min 41 sec)
Heartbeat CPU 0 instructions: 168500863 cycles: 179438403 heartbeat IPC: 1.137 cumulative IPC: 0.7141 (Simulation time: 00 hr 29 min 45 sec)
Heartbeat CPU 0 instructions: 169000869 cycles: 179919410 heartbeat IPC: 1.039 cumulative IPC: 0.7151 (Simulation time: 00 hr 29 min 49 sec)
Heartbeat CPU 0 instructions: 169500870 cycles: 180405312 heartbeat IPC: 1.029 cumulative IPC: 0.716 (Simulation time: 00 hr 29 min 53 sec)
Heartbeat CPU 0 instructions: 170000873 cycles: 180950687 heartbeat IPC: 0.9168 cumulative IPC: 0.7166 (Simulation time: 00 hr 29 min 57 sec)
Heartbeat CPU 0 instructions: 170500877 cycles: 181426040 heartbeat IPC: 1.052 cumulative IPC: 0.7176 (Simulation time: 00 hr 30 min 01 sec)
Heartbeat CPU 0 instructions: 171000877 cycles: 181952369 heartbeat IPC: 0.95 cumulative IPC: 0.7183 (Simulation time: 00 hr 30 min 05 sec)
Heartbeat CPU 0 instructions: 171500877 cycles: 182473396 heartbeat IPC: 0.9596 cumulative IPC: 0.7191 (Simulation time: 00 hr 30 min 10 sec)
Heartbeat CPU 0 instructions: 172000877 cycles: 183151494 heartbeat IPC: 0.7374 cumulative IPC: 0.7191 (Simulation time: 00 hr 30 min 15 sec)
Heartbeat CPU 0 instructions: 172500884 cycles: 183670155 heartbeat IPC: 0.964 cumulative IPC: 0.7199 (Simulation time: 00 hr 30 min 19 sec)
Heartbeat CPU 0 instructions: 173000888 cycles: 184971257 heartbeat IPC: 0.3843 cumulative IPC: 0.7173 (Simulation time: 00 hr 30 min 31 sec)
Heartbeat CPU 0 instructions: 173500889 cycles: 185621519 heartbeat IPC: 0.7689 cumulative IPC: 0.7175 (Simulation time: 00 hr 30 min 37 sec)
Heartbeat CPU 0 instructions: 174000890 cycles: 185967297 heartbeat IPC: 1.446 cumulative IPC: 0.719 (Simulation time: 00 hr 30 min 40 sec)
Heartbeat CPU 0 instructions: 174500891 cycles: 186363155 heartbeat IPC: 1.263 cumulative IPC: 0.7202 (Simulation time: 00 hr 30 min 44 sec)
Heartbeat CPU 0 instructions: 175000891 cycles: 186751394 heartbeat IPC: 1.288 cumulative IPC: 0.7215 (Simulation time: 00 hr 30 min 48 sec)
Heartbeat CPU 0 instructions: 175500894 cycles: 187326685 heartbeat IPC: 0.8691 cumulative IPC: 0.722 (Simulation time: 00 hr 30 min 54 sec)
Heartbeat CPU 0 instructions: 176000894 cycles: 188103940 heartbeat IPC: 0.6433 cumulative IPC: 0.7217 (Simulation time: 00 hr 31 min 00 sec)
Heartbeat CPU 0 instructions: 176500895 cycles: 189585673 heartbeat IPC: 0.3374 cumulative IPC: 0.7184 (Simulation time: 00 hr 31 min 10 sec)
Heartbeat CPU 0 instructions: 177000896 cycles: 190311383 heartbeat IPC: 0.689 cumulative IPC: 0.7183 (Simulation time: 00 hr 31 min 15 sec)
Heartbeat CPU 0 instructions: 177500897 cycles: 190833722 heartbeat IPC: 0.9572 cumulative IPC: 0.719 (Simulation time: 00 hr 31 min 19 sec)
Heartbeat CPU 0 instructions: 178000897 cycles: 191582001 heartbeat IPC: 0.6682 cumulative IPC: 0.7188 (Simulation time: 00 hr 31 min 24 sec)
Heartbeat CPU 0 instructions: 178500900 cycles: 192380511 heartbeat IPC: 0.6262 cumulative IPC: 0.7184 (Simulation time: 00 hr 31 min 30 sec)
Heartbeat CPU 0 instructions: 179000904 cycles: 193012699 heartbeat IPC: 0.7909 cumulative IPC: 0.7186 (Simulation time: 00 hr 31 min 34 sec)
Heartbeat CPU 0 instructions: 179500908 cycles: 193571142 heartbeat IPC: 0.8954 cumulative IPC: 0.7192 (Simulation time: 00 hr 31 min 39 sec)
Heartbeat CPU 0 instructions: 180000910 cycles: 194125027 heartbeat IPC: 0.9027 cumulative IPC: 0.7197 (Simulation time: 00 hr 31 min 43 sec)
Heartbeat CPU 0 instructions: 180500910 cycles: 195304614 heartbeat IPC: 0.4239 cumulative IPC: 0.7178 (Simulation time: 00 hr 31 min 50 sec)
Heartbeat CPU 0 instructions: 181000916 cycles: 196323425 heartbeat IPC: 0.4908 cumulative IPC: 0.7166 (Simulation time: 00 hr 31 min 58 sec)
Heartbeat CPU 0 instructions: 181500919 cycles: 197247722 heartbeat IPC: 0.541 cumulative IPC: 0.7157 (Simulation time: 00 hr 32 min 06 sec)
Heartbeat CPU 0 instructions: 182000924 cycles: 198354690 heartbeat IPC: 0.4517 cumulative IPC: 0.7141 (Simulation time: 00 hr 32 min 15 sec)
Heartbeat CPU 0 instructions: 182500925 cycles: 199598501 heartbeat IPC: 0.402 cumulative IPC: 0.712 (Simulation time: 00 hr 32 min 25 sec)
Heartbeat CPU 0 instructions: 183000932 cycles: 200719785 heartbeat IPC: 0.4459 cumulative IPC: 0.7104 (Simulation time: 00 hr 32 min 34 sec)
Heartbeat CPU 0 instructions: 183500933 cycles: 202024313 heartbeat IPC: 0.3833 cumulative IPC: 0.7081 (Simulation time: 00 hr 32 min 43 sec)
Heartbeat CPU 0 instructions: 184000934 cycles: 203266297 heartbeat IPC: 0.4026 cumulative IPC: 0.7061 (Simulation time: 00 hr 32 min 53 sec)
Heartbeat CPU 0 instructions: 184500936 cycles: 204349109 heartbeat IPC: 0.4618 cumulative IPC: 0.7048 (Simulation time: 00 hr 33 min 01 sec)
Heartbeat CPU 0 instructions: 185000936 cycles: 204976675 heartbeat IPC: 0.7967 cumulative IPC: 0.7051 (Simulation time: 00 hr 33 min 05 sec)
Heartbeat CPU 0 instructions: 185500938 cycles: 205453828 heartbeat IPC: 1.048 cumulative IPC: 0.7059 (Simulation time: 00 hr 33 min 09 sec)
Heartbeat CPU 0 instructions: 186000938 cycles: 205981475 heartbeat IPC: 0.9476 cumulative IPC: 0.7066 (Simulation time: 00 hr 33 min 13 sec)
Heartbeat CPU 0 instructions: 186500943 cycles: 207165459 heartbeat IPC: 0.4223 cumulative IPC: 0.7048 (Simulation time: 00 hr 33 min 21 sec)
Heartbeat CPU 0 instructions: 187000943 cycles: 208243302 heartbeat IPC: 0.4639 cumulative IPC: 0.7035 (Simulation time: 00 hr 33 min 28 sec)
Heartbeat CPU 0 instructions: 187500943 cycles: 209465791 heartbeat IPC: 0.409 cumulative IPC: 0.7017 (Simulation time: 00 hr 33 min 37 sec)
Heartbeat CPU 0 instructions: 188000943 cycles: 210672458 heartbeat IPC: 0.4144 cumulative IPC: 0.6999 (Simulation time: 00 hr 33 min 44 sec)
Heartbeat CPU 0 instructions: 188500948 cycles: 211700913 heartbeat IPC: 0.4862 cumulative IPC: 0.6988 (Simulation time: 00 hr 33 min 51 sec)
Heartbeat CPU 0 instructions: 189000948 cycles: 212976291 heartbeat IPC: 0.392 cumulative IPC: 0.6968 (Simulation time: 00 hr 34 min 01 sec)
Heartbeat CPU 0 instructions: 189500949 cycles: 213504382 heartbeat IPC: 0.9468 cumulative IPC: 0.6975 (Simulation time: 00 hr 34 min 04 sec)
Heartbeat CPU 0 instructions: 190000951 cycles: 213945365 heartbeat IPC: 1.134 cumulative IPC: 0.6985 (Simulation time: 00 hr 34 min 08 sec)
Heartbeat CPU 0 instructions: 190500952 cycles: 214385062 heartbeat IPC: 1.137 cumulative IPC: 0.6994 (Simulation time: 00 hr 34 min 11 sec)
Heartbeat CPU 0 instructions: 191000954 cycles: 214769773 heartbeat IPC: 1.3 cumulative IPC: 0.7006 (Simulation time: 00 hr 34 min 15 sec)
Heartbeat CPU 0 instructions: 191500954 cycles: 215133430 heartbeat IPC: 1.375 cumulative IPC: 0.7018 (Simulation time: 00 hr 34 min 18 sec)
Heartbeat CPU 0 instructions: 192000955 cycles: 215584229 heartbeat IPC: 1.109 cumulative IPC: 0.7027 (Simulation time: 00 hr 34 min 21 sec)
Heartbeat CPU 0 instructions: 192500955 cycles: 216292250 heartbeat IPC: 0.7062 cumulative IPC: 0.7027 (Simulation time: 00 hr 34 min 26 sec)
Heartbeat CPU 0 instructions: 193000959 cycles: 217040134 heartbeat IPC: 0.6686 cumulative IPC: 0.7026 (Simulation time: 00 hr 34 min 32 sec)
Heartbeat CPU 0 instructions: 193500962 cycles: 217576625 heartbeat IPC: 0.932 cumulative IPC: 0.7032 (Simulation time: 00 hr 34 min 36 sec)
Heartbeat CPU 0 instructions: 194000963 cycles: 218026935 heartbeat IPC: 1.11 cumulative IPC: 0.7041 (Simulation time: 00 hr 34 min 40 sec)
Heartbeat CPU 0 instructions: 194500969 cycles: 218569919 heartbeat IPC: 0.9208 cumulative IPC: 0.7047 (Simulation time: 00 hr 34 min 44 sec)
Heartbeat CPU 0 instructions: 195000971 cycles: 218966258 heartbeat IPC: 1.262 cumulative IPC: 0.7057 (Simulation time: 00 hr 34 min 47 sec)
Heartbeat CPU 0 instructions: 195500971 cycles: 219364457 heartbeat IPC: 1.256 cumulative IPC: 0.7068 (Simulation time: 00 hr 34 min 51 sec)
Heartbeat CPU 0 instructions: 196000976 cycles: 219954893 heartbeat IPC: 0.8468 cumulative IPC: 0.7072 (Simulation time: 00 hr 34 min 55 sec)
Heartbeat CPU 0 instructions: 196500976 cycles: 220402834 heartbeat IPC: 1.116 cumulative IPC: 0.7081 (Simulation time: 00 hr 34 min 59 sec)
Heartbeat CPU 0 instructions: 197000983 cycles: 220876633 heartbeat IPC: 1.055 cumulative IPC: 0.7089 (Simulation time: 00 hr 35 min 02 sec)
Heartbeat CPU 0 instructions: 197500983 cycles: 221297369 heartbeat IPC: 1.188 cumulative IPC: 0.7098 (Simulation time: 00 hr 35 min 06 sec)
Heartbeat CPU 0 instructions: 198000987 cycles: 221765820 heartbeat IPC: 1.067 cumulative IPC: 0.7106 (Simulation time: 00 hr 35 min 10 sec)
Heartbeat CPU 0 instructions: 198500988 cycles: 222087055 heartbeat IPC: 1.556 cumulative IPC: 0.7119 (Simulation time: 00 hr 35 min 12 sec)
Heartbeat CPU 0 instructions: 199000988 cycles: 222433901 heartbeat IPC: 1.442 cumulative IPC: 0.7132 (Simulation time: 00 hr 35 min 15 sec)
Heartbeat CPU 0 instructions: 199500988 cycles: 222727432 heartbeat IPC: 1.703 cumulative IPC: 0.7145 (Simulation time: 00 hr 35 min 18 sec)
Heartbeat CPU 0 instructions: 200000989 cycles: 223262866 heartbeat IPC: 0.9338 cumulative IPC: 0.7151 (Simulation time: 00 hr 35 min 22 sec)
Heartbeat CPU 0 instructions: 200500991 cycles: 223793035 heartbeat IPC: 0.9431 cumulative IPC: 0.7157 (Simulation time: 00 hr 35 min 26 sec)
Heartbeat CPU 0 instructions: 201000995 cycles: 224202458 heartbeat IPC: 1.221 cumulative IPC: 0.7167 (Simulation time: 00 hr 35 min 30 sec)
Heartbeat CPU 0 instructions: 201500999 cycles: 224652334 heartbeat IPC: 1.111 cumulative IPC: 0.7175 (Simulation time: 00 hr 35 min 33 sec)
Heartbeat CPU 0 instructions: 202000999 cycles: 225153652 heartbeat IPC: 0.9974 cumulative IPC: 0.7182 (Simulation time: 00 hr 35 min 37 sec)
Heartbeat CPU 0 instructions: 202500999 cycles: 225665594 heartbeat IPC: 0.9767 cumulative IPC: 0.7188 (Simulation time: 00 hr 35 min 41 sec)
Heartbeat CPU 0 instructions: 203001004 cycles: 226117889 heartbeat IPC: 1.105 cumulative IPC: 0.7196 (Simulation time: 00 hr 35 min 45 sec)
Heartbeat CPU 0 instructions: 203501010 cycles: 226628805 heartbeat IPC: 0.9786 cumulative IPC: 0.7202 (Simulation time: 00 hr 35 min 49 sec)
Heartbeat CPU 0 instructions: 204001010 cycles: 227145782 heartbeat IPC: 0.9672 cumulative IPC: 0.7208 (Simulation time: 00 hr 35 min 53 sec)
Heartbeat CPU 0 instructions: 204501016 cycles: 227787846 heartbeat IPC: 0.7787 cumulative IPC: 0.721 (Simulation time: 00 hr 35 min 57 sec)
Heartbeat CPU 0 instructions: 205001020 cycles: 228331544 heartbeat IPC: 0.9196 cumulative IPC: 0.7215 (Simulation time: 00 hr 36 min 01 sec)
Heartbeat CPU 0 instructions: 205501020 cycles: 229526179 heartbeat IPC: 0.4185 cumulative IPC: 0.7198 (Simulation time: 00 hr 36 min 12 sec)
Heartbeat CPU 0 instructions: 206001024 cycles: 230406170 heartbeat IPC: 0.5682 cumulative IPC: 0.7192 (Simulation time: 00 hr 36 min 19 sec)
Heartbeat CPU 0 instructions: 206501031 cycles: 230720419 heartbeat IPC: 1.591 cumulative IPC: 0.7205 (Simulation time: 00 hr 36 min 22 sec)
Heartbeat CPU 0 instructions: 207001036 cycles: 231112676 heartbeat IPC: 1.275 cumulative IPC: 0.7215 (Simulation time: 00 hr 36 min 26 sec)
Heartbeat CPU 0 instructions: 207501041 cycles: 231470785 heartbeat IPC: 1.396 cumulative IPC: 0.7226 (Simulation time: 00 hr 36 min 30 sec)
Heartbeat CPU 0 instructions: 208001041 cycles: 231917010 heartbeat IPC: 1.121 cumulative IPC: 0.7234 (Simulation time: 00 hr 36 min 35 sec)
Heartbeat CPU 0 instructions: 208501048 cycles: 232880748 heartbeat IPC: 0.5188 cumulative IPC: 0.7225 (Simulation time: 00 hr 36 min 42 sec)
Heartbeat CPU 0 instructions: 209001050 cycles: 234671391 heartbeat IPC: 0.2792 cumulative IPC: 0.7189 (Simulation time: 00 hr 36 min 53 sec)
Heartbeat CPU 0 instructions: 209501051 cycles: 235521090 heartbeat IPC: 0.5884 cumulative IPC: 0.7184 (Simulation time: 00 hr 36 min 59 sec)
Heartbeat CPU 0 instructions: 210001051 cycles: 235814591 heartbeat IPC: 1.704 cumulative IPC: 0.7197 (Simulation time: 00 hr 37 min 02 sec)
Heartbeat CPU 0 instructions: 210501052 cycles: 236113186 heartbeat IPC: 1.675 cumulative IPC: 0.721 (Simulation time: 00 hr 37 min 05 sec)
Heartbeat CPU 0 instructions: 211001052 cycles: 236390704 heartbeat IPC: 1.802 cumulative IPC: 0.7223 (Simulation time: 00 hr 37 min 08 sec)
Heartbeat CPU 0 instructions: 211501054 cycles: 236652734 heartbeat IPC: 1.908 cumulative IPC: 0.7237 (Simulation time: 00 hr 37 min 11 sec)
Heartbeat CPU 0 instructions: 212001054 cycles: 236921712 heartbeat IPC: 1.859 cumulative IPC: 0.7251 (Simulation time: 00 hr 37 min 14 sec)
Heartbeat CPU 0 instructions: 212501054 cycles: 237191610 heartbeat IPC: 1.853 cumulative IPC: 0.7265 (Simulation time: 00 hr 37 min 17 sec)
Heartbeat CPU 0 instructions: 213001056 cycles: 237459967 heartbeat IPC: 1.863 cumulative IPC: 0.7278 (Simulation time: 00 hr 37 min 21 sec)
Heartbeat CPU 0 instructions: 213501057 cycles: 237732039 heartbeat IPC: 1.838 cumulative IPC: 0.7292 (Simulation time: 00 hr 37 min 24 sec)
Heartbeat CPU 0 instructions: 214001057 cycles: 237996033 heartbeat IPC: 1.894 cumulative IPC: 0.7305 (Simulation time: 00 hr 37 min 27 sec)
Heartbeat CPU 0 instructions: 214501057 cycles: 238257574 heartbeat IPC: 1.912 cumulative IPC: 0.7319 (Simulation time: 00 hr 37 min 30 sec)
Heartbeat CPU 0 instructions: 215001058 cycles: 238521284 heartbeat IPC: 1.896 cumulative IPC: 0.7333 (Simulation time: 00 hr 37 min 33 sec)
Heartbeat CPU 0 instructions: 215501059 cycles: 238777383 heartbeat IPC: 1.952 cumulative IPC: 0.7347 (Simulation time: 00 hr 37 min 36 sec)
Heartbeat CPU 0 instructions: 216001061 cycles: 239036659 heartbeat IPC: 1.928 cumulative IPC: 0.736 (Simulation time: 00 hr 37 min 39 sec)
Heartbeat CPU 0 instructions: 216501063 cycles: 239371307 heartbeat IPC: 1.494 cumulative IPC: 0.7372 (Simulation time: 00 hr 37 min 42 sec)
Heartbeat CPU 0 instructions: 217001065 cycles: 239678037 heartbeat IPC: 1.63 cumulative IPC: 0.7384 (Simulation time: 00 hr 37 min 46 sec)
Heartbeat CPU 0 instructions: 217501067 cycles: 239967277 heartbeat IPC: 1.729 cumulative IPC: 0.7396 (Simulation time: 00 hr 37 min 49 sec)
Heartbeat CPU 0 instructions: 218001069 cycles: 240249421 heartbeat IPC: 1.772 cumulative IPC: 0.7409 (Simulation time: 00 hr 37 min 52 sec)
Heartbeat CPU 0 instructions: 218501069 cycles: 240558098 heartbeat IPC: 1.62 cumulative IPC: 0.7421 (Simulation time: 00 hr 37 min 55 sec)
Heartbeat CPU 0 instructions: 219001070 cycles: 240839446 heartbeat IPC: 1.777 cumulative IPC: 0.7434 (Simulation time: 00 hr 37 min 58 sec)
Heartbeat CPU 0 instructions: 219501071 cycles: 241117079 heartbeat IPC: 1.801 cumulative IPC: 0.7447 (Simulation time: 00 hr 38 min 01 sec)
Heartbeat CPU 0 instructions: 220001073 cycles: 241379351 heartbeat IPC: 1.906 cumulative IPC: 0.746 (Simulation time: 00 hr 38 min 04 sec)
Heartbeat CPU 0 instructions: 220501073 cycles: 241959850 heartbeat IPC: 0.8613 cumulative IPC: 0.7463 (Simulation time: 00 hr 38 min 09 sec)
Heartbeat CPU 0 instructions: 221001073 cycles: 242564800 heartbeat IPC: 0.8265 cumulative IPC: 0.7465 (Simulation time: 00 hr 38 min 13 sec)
Heartbeat CPU 0 instructions: 221501073 cycles: 243267280 heartbeat IPC: 0.7118 cumulative IPC: 0.7464 (Simulation time: 00 hr 38 min 19 sec)
Heartbeat CPU 0 instructions: 222001073 cycles: 243844928 heartbeat IPC: 0.8656 cumulative IPC: 0.7467 (Simulation time: 00 hr 38 min 23 sec)
Heartbeat CPU 0 instructions: 222501073 cycles: 244448432 heartbeat IPC: 0.8285 cumulative IPC: 0.7469 (Simulation time: 00 hr 38 min 27 sec)
Heartbeat CPU 0 instructions: 223001077 cycles: 244989453 heartbeat IPC: 0.9242 cumulative IPC: 0.7473 (Simulation time: 00 hr 38 min 31 sec)
Heartbeat CPU 0 instructions: 223501077 cycles: 245593501 heartbeat IPC: 0.8277 cumulative IPC: 0.7476 (Simulation time: 00 hr 38 min 36 sec)
Heartbeat CPU 0 instructions: 224001083 cycles: 246005642 heartbeat IPC: 1.213 cumulative IPC: 0.7484 (Simulation time: 00 hr 38 min 41 sec)
Heartbeat CPU 0 instructions: 224501083 cycles: 246367589 heartbeat IPC: 1.381 cumulative IPC: 0.7494 (Simulation time: 00 hr 38 min 46 sec)
Heartbeat CPU 0 instructions: 225001084 cycles: 247071956 heartbeat IPC: 0.7099 cumulative IPC: 0.7492 (Simulation time: 00 hr 38 min 54 sec)
Heartbeat CPU 0 instructions: 225501084 cycles: 248834811 heartbeat IPC: 0.2836 cumulative IPC: 0.7458 (Simulation time: 00 hr 39 min 05 sec)
Heartbeat CPU 0 instructions: 226001084 cycles: 249343500 heartbeat IPC: 0.9829 cumulative IPC: 0.7463 (Simulation time: 00 hr 39 min 09 sec)
Heartbeat CPU 0 instructions: 226501084 cycles: 250044061 heartbeat IPC: 0.7137 cumulative IPC: 0.7462 (Simulation time: 00 hr 39 min 14 sec)
Heartbeat CPU 0 instructions: 227001086 cycles: 250599360 heartbeat IPC: 0.9004 cumulative IPC: 0.7465 (Simulation time: 00 hr 39 min 19 sec)
Heartbeat CPU 0 instructions: 227501086 cycles: 251382282 heartbeat IPC: 0.6386 cumulative IPC: 0.7462 (Simulation time: 00 hr 39 min 25 sec)
Heartbeat CPU 0 instructions: 228001088 cycles: 252210538 heartbeat IPC: 0.6037 cumulative IPC: 0.7457 (Simulation time: 00 hr 39 min 31 sec)
Heartbeat CPU 0 instructions: 228501095 cycles: 253209318 heartbeat IPC: 0.5006 cumulative IPC: 0.7447 (Simulation time: 00 hr 39 min 39 sec)
Heartbeat CPU 0 instructions: 229001096 cycles: 254154562 heartbeat IPC: 0.529 cumulative IPC: 0.7438 (Simulation time: 00 hr 39 min 47 sec)
Heartbeat CPU 0 instructions: 229501103 cycles: 255083418 heartbeat IPC: 0.5383 cumulative IPC: 0.743 (Simulation time: 00 hr 39 min 54 sec)
Heartbeat CPU 0 instructions: 230001103 cycles: 256225817 heartbeat IPC: 0.4377 cumulative IPC: 0.7416 (Simulation time: 00 hr 40 min 02 sec)
Heartbeat CPU 0 instructions: 230501105 cycles: 257263243 heartbeat IPC: 0.482 cumulative IPC: 0.7405 (Simulation time: 00 hr 40 min 10 sec)
Heartbeat CPU 0 instructions: 231001110 cycles: 258339026 heartbeat IPC: 0.4648 cumulative IPC: 0.7393 (Simulation time: 00 hr 40 min 18 sec)
Heartbeat CPU 0 instructions: 231501113 cycles: 259201763 heartbeat IPC: 0.5796 cumulative IPC: 0.7387 (Simulation time: 00 hr 40 min 24 sec)
Heartbeat CPU 0 instructions: 232001117 cycles: 260461218 heartbeat IPC: 0.397 cumulative IPC: 0.737 (Simulation time: 00 hr 40 min 33 sec)
Heartbeat CPU 0 instructions: 232501117 cycles: 261861056 heartbeat IPC: 0.3572 cumulative IPC: 0.7348 (Simulation time: 00 hr 40 min 42 sec)
Heartbeat CPU 0 instructions: 233001119 cycles: 263050409 heartbeat IPC: 0.4204 cumulative IPC: 0.7333 (Simulation time: 00 hr 40 min 51 sec)
Heartbeat CPU 0 instructions: 233501121 cycles: 263868472 heartbeat IPC: 0.6112 cumulative IPC: 0.7329 (Simulation time: 00 hr 40 min 56 sec)
Heartbeat CPU 0 instructions: 234001121 cycles: 264512928 heartbeat IPC: 0.7758 cumulative IPC: 0.733 (Simulation time: 00 hr 41 min 00 sec)
Heartbeat CPU 0 instructions: 234501121 cycles: 264999563 heartbeat IPC: 1.027 cumulative IPC: 0.7336 (Simulation time: 00 hr 41 min 04 sec)
Heartbeat CPU 0 instructions: 235001121 cycles: 265419683 heartbeat IPC: 1.19 cumulative IPC: 0.7344 (Simulation time: 00 hr 41 min 07 sec)
Heartbeat CPU 0 instructions: 235501125 cycles: 266125312 heartbeat IPC: 0.7086 cumulative IPC: 0.7343 (Simulation time: 00 hr 41 min 12 sec)
Heartbeat CPU 0 instructions: 236001126 cycles: 267240221 heartbeat IPC: 0.4485 cumulative IPC: 0.733 (Simulation time: 00 hr 41 min 19 sec)
Heartbeat CPU 0 instructions: 236501126 cycles: 268264518 heartbeat IPC: 0.4881 cumulative IPC: 0.7321 (Simulation time: 00 hr 41 min 25 sec)
Heartbeat CPU 0 instructions: 237001126 cycles: 269606499 heartbeat IPC: 0.3726 cumulative IPC: 0.7302 (Simulation time: 00 hr 41 min 33 sec)
Heartbeat CPU 0 instructions: 237501131 cycles: 270776808 heartbeat IPC: 0.4272 cumulative IPC: 0.7288 (Simulation time: 00 hr 41 min 40 sec)
Heartbeat CPU 0 instructions: 238001132 cycles: 271757301 heartbeat IPC: 0.5099 cumulative IPC: 0.728 (Simulation time: 00 hr 41 min 47 sec)
Heartbeat CPU 0 instructions: 238501137 cycles: 272659070 heartbeat IPC: 0.5545 cumulative IPC: 0.7274 (Simulation time: 00 hr 41 min 53 sec)
Heartbeat CPU 0 instructions: 239001137 cycles: 273719830 heartbeat IPC: 0.4714 cumulative IPC: 0.7263 (Simulation time: 00 hr 42 min 00 sec)
Heartbeat CPU 0 instructions: 239501137 cycles: 274720033 heartbeat IPC: 0.4999 cumulative IPC: 0.7255 (Simulation time: 00 hr 42 min 06 sec)
Heartbeat CPU 0 instructions: 240001137 cycles: 275698066 heartbeat IPC: 0.5112 cumulative IPC: 0.7247 (Simulation time: 00 hr 42 min 12 sec)
Heartbeat CPU 0 instructions: 240501144 cycles: 276310142 heartbeat IPC: 0.8169 cumulative IPC: 0.7249 (Simulation time: 00 hr 42 min 16 sec)
Heartbeat CPU 0 instructions: 241001148 cycles: 276906137 heartbeat IPC: 0.8389 cumulative IPC: 0.7251 (Simulation time: 00 hr 42 min 20 sec)
Heartbeat CPU 0 instructions: 241501154 cycles: 277399952 heartbeat IPC: 1.013 cumulative IPC: 0.7257 (Simulation time: 00 hr 42 min 24 sec)
Heartbeat CPU 0 instructions: 242001157 cycles: 277875199 heartbeat IPC: 1.052 cumulative IPC: 0.7263 (Simulation time: 00 hr 42 min 27 sec)
Heartbeat CPU 0 instructions: 242501157 cycles: 278265258 heartbeat IPC: 1.282 cumulative IPC: 0.7271 (Simulation time: 00 hr 42 min 30 sec)
Heartbeat CPU 0 instructions: 243001157 cycles: 278645614 heartbeat IPC: 1.315 cumulative IPC: 0.7279 (Simulation time: 00 hr 42 min 33 sec)
Heartbeat CPU 0 instructions: 243501160 cycles: 279067246 heartbeat IPC: 1.186 cumulative IPC: 0.7286 (Simulation time: 00 hr 42 min 36 sec)
Heartbeat CPU 0 instructions: 244001161 cycles: 279598451 heartbeat IPC: 0.9413 cumulative IPC: 0.7291 (Simulation time: 00 hr 42 min 40 sec)
Heartbeat CPU 0 instructions: 244501167 cycles: 280336693 heartbeat IPC: 0.6773 cumulative IPC: 0.7289 (Simulation time: 00 hr 42 min 45 sec)
Heartbeat CPU 0 instructions: 245001169 cycles: 280784746 heartbeat IPC: 1.116 cumulative IPC: 0.7296 (Simulation time: 00 hr 42 min 48 sec)
Heartbeat CPU 0 instructions: 245501170 cycles: 281335381 heartbeat IPC: 0.908 cumulative IPC: 0.7299 (Simulation time: 00 hr 42 min 52 sec)
Heartbeat CPU 0 instructions: 246001172 cycles: 282131138 heartbeat IPC: 0.6283 cumulative IPC: 0.7296 (Simulation time: 00 hr 42 min 57 sec)
Heartbeat CPU 0 instructions: 246501172 cycles: 283123936 heartbeat IPC: 0.5036 cumulative IPC: 0.7288 (Simulation time: 00 hr 43 min 03 sec)
Heartbeat CPU 0 instructions: 247001172 cycles: 283914306 heartbeat IPC: 0.6326 cumulative IPC: 0.7285 (Simulation time: 00 hr 43 min 09 sec)
Heartbeat CPU 0 instructions: 247501173 cycles: 284404479 heartbeat IPC: 1.02 cumulative IPC: 0.7291 (Simulation time: 00 hr 43 min 12 sec)
Heartbeat CPU 0 instructions: 248001173 cycles: 284898783 heartbeat IPC: 1.012 cumulative IPC: 0.7296 (Simulation time: 00 hr 43 min 16 sec)
Heartbeat CPU 0 instructions: 248501173 cycles: 285424204 heartbeat IPC: 0.9516 cumulative IPC: 0.73 (Simulation time: 00 hr 43 min 20 sec)
Heartbeat CPU 0 instructions: 249001178 cycles: 285835628 heartbeat IPC: 1.215 cumulative IPC: 0.7307 (Simulation time: 00 hr 43 min 23 sec)
Heartbeat CPU 0 instructions: 249501181 cycles: 286291131 heartbeat IPC: 1.098 cumulative IPC: 0.7313 (Simulation time: 00 hr 43 min 26 sec)
Simulation finished CPU 0 instructions: 200000001 cycles: 273361829 cumulative IPC: 0.7316 (Simulation time: 00 hr 43 min 31 sec)
Simulation complete CPU 0 instructions: 200000001 cycles: 273361829 cumulative IPC: 0.7316 (Simulation time: 00 hr 43 min 31 sec)

ChampSim completed all CPUs

=== Simulation ===
CPU 0 runs /local-ssd/ben/dpc4-traces/gtraces_v2/tahoe_0002.champsim.gz

Region of Interest Statistics

CPU 0 cumulative IPC: 0.7316 instructions: 200000001 cycles: 273361829
CPU 0 Branch Prediction Accuracy: 93.72% MPKI: 13.02 Average ROB Occupancy at Mispredict: 38.65
Branch type MPKI
BRANCH_DIRECT_JUMP: 0.4927
BRANCH_INDIRECT: 0.2721
BRANCH_CONDITIONAL: 11.67
BRANCH_DIRECT_CALL: 0.09202
BRANCH_INDIRECT_CALL: 0.1715
BRANCH_RETURN: 0.3238

cpu0->cpu0_STLB TOTAL        ACCESS:    2276477 HIT:    1797181 MISS:     479296 MSHR_MERGE:          0
cpu0->cpu0_STLB LOAD         ACCESS:    2276477 HIT:    1797181 MISS:     479296 MSHR_MERGE:          0
cpu0->cpu0_STLB RFO          ACCESS:          0 HIT:          0 MISS:          0 MSHR_MERGE:          0
cpu0->cpu0_STLB PREFETCH     ACCESS:          0 HIT:          0 MISS:          0 MSHR_MERGE:          0
cpu0->cpu0_STLB WRITE        ACCESS:          0 HIT:          0 MISS:          0 MSHR_MERGE:          0
cpu0->cpu0_STLB TRANSLATION  ACCESS:          0 HIT:          0 MISS:          0 MSHR_MERGE:          0
cpu0->cpu0_STLB PREFETCH REQUESTED:          0 ISSUED:          0 USEFUL:          0 USELESS:          0
cpu0->cpu0_STLB AVERAGE MISS LATENCY: 202.2 cycles
cpu0->cpu0_L2C TOTAL        ACCESS:   11129483 HIT:    6716521 MISS:    4412962 MSHR_MERGE:    1237236
cpu0->cpu0_L2C LOAD         ACCESS:    1724895 HIT:    1030918 MISS:     693977 MSHR_MERGE:      36908
cpu0->cpu0_L2C RFO          ACCESS:     336864 HIT:     103209 MISS:     233655 MSHR_MERGE:       1729
cpu0->cpu0_L2C PREFETCH     ACCESS:    7454484 HIT:    4218059 MISS:    3236425 MSHR_MERGE:    1198599
cpu0->cpu0_L2C WRITE        ACCESS:    1074291 HIT:    1074044 MISS:        247 MSHR_MERGE:          0
cpu0->cpu0_L2C TRANSLATION  ACCESS:     538949 HIT:     290291 MISS:     248658 MSHR_MERGE:          0
cpu0->cpu0_L2C PREFETCH REQUESTED:    6528735 ISSUED:    6014914 USEFUL:     831306 USELESS:     746504
cpu0->cpu0_L2C AVERAGE MISS LATENCY: 240.8 cycles
cpu0->cpu0_L1I TOTAL        ACCESS:    9267715 HIT:    9143572 MISS:     124143 MSHR_MERGE:      16042
cpu0->cpu0_L1I LOAD         ACCESS:    9267715 HIT:    9143572 MISS:     124143 MSHR_MERGE:      16042
cpu0->cpu0_L1I RFO          ACCESS:          0 HIT:          0 MISS:          0 MSHR_MERGE:          0
cpu0->cpu0_L1I PREFETCH     ACCESS:          0 HIT:          0 MISS:          0 MSHR_MERGE:          0
cpu0->cpu0_L1I WRITE        ACCESS:          0 HIT:          0 MISS:          0 MSHR_MERGE:          0
cpu0->cpu0_L1I TRANSLATION  ACCESS:          0 HIT:          0 MISS:          0 MSHR_MERGE:          0
cpu0->cpu0_L1I PREFETCH REQUESTED:          0 ISSUED:          0 USEFUL:          0 USELESS:          0
cpu0->cpu0_L1I AVERAGE MISS LATENCY: 200.6 cycles
cpu0->cpu0_L1D TOTAL        ACCESS:   63150006 HIT:   57151070 MISS:    5998936 MSHR_MERGE:    2066729
cpu0->cpu0_L1D LOAD         ACCESS:   31321757 HIT:   28890323 MISS:    2431434 MSHR_MERGE:     814634
cpu0->cpu0_L1D RFO          ACCESS:          0 HIT:          0 MISS:          0 MSHR_MERGE:          0
cpu0->cpu0_L1D PREFETCH     ACCESS:    2992766 HIT:    1370371 MISS:    1622395 MSHR_MERGE:     182819
cpu0->cpu0_L1D WRITE        ACCESS:   27579862 HIT:   26178791 MISS:    1401071 MSHR_MERGE:    1064189
cpu0->cpu0_L1D TRANSLATION  ACCESS:    1255621 HIT:     711585 MISS:     544036 MSHR_MERGE:       5087
cpu0->cpu0_L1D PREFETCH REQUESTED:    8183044 ISSUED:    2992758 USEFUL:    1010920 USELESS:     428648
cpu0->cpu0_L1D AVERAGE MISS LATENCY: 113.7 cycles
cpu0->cpu0_ITLB TOTAL        ACCESS:    7829064 HIT:    7796752 MISS:      32312 MSHR_MERGE:      11651
cpu0->cpu0_ITLB LOAD         ACCESS:    7829064 HIT:    7796752 MISS:      32312 MSHR_MERGE:      11651
cpu0->cpu0_ITLB RFO          ACCESS:          0 HIT:          0 MISS:          0 MSHR_MERGE:          0
cpu0->cpu0_ITLB PREFETCH     ACCESS:          0 HIT:          0 MISS:          0 MSHR_MERGE:          0
cpu0->cpu0_ITLB WRITE        ACCESS:          0 HIT:          0 MISS:          0 MSHR_MERGE:          0
cpu0->cpu0_ITLB TRANSLATION  ACCESS:          0 HIT:          0 MISS:          0 MSHR_MERGE:          0
cpu0->cpu0_ITLB PREFETCH REQUESTED:          0 ISSUED:          0 USEFUL:          0 USELESS:          0
cpu0->cpu0_ITLB AVERAGE MISS LATENCY: 126.2 cycles
cpu0->cpu0_DTLB TOTAL        ACCESS:   58029261 HIT:   54675465 MISS:    3353796 MSHR_MERGE:    1097980
cpu0->cpu0_DTLB LOAD         ACCESS:   58029261 HIT:   54675465 MISS:    3353796 MSHR_MERGE:    1097980
cpu0->cpu0_DTLB RFO          ACCESS:          0 HIT:          0 MISS:          0 MSHR_MERGE:          0
cpu0->cpu0_DTLB PREFETCH     ACCESS:          0 HIT:          0 MISS:          0 MSHR_MERGE:          0
cpu0->cpu0_DTLB WRITE        ACCESS:          0 HIT:          0 MISS:          0 MSHR_MERGE:          0
cpu0->cpu0_DTLB TRANSLATION  ACCESS:          0 HIT:          0 MISS:          0 MSHR_MERGE:          0
cpu0->cpu0_DTLB PREFETCH REQUESTED:          0 ISSUED:          0 USEFUL:          0 USELESS:          0
cpu0->cpu0_DTLB AVERAGE MISS LATENCY: 47.07 cycles
cpu0->LLC TOTAL        ACCESS:    6061147 HIT:    1224951 MISS:    4836196 MSHR_MERGE:     589582
cpu0->LLC LOAD         ACCESS:     657069 HIT:      74202 MISS:     582867 MSHR_MERGE:       4110
cpu0->LLC RFO          ACCESS:     231926 HIT:       9848 MISS:     222078 MSHR_MERGE:        297
cpu0->LLC PREFETCH     ACCESS:    3960556 HIT:     780644 MISS:    3179912 MSHR_MERGE:     585175
cpu0->LLC WRITE        ACCESS:     962938 HIT:     359113 MISS:     603825 MSHR_MERGE:          0
cpu0->LLC TRANSLATION  ACCESS:     248658 HIT:       1144 MISS:     247514 MSHR_MERGE:          0
cpu0->LLC PREFETCH REQUESTED:    1985097 ISSUED:    1922730 USEFUL:     428925 USELESS:     822522
cpu0->LLC AVERAGE MISS LATENCY: 158 cycles

DRAM Statistics

Channel 0 RQ ROW_BUFFER_HIT:     136732
  ROW_BUFFER_MISS:    3505757
  AVG DBUS CONGESTED CYCLE: 17.57
Channel 0 WQ ROW_BUFFER_HIT:     198179
  ROW_BUFFER_MISS:     677148
  FULL:        104
Channel 0 REFRESHES ISSUED:      22778
