[VMEM] WARNING: physical memory size is smaller than virtual memory size.

*** ChampSim Multicore Out-of-Order Simulator ***
Warmup Instructions: 50000000
Simulation Instructions: 200000000
Number of CPUs: 1
Page size: 4096
Core 0: /local-ssd/ben/dpc4-traces/gtraces_v2/tahoe_0001.champsim.gz
sBerti (Smart Stride + Berti) Prefetcher Initialized
Off-chip DRAM Size: 64 GiB Channels: 1 Width: 64-bit Data Rate: 4807 MT/s
[BTB] WARNING: target of return is a lower address than the corresponding call. This is usually a problem with your trace.
[BTB] WARNING: target of return is a lower address than the corresponding call. This is usually a problem with your trace.
[BTB] WARNING: target of return is a lower address than the corresponding call. This is usually a problem with your trace.
[BTB] WARNING: target of return is a lower address than the corresponding call. This is usually a problem with your trace.
[BTB] WARNING: target of return is a lower address than the corresponding call. This is usually a problem with your trace.
[BTB] WARNING: target of return is a lower address than the corresponding call. This is usually a problem with your trace.
[BTB] WARNING: target of return is a lower address than the corresponding call. This is usually a problem with your trace.
[BTB] WARNING: target of return is a lower address than the corresponding call. This is usually a problem with your trace.
[BTB] WARNING: target of return is a lower address than the corresponding call. This is usually a problem with your trace.
[BTB] WARNING: target of return is a lower address than the corresponding call. This is usually a problem with your trace.
Heartbeat CPU 0 instructions: 500006 cycles: 299870 heartbeat IPC: 1.667 cumulative IPC: 1.667 (Simulation time: 00 hr 00 min 08 sec)
Heartbeat CPU 0 instructions: 1000007 cycles: 425029 heartbeat IPC: 3.995 cumulative IPC: 2.353 (Simulation time: 00 hr 00 min 11 sec)
Heartbeat CPU 0 instructions: 1500010 cycles: 545238 heartbeat IPC: 4.159 cumulative IPC: 2.751 (Simulation time: 00 hr 00 min 15 sec)
Heartbeat CPU 0 instructions: 2000012 cycles: 669191 heartbeat IPC: 4.034 cumulative IPC: 2.989 (Simulation time: 00 hr 00 min 18 sec)
Heartbeat CPU 0 instructions: 2500019 cycles: 789344 heartbeat IPC: 4.161 cumulative IPC: 3.167 (Simulation time: 00 hr 00 min 22 sec)
Heartbeat CPU 0 instructions: 3000023 cycles: 902085 heartbeat IPC: 4.435 cumulative IPC: 3.326 (Simulation time: 00 hr 00 min 25 sec)
Heartbeat CPU 0 instructions: 3500028 cycles: 1004353 heartbeat IPC: 4.889 cumulative IPC: 3.485 (Simulation time: 00 hr 00 min 28 sec)
Heartbeat CPU 0 instructions: 4000028 cycles: 1106522 heartbeat IPC: 4.894 cumulative IPC: 3.615 (Simulation time: 00 hr 00 min 32 sec)
Heartbeat CPU 0 instructions: 4500028 cycles: 1211172 heartbeat IPC: 4.778 cumulative IPC: 3.715 (Simulation time: 00 hr 00 min 35 sec)
Heartbeat CPU 0 instructions: 5000034 cycles: 1317017 heartbeat IPC: 4.724 cumulative IPC: 3.796 (Simulation time: 00 hr 00 min 39 sec)
Heartbeat CPU 0 instructions: 5500038 cycles: 1419958 heartbeat IPC: 4.857 cumulative IPC: 3.873 (Simulation time: 00 hr 00 min 42 sec)
Heartbeat CPU 0 instructions: 6000041 cycles: 1522418 heartbeat IPC: 4.88 cumulative IPC: 3.941 (Simulation time: 00 hr 00 min 46 sec)
Heartbeat CPU 0 instructions: 6500044 cycles: 1624698 heartbeat IPC: 4.889 cumulative IPC: 4.001 (Simulation time: 00 hr 00 min 49 sec)
Heartbeat CPU 0 instructions: 7000050 cycles: 1726754 heartbeat IPC: 4.899 cumulative IPC: 4.054 (Simulation time: 00 hr 00 min 53 sec)
Heartbeat CPU 0 instructions: 7500053 cycles: 1830523 heartbeat IPC: 4.818 cumulative IPC: 4.097 (Simulation time: 00 hr 00 min 56 sec)
Heartbeat CPU 0 instructions: 8000055 cycles: 1932599 heartbeat IPC: 4.898 cumulative IPC: 4.14 (Simulation time: 00 hr 00 min 59 sec)
Heartbeat CPU 0 instructions: 8500056 cycles: 2035166 heartbeat IPC: 4.875 cumulative IPC: 4.177 (Simulation time: 00 hr 01 min 01 sec)
Heartbeat CPU 0 instructions: 9000063 cycles: 2138917 heartbeat IPC: 4.819 cumulative IPC: 4.208 (Simulation time: 00 hr 01 min 03 sec)
Heartbeat CPU 0 instructions: 9500067 cycles: 2304120 heartbeat IPC: 3.027 cumulative IPC: 4.123 (Simulation time: 00 hr 01 min 06 sec)
Heartbeat CPU 0 instructions: 10000072 cycles: 2512075 heartbeat IPC: 2.404 cumulative IPC: 3.981 (Simulation time: 00 hr 01 min 10 sec)
Heartbeat CPU 0 instructions: 10500073 cycles: 2719228 heartbeat IPC: 2.414 cumulative IPC: 3.861 (Simulation time: 00 hr 01 min 13 sec)
Heartbeat CPU 0 instructions: 11000080 cycles: 2859651 heartbeat IPC: 3.561 cumulative IPC: 3.847 (Simulation time: 00 hr 01 min 16 sec)
Heartbeat CPU 0 instructions: 11500084 cycles: 3016980 heartbeat IPC: 3.178 cumulative IPC: 3.812 (Simulation time: 00 hr 01 min 19 sec)
Heartbeat CPU 0 instructions: 12000091 cycles: 3142262 heartbeat IPC: 3.991 cumulative IPC: 3.819 (Simulation time: 00 hr 01 min 21 sec)
Heartbeat CPU 0 instructions: 12500093 cycles: 3349245 heartbeat IPC: 2.416 cumulative IPC: 3.732 (Simulation time: 00 hr 01 min 24 sec)
Heartbeat CPU 0 instructions: 13000099 cycles: 3518675 heartbeat IPC: 2.951 cumulative IPC: 3.695 (Simulation time: 00 hr 01 min 28 sec)
Heartbeat CPU 0 instructions: 13500106 cycles: 3630195 heartbeat IPC: 4.484 cumulative IPC: 3.719 (Simulation time: 00 hr 01 min 30 sec)
Heartbeat CPU 0 instructions: 14000111 cycles: 3734370 heartbeat IPC: 4.8 cumulative IPC: 3.749 (Simulation time: 00 hr 01 min 32 sec)
Heartbeat CPU 0 instructions: 14500116 cycles: 3861888 heartbeat IPC: 3.921 cumulative IPC: 3.755 (Simulation time: 00 hr 01 min 34 sec)
Heartbeat CPU 0 instructions: 15000119 cycles: 3992884 heartbeat IPC: 3.817 cumulative IPC: 3.757 (Simulation time: 00 hr 01 min 37 sec)
Heartbeat CPU 0 instructions: 15500121 cycles: 4127173 heartbeat IPC: 3.723 cumulative IPC: 3.756 (Simulation time: 00 hr 01 min 39 sec)
Heartbeat CPU 0 instructions: 16000124 cycles: 4234515 heartbeat IPC: 4.658 cumulative IPC: 3.779 (Simulation time: 00 hr 01 min 41 sec)
Heartbeat CPU 0 instructions: 16500128 cycles: 4347170 heartbeat IPC: 4.438 cumulative IPC: 3.796 (Simulation time: 00 hr 01 min 43 sec)
Heartbeat CPU 0 instructions: 17000135 cycles: 4539320 heartbeat IPC: 2.602 cumulative IPC: 3.745 (Simulation time: 00 hr 01 min 47 sec)
Heartbeat CPU 0 instructions: 17500141 cycles: 4670039 heartbeat IPC: 3.825 cumulative IPC: 3.747 (Simulation time: 00 hr 01 min 49 sec)
Heartbeat CPU 0 instructions: 18000148 cycles: 4814576 heartbeat IPC: 3.459 cumulative IPC: 3.739 (Simulation time: 00 hr 01 min 52 sec)
Heartbeat CPU 0 instructions: 18500151 cycles: 4931044 heartbeat IPC: 4.293 cumulative IPC: 3.752 (Simulation time: 00 hr 01 min 54 sec)
Heartbeat CPU 0 instructions: 19000152 cycles: 5069869 heartbeat IPC: 3.602 cumulative IPC: 3.748 (Simulation time: 00 hr 01 min 56 sec)
Heartbeat CPU 0 instructions: 19500158 cycles: 5201881 heartbeat IPC: 3.788 cumulative IPC: 3.749 (Simulation time: 00 hr 01 min 59 sec)
Heartbeat CPU 0 instructions: 20000162 cycles: 5356402 heartbeat IPC: 3.236 cumulative IPC: 3.734 (Simulation time: 00 hr 02 min 01 sec)
Heartbeat CPU 0 instructions: 20500164 cycles: 5493698 heartbeat IPC: 3.642 cumulative IPC: 3.732 (Simulation time: 00 hr 02 min 04 sec)
Heartbeat CPU 0 instructions: 21000171 cycles: 5668377 heartbeat IPC: 2.862 cumulative IPC: 3.705 (Simulation time: 00 hr 02 min 08 sec)
Heartbeat CPU 0 instructions: 21500173 cycles: 5778957 heartbeat IPC: 4.522 cumulative IPC: 3.72 (Simulation time: 00 hr 02 min 09 sec)
Heartbeat CPU 0 instructions: 22000180 cycles: 5968151 heartbeat IPC: 2.643 cumulative IPC: 3.686 (Simulation time: 00 hr 02 min 12 sec)
Heartbeat CPU 0 instructions: 22500185 cycles: 6155134 heartbeat IPC: 2.674 cumulative IPC: 3.656 (Simulation time: 00 hr 02 min 16 sec)
Heartbeat CPU 0 instructions: 23000192 cycles: 6335950 heartbeat IPC: 2.765 cumulative IPC: 3.63 (Simulation time: 00 hr 02 min 19 sec)
Heartbeat CPU 0 instructions: 23500193 cycles: 6492568 heartbeat IPC: 3.192 cumulative IPC: 3.62 (Simulation time: 00 hr 02 min 22 sec)
Heartbeat CPU 0 instructions: 24000193 cycles: 6643907 heartbeat IPC: 3.304 cumulative IPC: 3.612 (Simulation time: 00 hr 02 min 25 sec)
Heartbeat CPU 0 instructions: 24500200 cycles: 6766419 heartbeat IPC: 4.081 cumulative IPC: 3.621 (Simulation time: 00 hr 02 min 27 sec)
Heartbeat CPU 0 instructions: 25000205 cycles: 6898835 heartbeat IPC: 3.776 cumulative IPC: 3.624 (Simulation time: 00 hr 02 min 30 sec)
Heartbeat CPU 0 instructions: 25500205 cycles: 7040936 heartbeat IPC: 3.519 cumulative IPC: 3.622 (Simulation time: 00 hr 02 min 33 sec)
Heartbeat CPU 0 instructions: 26000212 cycles: 7169231 heartbeat IPC: 3.897 cumulative IPC: 3.627 (Simulation time: 00 hr 02 min 35 sec)
Heartbeat CPU 0 instructions: 26500218 cycles: 7359840 heartbeat IPC: 2.623 cumulative IPC: 3.601 (Simulation time: 00 hr 02 min 39 sec)
Heartbeat CPU 0 instructions: 27000225 cycles: 7542033 heartbeat IPC: 2.744 cumulative IPC: 3.58 (Simulation time: 00 hr 02 min 42 sec)
Heartbeat CPU 0 instructions: 27500226 cycles: 7704780 heartbeat IPC: 3.072 cumulative IPC: 3.569 (Simulation time: 00 hr 02 min 45 sec)
Heartbeat CPU 0 instructions: 28000227 cycles: 7860185 heartbeat IPC: 3.217 cumulative IPC: 3.562 (Simulation time: 00 hr 02 min 47 sec)
Heartbeat CPU 0 instructions: 28500234 cycles: 8029095 heartbeat IPC: 2.96 cumulative IPC: 3.55 (Simulation time: 00 hr 02 min 51 sec)
Heartbeat CPU 0 instructions: 29000234 cycles: 8182259 heartbeat IPC: 3.264 cumulative IPC: 3.544 (Simulation time: 00 hr 02 min 54 sec)
Heartbeat CPU 0 instructions: 29500237 cycles: 8351531 heartbeat IPC: 2.954 cumulative IPC: 3.532 (Simulation time: 00 hr 02 min 57 sec)
Heartbeat CPU 0 instructions: 30000237 cycles: 8479892 heartbeat IPC: 3.895 cumulative IPC: 3.538 (Simulation time: 00 hr 02 min 59 sec)
Heartbeat CPU 0 instructions: 30500240 cycles: 8612048 heartbeat IPC: 3.783 cumulative IPC: 3.542 (Simulation time: 00 hr 03 min 02 sec)
Heartbeat CPU 0 instructions: 31000243 cycles: 8739357 heartbeat IPC: 3.927 cumulative IPC: 3.547 (Simulation time: 00 hr 03 min 04 sec)
Heartbeat CPU 0 instructions: 31500248 cycles: 8886926 heartbeat IPC: 3.388 cumulative IPC: 3.545 (Simulation time: 00 hr 03 min 07 sec)
Heartbeat CPU 0 instructions: 32000248 cycles: 9003220 heartbeat IPC: 4.299 cumulative IPC: 3.554 (Simulation time: 00 hr 03 min 09 sec)
Heartbeat CPU 0 instructions: 32500248 cycles: 9112837 heartbeat IPC: 4.561 cumulative IPC: 3.566 (Simulation time: 00 hr 03 min 11 sec)
Heartbeat CPU 0 instructions: 33000250 cycles: 9261877 heartbeat IPC: 3.355 cumulative IPC: 3.563 (Simulation time: 00 hr 03 min 14 sec)
Heartbeat CPU 0 instructions: 33500250 cycles: 9394018 heartbeat IPC: 3.784 cumulative IPC: 3.566 (Simulation time: 00 hr 03 min 16 sec)
Heartbeat CPU 0 instructions: 34000251 cycles: 9526652 heartbeat IPC: 3.77 cumulative IPC: 3.569 (Simulation time: 00 hr 03 min 19 sec)
Heartbeat CPU 0 instructions: 34500256 cycles: 9648859 heartbeat IPC: 4.091 cumulative IPC: 3.576 (Simulation time: 00 hr 03 min 21 sec)
Heartbeat CPU 0 instructions: 35000259 cycles: 9800002 heartbeat IPC: 3.308 cumulative IPC: 3.571 (Simulation time: 00 hr 03 min 24 sec)
Heartbeat CPU 0 instructions: 35500260 cycles: 9977181 heartbeat IPC: 2.822 cumulative IPC: 3.558 (Simulation time: 00 hr 03 min 27 sec)
Heartbeat CPU 0 instructions: 36000262 cycles: 10143952 heartbeat IPC: 2.998 cumulative IPC: 3.549 (Simulation time: 00 hr 03 min 30 sec)
Heartbeat CPU 0 instructions: 36500265 cycles: 10293572 heartbeat IPC: 3.342 cumulative IPC: 3.546 (Simulation time: 00 hr 03 min 33 sec)
Heartbeat CPU 0 instructions: 37000265 cycles: 10418142 heartbeat IPC: 4.014 cumulative IPC: 3.552 (Simulation time: 00 hr 03 min 35 sec)
Heartbeat CPU 0 instructions: 37500266 cycles: 10525577 heartbeat IPC: 4.654 cumulative IPC: 3.563 (Simulation time: 00 hr 03 min 37 sec)
Heartbeat CPU 0 instructions: 38000269 cycles: 10649689 heartbeat IPC: 4.029 cumulative IPC: 3.568 (Simulation time: 00 hr 03 min 40 sec)
Heartbeat CPU 0 instructions: 38500271 cycles: 10766158 heartbeat IPC: 4.293 cumulative IPC: 3.576 (Simulation time: 00 hr 03 min 42 sec)
Heartbeat CPU 0 instructions: 39000272 cycles: 10884742 heartbeat IPC: 4.216 cumulative IPC: 3.583 (Simulation time: 00 hr 03 min 44 sec)
Heartbeat CPU 0 instructions: 39500275 cycles: 11003320 heartbeat IPC: 4.217 cumulative IPC: 3.59 (Simulation time: 00 hr 03 min 46 sec)
Heartbeat CPU 0 instructions: 40000280 cycles: 11121817 heartbeat IPC: 4.22 cumulative IPC: 3.597 (Simulation time: 00 hr 03 min 49 sec)
Heartbeat CPU 0 instructions: 40500283 cycles: 11257917 heartbeat IPC: 3.674 cumulative IPC: 3.597 (Simulation time: 00 hr 03 min 51 sec)
Heartbeat CPU 0 instructions: 41000290 cycles: 11404561 heartbeat IPC: 3.41 cumulative IPC: 3.595 (Simulation time: 00 hr 03 min 54 sec)
Heartbeat CPU 0 instructions: 41500297 cycles: 11515837 heartbeat IPC: 4.493 cumulative IPC: 3.604 (Simulation time: 00 hr 03 min 57 sec)
Heartbeat CPU 0 instructions: 42000301 cycles: 11662150 heartbeat IPC: 3.417 cumulative IPC: 3.601 (Simulation time: 00 hr 03 min 59 sec)
Heartbeat CPU 0 instructions: 42500307 cycles: 11824119 heartbeat IPC: 3.087 cumulative IPC: 3.594 (Simulation time: 00 hr 04 min 03 sec)
Heartbeat CPU 0 instructions: 43000311 cycles: 11966301 heartbeat IPC: 3.517 cumulative IPC: 3.593 (Simulation time: 00 hr 04 min 05 sec)
Heartbeat CPU 0 instructions: 43500311 cycles: 12071939 heartbeat IPC: 4.733 cumulative IPC: 3.603 (Simulation time: 00 hr 04 min 07 sec)
Heartbeat CPU 0 instructions: 44000314 cycles: 12176403 heartbeat IPC: 4.786 cumulative IPC: 3.614 (Simulation time: 00 hr 04 min 09 sec)
Heartbeat CPU 0 instructions: 44500319 cycles: 12280260 heartbeat IPC: 4.814 cumulative IPC: 3.624 (Simulation time: 00 hr 04 min 12 sec)
Heartbeat CPU 0 instructions: 45000320 cycles: 12382887 heartbeat IPC: 4.872 cumulative IPC: 3.634 (Simulation time: 00 hr 04 min 14 sec)
Heartbeat CPU 0 instructions: 45500326 cycles: 12513946 heartbeat IPC: 3.815 cumulative IPC: 3.636 (Simulation time: 00 hr 04 min 16 sec)
Heartbeat CPU 0 instructions: 46000331 cycles: 12682624 heartbeat IPC: 2.964 cumulative IPC: 3.627 (Simulation time: 00 hr 04 min 19 sec)
Heartbeat CPU 0 instructions: 46500336 cycles: 12826114 heartbeat IPC: 3.485 cumulative IPC: 3.625 (Simulation time: 00 hr 04 min 22 sec)
Heartbeat CPU 0 instructions: 47000341 cycles: 12987323 heartbeat IPC: 3.102 cumulative IPC: 3.619 (Simulation time: 00 hr 04 min 25 sec)
Heartbeat CPU 0 instructions: 47500347 cycles: 13137409 heartbeat IPC: 3.331 cumulative IPC: 3.616 (Simulation time: 00 hr 04 min 28 sec)
Heartbeat CPU 0 instructions: 48000347 cycles: 13278827 heartbeat IPC: 3.536 cumulative IPC: 3.615 (Simulation time: 00 hr 04 min 31 sec)
Heartbeat CPU 0 instructions: 48500351 cycles: 13427188 heartbeat IPC: 3.37 cumulative IPC: 3.612 (Simulation time: 00 hr 04 min 33 sec)
Heartbeat CPU 0 instructions: 49000355 cycles: 13569335 heartbeat IPC: 3.518 cumulative IPC: 3.611 (Simulation time: 00 hr 04 min 36 sec)
Heartbeat CPU 0 instructions: 49500355 cycles: 13725941 heartbeat IPC: 3.193 cumulative IPC: 3.606 (Simulation time: 00 hr 04 min 39 sec)
Warmup halting CPU 0 at instruction 50000001 cycle 13828936 for remainder of phase
Warmup finished CPU 0 instructions: 50000001 cycles: 13828936 cumulative IPC: 3.616 (Simulation time: 00 hr 04 min 41 sec)
Warmup complete CPU 0 instructions: 50000001 cycles: 13828936 cumulative IPC: 3.616 (Simulation time: 00 hr 04 min 41 sec)
Heartbeat CPU 0 instructions: 50000356 cycles: 13829044 heartbeat IPC: 4.85 cumulative IPC: 3.287 (Simulation time: 00 hr 04 min 41 sec)
Heartbeat CPU 0 instructions: 50500358 cycles: 15326545 heartbeat IPC: 0.3339 cumulative IPC: 0.3341 (Simulation time: 00 hr 04 min 52 sec)
Heartbeat CPU 0 instructions: 51000362 cycles: 15925816 heartbeat IPC: 0.8344 cumulative IPC: 0.4771 (Simulation time: 00 hr 04 min 57 sec)
Heartbeat CPU 0 instructions: 51500367 cycles: 16210414 heartbeat IPC: 1.757 cumulative IPC: 0.63 (Simulation time: 00 hr 05 min 00 sec)
Heartbeat CPU 0 instructions: 52000368 cycles: 16533443 heartbeat IPC: 1.548 cumulative IPC: 0.7396 (Simulation time: 00 hr 05 min 04 sec)
Heartbeat CPU 0 instructions: 52500374 cycles: 16819956 heartbeat IPC: 1.745 cumulative IPC: 0.836 (Simulation time: 00 hr 05 min 07 sec)
Heartbeat CPU 0 instructions: 53000375 cycles: 17114786 heartbeat IPC: 1.696 cumulative IPC: 0.9131 (Simulation time: 00 hr 05 min 11 sec)
Heartbeat CPU 0 instructions: 53500380 cycles: 17399592 heartbeat IPC: 1.756 cumulative IPC: 0.9803 (Simulation time: 00 hr 05 min 14 sec)
Heartbeat CPU 0 instructions: 54000384 cycles: 17682738 heartbeat IPC: 1.766 cumulative IPC: 1.038 (Simulation time: 00 hr 05 min 17 sec)
Heartbeat CPU 0 instructions: 54500386 cycles: 17972301 heartbeat IPC: 1.727 cumulative IPC: 1.086 (Simulation time: 00 hr 05 min 20 sec)
Heartbeat CPU 0 instructions: 55000387 cycles: 18269334 heartbeat IPC: 1.683 cumulative IPC: 1.126 (Simulation time: 00 hr 05 min 24 sec)
Heartbeat CPU 0 instructions: 55500391 cycles: 18560942 heartbeat IPC: 1.715 cumulative IPC: 1.162 (Simulation time: 00 hr 05 min 27 sec)
Heartbeat CPU 0 instructions: 56000392 cycles: 18842684 heartbeat IPC: 1.775 cumulative IPC: 1.197 (Simulation time: 00 hr 05 min 30 sec)
Heartbeat CPU 0 instructions: 56500395 cycles: 19128944 heartbeat IPC: 1.747 cumulative IPC: 1.226 (Simulation time: 00 hr 05 min 34 sec)
Heartbeat CPU 0 instructions: 57000396 cycles: 19421147 heartbeat IPC: 1.711 cumulative IPC: 1.252 (Simulation time: 00 hr 05 min 37 sec)
Heartbeat CPU 0 instructions: 57500396 cycles: 19707081 heartbeat IPC: 1.749 cumulative IPC: 1.276 (Simulation time: 00 hr 05 min 40 sec)
Heartbeat CPU 0 instructions: 58000396 cycles: 19984826 heartbeat IPC: 1.8 cumulative IPC: 1.3 (Simulation time: 00 hr 05 min 44 sec)
Heartbeat CPU 0 instructions: 58500396 cycles: 20261576 heartbeat IPC: 1.807 cumulative IPC: 1.321 (Simulation time: 00 hr 05 min 47 sec)
Heartbeat CPU 0 instructions: 59000397 cycles: 20560049 heartbeat IPC: 1.675 cumulative IPC: 1.337 (Simulation time: 00 hr 05 min 50 sec)
Heartbeat CPU 0 instructions: 59500397 cycles: 20848166 heartbeat IPC: 1.735 cumulative IPC: 1.353 (Simulation time: 00 hr 05 min 53 sec)
Heartbeat CPU 0 instructions: 60000401 cycles: 21138074 heartbeat IPC: 1.725 cumulative IPC: 1.368 (Simulation time: 00 hr 05 min 57 sec)
Heartbeat CPU 0 instructions: 60500408 cycles: 21420574 heartbeat IPC: 1.77 cumulative IPC: 1.383 (Simulation time: 00 hr 06 min 00 sec)
Heartbeat CPU 0 instructions: 61000411 cycles: 21709534 heartbeat IPC: 1.73 cumulative IPC: 1.396 (Simulation time: 00 hr 06 min 03 sec)
Heartbeat CPU 0 instructions: 61500413 cycles: 23998026 heartbeat IPC: 0.2185 cumulative IPC: 1.131 (Simulation time: 00 hr 06 min 19 sec)
Heartbeat CPU 0 instructions: 62000414 cycles: 26005108 heartbeat IPC: 0.2491 cumulative IPC: 0.9856 (Simulation time: 00 hr 06 min 33 sec)
Heartbeat CPU 0 instructions: 62500414 cycles: 27729911 heartbeat IPC: 0.2899 cumulative IPC: 0.8992 (Simulation time: 00 hr 06 min 46 sec)
Heartbeat CPU 0 instructions: 63000421 cycles: 30121723 heartbeat IPC: 0.209 cumulative IPC: 0.7979 (Simulation time: 00 hr 07 min 03 sec)
Heartbeat CPU 0 instructions: 63500422 cycles: 31484265 heartbeat IPC: 0.367 cumulative IPC: 0.7647 (Simulation time: 00 hr 07 min 13 sec)
Heartbeat CPU 0 instructions: 64000422 cycles: 33751530 heartbeat IPC: 0.2205 cumulative IPC: 0.7027 (Simulation time: 00 hr 07 min 29 sec)
Heartbeat CPU 0 instructions: 64500427 cycles: 36409157 heartbeat IPC: 0.1881 cumulative IPC: 0.6422 (Simulation time: 00 hr 07 min 48 sec)
Heartbeat CPU 0 instructions: 65000427 cycles: 38172294 heartbeat IPC: 0.2836 cumulative IPC: 0.6162 (Simulation time: 00 hr 08 min 01 sec)
Heartbeat CPU 0 instructions: 65500432 cycles: 38615194 heartbeat IPC: 1.129 cumulative IPC: 0.6254 (Simulation time: 00 hr 08 min 06 sec)
Heartbeat CPU 0 instructions: 66000432 cycles: 39226615 heartbeat IPC: 0.8178 cumulative IPC: 0.63 (Simulation time: 00 hr 08 min 11 sec)
Heartbeat CPU 0 instructions: 66500436 cycles: 39798860 heartbeat IPC: 0.8738 cumulative IPC: 0.6354 (Simulation time: 00 hr 08 min 17 sec)
Heartbeat CPU 0 instructions: 67000436 cycles: 41776136 heartbeat IPC: 0.2529 cumulative IPC: 0.6083 (Simulation time: 00 hr 08 min 30 sec)
Heartbeat CPU 0 instructions: 67500436 cycles: 43684246 heartbeat IPC: 0.262 cumulative IPC: 0.5862 (Simulation time: 00 hr 08 min 44 sec)
Heartbeat CPU 0 instructions: 68000436 cycles: 45153659 heartbeat IPC: 0.3403 cumulative IPC: 0.5746 (Simulation time: 00 hr 08 min 56 sec)
Heartbeat CPU 0 instructions: 68500442 cycles: 47224222 heartbeat IPC: 0.2415 cumulative IPC: 0.554 (Simulation time: 00 hr 09 min 10 sec)
Heartbeat CPU 0 instructions: 69000443 cycles: 48507778 heartbeat IPC: 0.3895 cumulative IPC: 0.5479 (Simulation time: 00 hr 09 min 21 sec)
Heartbeat CPU 0 instructions: 69500449 cycles: 49481025 heartbeat IPC: 0.5138 cumulative IPC: 0.547 (Simulation time: 00 hr 09 min 28 sec)
Heartbeat CPU 0 instructions: 70000452 cycles: 50000628 heartbeat IPC: 0.9623 cumulative IPC: 0.5529 (Simulation time: 00 hr 09 min 33 sec)
Heartbeat CPU 0 instructions: 70500453 cycles: 50968769 heartbeat IPC: 0.5165 cumulative IPC: 0.552 (Simulation time: 00 hr 09 min 41 sec)
Heartbeat CPU 0 instructions: 71000453 cycles: 52354177 heartbeat IPC: 0.3609 cumulative IPC: 0.5451 (Simulation time: 00 hr 09 min 51 sec)
Heartbeat CPU 0 instructions: 71500455 cycles: 53304536 heartbeat IPC: 0.5261 cumulative IPC: 0.5447 (Simulation time: 00 hr 09 min 59 sec)
Heartbeat CPU 0 instructions: 72000455 cycles: 55052865 heartbeat IPC: 0.286 cumulative IPC: 0.5337 (Simulation time: 00 hr 10 min 12 sec)
Heartbeat CPU 0 instructions: 72500459 cycles: 57035648 heartbeat IPC: 0.2522 cumulative IPC: 0.5208 (Simulation time: 00 hr 10 min 26 sec)
Heartbeat CPU 0 instructions: 73000462 cycles: 58466931 heartbeat IPC: 0.3493 cumulative IPC: 0.5153 (Simulation time: 00 hr 10 min 37 sec)
Heartbeat CPU 0 instructions: 73500465 cycles: 59475370 heartbeat IPC: 0.4958 cumulative IPC: 0.5148 (Simulation time: 00 hr 10 min 45 sec)
Heartbeat CPU 0 instructions: 74000465 cycles: 60003441 heartbeat IPC: 0.9468 cumulative IPC: 0.5198 (Simulation time: 00 hr 10 min 50 sec)
Heartbeat CPU 0 instructions: 74500471 cycles: 61163171 heartbeat IPC: 0.4311 cumulative IPC: 0.5176 (Simulation time: 00 hr 10 min 59 sec)
Heartbeat CPU 0 instructions: 75000472 cycles: 64251696 heartbeat IPC: 0.1619 cumulative IPC: 0.4958 (Simulation time: 00 hr 11 min 20 sec)
Heartbeat CPU 0 instructions: 75500472 cycles: 65925138 heartbeat IPC: 0.2988 cumulative IPC: 0.4895 (Simulation time: 00 hr 11 min 32 sec)
Heartbeat CPU 0 instructions: 76000473 cycles: 67223618 heartbeat IPC: 0.3851 cumulative IPC: 0.4869 (Simulation time: 00 hr 11 min 42 sec)
Heartbeat CPU 0 instructions: 76500476 cycles: 68298687 heartbeat IPC: 0.4651 cumulative IPC: 0.4865 (Simulation time: 00 hr 11 min 51 sec)
Heartbeat CPU 0 instructions: 77000478 cycles: 70340622 heartbeat IPC: 0.2449 cumulative IPC: 0.4778 (Simulation time: 00 hr 12 min 06 sec)
Heartbeat CPU 0 instructions: 77500479 cycles: 71692773 heartbeat IPC: 0.3698 cumulative IPC: 0.4753 (Simulation time: 00 hr 12 min 17 sec)
Heartbeat CPU 0 instructions: 78000479 cycles: 73232215 heartbeat IPC: 0.3248 cumulative IPC: 0.4714 (Simulation time: 00 hr 12 min 28 sec)
Heartbeat CPU 0 instructions: 78500486 cycles: 74891995 heartbeat IPC: 0.3012 cumulative IPC: 0.4667 (Simulation time: 00 hr 12 min 39 sec)
Heartbeat CPU 0 instructions: 79000489 cycles: 75594926 heartbeat IPC: 0.7113 cumulative IPC: 0.4695 (Simulation time: 00 hr 12 min 46 sec)
Heartbeat CPU 0 instructions: 79500490 cycles: 76297205 heartbeat IPC: 0.712 cumulative IPC: 0.4722 (Simulation time: 00 hr 12 min 51 sec)
Heartbeat CPU 0 instructions: 80000490 cycles: 76469214 heartbeat IPC: 2.907 cumulative IPC: 0.4789 (Simulation time: 00 hr 12 min 54 sec)
Heartbeat CPU 0 instructions: 80500490 cycles: 76619596 heartbeat IPC: 3.325 cumulative IPC: 0.4857 (Simulation time: 00 hr 12 min 57 sec)
Heartbeat CPU 0 instructions: 81000491 cycles: 76771065 heartbeat IPC: 3.301 cumulative IPC: 0.4925 (Simulation time: 00 hr 12 min 59 sec)
Heartbeat CPU 0 instructions: 81500492 cycles: 76929712 heartbeat IPC: 3.152 cumulative IPC: 0.4992 (Simulation time: 00 hr 13 min 01 sec)
Heartbeat CPU 0 instructions: 82000494 cycles: 77089073 heartbeat IPC: 3.138 cumulative IPC: 0.5059 (Simulation time: 00 hr 13 min 04 sec)
Heartbeat CPU 0 instructions: 82500495 cycles: 77246417 heartbeat IPC: 3.178 cumulative IPC: 0.5125 (Simulation time: 00 hr 13 min 06 sec)
Heartbeat CPU 0 instructions: 83000495 cycles: 77404030 heartbeat IPC: 3.172 cumulative IPC: 0.5191 (Simulation time: 00 hr 13 min 09 sec)
Heartbeat CPU 0 instructions: 83500495 cycles: 77558777 heartbeat IPC: 3.231 cumulative IPC: 0.5257 (Simulation time: 00 hr 13 min 11 sec)
Heartbeat CPU 0 instructions: 84000497 cycles: 77718739 heartbeat IPC: 3.126 cumulative IPC: 0.5322 (Simulation time: 00 hr 13 min 14 sec)
Heartbeat CPU 0 instructions: 84500497 cycles: 77887249 heartbeat IPC: 2.967 cumulative IPC: 0.5386 (Simulation time: 00 hr 13 min 16 sec)
Heartbeat CPU 0 instructions: 85000497 cycles: 78049148 heartbeat IPC: 3.088 cumulative IPC: 0.545 (Simulation time: 00 hr 13 min 19 sec)
Heartbeat CPU 0 instructions: 85500500 cycles: 78209187 heartbeat IPC: 3.124 cumulative IPC: 0.5514 (Simulation time: 00 hr 13 min 21 sec)
Heartbeat CPU 0 instructions: 86000504 cycles: 78376120 heartbeat IPC: 2.995 cumulative IPC: 0.5577 (Simulation time: 00 hr 13 min 24 sec)
Heartbeat CPU 0 instructions: 86500507 cycles: 78539741 heartbeat IPC: 3.056 cumulative IPC: 0.5641 (Simulation time: 00 hr 13 min 26 sec)
Heartbeat CPU 0 instructions: 87000507 cycles: 78707771 heartbeat IPC: 2.976 cumulative IPC: 0.5703 (Simulation time: 00 hr 13 min 29 sec)
Heartbeat CPU 0 instructions: 87500510 cycles: 78880534 heartbeat IPC: 2.894 cumulative IPC: 0.5765 (Simulation time: 00 hr 13 min 31 sec)
Heartbeat CPU 0 instructions: 88000515 cycles: 79047261 heartbeat IPC: 2.999 cumulative IPC: 0.5827 (Simulation time: 00 hr 13 min 34 sec)
Heartbeat CPU 0 instructions: 88500516 cycles: 79227522 heartbeat IPC: 2.774 cumulative IPC: 0.5887 (Simulation time: 00 hr 13 min 37 sec)
Heartbeat CPU 0 instructions: 89000518 cycles: 79575681 heartbeat IPC: 1.436 cumulative IPC: 0.5932 (Simulation time: 00 hr 13 min 40 sec)
Heartbeat CPU 0 instructions: 89500518 cycles: 79771793 heartbeat IPC: 2.55 cumulative IPC: 0.599 (Simulation time: 00 hr 13 min 43 sec)
Heartbeat CPU 0 instructions: 90000519 cycles: 79960419 heartbeat IPC: 2.651 cumulative IPC: 0.6049 (Simulation time: 00 hr 13 min 46 sec)
Heartbeat CPU 0 instructions: 90500519 cycles: 81835609 heartbeat IPC: 0.2666 cumulative IPC: 0.5955 (Simulation time: 00 hr 14 min 02 sec)
Heartbeat CPU 0 instructions: 91000519 cycles: 84668175 heartbeat IPC: 0.1765 cumulative IPC: 0.5788 (Simulation time: 00 hr 14 min 21 sec)
Heartbeat CPU 0 instructions: 91500520 cycles: 86276354 heartbeat IPC: 0.3109 cumulative IPC: 0.5728 (Simulation time: 00 hr 14 min 33 sec)
Heartbeat CPU 0 instructions: 92000520 cycles: 87826336 heartbeat IPC: 0.3226 cumulative IPC: 0.5676 (Simulation time: 00 hr 14 min 45 sec)
Heartbeat CPU 0 instructions: 92500520 cycles: 90144189 heartbeat IPC: 0.2157 cumulative IPC: 0.5569 (Simulation time: 00 hr 15 min 01 sec)
Heartbeat CPU 0 instructions: 93000524 cycles: 91540118 heartbeat IPC: 0.3582 cumulative IPC: 0.5533 (Simulation time: 00 hr 15 min 12 sec)
Heartbeat CPU 0 instructions: 93500530 cycles: 93743866 heartbeat IPC: 0.2269 cumulative IPC: 0.5443 (Simulation time: 00 hr 15 min 28 sec)
Heartbeat CPU 0 instructions: 94000536 cycles: 94673096 heartbeat IPC: 0.5381 cumulative IPC: 0.5443 (Simulation time: 00 hr 15 min 36 sec)
Heartbeat CPU 0 instructions: 94500540 cycles: 95160916 heartbeat IPC: 1.025 cumulative IPC: 0.5471 (Simulation time: 00 hr 15 min 40 sec)
Heartbeat CPU 0 instructions: 95000542 cycles: 96683989 heartbeat IPC: 0.3283 cumulative IPC: 0.5431 (Simulation time: 00 hr 15 min 52 sec)
Heartbeat CPU 0 instructions: 95500542 cycles: 97207981 heartbeat IPC: 0.9542 cumulative IPC: 0.5457 (Simulation time: 00 hr 15 min 57 sec)
Heartbeat CPU 0 instructions: 96000543 cycles: 97574218 heartbeat IPC: 1.365 cumulative IPC: 0.5493 (Simulation time: 00 hr 16 min 01 sec)
Heartbeat CPU 0 instructions: 96500544 cycles: 97821443 heartbeat IPC: 2.022 cumulative IPC: 0.5536 (Simulation time: 00 hr 16 min 04 sec)
Heartbeat CPU 0 instructions: 97000549 cycles: 98509186 heartbeat IPC: 0.727 cumulative IPC: 0.555 (Simulation time: 00 hr 16 min 10 sec)
Heartbeat CPU 0 instructions: 97500549 cycles: 100557432 heartbeat IPC: 0.2441 cumulative IPC: 0.5477 (Simulation time: 00 hr 16 min 25 sec)
Heartbeat CPU 0 instructions: 98000552 cycles: 101717557 heartbeat IPC: 0.431 cumulative IPC: 0.5462 (Simulation time: 00 hr 16 min 33 sec)
Heartbeat CPU 0 instructions: 98500554 cycles: 102463893 heartbeat IPC: 0.6699 cumulative IPC: 0.5472 (Simulation time: 00 hr 16 min 40 sec)
Heartbeat CPU 0 instructions: 99000554 cycles: 103632958 heartbeat IPC: 0.4277 cumulative IPC: 0.5456 (Simulation time: 00 hr 16 min 49 sec)
Heartbeat CPU 0 instructions: 99500557 cycles: 104525844 heartbeat IPC: 0.56 cumulative IPC: 0.5458 (Simulation time: 00 hr 16 min 56 sec)
Heartbeat CPU 0 instructions: 100000562 cycles: 105370604 heartbeat IPC: 0.5919 cumulative IPC: 0.5462 (Simulation time: 00 hr 17 min 03 sec)
Heartbeat CPU 0 instructions: 100500563 cycles: 106192248 heartbeat IPC: 0.6085 cumulative IPC: 0.5468 (Simulation time: 00 hr 17 min 10 sec)
Heartbeat CPU 0 instructions: 101000564 cycles: 107845112 heartbeat IPC: 0.3025 cumulative IPC: 0.5425 (Simulation time: 00 hr 17 min 22 sec)
Heartbeat CPU 0 instructions: 101500566 cycles: 109686195 heartbeat IPC: 0.2716 cumulative IPC: 0.5373 (Simulation time: 00 hr 17 min 34 sec)
Heartbeat CPU 0 instructions: 102000567 cycles: 110483489 heartbeat IPC: 0.6271 cumulative IPC: 0.538 (Simulation time: 00 hr 17 min 41 sec)
Heartbeat CPU 0 instructions: 102500570 cycles: 111750094 heartbeat IPC: 0.3948 cumulative IPC: 0.5362 (Simulation time: 00 hr 17 min 51 sec)
Heartbeat CPU 0 instructions: 103000577 cycles: 112812370 heartbeat IPC: 0.4707 cumulative IPC: 0.5354 (Simulation time: 00 hr 17 min 59 sec)
Heartbeat CPU 0 instructions: 103500577 cycles: 113097056 heartbeat IPC: 1.756 cumulative IPC: 0.539 (Simulation time: 00 hr 18 min 03 sec)
Heartbeat CPU 0 instructions: 104000580 cycles: 114594629 heartbeat IPC: 0.3339 cumulative IPC: 0.5359 (Simulation time: 00 hr 18 min 15 sec)
Heartbeat CPU 0 instructions: 104500582 cycles: 115166457 heartbeat IPC: 0.8744 cumulative IPC: 0.5378 (Simulation time: 00 hr 18 min 21 sec)
Heartbeat CPU 0 instructions: 105000585 cycles: 115617511 heartbeat IPC: 1.109 cumulative IPC: 0.5403 (Simulation time: 00 hr 18 min 27 sec)
Heartbeat CPU 0 instructions: 105500586 cycles: 115909986 heartbeat IPC: 1.71 cumulative IPC: 0.5437 (Simulation time: 00 hr 18 min 31 sec)
Heartbeat CPU 0 instructions: 106000593 cycles: 116159377 heartbeat IPC: 2.005 cumulative IPC: 0.5473 (Simulation time: 00 hr 18 min 35 sec)
Heartbeat CPU 0 instructions: 106500598 cycles: 116436493 heartbeat IPC: 1.804 cumulative IPC: 0.5506 (Simulation time: 00 hr 18 min 39 sec)
Heartbeat CPU 0 instructions: 107000599 cycles: 116717261 heartbeat IPC: 1.781 cumulative IPC: 0.554 (Simulation time: 00 hr 18 min 44 sec)
Heartbeat CPU 0 instructions: 107500600 cycles: 117004568 heartbeat IPC: 1.74 cumulative IPC: 0.5573 (Simulation time: 00 hr 18 min 48 sec)
Heartbeat CPU 0 instructions: 108000606 cycles: 117279755 heartbeat IPC: 1.817 cumulative IPC: 0.5607 (Simulation time: 00 hr 18 min 52 sec)
Heartbeat CPU 0 instructions: 108500613 cycles: 118156933 heartbeat IPC: 0.57 cumulative IPC: 0.5607 (Simulation time: 00 hr 19 min 00 sec)
Heartbeat CPU 0 instructions: 109000613 cycles: 119134648 heartbeat IPC: 0.5114 cumulative IPC: 0.5603 (Simulation time: 00 hr 19 min 08 sec)
Heartbeat CPU 0 instructions: 109500620 cycles: 119671242 heartbeat IPC: 0.9318 cumulative IPC: 0.5622 (Simulation time: 00 hr 19 min 13 sec)
Heartbeat CPU 0 instructions: 110000627 cycles: 121034962 heartbeat IPC: 0.3666 cumulative IPC: 0.5597 (Simulation time: 00 hr 19 min 23 sec)
Heartbeat CPU 0 instructions: 110500630 cycles: 121493521 heartbeat IPC: 1.09 cumulative IPC: 0.5619 (Simulation time: 00 hr 19 min 27 sec)
Heartbeat CPU 0 instructions: 111000630 cycles: 121848310 heartbeat IPC: 1.409 cumulative IPC: 0.5647 (Simulation time: 00 hr 19 min 31 sec)
Heartbeat CPU 0 instructions: 111500631 cycles: 122092901 heartbeat IPC: 2.044 cumulative IPC: 0.5681 (Simulation time: 00 hr 19 min 34 sec)
Heartbeat CPU 0 instructions: 112000635 cycles: 122739653 heartbeat IPC: 0.7731 cumulative IPC: 0.5693 (Simulation time: 00 hr 19 min 40 sec)
Heartbeat CPU 0 instructions: 112500636 cycles: 124612684 heartbeat IPC: 0.2669 cumulative IPC: 0.5642 (Simulation time: 00 hr 19 min 52 sec)
Heartbeat CPU 0 instructions: 113000638 cycles: 126565788 heartbeat IPC: 0.256 cumulative IPC: 0.5588 (Simulation time: 00 hr 20 min 06 sec)
Heartbeat CPU 0 instructions: 113500639 cycles: 127380710 heartbeat IPC: 0.6136 cumulative IPC: 0.5592 (Simulation time: 00 hr 20 min 13 sec)
Heartbeat CPU 0 instructions: 114000644 cycles: 128834877 heartbeat IPC: 0.3438 cumulative IPC: 0.5565 (Simulation time: 00 hr 20 min 24 sec)
Heartbeat CPU 0 instructions: 114500645 cycles: 129862319 heartbeat IPC: 0.4866 cumulative IPC: 0.5559 (Simulation time: 00 hr 20 min 32 sec)
Heartbeat CPU 0 instructions: 115000645 cycles: 131995094 heartbeat IPC: 0.2344 cumulative IPC: 0.5501 (Simulation time: 00 hr 20 min 46 sec)
Heartbeat CPU 0 instructions: 115500649 cycles: 133442988 heartbeat IPC: 0.3453 cumulative IPC: 0.5476 (Simulation time: 00 hr 20 min 57 sec)
Heartbeat CPU 0 instructions: 116000651 cycles: 134728670 heartbeat IPC: 0.3889 cumulative IPC: 0.5459 (Simulation time: 00 hr 21 min 06 sec)
Heartbeat CPU 0 instructions: 116500651 cycles: 135547095 heartbeat IPC: 0.6109 cumulative IPC: 0.5463 (Simulation time: 00 hr 21 min 13 sec)
Heartbeat CPU 0 instructions: 117000653 cycles: 135957977 heartbeat IPC: 1.217 cumulative IPC: 0.5486 (Simulation time: 00 hr 21 min 17 sec)
Heartbeat CPU 0 instructions: 117500659 cycles: 136206137 heartbeat IPC: 2.015 cumulative IPC: 0.5516 (Simulation time: 00 hr 21 min 20 sec)
Heartbeat CPU 0 instructions: 118000660 cycles: 136774702 heartbeat IPC: 0.8794 cumulative IPC: 0.5531 (Simulation time: 00 hr 21 min 25 sec)
Heartbeat CPU 0 instructions: 118500660 cycles: 138376048 heartbeat IPC: 0.3122 cumulative IPC: 0.55 (Simulation time: 00 hr 21 min 36 sec)
Heartbeat CPU 0 instructions: 119000661 cycles: 140144868 heartbeat IPC: 0.2827 cumulative IPC: 0.5463 (Simulation time: 00 hr 21 min 49 sec)
Heartbeat CPU 0 instructions: 119500663 cycles: 141877665 heartbeat IPC: 0.2886 cumulative IPC: 0.5428 (Simulation time: 00 hr 22 min 02 sec)
Heartbeat CPU 0 instructions: 120000664 cycles: 143888343 heartbeat IPC: 0.2487 cumulative IPC: 0.5382 (Simulation time: 00 hr 22 min 15 sec)
Heartbeat CPU 0 instructions: 120500670 cycles: 144691105 heartbeat IPC: 0.6229 cumulative IPC: 0.5387 (Simulation time: 00 hr 22 min 22 sec)
Heartbeat CPU 0 instructions: 121000675 cycles: 145977660 heartbeat IPC: 0.3886 cumulative IPC: 0.5373 (Simulation time: 00 hr 22 min 31 sec)
Heartbeat CPU 0 instructions: 121500676 cycles: 146400020 heartbeat IPC: 1.184 cumulative IPC: 0.5393 (Simulation time: 00 hr 22 min 35 sec)
Heartbeat CPU 0 instructions: 122000678 cycles: 146756562 heartbeat IPC: 1.402 cumulative IPC: 0.5417 (Simulation time: 00 hr 22 min 39 sec)
Heartbeat CPU 0 instructions: 122500685 cycles: 146994315 heartbeat IPC: 2.103 cumulative IPC: 0.5444 (Simulation time: 00 hr 22 min 42 sec)
Heartbeat CPU 0 instructions: 123000690 cycles: 147569324 heartbeat IPC: 0.8696 cumulative IPC: 0.5458 (Simulation time: 00 hr 22 min 47 sec)
Heartbeat CPU 0 instructions: 123500692 cycles: 148542681 heartbeat IPC: 0.5137 cumulative IPC: 0.5456 (Simulation time: 00 hr 22 min 55 sec)
Heartbeat CPU 0 instructions: 124000692 cycles: 150563256 heartbeat IPC: 0.2475 cumulative IPC: 0.5412 (Simulation time: 00 hr 23 min 09 sec)
Heartbeat CPU 0 instructions: 124500696 cycles: 153245656 heartbeat IPC: 0.1864 cumulative IPC: 0.5344 (Simulation time: 00 hr 23 min 28 sec)
Heartbeat CPU 0 instructions: 125000697 cycles: 154571521 heartbeat IPC: 0.3771 cumulative IPC: 0.5329 (Simulation time: 00 hr 23 min 39 sec)
Heartbeat CPU 0 instructions: 125500704 cycles: 156009818 heartbeat IPC: 0.3476 cumulative IPC: 0.531 (Simulation time: 00 hr 23 min 51 sec)
Heartbeat CPU 0 instructions: 126000710 cycles: 157363275 heartbeat IPC: 0.3694 cumulative IPC: 0.5295 (Simulation time: 00 hr 24 min 03 sec)
Heartbeat CPU 0 instructions: 126500715 cycles: 158532172 heartbeat IPC: 0.4278 cumulative IPC: 0.5287 (Simulation time: 00 hr 24 min 14 sec)
Heartbeat CPU 0 instructions: 127000715 cycles: 159664517 heartbeat IPC: 0.4416 cumulative IPC: 0.528 (Simulation time: 00 hr 24 min 25 sec)
Heartbeat CPU 0 instructions: 127500716 cycles: 160936058 heartbeat IPC: 0.3932 cumulative IPC: 0.5268 (Simulation time: 00 hr 24 min 37 sec)
Heartbeat CPU 0 instructions: 128000723 cycles: 161956589 heartbeat IPC: 0.4899 cumulative IPC: 0.5266 (Simulation time: 00 hr 24 min 47 sec)
Heartbeat CPU 0 instructions: 128500728 cycles: 163229068 heartbeat IPC: 0.3929 cumulative IPC: 0.5254 (Simulation time: 00 hr 24 min 59 sec)
Heartbeat CPU 0 instructions: 129000733 cycles: 164398130 heartbeat IPC: 0.4277 cumulative IPC: 0.5247 (Simulation time: 00 hr 25 min 10 sec)
Heartbeat CPU 0 instructions: 129500734 cycles: 165680857 heartbeat IPC: 0.3898 cumulative IPC: 0.5235 (Simulation time: 00 hr 25 min 22 sec)
Heartbeat CPU 0 instructions: 130000737 cycles: 166782059 heartbeat IPC: 0.4541 cumulative IPC: 0.523 (Simulation time: 00 hr 25 min 32 sec)
Heartbeat CPU 0 instructions: 130500742 cycles: 168174047 heartbeat IPC: 0.3592 cumulative IPC: 0.5216 (Simulation time: 00 hr 25 min 45 sec)
Heartbeat CPU 0 instructions: 131000749 cycles: 169337335 heartbeat IPC: 0.4298 cumulative IPC: 0.5209 (Simulation time: 00 hr 25 min 56 sec)
Heartbeat CPU 0 instructions: 131500750 cycles: 171402415 heartbeat IPC: 0.2421 cumulative IPC: 0.5172 (Simulation time: 00 hr 26 min 14 sec)
Heartbeat CPU 0 instructions: 132000756 cycles: 174710358 heartbeat IPC: 0.1512 cumulative IPC: 0.5097 (Simulation time: 00 hr 26 min 35 sec)
Heartbeat CPU 0 instructions: 132500762 cycles: 175581579 heartbeat IPC: 0.5739 cumulative IPC: 0.51 (Simulation time: 00 hr 26 min 43 sec)
Heartbeat CPU 0 instructions: 133000764 cycles: 176113541 heartbeat IPC: 0.9399 cumulative IPC: 0.5115 (Simulation time: 00 hr 26 min 49 sec)
Heartbeat CPU 0 instructions: 133500770 cycles: 177025278 heartbeat IPC: 0.5484 cumulative IPC: 0.5117 (Simulation time: 00 hr 26 min 58 sec)
Heartbeat CPU 0 instructions: 134000771 cycles: 177913945 heartbeat IPC: 0.5626 cumulative IPC: 0.5119 (Simulation time: 00 hr 27 min 07 sec)
Heartbeat CPU 0 instructions: 134500777 cycles: 179024027 heartbeat IPC: 0.4504 cumulative IPC: 0.5115 (Simulation time: 00 hr 27 min 17 sec)
Heartbeat CPU 0 instructions: 135000779 cycles: 180830878 heartbeat IPC: 0.2767 cumulative IPC: 0.509 (Simulation time: 00 hr 27 min 30 sec)
Heartbeat CPU 0 instructions: 135500786 cycles: 182766364 heartbeat IPC: 0.2583 cumulative IPC: 0.5061 (Simulation time: 00 hr 27 min 44 sec)
Heartbeat CPU 0 instructions: 136000790 cycles: 183333296 heartbeat IPC: 0.8819 cumulative IPC: 0.5074 (Simulation time: 00 hr 27 min 49 sec)
Heartbeat CPU 0 instructions: 136500793 cycles: 184955886 heartbeat IPC: 0.3082 cumulative IPC: 0.5055 (Simulation time: 00 hr 28 min 00 sec)
Heartbeat CPU 0 instructions: 137000797 cycles: 186155010 heartbeat IPC: 0.417 cumulative IPC: 0.5049 (Simulation time: 00 hr 28 min 08 sec)
Heartbeat CPU 0 instructions: 137500801 cycles: 187892738 heartbeat IPC: 0.2877 cumulative IPC: 0.5027 (Simulation time: 00 hr 28 min 21 sec)
Heartbeat CPU 0 instructions: 138000801 cycles: 188951513 heartbeat IPC: 0.4722 cumulative IPC: 0.5025 (Simulation time: 00 hr 28 min 29 sec)
Heartbeat CPU 0 instructions: 138500801 cycles: 189952992 heartbeat IPC: 0.4993 cumulative IPC: 0.5025 (Simulation time: 00 hr 28 min 36 sec)
Heartbeat CPU 0 instructions: 139000802 cycles: 191569580 heartbeat IPC: 0.3093 cumulative IPC: 0.5007 (Simulation time: 00 hr 28 min 48 sec)
Heartbeat CPU 0 instructions: 139500808 cycles: 192465378 heartbeat IPC: 0.5582 cumulative IPC: 0.501 (Simulation time: 00 hr 28 min 55 sec)
Heartbeat CPU 0 instructions: 140000810 cycles: 194793607 heartbeat IPC: 0.2148 cumulative IPC: 0.4973 (Simulation time: 00 hr 29 min 11 sec)
Heartbeat CPU 0 instructions: 140500814 cycles: 196154439 heartbeat IPC: 0.3674 cumulative IPC: 0.4964 (Simulation time: 00 hr 29 min 21 sec)
Heartbeat CPU 0 instructions: 141000814 cycles: 196790262 heartbeat IPC: 0.7864 cumulative IPC: 0.4974 (Simulation time: 00 hr 29 min 26 sec)
Heartbeat CPU 0 instructions: 141500821 cycles: 197401075 heartbeat IPC: 0.8186 cumulative IPC: 0.4984 (Simulation time: 00 hr 29 min 31 sec)
Heartbeat CPU 0 instructions: 142000823 cycles: 197922612 heartbeat IPC: 0.9587 cumulative IPC: 0.4998 (Simulation time: 00 hr 29 min 36 sec)
Heartbeat CPU 0 instructions: 142500828 cycles: 198475237 heartbeat IPC: 0.9048 cumulative IPC: 0.501 (Simulation time: 00 hr 29 min 40 sec)
Heartbeat CPU 0 instructions: 143000830 cycles: 199161961 heartbeat IPC: 0.7281 cumulative IPC: 0.5018 (Simulation time: 00 hr 29 min 46 sec)
Heartbeat CPU 0 instructions: 143500830 cycles: 199670542 heartbeat IPC: 0.9831 cumulative IPC: 0.5031 (Simulation time: 00 hr 29 min 50 sec)
Heartbeat CPU 0 instructions: 144000830 cycles: 201058086 heartbeat IPC: 0.3603 cumulative IPC: 0.5021 (Simulation time: 00 hr 30 min 00 sec)
Heartbeat CPU 0 instructions: 144500832 cycles: 202671156 heartbeat IPC: 0.31 cumulative IPC: 0.5004 (Simulation time: 00 hr 30 min 10 sec)
Heartbeat CPU 0 instructions: 145000837 cycles: 204222443 heartbeat IPC: 0.3223 cumulative IPC: 0.499 (Simulation time: 00 hr 30 min 21 sec)
Heartbeat CPU 0 instructions: 145500841 cycles: 205965874 heartbeat IPC: 0.2868 cumulative IPC: 0.497 (Simulation time: 00 hr 30 min 33 sec)
Heartbeat CPU 0 instructions: 146000843 cycles: 206319425 heartbeat IPC: 1.414 cumulative IPC: 0.4987 (Simulation time: 00 hr 30 min 36 sec)
Heartbeat CPU 0 instructions: 146500844 cycles: 207682748 heartbeat IPC: 0.3668 cumulative IPC: 0.4978 (Simulation time: 00 hr 30 min 46 sec)
Heartbeat CPU 0 instructions: 147000851 cycles: 208679119 heartbeat IPC: 0.5018 cumulative IPC: 0.4978 (Simulation time: 00 hr 30 min 53 sec)
Heartbeat CPU 0 instructions: 147500855 cycles: 209555298 heartbeat IPC: 0.5707 cumulative IPC: 0.4981 (Simulation time: 00 hr 30 min 59 sec)
Heartbeat CPU 0 instructions: 148000861 cycles: 209995631 heartbeat IPC: 1.136 cumulative IPC: 0.4996 (Simulation time: 00 hr 31 min 03 sec)
Heartbeat CPU 0 instructions: 148500862 cycles: 211273871 heartbeat IPC: 0.3912 cumulative IPC: 0.4989 (Simulation time: 00 hr 31 min 12 sec)
Heartbeat CPU 0 instructions: 149000862 cycles: 213177515 heartbeat IPC: 0.2627 cumulative IPC: 0.4966 (Simulation time: 00 hr 31 min 25 sec)
Heartbeat CPU 0 instructions: 149500868 cycles: 214699426 heartbeat IPC: 0.3285 cumulative IPC: 0.4953 (Simulation time: 00 hr 31 min 36 sec)
Heartbeat CPU 0 instructions: 150000868 cycles: 215430487 heartbeat IPC: 0.6839 cumulative IPC: 0.496 (Simulation time: 00 hr 31 min 42 sec)
Heartbeat CPU 0 instructions: 150500869 cycles: 215948528 heartbeat IPC: 0.9652 cumulative IPC: 0.4972 (Simulation time: 00 hr 31 min 48 sec)
Heartbeat CPU 0 instructions: 151000869 cycles: 217775623 heartbeat IPC: 0.2737 cumulative IPC: 0.4952 (Simulation time: 00 hr 32 min 01 sec)
Heartbeat CPU 0 instructions: 151500869 cycles: 218835427 heartbeat IPC: 0.4718 cumulative IPC: 0.4951 (Simulation time: 00 hr 32 min 08 sec)
Heartbeat CPU 0 instructions: 152000876 cycles: 220530257 heartbeat IPC: 0.295 cumulative IPC: 0.4935 (Simulation time: 00 hr 32 min 19 sec)
Heartbeat CPU 0 instructions: 152500877 cycles: 221467566 heartbeat IPC: 0.5334 cumulative IPC: 0.4937 (Simulation time: 00 hr 32 min 26 sec)
Heartbeat CPU 0 instructions: 153000880 cycles: 224358210 heartbeat IPC: 0.173 cumulative IPC: 0.4892 (Simulation time: 00 hr 32 min 44 sec)
Heartbeat CPU 0 instructions: 153500880 cycles: 225695241 heartbeat IPC: 0.374 cumulative IPC: 0.4885 (Simulation time: 00 hr 32 min 53 sec)
Heartbeat CPU 0 instructions: 154000882 cycles: 226116962 heartbeat IPC: 1.186 cumulative IPC: 0.4899 (Simulation time: 00 hr 32 min 57 sec)
Heartbeat CPU 0 instructions: 154500883 cycles: 227262014 heartbeat IPC: 0.4367 cumulative IPC: 0.4896 (Simulation time: 00 hr 33 min 05 sec)
Heartbeat CPU 0 instructions: 155000883 cycles: 228608095 heartbeat IPC: 0.3714 cumulative IPC: 0.4889 (Simulation time: 00 hr 33 min 15 sec)
Heartbeat CPU 0 instructions: 155500883 cycles: 230499613 heartbeat IPC: 0.2643 cumulative IPC: 0.4869 (Simulation time: 00 hr 33 min 27 sec)
Heartbeat CPU 0 instructions: 156000885 cycles: 231621973 heartbeat IPC: 0.4455 cumulative IPC: 0.4867 (Simulation time: 00 hr 33 min 35 sec)
Heartbeat CPU 0 instructions: 156500885 cycles: 232338463 heartbeat IPC: 0.6978 cumulative IPC: 0.4874 (Simulation time: 00 hr 33 min 42 sec)
Heartbeat CPU 0 instructions: 157000890 cycles: 232873204 heartbeat IPC: 0.935 cumulative IPC: 0.4885 (Simulation time: 00 hr 33 min 48 sec)
Heartbeat CPU 0 instructions: 157500897 cycles: 234911473 heartbeat IPC: 0.2453 cumulative IPC: 0.4862 (Simulation time: 00 hr 34 min 03 sec)
Heartbeat CPU 0 instructions: 158000899 cycles: 235910178 heartbeat IPC: 0.5007 cumulative IPC: 0.4863 (Simulation time: 00 hr 34 min 15 sec)
Heartbeat CPU 0 instructions: 158500905 cycles: 237467923 heartbeat IPC: 0.321 cumulative IPC: 0.4852 (Simulation time: 00 hr 34 min 36 sec)
Heartbeat CPU 0 instructions: 159000905 cycles: 238532685 heartbeat IPC: 0.4696 cumulative IPC: 0.4851 (Simulation time: 00 hr 34 min 44 sec)
Heartbeat CPU 0 instructions: 159500905 cycles: 239533858 heartbeat IPC: 0.4994 cumulative IPC: 0.4852 (Simulation time: 00 hr 34 min 52 sec)
Heartbeat CPU 0 instructions: 160000907 cycles: 242062862 heartbeat IPC: 0.1977 cumulative IPC: 0.482 (Simulation time: 00 hr 35 min 10 sec)
Heartbeat CPU 0 instructions: 160500909 cycles: 244011462 heartbeat IPC: 0.2566 cumulative IPC: 0.4801 (Simulation time: 00 hr 35 min 23 sec)
Heartbeat CPU 0 instructions: 161000909 cycles: 246080256 heartbeat IPC: 0.2417 cumulative IPC: 0.4779 (Simulation time: 00 hr 35 min 37 sec)
Heartbeat CPU 0 instructions: 161500910 cycles: 246876612 heartbeat IPC: 0.6279 cumulative IPC: 0.4784 (Simulation time: 00 hr 35 min 44 sec)
Heartbeat CPU 0 instructions: 162000913 cycles: 247797129 heartbeat IPC: 0.5432 cumulative IPC: 0.4787 (Simulation time: 00 hr 35 min 52 sec)
Heartbeat CPU 0 instructions: 162500919 cycles: 249963537 heartbeat IPC: 0.2308 cumulative IPC: 0.4764 (Simulation time: 00 hr 36 min 05 sec)
Heartbeat CPU 0 instructions: 163000921 cycles: 251326924 heartbeat IPC: 0.3667 cumulative IPC: 0.4758 (Simulation time: 00 hr 36 min 14 sec)
Heartbeat CPU 0 instructions: 163500925 cycles: 253034915 heartbeat IPC: 0.2927 cumulative IPC: 0.4745 (Simulation time: 00 hr 36 min 25 sec)
Heartbeat CPU 0 instructions: 164000927 cycles: 255563991 heartbeat IPC: 0.1977 cumulative IPC: 0.4716 (Simulation time: 00 hr 36 min 41 sec)
Heartbeat CPU 0 instructions: 164500927 cycles: 257038737 heartbeat IPC: 0.339 cumulative IPC: 0.4708 (Simulation time: 00 hr 36 min 51 sec)
Heartbeat CPU 0 instructions: 165000930 cycles: 258346536 heartbeat IPC: 0.3823 cumulative IPC: 0.4703 (Simulation time: 00 hr 37 min 00 sec)
Heartbeat CPU 0 instructions: 165500931 cycles: 259765957 heartbeat IPC: 0.3523 cumulative IPC: 0.4696 (Simulation time: 00 hr 37 min 10 sec)
Heartbeat CPU 0 instructions: 166000931 cycles: 261714425 heartbeat IPC: 0.2566 cumulative IPC: 0.468 (Simulation time: 00 hr 37 min 22 sec)
Heartbeat CPU 0 instructions: 166500936 cycles: 263113863 heartbeat IPC: 0.3573 cumulative IPC: 0.4673 (Simulation time: 00 hr 37 min 31 sec)
Heartbeat CPU 0 instructions: 167000936 cycles: 263874631 heartbeat IPC: 0.6572 cumulative IPC: 0.4679 (Simulation time: 00 hr 37 min 36 sec)
Heartbeat CPU 0 instructions: 167500939 cycles: 264861044 heartbeat IPC: 0.5069 cumulative IPC: 0.4681 (Simulation time: 00 hr 37 min 43 sec)
Heartbeat CPU 0 instructions: 168000940 cycles: 265327630 heartbeat IPC: 1.072 cumulative IPC: 0.4692 (Simulation time: 00 hr 37 min 47 sec)
Heartbeat CPU 0 instructions: 168500943 cycles: 266736241 heartbeat IPC: 0.355 cumulative IPC: 0.4686 (Simulation time: 00 hr 37 min 56 sec)
Heartbeat CPU 0 instructions: 169000943 cycles: 268140388 heartbeat IPC: 0.3561 cumulative IPC: 0.4679 (Simulation time: 00 hr 38 min 06 sec)
Heartbeat CPU 0 instructions: 169500949 cycles: 269172261 heartbeat IPC: 0.4846 cumulative IPC: 0.468 (Simulation time: 00 hr 38 min 14 sec)
Heartbeat CPU 0 instructions: 170000949 cycles: 270810836 heartbeat IPC: 0.3051 cumulative IPC: 0.467 (Simulation time: 00 hr 38 min 24 sec)
Heartbeat CPU 0 instructions: 170500951 cycles: 271531042 heartbeat IPC: 0.6942 cumulative IPC: 0.4676 (Simulation time: 00 hr 38 min 30 sec)
Heartbeat CPU 0 instructions: 171000954 cycles: 271764474 heartbeat IPC: 2.142 cumulative IPC: 0.4691 (Simulation time: 00 hr 38 min 32 sec)
Heartbeat CPU 0 instructions: 171500958 cycles: 271981635 heartbeat IPC: 2.302 cumulative IPC: 0.4707 (Simulation time: 00 hr 38 min 34 sec)
Heartbeat CPU 0 instructions: 172000960 cycles: 272479469 heartbeat IPC: 1.004 cumulative IPC: 0.4717 (Simulation time: 00 hr 38 min 38 sec)
Heartbeat CPU 0 instructions: 172500961 cycles: 274603830 heartbeat IPC: 0.2354 cumulative IPC: 0.4698 (Simulation time: 00 hr 38 min 51 sec)
Heartbeat CPU 0 instructions: 173000961 cycles: 276191543 heartbeat IPC: 0.3149 cumulative IPC: 0.4688 (Simulation time: 00 hr 39 min 02 sec)
Heartbeat CPU 0 instructions: 173500961 cycles: 277793487 heartbeat IPC: 0.3121 cumulative IPC: 0.4679 (Simulation time: 00 hr 39 min 12 sec)
Heartbeat CPU 0 instructions: 174000965 cycles: 279652285 heartbeat IPC: 0.269 cumulative IPC: 0.4665 (Simulation time: 00 hr 39 min 24 sec)
Heartbeat CPU 0 instructions: 174500965 cycles: 281815494 heartbeat IPC: 0.2311 cumulative IPC: 0.4646 (Simulation time: 00 hr 39 min 38 sec)
Heartbeat CPU 0 instructions: 175000965 cycles: 283254170 heartbeat IPC: 0.3475 cumulative IPC: 0.464 (Simulation time: 00 hr 39 min 48 sec)
Heartbeat CPU 0 instructions: 175500965 cycles: 283846492 heartbeat IPC: 0.8441 cumulative IPC: 0.4648 (Simulation time: 00 hr 39 min 54 sec)
Heartbeat CPU 0 instructions: 176000965 cycles: 285598616 heartbeat IPC: 0.2854 cumulative IPC: 0.4636 (Simulation time: 00 hr 40 min 05 sec)
Heartbeat CPU 0 instructions: 176500965 cycles: 286630334 heartbeat IPC: 0.4846 cumulative IPC: 0.4637 (Simulation time: 00 hr 40 min 12 sec)
Heartbeat CPU 0 instructions: 177000965 cycles: 288168596 heartbeat IPC: 0.325 cumulative IPC: 0.4629 (Simulation time: 00 hr 40 min 22 sec)
Heartbeat CPU 0 instructions: 177500966 cycles: 289531773 heartbeat IPC: 0.3668 cumulative IPC: 0.4625 (Simulation time: 00 hr 40 min 31 sec)
Heartbeat CPU 0 instructions: 178000970 cycles: 291443915 heartbeat IPC: 0.2615 cumulative IPC: 0.4611 (Simulation time: 00 hr 40 min 43 sec)
Heartbeat CPU 0 instructions: 178500974 cycles: 292590411 heartbeat IPC: 0.4361 cumulative IPC: 0.461 (Simulation time: 00 hr 40 min 51 sec)
Heartbeat CPU 0 instructions: 179000975 cycles: 293620146 heartbeat IPC: 0.4856 cumulative IPC: 0.4611 (Simulation time: 00 hr 40 min 58 sec)
Heartbeat CPU 0 instructions: 179500978 cycles: 295553975 heartbeat IPC: 0.2586 cumulative IPC: 0.4597 (Simulation time: 00 hr 41 min 10 sec)
Heartbeat CPU 0 instructions: 180000978 cycles: 296020573 heartbeat IPC: 1.072 cumulative IPC: 0.4607 (Simulation time: 00 hr 41 min 14 sec)
Heartbeat CPU 0 instructions: 180500981 cycles: 296747921 heartbeat IPC: 0.6874 cumulative IPC: 0.4613 (Simulation time: 00 hr 41 min 20 sec)
Heartbeat CPU 0 instructions: 181000985 cycles: 297792025 heartbeat IPC: 0.4789 cumulative IPC: 0.4613 (Simulation time: 00 hr 41 min 27 sec)
Heartbeat CPU 0 instructions: 181500987 cycles: 298336902 heartbeat IPC: 0.9176 cumulative IPC: 0.4622 (Simulation time: 00 hr 41 min 31 sec)
Heartbeat CPU 0 instructions: 182000988 cycles: 299716900 heartbeat IPC: 0.3623 cumulative IPC: 0.4617 (Simulation time: 00 hr 41 min 40 sec)
Heartbeat CPU 0 instructions: 182500995 cycles: 300849385 heartbeat IPC: 0.4415 cumulative IPC: 0.4616 (Simulation time: 00 hr 41 min 50 sec)
Heartbeat CPU 0 instructions: 183000995 cycles: 301900135 heartbeat IPC: 0.4759 cumulative IPC: 0.4617 (Simulation time: 00 hr 41 min 59 sec)
Heartbeat CPU 0 instructions: 183501001 cycles: 303028167 heartbeat IPC: 0.4433 cumulative IPC: 0.4616 (Simulation time: 00 hr 42 min 08 sec)
Heartbeat CPU 0 instructions: 184001003 cycles: 303771121 heartbeat IPC: 0.673 cumulative IPC: 0.4622 (Simulation time: 00 hr 42 min 14 sec)
Heartbeat CPU 0 instructions: 184501003 cycles: 304526640 heartbeat IPC: 0.6618 cumulative IPC: 0.4627 (Simulation time: 00 hr 42 min 21 sec)
Heartbeat CPU 0 instructions: 185001007 cycles: 305447376 heartbeat IPC: 0.543 cumulative IPC: 0.4629 (Simulation time: 00 hr 42 min 29 sec)
Heartbeat CPU 0 instructions: 185501011 cycles: 306134282 heartbeat IPC: 0.7279 cumulative IPC: 0.4636 (Simulation time: 00 hr 42 min 35 sec)
Heartbeat CPU 0 instructions: 186001012 cycles: 309095898 heartbeat IPC: 0.1688 cumulative IPC: 0.4606 (Simulation time: 00 hr 42 min 54 sec)
Heartbeat CPU 0 instructions: 186501015 cycles: 309923726 heartbeat IPC: 0.604 cumulative IPC: 0.461 (Simulation time: 00 hr 43 min 00 sec)
Heartbeat CPU 0 instructions: 187001015 cycles: 311692832 heartbeat IPC: 0.2826 cumulative IPC: 0.4599 (Simulation time: 00 hr 43 min 11 sec)
Heartbeat CPU 0 instructions: 187501022 cycles: 312538306 heartbeat IPC: 0.5914 cumulative IPC: 0.4603 (Simulation time: 00 hr 43 min 17 sec)
Heartbeat CPU 0 instructions: 188001025 cycles: 314846417 heartbeat IPC: 0.2166 cumulative IPC: 0.4584 (Simulation time: 00 hr 43 min 31 sec)
Heartbeat CPU 0 instructions: 188501032 cycles: 316308644 heartbeat IPC: 0.3419 cumulative IPC: 0.4579 (Simulation time: 00 hr 43 min 41 sec)
Heartbeat CPU 0 instructions: 189001039 cycles: 317311146 heartbeat IPC: 0.4988 cumulative IPC: 0.458 (Simulation time: 00 hr 43 min 47 sec)
Heartbeat CPU 0 instructions: 189501039 cycles: 318854111 heartbeat IPC: 0.3241 cumulative IPC: 0.4573 (Simulation time: 00 hr 43 min 57 sec)
Heartbeat CPU 0 instructions: 190001040 cycles: 320517649 heartbeat IPC: 0.3006 cumulative IPC: 0.4565 (Simulation time: 00 hr 44 min 07 sec)
Heartbeat CPU 0 instructions: 190501040 cycles: 321813880 heartbeat IPC: 0.3857 cumulative IPC: 0.4562 (Simulation time: 00 hr 44 min 15 sec)
Heartbeat CPU 0 instructions: 191001045 cycles: 322615493 heartbeat IPC: 0.6237 cumulative IPC: 0.4566 (Simulation time: 00 hr 44 min 20 sec)
Heartbeat CPU 0 instructions: 191501045 cycles: 324792487 heartbeat IPC: 0.2297 cumulative IPC: 0.455 (Simulation time: 00 hr 44 min 33 sec)
Heartbeat CPU 0 instructions: 192001045 cycles: 327200899 heartbeat IPC: 0.2076 cumulative IPC: 0.4531 (Simulation time: 00 hr 44 min 47 sec)
Heartbeat CPU 0 instructions: 192501047 cycles: 328937629 heartbeat IPC: 0.2879 cumulative IPC: 0.4522 (Simulation time: 00 hr 44 min 58 sec)
Heartbeat CPU 0 instructions: 193001048 cycles: 329508422 heartbeat IPC: 0.876 cumulative IPC: 0.453 (Simulation time: 00 hr 45 min 03 sec)
Heartbeat CPU 0 instructions: 193501048 cycles: 330509119 heartbeat IPC: 0.4997 cumulative IPC: 0.4531 (Simulation time: 00 hr 45 min 10 sec)
Heartbeat CPU 0 instructions: 194001048 cycles: 331735889 heartbeat IPC: 0.4076 cumulative IPC: 0.453 (Simulation time: 00 hr 45 min 18 sec)
Heartbeat CPU 0 instructions: 194501048 cycles: 332949113 heartbeat IPC: 0.4121 cumulative IPC: 0.4528 (Simulation time: 00 hr 45 min 26 sec)
Heartbeat CPU 0 instructions: 195001052 cycles: 333962200 heartbeat IPC: 0.4935 cumulative IPC: 0.4529 (Simulation time: 00 hr 45 min 32 sec)
Heartbeat CPU 0 instructions: 195501054 cycles: 334400690 heartbeat IPC: 1.14 cumulative IPC: 0.4539 (Simulation time: 00 hr 45 min 35 sec)
Heartbeat CPU 0 instructions: 196001054 cycles: 334815074 heartbeat IPC: 1.207 cumulative IPC: 0.4549 (Simulation time: 00 hr 45 min 39 sec)
Heartbeat CPU 0 instructions: 196501056 cycles: 334965237 heartbeat IPC: 3.33 cumulative IPC: 0.4562 (Simulation time: 00 hr 45 min 41 sec)
Heartbeat CPU 0 instructions: 197001057 cycles: 335114004 heartbeat IPC: 3.361 cumulative IPC: 0.4575 (Simulation time: 00 hr 45 min 43 sec)
Heartbeat CPU 0 instructions: 197501057 cycles: 335268029 heartbeat IPC: 3.246 cumulative IPC: 0.4589 (Simulation time: 00 hr 45 min 45 sec)
Heartbeat CPU 0 instructions: 198001058 cycles: 335425211 heartbeat IPC: 3.181 cumulative IPC: 0.4602 (Simulation time: 00 hr 45 min 47 sec)
Heartbeat CPU 0 instructions: 198501059 cycles: 335583513 heartbeat IPC: 3.159 cumulative IPC: 0.4615 (Simulation time: 00 hr 45 min 49 sec)
Heartbeat CPU 0 instructions: 199001061 cycles: 335792039 heartbeat IPC: 2.398 cumulative IPC: 0.4628 (Simulation time: 00 hr 45 min 51 sec)
Heartbeat CPU 0 instructions: 199501061 cycles: 337537028 heartbeat IPC: 0.2865 cumulative IPC: 0.4618 (Simulation time: 00 hr 46 min 02 sec)
Heartbeat CPU 0 instructions: 200001066 cycles: 339161645 heartbeat IPC: 0.3078 cumulative IPC: 0.4611 (Simulation time: 00 hr 46 min 11 sec)
Heartbeat CPU 0 instructions: 200501069 cycles: 340537447 heartbeat IPC: 0.3634 cumulative IPC: 0.4607 (Simulation time: 00 hr 46 min 20 sec)
Heartbeat CPU 0 instructions: 201001069 cycles: 342511501 heartbeat IPC: 0.2533 cumulative IPC: 0.4594 (Simulation time: 00 hr 46 min 31 sec)
Heartbeat CPU 0 instructions: 201501070 cycles: 343742475 heartbeat IPC: 0.4062 cumulative IPC: 0.4592 (Simulation time: 00 hr 46 min 39 sec)
Heartbeat CPU 0 instructions: 202001070 cycles: 344162060 heartbeat IPC: 1.192 cumulative IPC: 0.4601 (Simulation time: 00 hr 46 min 42 sec)
Heartbeat CPU 0 instructions: 202501072 cycles: 344526701 heartbeat IPC: 1.371 cumulative IPC: 0.4611 (Simulation time: 00 hr 46 min 45 sec)
Heartbeat CPU 0 instructions: 203001072 cycles: 344887426 heartbeat IPC: 1.386 cumulative IPC: 0.4622 (Simulation time: 00 hr 46 min 48 sec)
Heartbeat CPU 0 instructions: 203501072 cycles: 345234096 heartbeat IPC: 1.442 cumulative IPC: 0.4632 (Simulation time: 00 hr 46 min 51 sec)
Heartbeat CPU 0 instructions: 204001075 cycles: 345589429 heartbeat IPC: 1.407 cumulative IPC: 0.4642 (Simulation time: 00 hr 46 min 53 sec)
Heartbeat CPU 0 instructions: 204501076 cycles: 345924938 heartbeat IPC: 1.49 cumulative IPC: 0.4652 (Simulation time: 00 hr 46 min 56 sec)
Heartbeat CPU 0 instructions: 205001079 cycles: 346289864 heartbeat IPC: 1.37 cumulative IPC: 0.4662 (Simulation time: 00 hr 46 min 59 sec)
Heartbeat CPU 0 instructions: 205501086 cycles: 347728235 heartbeat IPC: 0.3476 cumulative IPC: 0.4657 (Simulation time: 00 hr 47 min 08 sec)
Heartbeat CPU 0 instructions: 206001086 cycles: 348830231 heartbeat IPC: 0.4537 cumulative IPC: 0.4657 (Simulation time: 00 hr 47 min 15 sec)
Heartbeat CPU 0 instructions: 206501088 cycles: 350127984 heartbeat IPC: 0.3853 cumulative IPC: 0.4654 (Simulation time: 00 hr 47 min 24 sec)
Heartbeat CPU 0 instructions: 207001091 cycles: 351762234 heartbeat IPC: 0.306 cumulative IPC: 0.4646 (Simulation time: 00 hr 47 min 33 sec)
Heartbeat CPU 0 instructions: 207501098 cycles: 353556560 heartbeat IPC: 0.2787 cumulative IPC: 0.4636 (Simulation time: 00 hr 47 min 44 sec)
Heartbeat CPU 0 instructions: 208001101 cycles: 355064048 heartbeat IPC: 0.3317 cumulative IPC: 0.463 (Simulation time: 00 hr 47 min 53 sec)
Heartbeat CPU 0 instructions: 208501101 cycles: 356347819 heartbeat IPC: 0.3895 cumulative IPC: 0.4628 (Simulation time: 00 hr 48 min 01 sec)
Heartbeat CPU 0 instructions: 209001103 cycles: 357904540 heartbeat IPC: 0.3212 cumulative IPC: 0.4621 (Simulation time: 00 hr 48 min 11 sec)
Heartbeat CPU 0 instructions: 209501108 cycles: 359182488 heartbeat IPC: 0.3913 cumulative IPC: 0.4618 (Simulation time: 00 hr 48 min 19 sec)
Heartbeat CPU 0 instructions: 210001109 cycles: 360745910 heartbeat IPC: 0.3198 cumulative IPC: 0.4612 (Simulation time: 00 hr 48 min 28 sec)
Heartbeat CPU 0 instructions: 210501116 cycles: 362182591 heartbeat IPC: 0.348 cumulative IPC: 0.4607 (Simulation time: 00 hr 48 min 36 sec)
Heartbeat CPU 0 instructions: 211001119 cycles: 363097636 heartbeat IPC: 0.5464 cumulative IPC: 0.461 (Simulation time: 00 hr 48 min 42 sec)
Heartbeat CPU 0 instructions: 211501120 cycles: 364695417 heartbeat IPC: 0.3129 cumulative IPC: 0.4603 (Simulation time: 00 hr 48 min 52 sec)
Heartbeat CPU 0 instructions: 212001125 cycles: 366256126 heartbeat IPC: 0.3204 cumulative IPC: 0.4597 (Simulation time: 00 hr 49 min 01 sec)
Heartbeat CPU 0 instructions: 212501125 cycles: 367616822 heartbeat IPC: 0.3675 cumulative IPC: 0.4593 (Simulation time: 00 hr 49 min 09 sec)
Heartbeat CPU 0 instructions: 213001129 cycles: 369112786 heartbeat IPC: 0.3342 cumulative IPC: 0.4588 (Simulation time: 00 hr 49 min 18 sec)
Heartbeat CPU 0 instructions: 213501132 cycles: 370066888 heartbeat IPC: 0.5241 cumulative IPC: 0.459 (Simulation time: 00 hr 49 min 25 sec)
Heartbeat CPU 0 instructions: 214001136 cycles: 370853987 heartbeat IPC: 0.6352 cumulative IPC: 0.4594 (Simulation time: 00 hr 49 min 30 sec)
Heartbeat CPU 0 instructions: 214501138 cycles: 373076042 heartbeat IPC: 0.225 cumulative IPC: 0.4579 (Simulation time: 00 hr 49 min 43 sec)
Heartbeat CPU 0 instructions: 215001139 cycles: 374354531 heartbeat IPC: 0.3911 cumulative IPC: 0.4577 (Simulation time: 00 hr 49 min 51 sec)
Heartbeat CPU 0 instructions: 215501142 cycles: 375209930 heartbeat IPC: 0.5845 cumulative IPC: 0.458 (Simulation time: 00 hr 49 min 56 sec)
Heartbeat CPU 0 instructions: 216001142 cycles: 376306725 heartbeat IPC: 0.4559 cumulative IPC: 0.458 (Simulation time: 00 hr 50 min 03 sec)
Heartbeat CPU 0 instructions: 216501142 cycles: 377565336 heartbeat IPC: 0.3973 cumulative IPC: 0.4578 (Simulation time: 00 hr 50 min 11 sec)
Heartbeat CPU 0 instructions: 217001143 cycles: 378459701 heartbeat IPC: 0.5591 cumulative IPC: 0.458 (Simulation time: 00 hr 50 min 17 sec)
Heartbeat CPU 0 instructions: 217501145 cycles: 380347895 heartbeat IPC: 0.2648 cumulative IPC: 0.457 (Simulation time: 00 hr 50 min 28 sec)
Heartbeat CPU 0 instructions: 218001148 cycles: 381416316 heartbeat IPC: 0.468 cumulative IPC: 0.457 (Simulation time: 00 hr 50 min 35 sec)
Heartbeat CPU 0 instructions: 218501148 cycles: 382670223 heartbeat IPC: 0.3988 cumulative IPC: 0.4568 (Simulation time: 00 hr 50 min 43 sec)
Heartbeat CPU 0 instructions: 219001152 cycles: 384926969 heartbeat IPC: 0.2216 cumulative IPC: 0.4554 (Simulation time: 00 hr 50 min 56 sec)
Heartbeat CPU 0 instructions: 219501159 cycles: 386148888 heartbeat IPC: 0.4092 cumulative IPC: 0.4553 (Simulation time: 00 hr 51 min 03 sec)
Heartbeat CPU 0 instructions: 220001162 cycles: 387641681 heartbeat IPC: 0.3349 cumulative IPC: 0.4548 (Simulation time: 00 hr 51 min 12 sec)
Heartbeat CPU 0 instructions: 220501166 cycles: 388680436 heartbeat IPC: 0.4813 cumulative IPC: 0.4548 (Simulation time: 00 hr 51 min 18 sec)
Heartbeat CPU 0 instructions: 221001171 cycles: 389882748 heartbeat IPC: 0.4159 cumulative IPC: 0.4547 (Simulation time: 00 hr 51 min 25 sec)
Heartbeat CPU 0 instructions: 221501171 cycles: 391015644 heartbeat IPC: 0.4413 cumulative IPC: 0.4547 (Simulation time: 00 hr 51 min 32 sec)
Heartbeat CPU 0 instructions: 222001171 cycles: 391661032 heartbeat IPC: 0.7747 cumulative IPC: 0.4552 (Simulation time: 00 hr 51 min 36 sec)
Heartbeat CPU 0 instructions: 222501178 cycles: 393598894 heartbeat IPC: 0.258 cumulative IPC: 0.4542 (Simulation time: 00 hr 51 min 48 sec)
Heartbeat CPU 0 instructions: 223001178 cycles: 395994793 heartbeat IPC: 0.2087 cumulative IPC: 0.4527 (Simulation time: 00 hr 52 min 02 sec)
Heartbeat CPU 0 instructions: 223501181 cycles: 397457915 heartbeat IPC: 0.3417 cumulative IPC: 0.4523 (Simulation time: 00 hr 52 min 10 sec)
Heartbeat CPU 0 instructions: 224001184 cycles: 398811728 heartbeat IPC: 0.3693 cumulative IPC: 0.452 (Simulation time: 00 hr 52 min 18 sec)
Heartbeat CPU 0 instructions: 224501185 cycles: 399307963 heartbeat IPC: 1.008 cumulative IPC: 0.4527 (Simulation time: 00 hr 52 min 22 sec)
Heartbeat CPU 0 instructions: 225001188 cycles: 400006018 heartbeat IPC: 0.7163 cumulative IPC: 0.4532 (Simulation time: 00 hr 52 min 26 sec)
Heartbeat CPU 0 instructions: 225501188 cycles: 400524093 heartbeat IPC: 0.9651 cumulative IPC: 0.4538 (Simulation time: 00 hr 52 min 30 sec)
Heartbeat CPU 0 instructions: 226001189 cycles: 401091307 heartbeat IPC: 0.8815 cumulative IPC: 0.4545 (Simulation time: 00 hr 52 min 34 sec)
Heartbeat CPU 0 instructions: 226501189 cycles: 401609442 heartbeat IPC: 0.965 cumulative IPC: 0.4552 (Simulation time: 00 hr 52 min 37 sec)
Heartbeat CPU 0 instructions: 227001189 cycles: 402853711 heartbeat IPC: 0.4018 cumulative IPC: 0.455 (Simulation time: 00 hr 52 min 45 sec)
Heartbeat CPU 0 instructions: 227501191 cycles: 405715930 heartbeat IPC: 0.1747 cumulative IPC: 0.4529 (Simulation time: 00 hr 53 min 01 sec)
Heartbeat CPU 0 instructions: 228001191 cycles: 407974276 heartbeat IPC: 0.2214 cumulative IPC: 0.4516 (Simulation time: 00 hr 53 min 14 sec)
Heartbeat CPU 0 instructions: 228501197 cycles: 408637684 heartbeat IPC: 0.7537 cumulative IPC: 0.4521 (Simulation time: 00 hr 53 min 20 sec)
Heartbeat CPU 0 instructions: 229001198 cycles: 409072852 heartbeat IPC: 1.149 cumulative IPC: 0.4529 (Simulation time: 00 hr 53 min 24 sec)
Heartbeat CPU 0 instructions: 229501199 cycles: 410873494 heartbeat IPC: 0.2777 cumulative IPC: 0.4521 (Simulation time: 00 hr 53 min 34 sec)
Heartbeat CPU 0 instructions: 230001200 cycles: 412398158 heartbeat IPC: 0.3279 cumulative IPC: 0.4516 (Simulation time: 00 hr 53 min 43 sec)
Heartbeat CPU 0 instructions: 230501203 cycles: 413110658 heartbeat IPC: 0.7018 cumulative IPC: 0.4521 (Simulation time: 00 hr 53 min 49 sec)
Heartbeat CPU 0 instructions: 231001208 cycles: 413496043 heartbeat IPC: 1.297 cumulative IPC: 0.4529 (Simulation time: 00 hr 53 min 53 sec)
Heartbeat CPU 0 instructions: 231501211 cycles: 415306392 heartbeat IPC: 0.2762 cumulative IPC: 0.4521 (Simulation time: 00 hr 54 min 03 sec)
Heartbeat CPU 0 instructions: 232001211 cycles: 416954855 heartbeat IPC: 0.3033 cumulative IPC: 0.4515 (Simulation time: 00 hr 54 min 13 sec)
Heartbeat CPU 0 instructions: 232501211 cycles: 417886884 heartbeat IPC: 0.5365 cumulative IPC: 0.4517 (Simulation time: 00 hr 54 min 19 sec)
Heartbeat CPU 0 instructions: 233001211 cycles: 418491845 heartbeat IPC: 0.8265 cumulative IPC: 0.4522 (Simulation time: 00 hr 54 min 23 sec)
Heartbeat CPU 0 instructions: 233501211 cycles: 418866944 heartbeat IPC: 1.333 cumulative IPC: 0.453 (Simulation time: 00 hr 54 min 26 sec)
Heartbeat CPU 0 instructions: 234001214 cycles: 420220746 heartbeat IPC: 0.3693 cumulative IPC: 0.4528 (Simulation time: 00 hr 54 min 33 sec)
Heartbeat CPU 0 instructions: 234501220 cycles: 421410266 heartbeat IPC: 0.4203 cumulative IPC: 0.4527 (Simulation time: 00 hr 54 min 40 sec)
Heartbeat CPU 0 instructions: 235001220 cycles: 422886379 heartbeat IPC: 0.3387 cumulative IPC: 0.4523 (Simulation time: 00 hr 54 min 48 sec)
Heartbeat CPU 0 instructions: 235501222 cycles: 424840649 heartbeat IPC: 0.2559 cumulative IPC: 0.4513 (Simulation time: 00 hr 54 min 59 sec)
Heartbeat CPU 0 instructions: 236001226 cycles: 426222273 heartbeat IPC: 0.3619 cumulative IPC: 0.451 (Simulation time: 00 hr 55 min 07 sec)
Heartbeat CPU 0 instructions: 236501226 cycles: 426693548 heartbeat IPC: 1.061 cumulative IPC: 0.4517 (Simulation time: 00 hr 55 min 11 sec)
Heartbeat CPU 0 instructions: 237001229 cycles: 428551246 heartbeat IPC: 0.2692 cumulative IPC: 0.4509 (Simulation time: 00 hr 55 min 21 sec)
Heartbeat CPU 0 instructions: 237501229 cycles: 430614776 heartbeat IPC: 0.2423 cumulative IPC: 0.4499 (Simulation time: 00 hr 55 min 32 sec)
Heartbeat CPU 0 instructions: 238001233 cycles: 431636554 heartbeat IPC: 0.4893 cumulative IPC: 0.45 (Simulation time: 00 hr 55 min 38 sec)
Heartbeat CPU 0 instructions: 238501233 cycles: 431784802 heartbeat IPC: 3.373 cumulative IPC: 0.451 (Simulation time: 00 hr 55 min 40 sec)
Heartbeat CPU 0 instructions: 239001233 cycles: 431938352 heartbeat IPC: 3.256 cumulative IPC: 0.452 (Simulation time: 00 hr 55 min 42 sec)
Heartbeat CPU 0 instructions: 239501235 cycles: 432090234 heartbeat IPC: 3.292 cumulative IPC: 0.4531 (Simulation time: 00 hr 55 min 44 sec)
Heartbeat CPU 0 instructions: 240001235 cycles: 432249564 heartbeat IPC: 3.138 cumulative IPC: 0.4541 (Simulation time: 00 hr 55 min 46 sec)
Heartbeat CPU 0 instructions: 240501235 cycles: 432900749 heartbeat IPC: 0.7678 cumulative IPC: 0.4546 (Simulation time: 00 hr 55 min 50 sec)
Heartbeat CPU 0 instructions: 241001238 cycles: 434613070 heartbeat IPC: 0.292 cumulative IPC: 0.4539 (Simulation time: 00 hr 56 min 00 sec)
Heartbeat CPU 0 instructions: 241501239 cycles: 435567228 heartbeat IPC: 0.524 cumulative IPC: 0.4541 (Simulation time: 00 hr 56 min 06 sec)
Heartbeat CPU 0 instructions: 242001241 cycles: 437529567 heartbeat IPC: 0.2548 cumulative IPC: 0.4532 (Simulation time: 00 hr 56 min 17 sec)
Heartbeat CPU 0 instructions: 242501241 cycles: 438937844 heartbeat IPC: 0.355 cumulative IPC: 0.4528 (Simulation time: 00 hr 56 min 25 sec)
Heartbeat CPU 0 instructions: 243001241 cycles: 440640136 heartbeat IPC: 0.2937 cumulative IPC: 0.4522 (Simulation time: 00 hr 56 min 34 sec)
Heartbeat CPU 0 instructions: 243501244 cycles: 442770325 heartbeat IPC: 0.2347 cumulative IPC: 0.4511 (Simulation time: 00 hr 56 min 45 sec)
Heartbeat CPU 0 instructions: 244001244 cycles: 443641049 heartbeat IPC: 0.5742 cumulative IPC: 0.4514 (Simulation time: 00 hr 56 min 51 sec)
Heartbeat CPU 0 instructions: 244501244 cycles: 444770086 heartbeat IPC: 0.4429 cumulative IPC: 0.4513 (Simulation time: 00 hr 56 min 58 sec)
Heartbeat CPU 0 instructions: 245001247 cycles: 446862643 heartbeat IPC: 0.2389 cumulative IPC: 0.4503 (Simulation time: 00 hr 57 min 09 sec)
Heartbeat CPU 0 instructions: 245501248 cycles: 448752808 heartbeat IPC: 0.2645 cumulative IPC: 0.4495 (Simulation time: 00 hr 57 min 19 sec)
Heartbeat CPU 0 instructions: 246001252 cycles: 450094438 heartbeat IPC: 0.3727 cumulative IPC: 0.4493 (Simulation time: 00 hr 57 min 27 sec)
Heartbeat CPU 0 instructions: 246501252 cycles: 451224258 heartbeat IPC: 0.4425 cumulative IPC: 0.4493 (Simulation time: 00 hr 57 min 34 sec)
Heartbeat CPU 0 instructions: 247001252 cycles: 452159549 heartbeat IPC: 0.5346 cumulative IPC: 0.4494 (Simulation time: 00 hr 57 min 39 sec)
Heartbeat CPU 0 instructions: 247501252 cycles: 454104905 heartbeat IPC: 0.257 cumulative IPC: 0.4486 (Simulation time: 00 hr 57 min 50 sec)
Heartbeat CPU 0 instructions: 248001252 cycles: 455680484 heartbeat IPC: 0.3173 cumulative IPC: 0.4481 (Simulation time: 00 hr 57 min 59 sec)
Heartbeat CPU 0 instructions: 248501252 cycles: 456688530 heartbeat IPC: 0.496 cumulative IPC: 0.4482 (Simulation time: 00 hr 58 min 05 sec)
Heartbeat CPU 0 instructions: 249001255 cycles: 457270006 heartbeat IPC: 0.8599 cumulative IPC: 0.4488 (Simulation time: 00 hr 58 min 09 sec)
Heartbeat CPU 0 instructions: 249501258 cycles: 457796837 heartbeat IPC: 0.9491 cumulative IPC: 0.4494 (Simulation time: 00 hr 58 min 13 sec)
Simulation finished CPU 0 instructions: 200000000 cycles: 445166108 cumulative IPC: 0.4493 (Simulation time: 00 hr 58 min 20 sec)
Simulation complete CPU 0 instructions: 200000000 cycles: 445166108 cumulative IPC: 0.4493 (Simulation time: 00 hr 58 min 20 sec)

ChampSim completed all CPUs

=== Simulation ===
CPU 0 runs /local-ssd/ben/dpc4-traces/gtraces_v2/tahoe_0001.champsim.gz

Region of Interest Statistics

CPU 0 cumulative IPC: 0.4493 instructions: 200000000 cycles: 445166108
CPU 0 Branch Prediction Accuracy: 90.69% MPKI: 18.02 Average ROB Occupancy at Mispredict: 25.19
Branch type MPKI
BRANCH_DIRECT_JUMP: 0.754
BRANCH_INDIRECT: 0.3313
BRANCH_CONDITIONAL: 14.72
BRANCH_DIRECT_CALL: 0.889
BRANCH_INDIRECT_CALL: 0.4762
BRANCH_RETURN: 0.846

cpu0->cpu0_STLB TOTAL        ACCESS:    2026247 HIT:    1315785 MISS:     710462 MSHR_MERGE:          0
cpu0->cpu0_STLB LOAD         ACCESS:    2026247 HIT:    1315785 MISS:     710462 MSHR_MERGE:          0
cpu0->cpu0_STLB RFO          ACCESS:          0 HIT:          0 MISS:          0 MSHR_MERGE:          0
cpu0->cpu0_STLB PREFETCH     ACCESS:          0 HIT:          0 MISS:          0 MSHR_MERGE:          0
cpu0->cpu0_STLB WRITE        ACCESS:          0 HIT:          0 MISS:          0 MSHR_MERGE:          0
cpu0->cpu0_STLB TRANSLATION  ACCESS:          0 HIT:          0 MISS:          0 MSHR_MERGE:          0
cpu0->cpu0_STLB PREFETCH REQUESTED:          0 ISSUED:          0 USEFUL:          0 USELESS:          0
cpu0->cpu0_STLB AVERAGE MISS LATENCY: 190.6 cycles
cpu0->cpu0_L2C TOTAL        ACCESS:   13340975 HIT:    7357826 MISS:    5983149 MSHR_MERGE:    1351548
cpu0->cpu0_L2C LOAD         ACCESS:    3644908 HIT:    1901119 MISS:    1743789 MSHR_MERGE:      40824
cpu0->cpu0_L2C RFO          ACCESS:     643728 HIT:     198039 MISS:     445689 MSHR_MERGE:       3548
cpu0->cpu0_L2C PREFETCH     ACCESS:    7159736 HIT:    3732412 MISS:    3427324 MSHR_MERGE:    1307176
cpu0->cpu0_L2C WRITE        ACCESS:    1095042 HIT:    1094997 MISS:         45 MSHR_MERGE:          0
cpu0->cpu0_L2C TRANSLATION  ACCESS:     797561 HIT:     431259 MISS:     366302 MSHR_MERGE:          0
cpu0->cpu0_L2C PREFETCH REQUESTED:    6292096 ISSUED:    5873052 USEFUL:     501210 USELESS:    1100546
cpu0->cpu0_L2C AVERAGE MISS LATENCY: 227.5 cycles
cpu0->cpu0_L1I TOTAL        ACCESS:   15632516 HIT:   13225008 MISS:    2407508 MSHR_MERGE:     444661
cpu0->cpu0_L1I LOAD         ACCESS:   15632516 HIT:   13225008 MISS:    2407508 MSHR_MERGE:     444661
cpu0->cpu0_L1I RFO          ACCESS:          0 HIT:          0 MISS:          0 MSHR_MERGE:          0
cpu0->cpu0_L1I PREFETCH     ACCESS:          0 HIT:          0 MISS:          0 MSHR_MERGE:          0
cpu0->cpu0_L1I WRITE        ACCESS:          0 HIT:          0 MISS:          0 MSHR_MERGE:          0
cpu0->cpu0_L1I TRANSLATION  ACCESS:          0 HIT:          0 MISS:          0 MSHR_MERGE:          0
cpu0->cpu0_L1I PREFETCH REQUESTED:          0 ISSUED:          0 USEFUL:          0 USELESS:          0
cpu0->cpu0_L1I AVERAGE MISS LATENCY: 116.9 cycles
cpu0->cpu0_L1D TOTAL        ACCESS:   63036893 HIT:   56106000 MISS:    6930893 MSHR_MERGE:    2520833
cpu0->cpu0_L1D LOAD         ACCESS:   35070358 HIT:   32725351 MISS:    2345007 MSHR_MERGE:     662939
cpu0->cpu0_L1D RFO          ACCESS:          0 HIT:          0 MISS:          0 MSHR_MERGE:          0
cpu0->cpu0_L1D PREFETCH     ACCESS:    3046651 HIT:    1410918 MISS:    1635733 MSHR_MERGE:     349047
cpu0->cpu0_L1D WRITE        ACCESS:   23035427 HIT:   20890786 MISS:    2144641 MSHR_MERGE:    1500896
cpu0->cpu0_L1D TRANSLATION  ACCESS:    1884457 HIT:    1078945 MISS:     805512 MSHR_MERGE:       7951
cpu0->cpu0_L1D PREFETCH REQUESTED:   10616070 ISSUED:    3046645 USEFUL:     614011 USELESS:     672670
cpu0->cpu0_L1D AVERAGE MISS LATENCY: 124.9 cycles
cpu0->cpu0_ITLB TOTAL        ACCESS:   13136396 HIT:   12763432 MISS:     372964 MSHR_MERGE:     159720
cpu0->cpu0_ITLB LOAD         ACCESS:   13136396 HIT:   12763432 MISS:     372964 MSHR_MERGE:     159720
cpu0->cpu0_ITLB RFO          ACCESS:          0 HIT:          0 MISS:          0 MSHR_MERGE:          0
cpu0->cpu0_ITLB PREFETCH     ACCESS:          0 HIT:          0 MISS:          0 MSHR_MERGE:          0
cpu0->cpu0_ITLB WRITE        ACCESS:          0 HIT:          0 MISS:          0 MSHR_MERGE:          0
cpu0->cpu0_ITLB TRANSLATION  ACCESS:          0 HIT:          0 MISS:          0 MSHR_MERGE:          0
cpu0->cpu0_ITLB PREFETCH REQUESTED:          0 ISSUED:          0 USEFUL:          0 USELESS:          0
cpu0->cpu0_ITLB AVERAGE MISS LATENCY: 45.91 cycles
cpu0->cpu0_DTLB TOTAL        ACCESS:   57536326 HIT:   54579748 MISS:    2956578 MSHR_MERGE:    1143575
cpu0->cpu0_DTLB LOAD         ACCESS:   57536326 HIT:   54579748 MISS:    2956578 MSHR_MERGE:    1143575
cpu0->cpu0_DTLB RFO          ACCESS:          0 HIT:          0 MISS:          0 MSHR_MERGE:          0
cpu0->cpu0_DTLB PREFETCH     ACCESS:          0 HIT:          0 MISS:          0 MSHR_MERGE:          0
cpu0->cpu0_DTLB WRITE        ACCESS:          0 HIT:          0 MISS:          0 MSHR_MERGE:          0
cpu0->cpu0_DTLB TRANSLATION  ACCESS:          0 HIT:          0 MISS:          0 MSHR_MERGE:          0
cpu0->cpu0_DTLB PREFETCH REQUESTED:          0 ISSUED:          0 USEFUL:          0 USELESS:          0
cpu0->cpu0_DTLB AVERAGE MISS LATENCY: 75.29 cycles
cpu0->LLC TOTAL        ACCESS:    6833989 HIT:    1054401 MISS:    5779588 MSHR_MERGE:     503633
cpu0->LLC LOAD         ACCESS:    1702965 HIT:     202579 MISS:    1500386 MSHR_MERGE:       4788
cpu0->LLC RFO          ACCESS:     442141 HIT:      14384 MISS:     427757 MSHR_MERGE:        198
cpu0->LLC PREFETCH     ACCESS:    3560906 HIT:     450835 MISS:    3110071 MSHR_MERGE:     498647
cpu0->LLC WRITE        ACCESS:     761675 HIT:     358928 MISS:     402747 MSHR_MERGE:          0
cpu0->LLC TRANSLATION  ACCESS:     366302 HIT:      27675 MISS:     338627 MSHR_MERGE:          0
cpu0->LLC PREFETCH REQUESTED:    1458236 ISSUED:    1440762 USEFUL:     201623 USELESS:     686005
cpu0->LLC AVERAGE MISS LATENCY: 196 cycles

DRAM Statistics

Channel 0 RQ ROW_BUFFER_HIT:     164574
  ROW_BUFFER_MISS:    4708513
  AVG DBUS CONGESTED CYCLE: 20.84
Channel 0 WQ ROW_BUFFER_HIT:     189057
  ROW_BUFFER_MISS:     537757
  FULL:        135
Channel 0 REFRESHES ISSUED:      37095
