[VMEM] WARNING: physical memory size is smaller than virtual memory size.

*** ChampSim Multicore Out-of-Order Simulator ***
Warmup Instructions: 50000000
Simulation Instructions: 200000000
Number of CPUs: 1
Page size: 4096
Core 0: /local-ssd/ben/dpc4-traces/gtraces_v2/arizona_0000.champsim.gz
sBerti (Smart Stride + Berti) Prefetcher Initialized
Off-chip DRAM Size: 64 GiB Channels: 1 Width: 64-bit Data Rate: 4807 MT/s
Heartbeat CPU 0 instructions: 500001 cycles: 110894 heartbeat IPC: 4.509 cumulative IPC: 4.509 (Simulation time: 00 hr 00 min 04 sec)
Heartbeat CPU 0 instructions: 1000006 cycles: 212100 heartbeat IPC: 4.94 cumulative IPC: 4.715 (Simulation time: 00 hr 00 min 06 sec)
Heartbeat CPU 0 instructions: 1500008 cycles: 316292 heartbeat IPC: 4.799 cumulative IPC: 4.742 (Simulation time: 00 hr 00 min 09 sec)
[BTB] WARNING: target of return is a lower address than the corresponding call. This is usually a problem with your trace.
[BTB] WARNING: target of return is a lower address than the corresponding call. This is usually a problem with your trace.
[BTB] WARNING: target of return is a lower address than the corresponding call. This is usually a problem with your trace.
Heartbeat CPU 0 instructions: 2000010 cycles: 420349 heartbeat IPC: 4.805 cumulative IPC: 4.758 (Simulation time: 00 hr 00 min 12 sec)
Heartbeat CPU 0 instructions: 2500015 cycles: 522360 heartbeat IPC: 4.901 cumulative IPC: 4.786 (Simulation time: 00 hr 00 min 14 sec)
[BTB] WARNING: target of return is a lower address than the corresponding call. This is usually a problem with your trace.
Heartbeat CPU 0 instructions: 3000016 cycles: 626727 heartbeat IPC: 4.791 cumulative IPC: 4.787 (Simulation time: 00 hr 00 min 17 sec)
[BTB] WARNING: target of return is a lower address than the corresponding call. This is usually a problem with your trace.
[BTB] WARNING: target of return is a lower address than the corresponding call. This is usually a problem with your trace.
[BTB] WARNING: target of return is a lower address than the corresponding call. This is usually a problem with your trace.
Heartbeat CPU 0 instructions: 3500017 cycles: 733606 heartbeat IPC: 4.678 cumulative IPC: 4.771 (Simulation time: 00 hr 00 min 19 sec)
[BTB] WARNING: target of return is a lower address than the corresponding call. This is usually a problem with your trace.
Heartbeat CPU 0 instructions: 4000024 cycles: 836219 heartbeat IPC: 4.873 cumulative IPC: 4.783 (Simulation time: 00 hr 00 min 20 sec)
Heartbeat CPU 0 instructions: 4500027 cycles: 938488 heartbeat IPC: 4.889 cumulative IPC: 4.795 (Simulation time: 00 hr 00 min 22 sec)
Heartbeat CPU 0 instructions: 5000032 cycles: 1040893 heartbeat IPC: 4.883 cumulative IPC: 4.804 (Simulation time: 00 hr 00 min 24 sec)
[BTB] WARNING: target of return is a lower address than the corresponding call. This is usually a problem with your trace.
Heartbeat CPU 0 instructions: 5500032 cycles: 1144794 heartbeat IPC: 4.812 cumulative IPC: 4.804 (Simulation time: 00 hr 00 min 26 sec)
[BTB] WARNING: target of return is a lower address than the corresponding call. This is usually a problem with your trace.
Heartbeat CPU 0 instructions: 6000035 cycles: 1247032 heartbeat IPC: 4.891 cumulative IPC: 4.811 (Simulation time: 00 hr 00 min 27 sec)
Heartbeat CPU 0 instructions: 6500039 cycles: 1348403 heartbeat IPC: 4.932 cumulative IPC: 4.821 (Simulation time: 00 hr 00 min 29 sec)
Heartbeat CPU 0 instructions: 7000045 cycles: 1449953 heartbeat IPC: 4.924 cumulative IPC: 4.828 (Simulation time: 00 hr 00 min 31 sec)
Heartbeat CPU 0 instructions: 7500051 cycles: 1551829 heartbeat IPC: 4.908 cumulative IPC: 4.833 (Simulation time: 00 hr 00 min 32 sec)
Heartbeat CPU 0 instructions: 8000053 cycles: 1653424 heartbeat IPC: 4.922 cumulative IPC: 4.838 (Simulation time: 00 hr 00 min 34 sec)
Heartbeat CPU 0 instructions: 8500059 cycles: 1754743 heartbeat IPC: 4.935 cumulative IPC: 4.844 (Simulation time: 00 hr 00 min 36 sec)
Heartbeat CPU 0 instructions: 9000065 cycles: 1856425 heartbeat IPC: 4.917 cumulative IPC: 4.848 (Simulation time: 00 hr 00 min 38 sec)
Heartbeat CPU 0 instructions: 9500069 cycles: 1958236 heartbeat IPC: 4.911 cumulative IPC: 4.851 (Simulation time: 00 hr 00 min 39 sec)
Heartbeat CPU 0 instructions: 10000071 cycles: 2060666 heartbeat IPC: 4.881 cumulative IPC: 4.853 (Simulation time: 00 hr 00 min 41 sec)
Heartbeat CPU 0 instructions: 10500073 cycles: 2190413 heartbeat IPC: 3.854 cumulative IPC: 4.794 (Simulation time: 00 hr 00 min 43 sec)
Heartbeat CPU 0 instructions: 11000079 cycles: 2298565 heartbeat IPC: 4.623 cumulative IPC: 4.786 (Simulation time: 00 hr 00 min 45 sec)
Heartbeat CPU 0 instructions: 11500079 cycles: 2403207 heartbeat IPC: 4.778 cumulative IPC: 4.785 (Simulation time: 00 hr 00 min 47 sec)
Heartbeat CPU 0 instructions: 12000082 cycles: 2507191 heartbeat IPC: 4.808 cumulative IPC: 4.786 (Simulation time: 00 hr 00 min 48 sec)
Heartbeat CPU 0 instructions: 12500089 cycles: 2611673 heartbeat IPC: 4.786 cumulative IPC: 4.786 (Simulation time: 00 hr 00 min 50 sec)
Heartbeat CPU 0 instructions: 13000089 cycles: 2716225 heartbeat IPC: 4.782 cumulative IPC: 4.786 (Simulation time: 00 hr 00 min 52 sec)
Heartbeat CPU 0 instructions: 13500090 cycles: 2820127 heartbeat IPC: 4.812 cumulative IPC: 4.787 (Simulation time: 00 hr 00 min 54 sec)
Heartbeat CPU 0 instructions: 14000096 cycles: 2927103 heartbeat IPC: 4.674 cumulative IPC: 4.783 (Simulation time: 00 hr 00 min 55 sec)
Heartbeat CPU 0 instructions: 14500101 cycles: 3029821 heartbeat IPC: 4.868 cumulative IPC: 4.786 (Simulation time: 00 hr 00 min 57 sec)
Heartbeat CPU 0 instructions: 15000101 cycles: 3203912 heartbeat IPC: 2.872 cumulative IPC: 4.682 (Simulation time: 00 hr 01 min 00 sec)
Heartbeat CPU 0 instructions: 15500102 cycles: 3308476 heartbeat IPC: 4.782 cumulative IPC: 4.685 (Simulation time: 00 hr 01 min 02 sec)
Heartbeat CPU 0 instructions: 16000106 cycles: 3412134 heartbeat IPC: 4.824 cumulative IPC: 4.689 (Simulation time: 00 hr 01 min 04 sec)
Heartbeat CPU 0 instructions: 16500106 cycles: 3516891 heartbeat IPC: 4.773 cumulative IPC: 4.692 (Simulation time: 00 hr 01 min 05 sec)
Heartbeat CPU 0 instructions: 17000109 cycles: 3620519 heartbeat IPC: 4.825 cumulative IPC: 4.695 (Simulation time: 00 hr 01 min 07 sec)
Heartbeat CPU 0 instructions: 17500109 cycles: 3725433 heartbeat IPC: 4.766 cumulative IPC: 4.697 (Simulation time: 00 hr 01 min 09 sec)
Heartbeat CPU 0 instructions: 18000112 cycles: 3829455 heartbeat IPC: 4.807 cumulative IPC: 4.7 (Simulation time: 00 hr 01 min 11 sec)
Heartbeat CPU 0 instructions: 18500115 cycles: 3933184 heartbeat IPC: 4.82 cumulative IPC: 4.704 (Simulation time: 00 hr 01 min 12 sec)
Heartbeat CPU 0 instructions: 19000120 cycles: 4036275 heartbeat IPC: 4.85 cumulative IPC: 4.707 (Simulation time: 00 hr 01 min 14 sec)
Heartbeat CPU 0 instructions: 19500124 cycles: 4138660 heartbeat IPC: 4.884 cumulative IPC: 4.712 (Simulation time: 00 hr 01 min 16 sec)
Heartbeat CPU 0 instructions: 20000130 cycles: 4243698 heartbeat IPC: 4.76 cumulative IPC: 4.713 (Simulation time: 00 hr 01 min 18 sec)
Heartbeat CPU 0 instructions: 20500137 cycles: 4438191 heartbeat IPC: 2.571 cumulative IPC: 4.619 (Simulation time: 00 hr 01 min 21 sec)
Heartbeat CPU 0 instructions: 21000143 cycles: 4540461 heartbeat IPC: 4.889 cumulative IPC: 4.625 (Simulation time: 00 hr 01 min 23 sec)
Heartbeat CPU 0 instructions: 21500150 cycles: 4641364 heartbeat IPC: 4.955 cumulative IPC: 4.632 (Simulation time: 00 hr 01 min 25 sec)
Heartbeat CPU 0 instructions: 22000153 cycles: 4746321 heartbeat IPC: 4.764 cumulative IPC: 4.635 (Simulation time: 00 hr 01 min 27 sec)
Heartbeat CPU 0 instructions: 22500153 cycles: 4848673 heartbeat IPC: 4.885 cumulative IPC: 4.64 (Simulation time: 00 hr 01 min 28 sec)
Heartbeat CPU 0 instructions: 23000158 cycles: 4950480 heartbeat IPC: 4.911 cumulative IPC: 4.646 (Simulation time: 00 hr 01 min 30 sec)
Heartbeat CPU 0 instructions: 23500159 cycles: 5052668 heartbeat IPC: 4.893 cumulative IPC: 4.651 (Simulation time: 00 hr 01 min 32 sec)
Heartbeat CPU 0 instructions: 24000159 cycles: 5153783 heartbeat IPC: 4.945 cumulative IPC: 4.657 (Simulation time: 00 hr 01 min 34 sec)
Heartbeat CPU 0 instructions: 24500159 cycles: 5256052 heartbeat IPC: 4.889 cumulative IPC: 4.661 (Simulation time: 00 hr 01 min 35 sec)
Heartbeat CPU 0 instructions: 25000161 cycles: 5358161 heartbeat IPC: 4.897 cumulative IPC: 4.666 (Simulation time: 00 hr 01 min 37 sec)
Heartbeat CPU 0 instructions: 25500166 cycles: 5460051 heartbeat IPC: 4.907 cumulative IPC: 4.67 (Simulation time: 00 hr 01 min 39 sec)
Heartbeat CPU 0 instructions: 26000167 cycles: 5562273 heartbeat IPC: 4.891 cumulative IPC: 4.674 (Simulation time: 00 hr 01 min 41 sec)
Heartbeat CPU 0 instructions: 26500168 cycles: 5663527 heartbeat IPC: 4.938 cumulative IPC: 4.679 (Simulation time: 00 hr 01 min 42 sec)
Heartbeat CPU 0 instructions: 27000170 cycles: 5765552 heartbeat IPC: 4.901 cumulative IPC: 4.683 (Simulation time: 00 hr 01 min 44 sec)
Heartbeat CPU 0 instructions: 27500175 cycles: 5867617 heartbeat IPC: 4.899 cumulative IPC: 4.687 (Simulation time: 00 hr 01 min 46 sec)
Heartbeat CPU 0 instructions: 28000177 cycles: 5969068 heartbeat IPC: 4.929 cumulative IPC: 4.691 (Simulation time: 00 hr 01 min 48 sec)
Heartbeat CPU 0 instructions: 28500180 cycles: 6071078 heartbeat IPC: 4.902 cumulative IPC: 4.694 (Simulation time: 00 hr 01 min 50 sec)
Heartbeat CPU 0 instructions: 29000184 cycles: 6172695 heartbeat IPC: 4.92 cumulative IPC: 4.698 (Simulation time: 00 hr 01 min 51 sec)
Heartbeat CPU 0 instructions: 29500184 cycles: 6274419 heartbeat IPC: 4.915 cumulative IPC: 4.702 (Simulation time: 00 hr 01 min 53 sec)
Heartbeat CPU 0 instructions: 30000187 cycles: 6375648 heartbeat IPC: 4.939 cumulative IPC: 4.705 (Simulation time: 00 hr 01 min 55 sec)
Heartbeat CPU 0 instructions: 30500187 cycles: 6477963 heartbeat IPC: 4.887 cumulative IPC: 4.708 (Simulation time: 00 hr 01 min 57 sec)
Heartbeat CPU 0 instructions: 31000189 cycles: 6579133 heartbeat IPC: 4.942 cumulative IPC: 4.712 (Simulation time: 00 hr 01 min 58 sec)
Heartbeat CPU 0 instructions: 31500189 cycles: 6681059 heartbeat IPC: 4.906 cumulative IPC: 4.715 (Simulation time: 00 hr 02 min 00 sec)
Heartbeat CPU 0 instructions: 32000190 cycles: 6817571 heartbeat IPC: 3.663 cumulative IPC: 4.694 (Simulation time: 00 hr 02 min 03 sec)
Heartbeat CPU 0 instructions: 32500193 cycles: 6919295 heartbeat IPC: 4.915 cumulative IPC: 4.697 (Simulation time: 00 hr 02 min 04 sec)
Heartbeat CPU 0 instructions: 33000200 cycles: 7021320 heartbeat IPC: 4.901 cumulative IPC: 4.7 (Simulation time: 00 hr 02 min 06 sec)
Heartbeat CPU 0 instructions: 33500200 cycles: 7123272 heartbeat IPC: 4.904 cumulative IPC: 4.703 (Simulation time: 00 hr 02 min 08 sec)
Heartbeat CPU 0 instructions: 34000202 cycles: 7224630 heartbeat IPC: 4.933 cumulative IPC: 4.706 (Simulation time: 00 hr 02 min 10 sec)
Heartbeat CPU 0 instructions: 34500207 cycles: 7326301 heartbeat IPC: 4.918 cumulative IPC: 4.709 (Simulation time: 00 hr 02 min 11 sec)
Heartbeat CPU 0 instructions: 35000211 cycles: 7428486 heartbeat IPC: 4.893 cumulative IPC: 4.712 (Simulation time: 00 hr 02 min 13 sec)
Heartbeat CPU 0 instructions: 35500216 cycles: 7530339 heartbeat IPC: 4.909 cumulative IPC: 4.714 (Simulation time: 00 hr 02 min 15 sec)
Heartbeat CPU 0 instructions: 36000216 cycles: 7632511 heartbeat IPC: 4.894 cumulative IPC: 4.717 (Simulation time: 00 hr 02 min 17 sec)
Heartbeat CPU 0 instructions: 36500216 cycles: 7734541 heartbeat IPC: 4.901 cumulative IPC: 4.719 (Simulation time: 00 hr 02 min 18 sec)
Heartbeat CPU 0 instructions: 37000222 cycles: 7835924 heartbeat IPC: 4.932 cumulative IPC: 4.722 (Simulation time: 00 hr 02 min 20 sec)
Heartbeat CPU 0 instructions: 37500229 cycles: 7937764 heartbeat IPC: 4.91 cumulative IPC: 4.724 (Simulation time: 00 hr 02 min 22 sec)
Heartbeat CPU 0 instructions: 38000231 cycles: 8039649 heartbeat IPC: 4.908 cumulative IPC: 4.727 (Simulation time: 00 hr 02 min 24 sec)
Heartbeat CPU 0 instructions: 38500238 cycles: 8141296 heartbeat IPC: 4.919 cumulative IPC: 4.729 (Simulation time: 00 hr 02 min 25 sec)
Heartbeat CPU 0 instructions: 39000240 cycles: 8243326 heartbeat IPC: 4.901 cumulative IPC: 4.731 (Simulation time: 00 hr 02 min 27 sec)
Heartbeat CPU 0 instructions: 39500240 cycles: 8344788 heartbeat IPC: 4.928 cumulative IPC: 4.734 (Simulation time: 00 hr 02 min 29 sec)
Heartbeat CPU 0 instructions: 40000247 cycles: 8445889 heartbeat IPC: 4.946 cumulative IPC: 4.736 (Simulation time: 00 hr 02 min 31 sec)
Heartbeat CPU 0 instructions: 40500249 cycles: 8548099 heartbeat IPC: 4.892 cumulative IPC: 4.738 (Simulation time: 00 hr 02 min 33 sec)
Heartbeat CPU 0 instructions: 41000249 cycles: 8650428 heartbeat IPC: 4.886 cumulative IPC: 4.74 (Simulation time: 00 hr 02 min 34 sec)
Heartbeat CPU 0 instructions: 41500255 cycles: 8752781 heartbeat IPC: 4.885 cumulative IPC: 4.741 (Simulation time: 00 hr 02 min 36 sec)
Heartbeat CPU 0 instructions: 42000256 cycles: 8865249 heartbeat IPC: 4.446 cumulative IPC: 4.738 (Simulation time: 00 hr 02 min 38 sec)
Heartbeat CPU 0 instructions: 42500261 cycles: 8967034 heartbeat IPC: 4.912 cumulative IPC: 4.74 (Simulation time: 00 hr 02 min 40 sec)
Heartbeat CPU 0 instructions: 43000264 cycles: 9068307 heartbeat IPC: 4.937 cumulative IPC: 4.742 (Simulation time: 00 hr 02 min 42 sec)
Heartbeat CPU 0 instructions: 43500271 cycles: 9170065 heartbeat IPC: 4.914 cumulative IPC: 4.744 (Simulation time: 00 hr 02 min 43 sec)
Heartbeat CPU 0 instructions: 44000275 cycles: 9271959 heartbeat IPC: 4.907 cumulative IPC: 4.746 (Simulation time: 00 hr 02 min 45 sec)
Heartbeat CPU 0 instructions: 44500276 cycles: 9374430 heartbeat IPC: 4.879 cumulative IPC: 4.747 (Simulation time: 00 hr 02 min 47 sec)
Heartbeat CPU 0 instructions: 45000279 cycles: 9476126 heartbeat IPC: 4.917 cumulative IPC: 4.749 (Simulation time: 00 hr 02 min 49 sec)
Heartbeat CPU 0 instructions: 45500286 cycles: 9577557 heartbeat IPC: 4.93 cumulative IPC: 4.751 (Simulation time: 00 hr 02 min 50 sec)
Heartbeat CPU 0 instructions: 46000287 cycles: 9678590 heartbeat IPC: 4.949 cumulative IPC: 4.753 (Simulation time: 00 hr 02 min 52 sec)
Heartbeat CPU 0 instructions: 46500293 cycles: 9781071 heartbeat IPC: 4.879 cumulative IPC: 4.754 (Simulation time: 00 hr 02 min 54 sec)
Heartbeat CPU 0 instructions: 47000299 cycles: 9882684 heartbeat IPC: 4.921 cumulative IPC: 4.756 (Simulation time: 00 hr 02 min 56 sec)
Heartbeat CPU 0 instructions: 47500303 cycles: 9984407 heartbeat IPC: 4.915 cumulative IPC: 4.757 (Simulation time: 00 hr 02 min 57 sec)
Heartbeat CPU 0 instructions: 48000307 cycles: 10086727 heartbeat IPC: 4.887 cumulative IPC: 4.759 (Simulation time: 00 hr 02 min 59 sec)
Heartbeat CPU 0 instructions: 48500310 cycles: 10188549 heartbeat IPC: 4.911 cumulative IPC: 4.76 (Simulation time: 00 hr 03 min 01 sec)
Heartbeat CPU 0 instructions: 49000310 cycles: 10289855 heartbeat IPC: 4.936 cumulative IPC: 4.762 (Simulation time: 00 hr 03 min 03 sec)
Heartbeat CPU 0 instructions: 49500310 cycles: 10391561 heartbeat IPC: 4.916 cumulative IPC: 4.764 (Simulation time: 00 hr 03 min 04 sec)
Warmup halting CPU 0 at instruction 50000004 cycle 10493179 for remainder of phase
Warmup finished CPU 0 instructions: 50000004 cycles: 10493179 cumulative IPC: 4.765 (Simulation time: 00 hr 03 min 06 sec)
Warmup complete CPU 0 instructions: 50000004 cycles: 10493179 cumulative IPC: 4.765 (Simulation time: 00 hr 03 min 06 sec)
Heartbeat CPU 0 instructions: 50000315 cycles: 10493245 heartbeat IPC: 4.917 cumulative IPC: 4.712 (Simulation time: 00 hr 03 min 06 sec)
Heartbeat CPU 0 instructions: 50500316 cycles: 10792839 heartbeat IPC: 1.669 cumulative IPC: 1.67 (Simulation time: 00 hr 03 min 10 sec)
Heartbeat CPU 0 instructions: 51000319 cycles: 11052142 heartbeat IPC: 1.928 cumulative IPC: 1.79 (Simulation time: 00 hr 03 min 13 sec)
Heartbeat CPU 0 instructions: 51500319 cycles: 11314425 heartbeat IPC: 1.906 cumulative IPC: 1.827 (Simulation time: 00 hr 03 min 17 sec)
Heartbeat CPU 0 instructions: 52000319 cycles: 12045832 heartbeat IPC: 0.6836 cumulative IPC: 1.288 (Simulation time: 00 hr 03 min 23 sec)
Heartbeat CPU 0 instructions: 52500326 cycles: 12395058 heartbeat IPC: 1.432 cumulative IPC: 1.315 (Simulation time: 00 hr 03 min 28 sec)
Heartbeat CPU 0 instructions: 53000327 cycles: 12652553 heartbeat IPC: 1.942 cumulative IPC: 1.389 (Simulation time: 00 hr 03 min 31 sec)
Heartbeat CPU 0 instructions: 53500328 cycles: 12928739 heartbeat IPC: 1.81 cumulative IPC: 1.437 (Simulation time: 00 hr 03 min 35 sec)
Heartbeat CPU 0 instructions: 54000329 cycles: 13193373 heartbeat IPC: 1.889 cumulative IPC: 1.481 (Simulation time: 00 hr 03 min 39 sec)
Heartbeat CPU 0 instructions: 54500334 cycles: 13462204 heartbeat IPC: 1.86 cumulative IPC: 1.516 (Simulation time: 00 hr 03 min 42 sec)
Heartbeat CPU 0 instructions: 55000340 cycles: 13709995 heartbeat IPC: 2.018 cumulative IPC: 1.554 (Simulation time: 00 hr 03 min 46 sec)
Heartbeat CPU 0 instructions: 55500344 cycles: 13984394 heartbeat IPC: 1.822 cumulative IPC: 1.575 (Simulation time: 00 hr 03 min 49 sec)
Heartbeat CPU 0 instructions: 56000347 cycles: 14275789 heartbeat IPC: 1.716 cumulative IPC: 1.586 (Simulation time: 00 hr 03 min 53 sec)
Heartbeat CPU 0 instructions: 56500350 cycles: 14580810 heartbeat IPC: 1.639 cumulative IPC: 1.59 (Simulation time: 00 hr 03 min 56 sec)
Heartbeat CPU 0 instructions: 57000356 cycles: 14844456 heartbeat IPC: 1.897 cumulative IPC: 1.609 (Simulation time: 00 hr 04 min 00 sec)
Heartbeat CPU 0 instructions: 57500356 cycles: 15108137 heartbeat IPC: 1.896 cumulative IPC: 1.625 (Simulation time: 00 hr 04 min 04 sec)
Heartbeat CPU 0 instructions: 58000359 cycles: 15358787 heartbeat IPC: 1.995 cumulative IPC: 1.644 (Simulation time: 00 hr 04 min 07 sec)
Heartbeat CPU 0 instructions: 58500359 cycles: 15604313 heartbeat IPC: 2.036 cumulative IPC: 1.663 (Simulation time: 00 hr 04 min 11 sec)
Heartbeat CPU 0 instructions: 59000359 cycles: 15912755 heartbeat IPC: 1.621 cumulative IPC: 1.661 (Simulation time: 00 hr 04 min 14 sec)
Heartbeat CPU 0 instructions: 59500359 cycles: 16177778 heartbeat IPC: 1.887 cumulative IPC: 1.671 (Simulation time: 00 hr 04 min 18 sec)
Heartbeat CPU 0 instructions: 60000361 cycles: 16414258 heartbeat IPC: 2.114 cumulative IPC: 1.689 (Simulation time: 00 hr 04 min 21 sec)
Heartbeat CPU 0 instructions: 60500361 cycles: 16645487 heartbeat IPC: 2.162 cumulative IPC: 1.707 (Simulation time: 00 hr 04 min 25 sec)
Heartbeat CPU 0 instructions: 61000364 cycles: 17027446 heartbeat IPC: 1.309 cumulative IPC: 1.683 (Simulation time: 00 hr 04 min 29 sec)
Heartbeat CPU 0 instructions: 61500369 cycles: 17386720 heartbeat IPC: 1.392 cumulative IPC: 1.668 (Simulation time: 00 hr 04 min 33 sec)
Heartbeat CPU 0 instructions: 62000370 cycles: 17662183 heartbeat IPC: 1.815 cumulative IPC: 1.674 (Simulation time: 00 hr 04 min 36 sec)
Heartbeat CPU 0 instructions: 62500373 cycles: 17938874 heartbeat IPC: 1.807 cumulative IPC: 1.679 (Simulation time: 00 hr 04 min 40 sec)
Heartbeat CPU 0 instructions: 63000373 cycles: 18220890 heartbeat IPC: 1.773 cumulative IPC: 1.682 (Simulation time: 00 hr 04 min 43 sec)
Heartbeat CPU 0 instructions: 63500377 cycles: 18550078 heartbeat IPC: 1.519 cumulative IPC: 1.676 (Simulation time: 00 hr 04 min 47 sec)
Heartbeat CPU 0 instructions: 64000382 cycles: 18887564 heartbeat IPC: 1.482 cumulative IPC: 1.668 (Simulation time: 00 hr 04 min 51 sec)
Heartbeat CPU 0 instructions: 64500383 cycles: 19170968 heartbeat IPC: 1.764 cumulative IPC: 1.671 (Simulation time: 00 hr 04 min 54 sec)
Heartbeat CPU 0 instructions: 65000383 cycles: 19449036 heartbeat IPC: 1.798 cumulative IPC: 1.675 (Simulation time: 00 hr 04 min 58 sec)
Heartbeat CPU 0 instructions: 65500386 cycles: 19724905 heartbeat IPC: 1.812 cumulative IPC: 1.679 (Simulation time: 00 hr 05 min 01 sec)
Heartbeat CPU 0 instructions: 66000392 cycles: 19989235 heartbeat IPC: 1.892 cumulative IPC: 1.685 (Simulation time: 00 hr 05 min 05 sec)
Heartbeat CPU 0 instructions: 66500392 cycles: 20263431 heartbeat IPC: 1.824 cumulative IPC: 1.689 (Simulation time: 00 hr 05 min 08 sec)
Heartbeat CPU 0 instructions: 67000393 cycles: 20534689 heartbeat IPC: 1.843 cumulative IPC: 1.693 (Simulation time: 00 hr 05 min 12 sec)
Heartbeat CPU 0 instructions: 67500396 cycles: 20804979 heartbeat IPC: 1.85 cumulative IPC: 1.697 (Simulation time: 00 hr 05 min 15 sec)
Heartbeat CPU 0 instructions: 68000399 cycles: 21075413 heartbeat IPC: 1.849 cumulative IPC: 1.701 (Simulation time: 00 hr 05 min 19 sec)
Heartbeat CPU 0 instructions: 68500399 cycles: 21338500 heartbeat IPC: 1.901 cumulative IPC: 1.706 (Simulation time: 00 hr 05 min 22 sec)
Heartbeat CPU 0 instructions: 69000399 cycles: 21607079 heartbeat IPC: 1.862 cumulative IPC: 1.71 (Simulation time: 00 hr 05 min 26 sec)
Heartbeat CPU 0 instructions: 69500406 cycles: 21877755 heartbeat IPC: 1.847 cumulative IPC: 1.713 (Simulation time: 00 hr 05 min 29 sec)
Heartbeat CPU 0 instructions: 70000406 cycles: 22137812 heartbeat IPC: 1.923 cumulative IPC: 1.718 (Simulation time: 00 hr 05 min 32 sec)
Heartbeat CPU 0 instructions: 70500411 cycles: 22452535 heartbeat IPC: 1.589 cumulative IPC: 1.714 (Simulation time: 00 hr 05 min 36 sec)
Heartbeat CPU 0 instructions: 71000411 cycles: 23699473 heartbeat IPC: 0.401 cumulative IPC: 1.59 (Simulation time: 00 hr 05 min 46 sec)
Heartbeat CPU 0 instructions: 71500415 cycles: 24023261 heartbeat IPC: 1.544 cumulative IPC: 1.589 (Simulation time: 00 hr 05 min 49 sec)
Heartbeat CPU 0 instructions: 72000417 cycles: 24372509 heartbeat IPC: 1.432 cumulative IPC: 1.585 (Simulation time: 00 hr 05 min 53 sec)
Heartbeat CPU 0 instructions: 72500419 cycles: 24666860 heartbeat IPC: 1.699 cumulative IPC: 1.587 (Simulation time: 00 hr 05 min 57 sec)
Heartbeat CPU 0 instructions: 73000424 cycles: 25240329 heartbeat IPC: 0.8719 cumulative IPC: 1.56 (Simulation time: 00 hr 06 min 03 sec)
Heartbeat CPU 0 instructions: 73500425 cycles: 25478895 heartbeat IPC: 2.096 cumulative IPC: 1.568 (Simulation time: 00 hr 06 min 06 sec)
Heartbeat CPU 0 instructions: 74000426 cycles: 25743358 heartbeat IPC: 1.891 cumulative IPC: 1.574 (Simulation time: 00 hr 06 min 09 sec)
Heartbeat CPU 0 instructions: 74500428 cycles: 26074872 heartbeat IPC: 1.508 cumulative IPC: 1.572 (Simulation time: 00 hr 06 min 13 sec)
Heartbeat CPU 0 instructions: 75000428 cycles: 26380811 heartbeat IPC: 1.634 cumulative IPC: 1.574 (Simulation time: 00 hr 06 min 17 sec)
Heartbeat CPU 0 instructions: 75500429 cycles: 26637738 heartbeat IPC: 1.946 cumulative IPC: 1.58 (Simulation time: 00 hr 06 min 20 sec)
Heartbeat CPU 0 instructions: 76000431 cycles: 26907753 heartbeat IPC: 1.852 cumulative IPC: 1.584 (Simulation time: 00 hr 06 min 24 sec)
Heartbeat CPU 0 instructions: 76500437 cycles: 27131657 heartbeat IPC: 2.233 cumulative IPC: 1.593 (Simulation time: 00 hr 06 min 27 sec)
Heartbeat CPU 0 instructions: 77000440 cycles: 27369770 heartbeat IPC: 2.1 cumulative IPC: 1.6 (Simulation time: 00 hr 06 min 31 sec)
Heartbeat CPU 0 instructions: 77500445 cycles: 27669124 heartbeat IPC: 1.67 cumulative IPC: 1.601 (Simulation time: 00 hr 06 min 34 sec)
Heartbeat CPU 0 instructions: 78000448 cycles: 27918535 heartbeat IPC: 2.005 cumulative IPC: 1.607 (Simulation time: 00 hr 06 min 38 sec)
Heartbeat CPU 0 instructions: 78500452 cycles: 28176892 heartbeat IPC: 1.935 cumulative IPC: 1.612 (Simulation time: 00 hr 06 min 42 sec)
Heartbeat CPU 0 instructions: 79000452 cycles: 29061906 heartbeat IPC: 0.565 cumulative IPC: 1.562 (Simulation time: 00 hr 06 min 55 sec)
Heartbeat CPU 0 instructions: 79500452 cycles: 29218158 heartbeat IPC: 3.2 cumulative IPC: 1.575 (Simulation time: 00 hr 06 min 57 sec)
Heartbeat CPU 0 instructions: 80000454 cycles: 29374412 heartbeat IPC: 3.2 cumulative IPC: 1.589 (Simulation time: 00 hr 07 min 00 sec)
Heartbeat CPU 0 instructions: 80500454 cycles: 29530656 heartbeat IPC: 3.2 cumulative IPC: 1.602 (Simulation time: 00 hr 07 min 02 sec)
Heartbeat CPU 0 instructions: 81000459 cycles: 30061628 heartbeat IPC: 0.9417 cumulative IPC: 1.584 (Simulation time: 00 hr 07 min 07 sec)
Heartbeat CPU 0 instructions: 81500466 cycles: 30336682 heartbeat IPC: 1.818 cumulative IPC: 1.587 (Simulation time: 00 hr 07 min 11 sec)
Heartbeat CPU 0 instructions: 82000466 cycles: 30595693 heartbeat IPC: 1.93 cumulative IPC: 1.592 (Simulation time: 00 hr 07 min 14 sec)
Heartbeat CPU 0 instructions: 82500468 cycles: 30896264 heartbeat IPC: 1.664 cumulative IPC: 1.593 (Simulation time: 00 hr 07 min 18 sec)
Heartbeat CPU 0 instructions: 83000468 cycles: 31185075 heartbeat IPC: 1.731 cumulative IPC: 1.595 (Simulation time: 00 hr 07 min 21 sec)
Heartbeat CPU 0 instructions: 83500470 cycles: 31462835 heartbeat IPC: 1.8 cumulative IPC: 1.598 (Simulation time: 00 hr 07 min 25 sec)
Heartbeat CPU 0 instructions: 84000473 cycles: 31736113 heartbeat IPC: 1.83 cumulative IPC: 1.601 (Simulation time: 00 hr 07 min 28 sec)
Heartbeat CPU 0 instructions: 84500473 cycles: 32011566 heartbeat IPC: 1.815 cumulative IPC: 1.603 (Simulation time: 00 hr 07 min 32 sec)
Heartbeat CPU 0 instructions: 85000477 cycles: 32271929 heartbeat IPC: 1.92 cumulative IPC: 1.607 (Simulation time: 00 hr 07 min 35 sec)
Heartbeat CPU 0 instructions: 85500477 cycles: 32562325 heartbeat IPC: 1.722 cumulative IPC: 1.609 (Simulation time: 00 hr 07 min 39 sec)
Heartbeat CPU 0 instructions: 86000478 cycles: 32844123 heartbeat IPC: 1.774 cumulative IPC: 1.611 (Simulation time: 00 hr 07 min 42 sec)
Heartbeat CPU 0 instructions: 86500478 cycles: 33117882 heartbeat IPC: 1.826 cumulative IPC: 1.613 (Simulation time: 00 hr 07 min 46 sec)
Heartbeat CPU 0 instructions: 87000478 cycles: 33392471 heartbeat IPC: 1.821 cumulative IPC: 1.616 (Simulation time: 00 hr 07 min 49 sec)
Heartbeat CPU 0 instructions: 87500482 cycles: 33662564 heartbeat IPC: 1.851 cumulative IPC: 1.619 (Simulation time: 00 hr 07 min 53 sec)
Heartbeat CPU 0 instructions: 88000482 cycles: 33924102 heartbeat IPC: 1.912 cumulative IPC: 1.622 (Simulation time: 00 hr 07 min 56 sec)
Heartbeat CPU 0 instructions: 88500483 cycles: 34193274 heartbeat IPC: 1.858 cumulative IPC: 1.624 (Simulation time: 00 hr 08 min 00 sec)
Heartbeat CPU 0 instructions: 89000483 cycles: 34488599 heartbeat IPC: 1.693 cumulative IPC: 1.625 (Simulation time: 00 hr 08 min 03 sec)
Heartbeat CPU 0 instructions: 89500484 cycles: 34765028 heartbeat IPC: 1.809 cumulative IPC: 1.627 (Simulation time: 00 hr 08 min 07 sec)
Heartbeat CPU 0 instructions: 90000487 cycles: 35045575 heartbeat IPC: 1.782 cumulative IPC: 1.629 (Simulation time: 00 hr 08 min 10 sec)
Heartbeat CPU 0 instructions: 90500488 cycles: 35317041 heartbeat IPC: 1.842 cumulative IPC: 1.632 (Simulation time: 00 hr 08 min 14 sec)
Heartbeat CPU 0 instructions: 91000491 cycles: 35886172 heartbeat IPC: 0.8785 cumulative IPC: 1.615 (Simulation time: 00 hr 08 min 19 sec)
Heartbeat CPU 0 instructions: 91500491 cycles: 37241372 heartbeat IPC: 0.3689 cumulative IPC: 1.552 (Simulation time: 00 hr 08 min 31 sec)
Heartbeat CPU 0 instructions: 92000493 cycles: 37399472 heartbeat IPC: 3.163 cumulative IPC: 1.561 (Simulation time: 00 hr 08 min 33 sec)
Heartbeat CPU 0 instructions: 92500499 cycles: 37556329 heartbeat IPC: 3.188 cumulative IPC: 1.57 (Simulation time: 00 hr 08 min 36 sec)
Heartbeat CPU 0 instructions: 93000499 cycles: 37713409 heartbeat IPC: 3.183 cumulative IPC: 1.58 (Simulation time: 00 hr 08 min 38 sec)
Heartbeat CPU 0 instructions: 93500500 cycles: 37870318 heartbeat IPC: 3.187 cumulative IPC: 1.589 (Simulation time: 00 hr 08 min 41 sec)
Heartbeat CPU 0 instructions: 94000501 cycles: 38105279 heartbeat IPC: 2.128 cumulative IPC: 1.594 (Simulation time: 00 hr 08 min 44 sec)
Heartbeat CPU 0 instructions: 94500503 cycles: 38276104 heartbeat IPC: 2.927 cumulative IPC: 1.602 (Simulation time: 00 hr 08 min 46 sec)
Heartbeat CPU 0 instructions: 95000509 cycles: 38464432 heartbeat IPC: 2.655 cumulative IPC: 1.609 (Simulation time: 00 hr 08 min 49 sec)
Heartbeat CPU 0 instructions: 95500509 cycles: 38645548 heartbeat IPC: 2.761 cumulative IPC: 1.616 (Simulation time: 00 hr 08 min 52 sec)
Heartbeat CPU 0 instructions: 96000516 cycles: 38816333 heartbeat IPC: 2.928 cumulative IPC: 1.624 (Simulation time: 00 hr 08 min 54 sec)
Heartbeat CPU 0 instructions: 96500517 cycles: 38999679 heartbeat IPC: 2.727 cumulative IPC: 1.631 (Simulation time: 00 hr 08 min 57 sec)
Heartbeat CPU 0 instructions: 97000522 cycles: 39181169 heartbeat IPC: 2.755 cumulative IPC: 1.638 (Simulation time: 00 hr 08 min 59 sec)
Heartbeat CPU 0 instructions: 97500527 cycles: 39357645 heartbeat IPC: 2.833 cumulative IPC: 1.646 (Simulation time: 00 hr 09 min 02 sec)
Heartbeat CPU 0 instructions: 98000530 cycles: 39549652 heartbeat IPC: 2.604 cumulative IPC: 1.652 (Simulation time: 00 hr 09 min 04 sec)
Heartbeat CPU 0 instructions: 98500536 cycles: 39725561 heartbeat IPC: 2.842 cumulative IPC: 1.659 (Simulation time: 00 hr 09 min 07 sec)
Heartbeat CPU 0 instructions: 99000537 cycles: 39904446 heartbeat IPC: 2.795 cumulative IPC: 1.666 (Simulation time: 00 hr 09 min 09 sec)
Heartbeat CPU 0 instructions: 99500540 cycles: 40081298 heartbeat IPC: 2.827 cumulative IPC: 1.673 (Simulation time: 00 hr 09 min 12 sec)
Heartbeat CPU 0 instructions: 100000540 cycles: 40257337 heartbeat IPC: 2.84 cumulative IPC: 1.68 (Simulation time: 00 hr 09 min 15 sec)
Heartbeat CPU 0 instructions: 100500542 cycles: 40437218 heartbeat IPC: 2.78 cumulative IPC: 1.686 (Simulation time: 00 hr 09 min 17 sec)
Heartbeat CPU 0 instructions: 101000548 cycles: 40617916 heartbeat IPC: 2.767 cumulative IPC: 1.693 (Simulation time: 00 hr 09 min 20 sec)
Heartbeat CPU 0 instructions: 101500550 cycles: 41792049 heartbeat IPC: 0.4258 cumulative IPC: 1.645 (Simulation time: 00 hr 09 min 29 sec)
Heartbeat CPU 0 instructions: 102000552 cycles: 42676982 heartbeat IPC: 0.565 cumulative IPC: 1.616 (Simulation time: 00 hr 09 min 37 sec)
Heartbeat CPU 0 instructions: 102500557 cycles: 42955544 heartbeat IPC: 1.795 cumulative IPC: 1.617 (Simulation time: 00 hr 09 min 40 sec)
Heartbeat CPU 0 instructions: 103000564 cycles: 43223920 heartbeat IPC: 1.863 cumulative IPC: 1.619 (Simulation time: 00 hr 09 min 44 sec)
Heartbeat CPU 0 instructions: 103500566 cycles: 43520982 heartbeat IPC: 1.683 cumulative IPC: 1.62 (Simulation time: 00 hr 09 min 47 sec)
Heartbeat CPU 0 instructions: 104000571 cycles: 43813875 heartbeat IPC: 1.707 cumulative IPC: 1.621 (Simulation time: 00 hr 09 min 51 sec)
Heartbeat CPU 0 instructions: 104500575 cycles: 44085387 heartbeat IPC: 1.842 cumulative IPC: 1.622 (Simulation time: 00 hr 09 min 54 sec)
Heartbeat CPU 0 instructions: 105000576 cycles: 44349923 heartbeat IPC: 1.89 cumulative IPC: 1.625 (Simulation time: 00 hr 09 min 58 sec)
Heartbeat CPU 0 instructions: 105500577 cycles: 45041054 heartbeat IPC: 0.7235 cumulative IPC: 1.606 (Simulation time: 00 hr 10 min 05 sec)
Heartbeat CPU 0 instructions: 106000577 cycles: 45267531 heartbeat IPC: 2.208 cumulative IPC: 1.61 (Simulation time: 00 hr 10 min 08 sec)
Heartbeat CPU 0 instructions: 106500577 cycles: 45490274 heartbeat IPC: 2.245 cumulative IPC: 1.614 (Simulation time: 00 hr 10 min 12 sec)
Heartbeat CPU 0 instructions: 107000577 cycles: 45907430 heartbeat IPC: 1.199 cumulative IPC: 1.61 (Simulation time: 00 hr 10 min 18 sec)
Heartbeat CPU 0 instructions: 107500578 cycles: 46167793 heartbeat IPC: 1.92 cumulative IPC: 1.612 (Simulation time: 00 hr 10 min 21 sec)
Heartbeat CPU 0 instructions: 108000578 cycles: 46466544 heartbeat IPC: 1.674 cumulative IPC: 1.612 (Simulation time: 00 hr 10 min 24 sec)
Heartbeat CPU 0 instructions: 108500582 cycles: 46770796 heartbeat IPC: 1.643 cumulative IPC: 1.613 (Simulation time: 00 hr 10 min 28 sec)
Heartbeat CPU 0 instructions: 109000582 cycles: 47065941 heartbeat IPC: 1.694 cumulative IPC: 1.613 (Simulation time: 00 hr 10 min 31 sec)
Heartbeat CPU 0 instructions: 109500588 cycles: 47358805 heartbeat IPC: 1.707 cumulative IPC: 1.614 (Simulation time: 00 hr 10 min 34 sec)
Heartbeat CPU 0 instructions: 110000593 cycles: 47758710 heartbeat IPC: 1.25 cumulative IPC: 1.61 (Simulation time: 00 hr 10 min 39 sec)
Heartbeat CPU 0 instructions: 110500593 cycles: 47983775 heartbeat IPC: 2.222 cumulative IPC: 1.614 (Simulation time: 00 hr 10 min 43 sec)
Heartbeat CPU 0 instructions: 111000593 cycles: 48207779 heartbeat IPC: 2.232 cumulative IPC: 1.617 (Simulation time: 00 hr 10 min 46 sec)
Heartbeat CPU 0 instructions: 111500599 cycles: 48426975 heartbeat IPC: 2.281 cumulative IPC: 1.621 (Simulation time: 00 hr 10 min 50 sec)
Heartbeat CPU 0 instructions: 112000605 cycles: 48873776 heartbeat IPC: 1.119 cumulative IPC: 1.615 (Simulation time: 00 hr 10 min 55 sec)
Heartbeat CPU 0 instructions: 112500612 cycles: 49140939 heartbeat IPC: 1.872 cumulative IPC: 1.617 (Simulation time: 00 hr 10 min 58 sec)
Heartbeat CPU 0 instructions: 113000615 cycles: 49371941 heartbeat IPC: 2.164 cumulative IPC: 1.62 (Simulation time: 00 hr 11 min 01 sec)
Heartbeat CPU 0 instructions: 113500621 cycles: 49582625 heartbeat IPC: 2.373 cumulative IPC: 1.624 (Simulation time: 00 hr 11 min 04 sec)
Heartbeat CPU 0 instructions: 114000627 cycles: 49781424 heartbeat IPC: 2.515 cumulative IPC: 1.629 (Simulation time: 00 hr 11 min 07 sec)
Heartbeat CPU 0 instructions: 114500627 cycles: 49973776 heartbeat IPC: 2.599 cumulative IPC: 1.634 (Simulation time: 00 hr 11 min 10 sec)
Heartbeat CPU 0 instructions: 115000629 cycles: 50162351 heartbeat IPC: 2.651 cumulative IPC: 1.639 (Simulation time: 00 hr 11 min 12 sec)
Heartbeat CPU 0 instructions: 115500634 cycles: 50359495 heartbeat IPC: 2.536 cumulative IPC: 1.643 (Simulation time: 00 hr 11 min 15 sec)
Heartbeat CPU 0 instructions: 116000640 cycles: 50558397 heartbeat IPC: 2.514 cumulative IPC: 1.647 (Simulation time: 00 hr 11 min 18 sec)
Heartbeat CPU 0 instructions: 116500647 cycles: 50739170 heartbeat IPC: 2.766 cumulative IPC: 1.652 (Simulation time: 00 hr 11 min 20 sec)
Heartbeat CPU 0 instructions: 117000648 cycles: 50929650 heartbeat IPC: 2.625 cumulative IPC: 1.657 (Simulation time: 00 hr 11 min 23 sec)
Heartbeat CPU 0 instructions: 117500654 cycles: 51110588 heartbeat IPC: 2.763 cumulative IPC: 1.662 (Simulation time: 00 hr 11 min 25 sec)
Heartbeat CPU 0 instructions: 118000658 cycles: 51308180 heartbeat IPC: 2.53 cumulative IPC: 1.666 (Simulation time: 00 hr 11 min 28 sec)
Heartbeat CPU 0 instructions: 118500662 cycles: 51484905 heartbeat IPC: 2.829 cumulative IPC: 1.671 (Simulation time: 00 hr 11 min 31 sec)
Heartbeat CPU 0 instructions: 119000662 cycles: 51672356 heartbeat IPC: 2.667 cumulative IPC: 1.676 (Simulation time: 00 hr 11 min 33 sec)
Heartbeat CPU 0 instructions: 119500663 cycles: 51855328 heartbeat IPC: 2.733 cumulative IPC: 1.68 (Simulation time: 00 hr 11 min 36 sec)
Heartbeat CPU 0 instructions: 120000666 cycles: 52037958 heartbeat IPC: 2.738 cumulative IPC: 1.685 (Simulation time: 00 hr 11 min 38 sec)
Heartbeat CPU 0 instructions: 120500669 cycles: 52229277 heartbeat IPC: 2.613 cumulative IPC: 1.689 (Simulation time: 00 hr 11 min 41 sec)
Heartbeat CPU 0 instructions: 121000669 cycles: 52409071 heartbeat IPC: 2.781 cumulative IPC: 1.694 (Simulation time: 00 hr 11 min 44 sec)
Heartbeat CPU 0 instructions: 121500675 cycles: 52596343 heartbeat IPC: 2.67 cumulative IPC: 1.698 (Simulation time: 00 hr 11 min 46 sec)
Heartbeat CPU 0 instructions: 122000682 cycles: 53184011 heartbeat IPC: 0.8508 cumulative IPC: 1.687 (Simulation time: 00 hr 11 min 53 sec)
Heartbeat CPU 0 instructions: 122500684 cycles: 53544373 heartbeat IPC: 1.387 cumulative IPC: 1.684 (Simulation time: 00 hr 11 min 57 sec)
Heartbeat CPU 0 instructions: 123000685 cycles: 53829521 heartbeat IPC: 1.753 cumulative IPC: 1.685 (Simulation time: 00 hr 12 min 01 sec)
Heartbeat CPU 0 instructions: 123500692 cycles: 54071836 heartbeat IPC: 2.063 cumulative IPC: 1.687 (Simulation time: 00 hr 12 min 05 sec)
Heartbeat CPU 0 instructions: 124000693 cycles: 54448159 heartbeat IPC: 1.329 cumulative IPC: 1.684 (Simulation time: 00 hr 12 min 10 sec)
Heartbeat CPU 0 instructions: 124500695 cycles: 54765404 heartbeat IPC: 1.576 cumulative IPC: 1.683 (Simulation time: 00 hr 12 min 14 sec)
Heartbeat CPU 0 instructions: 125000695 cycles: 55069248 heartbeat IPC: 1.646 cumulative IPC: 1.683 (Simulation time: 00 hr 12 min 17 sec)
Heartbeat CPU 0 instructions: 125500695 cycles: 55372026 heartbeat IPC: 1.651 cumulative IPC: 1.682 (Simulation time: 00 hr 12 min 21 sec)
Heartbeat CPU 0 instructions: 126000700 cycles: 55784576 heartbeat IPC: 1.212 cumulative IPC: 1.678 (Simulation time: 00 hr 12 min 27 sec)
Heartbeat CPU 0 instructions: 126500701 cycles: 56037068 heartbeat IPC: 1.98 cumulative IPC: 1.68 (Simulation time: 00 hr 12 min 30 sec)
Heartbeat CPU 0 instructions: 127000705 cycles: 56283639 heartbeat IPC: 2.028 cumulative IPC: 1.682 (Simulation time: 00 hr 12 min 34 sec)
Heartbeat CPU 0 instructions: 127500705 cycles: 56533980 heartbeat IPC: 1.997 cumulative IPC: 1.683 (Simulation time: 00 hr 12 min 37 sec)
Heartbeat CPU 0 instructions: 128000706 cycles: 56778486 heartbeat IPC: 2.045 cumulative IPC: 1.685 (Simulation time: 00 hr 12 min 41 sec)
Heartbeat CPU 0 instructions: 128500707 cycles: 57026247 heartbeat IPC: 2.018 cumulative IPC: 1.687 (Simulation time: 00 hr 12 min 44 sec)
Heartbeat CPU 0 instructions: 129000707 cycles: 57274213 heartbeat IPC: 2.016 cumulative IPC: 1.689 (Simulation time: 00 hr 12 min 48 sec)
Heartbeat CPU 0 instructions: 129500709 cycles: 57538176 heartbeat IPC: 1.894 cumulative IPC: 1.69 (Simulation time: 00 hr 12 min 52 sec)
Heartbeat CPU 0 instructions: 130000710 cycles: 57760593 heartbeat IPC: 2.248 cumulative IPC: 1.693 (Simulation time: 00 hr 12 min 55 sec)
Heartbeat CPU 0 instructions: 130500710 cycles: 57983021 heartbeat IPC: 2.248 cumulative IPC: 1.695 (Simulation time: 00 hr 12 min 59 sec)
Heartbeat CPU 0 instructions: 131000711 cycles: 58568374 heartbeat IPC: 0.8542 cumulative IPC: 1.685 (Simulation time: 00 hr 13 min 09 sec)
Heartbeat CPU 0 instructions: 131500714 cycles: 58788280 heartbeat IPC: 2.274 cumulative IPC: 1.688 (Simulation time: 00 hr 13 min 13 sec)
Heartbeat CPU 0 instructions: 132000717 cycles: 59008464 heartbeat IPC: 2.271 cumulative IPC: 1.69 (Simulation time: 00 hr 13 min 17 sec)
Heartbeat CPU 0 instructions: 132500722 cycles: 59473822 heartbeat IPC: 1.074 cumulative IPC: 1.684 (Simulation time: 00 hr 13 min 22 sec)
Heartbeat CPU 0 instructions: 133000728 cycles: 59715482 heartbeat IPC: 2.069 cumulative IPC: 1.686 (Simulation time: 00 hr 13 min 25 sec)
Heartbeat CPU 0 instructions: 133500730 cycles: 59993549 heartbeat IPC: 1.798 cumulative IPC: 1.687 (Simulation time: 00 hr 13 min 28 sec)
Heartbeat CPU 0 instructions: 134000735 cycles: 60208589 heartbeat IPC: 2.325 cumulative IPC: 1.69 (Simulation time: 00 hr 13 min 32 sec)
Heartbeat CPU 0 instructions: 134500735 cycles: 60426502 heartbeat IPC: 2.294 cumulative IPC: 1.692 (Simulation time: 00 hr 13 min 35 sec)
Heartbeat CPU 0 instructions: 135000742 cycles: 60639169 heartbeat IPC: 2.351 cumulative IPC: 1.695 (Simulation time: 00 hr 13 min 38 sec)
Heartbeat CPU 0 instructions: 135500742 cycles: 60840487 heartbeat IPC: 2.484 cumulative IPC: 1.698 (Simulation time: 00 hr 13 min 40 sec)
Heartbeat CPU 0 instructions: 136000744 cycles: 61045227 heartbeat IPC: 2.442 cumulative IPC: 1.701 (Simulation time: 00 hr 13 min 43 sec)
Heartbeat CPU 0 instructions: 136500744 cycles: 61240293 heartbeat IPC: 2.563 cumulative IPC: 1.705 (Simulation time: 00 hr 13 min 46 sec)
Heartbeat CPU 0 instructions: 137000748 cycles: 61435773 heartbeat IPC: 2.558 cumulative IPC: 1.708 (Simulation time: 00 hr 13 min 48 sec)
Heartbeat CPU 0 instructions: 137500750 cycles: 61633017 heartbeat IPC: 2.535 cumulative IPC: 1.711 (Simulation time: 00 hr 13 min 51 sec)
Heartbeat CPU 0 instructions: 138000752 cycles: 61831088 heartbeat IPC: 2.524 cumulative IPC: 1.714 (Simulation time: 00 hr 13 min 54 sec)
Heartbeat CPU 0 instructions: 138500753 cycles: 62023597 heartbeat IPC: 2.597 cumulative IPC: 1.717 (Simulation time: 00 hr 13 min 57 sec)
Heartbeat CPU 0 instructions: 139000755 cycles: 62211933 heartbeat IPC: 2.655 cumulative IPC: 1.721 (Simulation time: 00 hr 13 min 59 sec)
Heartbeat CPU 0 instructions: 139500761 cycles: 62401402 heartbeat IPC: 2.639 cumulative IPC: 1.724 (Simulation time: 00 hr 14 min 02 sec)
Heartbeat CPU 0 instructions: 140000765 cycles: 62591372 heartbeat IPC: 2.632 cumulative IPC: 1.728 (Simulation time: 00 hr 14 min 04 sec)
Heartbeat CPU 0 instructions: 140500766 cycles: 62787644 heartbeat IPC: 2.547 cumulative IPC: 1.731 (Simulation time: 00 hr 14 min 07 sec)
Heartbeat CPU 0 instructions: 141000767 cycles: 62967626 heartbeat IPC: 2.778 cumulative IPC: 1.734 (Simulation time: 00 hr 14 min 10 sec)
Heartbeat CPU 0 instructions: 141500767 cycles: 63172894 heartbeat IPC: 2.436 cumulative IPC: 1.737 (Simulation time: 00 hr 14 min 13 sec)
Heartbeat CPU 0 instructions: 142000768 cycles: 63357371 heartbeat IPC: 2.71 cumulative IPC: 1.74 (Simulation time: 00 hr 14 min 15 sec)
Heartbeat CPU 0 instructions: 142500770 cycles: 64094851 heartbeat IPC: 0.678 cumulative IPC: 1.726 (Simulation time: 00 hr 14 min 22 sec)
Heartbeat CPU 0 instructions: 143000770 cycles: 64515400 heartbeat IPC: 1.189 cumulative IPC: 1.722 (Simulation time: 00 hr 14 min 26 sec)
Heartbeat CPU 0 instructions: 143500771 cycles: 64709330 heartbeat IPC: 2.578 cumulative IPC: 1.725 (Simulation time: 00 hr 14 min 29 sec)
Heartbeat CPU 0 instructions: 144000776 cycles: 64906906 heartbeat IPC: 2.531 cumulative IPC: 1.728 (Simulation time: 00 hr 14 min 32 sec)
Heartbeat CPU 0 instructions: 144500776 cycles: 65094965 heartbeat IPC: 2.659 cumulative IPC: 1.731 (Simulation time: 00 hr 14 min 34 sec)
Heartbeat CPU 0 instructions: 145000777 cycles: 65304471 heartbeat IPC: 2.387 cumulative IPC: 1.733 (Simulation time: 00 hr 14 min 37 sec)
Heartbeat CPU 0 instructions: 145500778 cycles: 65496914 heartbeat IPC: 2.598 cumulative IPC: 1.736 (Simulation time: 00 hr 14 min 40 sec)
Heartbeat CPU 0 instructions: 146000781 cycles: 65696743 heartbeat IPC: 2.502 cumulative IPC: 1.739 (Simulation time: 00 hr 14 min 43 sec)
Heartbeat CPU 0 instructions: 146500785 cycles: 65882883 heartbeat IPC: 2.686 cumulative IPC: 1.742 (Simulation time: 00 hr 14 min 45 sec)
Heartbeat CPU 0 instructions: 147000788 cycles: 66080399 heartbeat IPC: 2.531 cumulative IPC: 1.745 (Simulation time: 00 hr 14 min 48 sec)
Heartbeat CPU 0 instructions: 147500793 cycles: 66415702 heartbeat IPC: 1.491 cumulative IPC: 1.743 (Simulation time: 00 hr 14 min 52 sec)
Heartbeat CPU 0 instructions: 148000794 cycles: 66655878 heartbeat IPC: 2.082 cumulative IPC: 1.745 (Simulation time: 00 hr 14 min 56 sec)
Heartbeat CPU 0 instructions: 148500794 cycles: 66893686 heartbeat IPC: 2.103 cumulative IPC: 1.746 (Simulation time: 00 hr 14 min 59 sec)
Heartbeat CPU 0 instructions: 149000799 cycles: 67207068 heartbeat IPC: 1.596 cumulative IPC: 1.746 (Simulation time: 00 hr 15 min 03 sec)
Heartbeat CPU 0 instructions: 149500804 cycles: 67442179 heartbeat IPC: 2.127 cumulative IPC: 1.747 (Simulation time: 00 hr 15 min 07 sec)
Heartbeat CPU 0 instructions: 150000811 cycles: 67680619 heartbeat IPC: 2.097 cumulative IPC: 1.749 (Simulation time: 00 hr 15 min 10 sec)
Heartbeat CPU 0 instructions: 150500811 cycles: 67933264 heartbeat IPC: 1.979 cumulative IPC: 1.75 (Simulation time: 00 hr 15 min 14 sec)
Heartbeat CPU 0 instructions: 151000814 cycles: 68224805 heartbeat IPC: 1.715 cumulative IPC: 1.749 (Simulation time: 00 hr 15 min 18 sec)
Heartbeat CPU 0 instructions: 151500818 cycles: 68517795 heartbeat IPC: 1.707 cumulative IPC: 1.749 (Simulation time: 00 hr 15 min 21 sec)
Heartbeat CPU 0 instructions: 152000825 cycles: 68896353 heartbeat IPC: 1.321 cumulative IPC: 1.746 (Simulation time: 00 hr 15 min 26 sec)
Heartbeat CPU 0 instructions: 152500825 cycles: 69195242 heartbeat IPC: 1.673 cumulative IPC: 1.746 (Simulation time: 00 hr 15 min 30 sec)
Heartbeat CPU 0 instructions: 153000831 cycles: 70030502 heartbeat IPC: 0.5986 cumulative IPC: 1.73 (Simulation time: 00 hr 15 min 38 sec)
Heartbeat CPU 0 instructions: 153500831 cycles: 70256375 heartbeat IPC: 2.214 cumulative IPC: 1.732 (Simulation time: 00 hr 15 min 42 sec)
Heartbeat CPU 0 instructions: 154000833 cycles: 70479878 heartbeat IPC: 2.237 cumulative IPC: 1.734 (Simulation time: 00 hr 15 min 45 sec)
Heartbeat CPU 0 instructions: 154500833 cycles: 70702285 heartbeat IPC: 2.248 cumulative IPC: 1.736 (Simulation time: 00 hr 15 min 49 sec)
Heartbeat CPU 0 instructions: 155000834 cycles: 70935310 heartbeat IPC: 2.146 cumulative IPC: 1.737 (Simulation time: 00 hr 15 min 53 sec)
Heartbeat CPU 0 instructions: 155500840 cycles: 71159792 heartbeat IPC: 2.227 cumulative IPC: 1.739 (Simulation time: 00 hr 15 min 56 sec)
Heartbeat CPU 0 instructions: 156000840 cycles: 71381574 heartbeat IPC: 2.254 cumulative IPC: 1.741 (Simulation time: 00 hr 16 min 00 sec)
Heartbeat CPU 0 instructions: 156500846 cycles: 71605946 heartbeat IPC: 2.228 cumulative IPC: 1.743 (Simulation time: 00 hr 16 min 04 sec)
Heartbeat CPU 0 instructions: 157000849 cycles: 71829125 heartbeat IPC: 2.24 cumulative IPC: 1.745 (Simulation time: 00 hr 16 min 07 sec)
Heartbeat CPU 0 instructions: 157500855 cycles: 72051035 heartbeat IPC: 2.253 cumulative IPC: 1.746 (Simulation time: 00 hr 16 min 11 sec)
Heartbeat CPU 0 instructions: 158000856 cycles: 72276997 heartbeat IPC: 2.213 cumulative IPC: 1.748 (Simulation time: 00 hr 16 min 15 sec)
Heartbeat CPU 0 instructions: 158500856 cycles: 72500835 heartbeat IPC: 2.234 cumulative IPC: 1.75 (Simulation time: 00 hr 16 min 18 sec)
Heartbeat CPU 0 instructions: 159000856 cycles: 72727809 heartbeat IPC: 2.203 cumulative IPC: 1.751 (Simulation time: 00 hr 16 min 22 sec)
Heartbeat CPU 0 instructions: 159500856 cycles: 75545003 heartbeat IPC: 0.1775 cumulative IPC: 1.683 (Simulation time: 00 hr 17 min 15 sec)
Heartbeat CPU 0 instructions: 160000863 cycles: 76316825 heartbeat IPC: 0.6478 cumulative IPC: 1.671 (Simulation time: 00 hr 17 min 27 sec)
Heartbeat CPU 0 instructions: 160500863 cycles: 76532405 heartbeat IPC: 2.319 cumulative IPC: 1.673 (Simulation time: 00 hr 17 min 30 sec)
Heartbeat CPU 0 instructions: 161000864 cycles: 76684993 heartbeat IPC: 3.277 cumulative IPC: 1.677 (Simulation time: 00 hr 17 min 33 sec)
Heartbeat CPU 0 instructions: 161500864 cycles: 76871653 heartbeat IPC: 2.679 cumulative IPC: 1.68 (Simulation time: 00 hr 17 min 35 sec)
Heartbeat CPU 0 instructions: 162000866 cycles: 77055246 heartbeat IPC: 2.723 cumulative IPC: 1.683 (Simulation time: 00 hr 17 min 38 sec)
Heartbeat CPU 0 instructions: 162500869 cycles: 77242279 heartbeat IPC: 2.673 cumulative IPC: 1.685 (Simulation time: 00 hr 17 min 40 sec)
Heartbeat CPU 0 instructions: 163000871 cycles: 78186437 heartbeat IPC: 0.5296 cumulative IPC: 1.669 (Simulation time: 00 hr 17 min 48 sec)
Heartbeat CPU 0 instructions: 163500871 cycles: 79293766 heartbeat IPC: 0.4515 cumulative IPC: 1.65 (Simulation time: 00 hr 17 min 59 sec)
Heartbeat CPU 0 instructions: 164000875 cycles: 79543077 heartbeat IPC: 2.006 cumulative IPC: 1.651 (Simulation time: 00 hr 18 min 02 sec)
Heartbeat CPU 0 instructions: 164500877 cycles: 79861017 heartbeat IPC: 1.573 cumulative IPC: 1.651 (Simulation time: 00 hr 18 min 06 sec)
Heartbeat CPU 0 instructions: 165000880 cycles: 80120582 heartbeat IPC: 1.926 cumulative IPC: 1.652 (Simulation time: 00 hr 18 min 10 sec)
Heartbeat CPU 0 instructions: 165500886 cycles: 80427144 heartbeat IPC: 1.631 cumulative IPC: 1.652 (Simulation time: 00 hr 18 min 14 sec)
Heartbeat CPU 0 instructions: 166000889 cycles: 80735475 heartbeat IPC: 1.622 cumulative IPC: 1.651 (Simulation time: 00 hr 18 min 18 sec)
Heartbeat CPU 0 instructions: 166500890 cycles: 81002724 heartbeat IPC: 1.871 cumulative IPC: 1.652 (Simulation time: 00 hr 18 min 22 sec)
Heartbeat CPU 0 instructions: 167000895 cycles: 81237616 heartbeat IPC: 2.129 cumulative IPC: 1.654 (Simulation time: 00 hr 18 min 25 sec)
Heartbeat CPU 0 instructions: 167500898 cycles: 81540681 heartbeat IPC: 1.65 cumulative IPC: 1.654 (Simulation time: 00 hr 18 min 29 sec)
Heartbeat CPU 0 instructions: 168000898 cycles: 81789865 heartbeat IPC: 2.007 cumulative IPC: 1.655 (Simulation time: 00 hr 18 min 32 sec)
Heartbeat CPU 0 instructions: 168500899 cycles: 82143109 heartbeat IPC: 1.415 cumulative IPC: 1.654 (Simulation time: 00 hr 18 min 36 sec)
Heartbeat CPU 0 instructions: 169000899 cycles: 82786292 heartbeat IPC: 0.7774 cumulative IPC: 1.646 (Simulation time: 00 hr 18 min 43 sec)
Heartbeat CPU 0 instructions: 169500906 cycles: 83038679 heartbeat IPC: 1.981 cumulative IPC: 1.647 (Simulation time: 00 hr 18 min 46 sec)
Heartbeat CPU 0 instructions: 170000908 cycles: 83273381 heartbeat IPC: 2.13 cumulative IPC: 1.649 (Simulation time: 00 hr 18 min 50 sec)
Heartbeat CPU 0 instructions: 170500915 cycles: 83598010 heartbeat IPC: 1.54 cumulative IPC: 1.648 (Simulation time: 00 hr 18 min 54 sec)
Heartbeat CPU 0 instructions: 171000915 cycles: 83866691 heartbeat IPC: 1.861 cumulative IPC: 1.649 (Simulation time: 00 hr 18 min 57 sec)
Heartbeat CPU 0 instructions: 171500915 cycles: 84150342 heartbeat IPC: 1.763 cumulative IPC: 1.65 (Simulation time: 00 hr 19 min 01 sec)
Heartbeat CPU 0 instructions: 172000915 cycles: 84413543 heartbeat IPC: 1.9 cumulative IPC: 1.65 (Simulation time: 00 hr 19 min 05 sec)
Heartbeat CPU 0 instructions: 172500921 cycles: 84731528 heartbeat IPC: 1.572 cumulative IPC: 1.65 (Simulation time: 00 hr 19 min 08 sec)
Heartbeat CPU 0 instructions: 173000926 cycles: 84986905 heartbeat IPC: 1.958 cumulative IPC: 1.651 (Simulation time: 00 hr 19 min 12 sec)
Heartbeat CPU 0 instructions: 173500931 cycles: 85406264 heartbeat IPC: 1.192 cumulative IPC: 1.649 (Simulation time: 00 hr 19 min 16 sec)
Heartbeat CPU 0 instructions: 174000938 cycles: 85622763 heartbeat IPC: 2.31 cumulative IPC: 1.65 (Simulation time: 00 hr 19 min 19 sec)
Heartbeat CPU 0 instructions: 174500941 cycles: 85803481 heartbeat IPC: 2.767 cumulative IPC: 1.653 (Simulation time: 00 hr 19 min 22 sec)
Heartbeat CPU 0 instructions: 175000941 cycles: 86007149 heartbeat IPC: 2.455 cumulative IPC: 1.655 (Simulation time: 00 hr 19 min 24 sec)
Heartbeat CPU 0 instructions: 175500948 cycles: 86198699 heartbeat IPC: 2.61 cumulative IPC: 1.658 (Simulation time: 00 hr 19 min 27 sec)
Heartbeat CPU 0 instructions: 176000952 cycles: 86391222 heartbeat IPC: 2.597 cumulative IPC: 1.66 (Simulation time: 00 hr 19 min 30 sec)
Heartbeat CPU 0 instructions: 176500954 cycles: 86580449 heartbeat IPC: 2.642 cumulative IPC: 1.663 (Simulation time: 00 hr 19 min 32 sec)
Heartbeat CPU 0 instructions: 177000956 cycles: 86769215 heartbeat IPC: 2.649 cumulative IPC: 1.665 (Simulation time: 00 hr 19 min 35 sec)
Heartbeat CPU 0 instructions: 177500963 cycles: 86955772 heartbeat IPC: 2.68 cumulative IPC: 1.667 (Simulation time: 00 hr 19 min 37 sec)
Heartbeat CPU 0 instructions: 178000967 cycles: 87148634 heartbeat IPC: 2.593 cumulative IPC: 1.67 (Simulation time: 00 hr 19 min 40 sec)
Heartbeat CPU 0 instructions: 178500968 cycles: 87336406 heartbeat IPC: 2.663 cumulative IPC: 1.672 (Simulation time: 00 hr 19 min 42 sec)
Heartbeat CPU 0 instructions: 179000973 cycles: 87513105 heartbeat IPC: 2.83 cumulative IPC: 1.675 (Simulation time: 00 hr 19 min 45 sec)
Heartbeat CPU 0 instructions: 179500974 cycles: 87692841 heartbeat IPC: 2.782 cumulative IPC: 1.677 (Simulation time: 00 hr 19 min 47 sec)
Heartbeat CPU 0 instructions: 180000975 cycles: 87877831 heartbeat IPC: 2.703 cumulative IPC: 1.68 (Simulation time: 00 hr 19 min 50 sec)
Heartbeat CPU 0 instructions: 180500975 cycles: 88055657 heartbeat IPC: 2.812 cumulative IPC: 1.683 (Simulation time: 00 hr 19 min 52 sec)
Heartbeat CPU 0 instructions: 181000977 cycles: 88233538 heartbeat IPC: 2.811 cumulative IPC: 1.685 (Simulation time: 00 hr 19 min 55 sec)
Heartbeat CPU 0 instructions: 181500984 cycles: 88414000 heartbeat IPC: 2.771 cumulative IPC: 1.688 (Simulation time: 00 hr 19 min 57 sec)
Heartbeat CPU 0 instructions: 182000984 cycles: 88584427 heartbeat IPC: 2.934 cumulative IPC: 1.69 (Simulation time: 00 hr 20 min 00 sec)
Heartbeat CPU 0 instructions: 182500988 cycles: 88756892 heartbeat IPC: 2.899 cumulative IPC: 1.693 (Simulation time: 00 hr 20 min 02 sec)
Heartbeat CPU 0 instructions: 183000991 cycles: 88957349 heartbeat IPC: 2.494 cumulative IPC: 1.695 (Simulation time: 00 hr 20 min 05 sec)
Heartbeat CPU 0 instructions: 183500992 cycles: 89462548 heartbeat IPC: 0.9897 cumulative IPC: 1.691 (Simulation time: 00 hr 20 min 10 sec)
Heartbeat CPU 0 instructions: 184000992 cycles: 89649405 heartbeat IPC: 2.676 cumulative IPC: 1.693 (Simulation time: 00 hr 20 min 13 sec)
Heartbeat CPU 0 instructions: 184500994 cycles: 89824887 heartbeat IPC: 2.849 cumulative IPC: 1.695 (Simulation time: 00 hr 20 min 15 sec)
Heartbeat CPU 0 instructions: 185000996 cycles: 90023860 heartbeat IPC: 2.513 cumulative IPC: 1.697 (Simulation time: 00 hr 20 min 18 sec)
Heartbeat CPU 0 instructions: 185501001 cycles: 90205755 heartbeat IPC: 2.749 cumulative IPC: 1.7 (Simulation time: 00 hr 20 min 20 sec)
Heartbeat CPU 0 instructions: 186001006 cycles: 90389672 heartbeat IPC: 2.719 cumulative IPC: 1.702 (Simulation time: 00 hr 20 min 23 sec)
Heartbeat CPU 0 instructions: 186501010 cycles: 90567290 heartbeat IPC: 2.815 cumulative IPC: 1.705 (Simulation time: 00 hr 20 min 26 sec)
Heartbeat CPU 0 instructions: 187001017 cycles: 90748522 heartbeat IPC: 2.759 cumulative IPC: 1.707 (Simulation time: 00 hr 20 min 28 sec)
Heartbeat CPU 0 instructions: 187501017 cycles: 90933540 heartbeat IPC: 2.702 cumulative IPC: 1.709 (Simulation time: 00 hr 20 min 31 sec)
Heartbeat CPU 0 instructions: 188001023 cycles: 91113440 heartbeat IPC: 2.779 cumulative IPC: 1.712 (Simulation time: 00 hr 20 min 33 sec)
Heartbeat CPU 0 instructions: 188501027 cycles: 91292465 heartbeat IPC: 2.793 cumulative IPC: 1.714 (Simulation time: 00 hr 20 min 36 sec)
Heartbeat CPU 0 instructions: 189001033 cycles: 91472179 heartbeat IPC: 2.782 cumulative IPC: 1.717 (Simulation time: 00 hr 20 min 39 sec)
Heartbeat CPU 0 instructions: 189501033 cycles: 91656644 heartbeat IPC: 2.711 cumulative IPC: 1.719 (Simulation time: 00 hr 20 min 41 sec)
Heartbeat CPU 0 instructions: 190001036 cycles: 91836181 heartbeat IPC: 2.785 cumulative IPC: 1.721 (Simulation time: 00 hr 20 min 44 sec)
Heartbeat CPU 0 instructions: 190501040 cycles: 92022230 heartbeat IPC: 2.687 cumulative IPC: 1.723 (Simulation time: 00 hr 20 min 47 sec)
Heartbeat CPU 0 instructions: 191001040 cycles: 92241290 heartbeat IPC: 2.282 cumulative IPC: 1.725 (Simulation time: 00 hr 20 min 50 sec)
Heartbeat CPU 0 instructions: 191501040 cycles: 92421560 heartbeat IPC: 2.774 cumulative IPC: 1.727 (Simulation time: 00 hr 20 min 52 sec)
Heartbeat CPU 0 instructions: 192001042 cycles: 92613012 heartbeat IPC: 2.612 cumulative IPC: 1.729 (Simulation time: 00 hr 20 min 55 sec)
Heartbeat CPU 0 instructions: 192501043 cycles: 92795223 heartbeat IPC: 2.744 cumulative IPC: 1.731 (Simulation time: 00 hr 20 min 58 sec)
Heartbeat CPU 0 instructions: 193001047 cycles: 92977648 heartbeat IPC: 2.741 cumulative IPC: 1.734 (Simulation time: 00 hr 21 min 00 sec)
Heartbeat CPU 0 instructions: 193501047 cycles: 93723196 heartbeat IPC: 0.6706 cumulative IPC: 1.724 (Simulation time: 00 hr 21 min 07 sec)
Heartbeat CPU 0 instructions: 194001054 cycles: 94049022 heartbeat IPC: 1.535 cumulative IPC: 1.723 (Simulation time: 00 hr 21 min 11 sec)
Heartbeat CPU 0 instructions: 194501061 cycles: 94355775 heartbeat IPC: 1.63 cumulative IPC: 1.723 (Simulation time: 00 hr 21 min 14 sec)
Heartbeat CPU 0 instructions: 195001062 cycles: 94626892 heartbeat IPC: 1.844 cumulative IPC: 1.723 (Simulation time: 00 hr 21 min 18 sec)
Heartbeat CPU 0 instructions: 195501062 cycles: 94971183 heartbeat IPC: 1.452 cumulative IPC: 1.722 (Simulation time: 00 hr 21 min 22 sec)
Heartbeat CPU 0 instructions: 196001065 cycles: 95297611 heartbeat IPC: 1.532 cumulative IPC: 1.722 (Simulation time: 00 hr 21 min 26 sec)
Heartbeat CPU 0 instructions: 196501071 cycles: 95591718 heartbeat IPC: 1.7 cumulative IPC: 1.722 (Simulation time: 00 hr 21 min 30 sec)
Heartbeat CPU 0 instructions: 197001078 cycles: 95830553 heartbeat IPC: 2.094 cumulative IPC: 1.723 (Simulation time: 00 hr 21 min 34 sec)
Heartbeat CPU 0 instructions: 197501079 cycles: 96134648 heartbeat IPC: 1.644 cumulative IPC: 1.722 (Simulation time: 00 hr 21 min 38 sec)
Heartbeat CPU 0 instructions: 198001080 cycles: 96417148 heartbeat IPC: 1.77 cumulative IPC: 1.722 (Simulation time: 00 hr 21 min 41 sec)
Heartbeat CPU 0 instructions: 198501080 cycles: 96691150 heartbeat IPC: 1.825 cumulative IPC: 1.723 (Simulation time: 00 hr 21 min 45 sec)
Heartbeat CPU 0 instructions: 199001087 cycles: 96925361 heartbeat IPC: 2.135 cumulative IPC: 1.724 (Simulation time: 00 hr 21 min 49 sec)
Heartbeat CPU 0 instructions: 199501089 cycles: 97198610 heartbeat IPC: 1.83 cumulative IPC: 1.724 (Simulation time: 00 hr 21 min 52 sec)
Heartbeat CPU 0 instructions: 200001089 cycles: 97486709 heartbeat IPC: 1.736 cumulative IPC: 1.724 (Simulation time: 00 hr 21 min 56 sec)
Heartbeat CPU 0 instructions: 200501091 cycles: 97724712 heartbeat IPC: 2.101 cumulative IPC: 1.725 (Simulation time: 00 hr 21 min 59 sec)
Heartbeat CPU 0 instructions: 201001091 cycles: 97964449 heartbeat IPC: 2.086 cumulative IPC: 1.726 (Simulation time: 00 hr 22 min 03 sec)
Heartbeat CPU 0 instructions: 201501091 cycles: 98241052 heartbeat IPC: 1.808 cumulative IPC: 1.727 (Simulation time: 00 hr 22 min 07 sec)
Heartbeat CPU 0 instructions: 202001098 cycles: 98531730 heartbeat IPC: 1.72 cumulative IPC: 1.727 (Simulation time: 00 hr 22 min 11 sec)
Heartbeat CPU 0 instructions: 202501100 cycles: 98758372 heartbeat IPC: 2.206 cumulative IPC: 1.728 (Simulation time: 00 hr 22 min 14 sec)
Heartbeat CPU 0 instructions: 203001103 cycles: 99097011 heartbeat IPC: 1.477 cumulative IPC: 1.727 (Simulation time: 00 hr 22 min 18 sec)
Heartbeat CPU 0 instructions: 203501103 cycles: 99530363 heartbeat IPC: 1.154 cumulative IPC: 1.724 (Simulation time: 00 hr 22 min 23 sec)
Heartbeat CPU 0 instructions: 204001103 cycles: 100274798 heartbeat IPC: 0.6717 cumulative IPC: 1.715 (Simulation time: 00 hr 22 min 30 sec)
Heartbeat CPU 0 instructions: 204501110 cycles: 100594076 heartbeat IPC: 1.566 cumulative IPC: 1.715 (Simulation time: 00 hr 22 min 34 sec)
Heartbeat CPU 0 instructions: 205001110 cycles: 100916279 heartbeat IPC: 1.552 cumulative IPC: 1.714 (Simulation time: 00 hr 22 min 38 sec)
Heartbeat CPU 0 instructions: 205501114 cycles: 101236156 heartbeat IPC: 1.563 cumulative IPC: 1.714 (Simulation time: 00 hr 22 min 41 sec)
Heartbeat CPU 0 instructions: 206001118 cycles: 101506218 heartbeat IPC: 1.851 cumulative IPC: 1.714 (Simulation time: 00 hr 22 min 45 sec)
Heartbeat CPU 0 instructions: 206501121 cycles: 101762898 heartbeat IPC: 1.948 cumulative IPC: 1.715 (Simulation time: 00 hr 22 min 48 sec)
Heartbeat CPU 0 instructions: 207001121 cycles: 102058964 heartbeat IPC: 1.689 cumulative IPC: 1.715 (Simulation time: 00 hr 22 min 52 sec)
Heartbeat CPU 0 instructions: 207501126 cycles: 102354276 heartbeat IPC: 1.693 cumulative IPC: 1.715 (Simulation time: 00 hr 22 min 55 sec)
Heartbeat CPU 0 instructions: 208001126 cycles: 102653876 heartbeat IPC: 1.669 cumulative IPC: 1.714 (Simulation time: 00 hr 22 min 59 sec)
Heartbeat CPU 0 instructions: 208501128 cycles: 102931405 heartbeat IPC: 1.802 cumulative IPC: 1.715 (Simulation time: 00 hr 23 min 02 sec)
Heartbeat CPU 0 instructions: 209001130 cycles: 103247258 heartbeat IPC: 1.583 cumulative IPC: 1.714 (Simulation time: 00 hr 23 min 06 sec)
Heartbeat CPU 0 instructions: 209501130 cycles: 103530476 heartbeat IPC: 1.765 cumulative IPC: 1.714 (Simulation time: 00 hr 23 min 09 sec)
Heartbeat CPU 0 instructions: 210001132 cycles: 103821199 heartbeat IPC: 1.72 cumulative IPC: 1.714 (Simulation time: 00 hr 23 min 13 sec)
Heartbeat CPU 0 instructions: 210501135 cycles: 104115581 heartbeat IPC: 1.698 cumulative IPC: 1.714 (Simulation time: 00 hr 23 min 16 sec)
Heartbeat CPU 0 instructions: 211001136 cycles: 104423715 heartbeat IPC: 1.623 cumulative IPC: 1.714 (Simulation time: 00 hr 23 min 20 sec)
Heartbeat CPU 0 instructions: 211501137 cycles: 104686861 heartbeat IPC: 1.9 cumulative IPC: 1.715 (Simulation time: 00 hr 23 min 23 sec)
Heartbeat CPU 0 instructions: 212001143 cycles: 104975122 heartbeat IPC: 1.735 cumulative IPC: 1.715 (Simulation time: 00 hr 23 min 27 sec)
Heartbeat CPU 0 instructions: 212501143 cycles: 105310258 heartbeat IPC: 1.492 cumulative IPC: 1.714 (Simulation time: 00 hr 23 min 31 sec)
Heartbeat CPU 0 instructions: 213001143 cycles: 105577174 heartbeat IPC: 1.873 cumulative IPC: 1.714 (Simulation time: 00 hr 23 min 34 sec)
Heartbeat CPU 0 instructions: 213501144 cycles: 105865139 heartbeat IPC: 1.736 cumulative IPC: 1.714 (Simulation time: 00 hr 23 min 38 sec)
Heartbeat CPU 0 instructions: 214001147 cycles: 106713236 heartbeat IPC: 0.5896 cumulative IPC: 1.704 (Simulation time: 00 hr 23 min 46 sec)
Heartbeat CPU 0 instructions: 214501152 cycles: 106950160 heartbeat IPC: 2.11 cumulative IPC: 1.705 (Simulation time: 00 hr 23 min 49 sec)
Heartbeat CPU 0 instructions: 215001152 cycles: 107268702 heartbeat IPC: 1.57 cumulative IPC: 1.705 (Simulation time: 00 hr 23 min 53 sec)
Heartbeat CPU 0 instructions: 215501158 cycles: 107584710 heartbeat IPC: 1.582 cumulative IPC: 1.705 (Simulation time: 00 hr 23 min 57 sec)
Heartbeat CPU 0 instructions: 216001162 cycles: 107863293 heartbeat IPC: 1.795 cumulative IPC: 1.705 (Simulation time: 00 hr 24 min 00 sec)
Heartbeat CPU 0 instructions: 216501167 cycles: 108178446 heartbeat IPC: 1.587 cumulative IPC: 1.704 (Simulation time: 00 hr 24 min 04 sec)
Heartbeat CPU 0 instructions: 217001167 cycles: 108488738 heartbeat IPC: 1.611 cumulative IPC: 1.704 (Simulation time: 00 hr 24 min 07 sec)
Heartbeat CPU 0 instructions: 217501167 cycles: 108759497 heartbeat IPC: 1.847 cumulative IPC: 1.705 (Simulation time: 00 hr 24 min 11 sec)
Heartbeat CPU 0 instructions: 218001174 cycles: 109022382 heartbeat IPC: 1.902 cumulative IPC: 1.705 (Simulation time: 00 hr 24 min 14 sec)
Heartbeat CPU 0 instructions: 218501175 cycles: 109288899 heartbeat IPC: 1.876 cumulative IPC: 1.706 (Simulation time: 00 hr 24 min 18 sec)
Heartbeat CPU 0 instructions: 219001176 cycles: 109559402 heartbeat IPC: 1.848 cumulative IPC: 1.706 (Simulation time: 00 hr 24 min 21 sec)
Heartbeat CPU 0 instructions: 219501176 cycles: 109951912 heartbeat IPC: 1.274 cumulative IPC: 1.704 (Simulation time: 00 hr 24 min 25 sec)
Heartbeat CPU 0 instructions: 220001181 cycles: 110238688 heartbeat IPC: 1.744 cumulative IPC: 1.704 (Simulation time: 00 hr 24 min 29 sec)
Heartbeat CPU 0 instructions: 220501184 cycles: 110504850 heartbeat IPC: 1.879 cumulative IPC: 1.705 (Simulation time: 00 hr 24 min 32 sec)
Heartbeat CPU 0 instructions: 221001190 cycles: 110774970 heartbeat IPC: 1.851 cumulative IPC: 1.705 (Simulation time: 00 hr 24 min 36 sec)
Heartbeat CPU 0 instructions: 221501193 cycles: 111040128 heartbeat IPC: 1.886 cumulative IPC: 1.706 (Simulation time: 00 hr 24 min 39 sec)
Heartbeat CPU 0 instructions: 222001198 cycles: 111307861 heartbeat IPC: 1.868 cumulative IPC: 1.706 (Simulation time: 00 hr 24 min 43 sec)
Heartbeat CPU 0 instructions: 222501203 cycles: 111576072 heartbeat IPC: 1.864 cumulative IPC: 1.707 (Simulation time: 00 hr 24 min 46 sec)
Heartbeat CPU 0 instructions: 223001203 cycles: 111887106 heartbeat IPC: 1.608 cumulative IPC: 1.706 (Simulation time: 00 hr 24 min 50 sec)
Heartbeat CPU 0 instructions: 223501203 cycles: 112209356 heartbeat IPC: 1.552 cumulative IPC: 1.706 (Simulation time: 00 hr 24 min 53 sec)
Heartbeat CPU 0 instructions: 224001203 cycles: 112694437 heartbeat IPC: 1.031 cumulative IPC: 1.703 (Simulation time: 00 hr 24 min 59 sec)
Heartbeat CPU 0 instructions: 224501204 cycles: 112943283 heartbeat IPC: 2.009 cumulative IPC: 1.703 (Simulation time: 00 hr 25 min 02 sec)
Heartbeat CPU 0 instructions: 225001204 cycles: 113604448 heartbeat IPC: 0.7562 cumulative IPC: 1.697 (Simulation time: 00 hr 25 min 09 sec)
Heartbeat CPU 0 instructions: 225501206 cycles: 113859489 heartbeat IPC: 1.96 cumulative IPC: 1.698 (Simulation time: 00 hr 25 min 12 sec)
Heartbeat CPU 0 instructions: 226001213 cycles: 114125069 heartbeat IPC: 1.883 cumulative IPC: 1.698 (Simulation time: 00 hr 25 min 16 sec)
Heartbeat CPU 0 instructions: 226501217 cycles: 114402524 heartbeat IPC: 1.802 cumulative IPC: 1.699 (Simulation time: 00 hr 25 min 19 sec)
Heartbeat CPU 0 instructions: 227001218 cycles: 114631048 heartbeat IPC: 2.188 cumulative IPC: 1.7 (Simulation time: 00 hr 25 min 23 sec)
Heartbeat CPU 0 instructions: 227501219 cycles: 114898340 heartbeat IPC: 1.871 cumulative IPC: 1.7 (Simulation time: 00 hr 25 min 26 sec)
Heartbeat CPU 0 instructions: 228001223 cycles: 115262698 heartbeat IPC: 1.372 cumulative IPC: 1.699 (Simulation time: 00 hr 25 min 31 sec)
Heartbeat CPU 0 instructions: 228501227 cycles: 115569247 heartbeat IPC: 1.631 cumulative IPC: 1.699 (Simulation time: 00 hr 25 min 35 sec)
Heartbeat CPU 0 instructions: 229001232 cycles: 115859314 heartbeat IPC: 1.724 cumulative IPC: 1.699 (Simulation time: 00 hr 25 min 38 sec)
Heartbeat CPU 0 instructions: 229501232 cycles: 116794908 heartbeat IPC: 0.5344 cumulative IPC: 1.689 (Simulation time: 00 hr 25 min 52 sec)
Heartbeat CPU 0 instructions: 230001233 cycles: 116951161 heartbeat IPC: 3.2 cumulative IPC: 1.691 (Simulation time: 00 hr 25 min 55 sec)
Heartbeat CPU 0 instructions: 230501236 cycles: 117107415 heartbeat IPC: 3.2 cumulative IPC: 1.693 (Simulation time: 00 hr 25 min 57 sec)
Heartbeat CPU 0 instructions: 231001240 cycles: 117263661 heartbeat IPC: 3.2 cumulative IPC: 1.695 (Simulation time: 00 hr 25 min 59 sec)
Heartbeat CPU 0 instructions: 231501242 cycles: 117419912 heartbeat IPC: 3.2 cumulative IPC: 1.697 (Simulation time: 00 hr 26 min 02 sec)
Heartbeat CPU 0 instructions: 232001243 cycles: 117576165 heartbeat IPC: 3.2 cumulative IPC: 1.7 (Simulation time: 00 hr 26 min 04 sec)
Heartbeat CPU 0 instructions: 232501248 cycles: 117734162 heartbeat IPC: 3.165 cumulative IPC: 1.702 (Simulation time: 00 hr 26 min 06 sec)
Heartbeat CPU 0 instructions: 233001250 cycles: 117890413 heartbeat IPC: 3.2 cumulative IPC: 1.704 (Simulation time: 00 hr 26 min 09 sec)
Heartbeat CPU 0 instructions: 233501251 cycles: 118046666 heartbeat IPC: 3.2 cumulative IPC: 1.706 (Simulation time: 00 hr 26 min 11 sec)
Heartbeat CPU 0 instructions: 234001251 cycles: 118419381 heartbeat IPC: 1.342 cumulative IPC: 1.705 (Simulation time: 00 hr 26 min 15 sec)
Heartbeat CPU 0 instructions: 234501258 cycles: 118683851 heartbeat IPC: 1.891 cumulative IPC: 1.705 (Simulation time: 00 hr 26 min 19 sec)
Heartbeat CPU 0 instructions: 235001261 cycles: 119008625 heartbeat IPC: 1.54 cumulative IPC: 1.705 (Simulation time: 00 hr 26 min 22 sec)
Heartbeat CPU 0 instructions: 235501262 cycles: 119281252 heartbeat IPC: 1.834 cumulative IPC: 1.705 (Simulation time: 00 hr 26 min 26 sec)
Heartbeat CPU 0 instructions: 236001262 cycles: 119583641 heartbeat IPC: 1.653 cumulative IPC: 1.705 (Simulation time: 00 hr 26 min 29 sec)
Heartbeat CPU 0 instructions: 236501263 cycles: 119887655 heartbeat IPC: 1.645 cumulative IPC: 1.705 (Simulation time: 00 hr 26 min 32 sec)
Heartbeat CPU 0 instructions: 237001267 cycles: 120165005 heartbeat IPC: 1.803 cumulative IPC: 1.705 (Simulation time: 00 hr 26 min 36 sec)
Heartbeat CPU 0 instructions: 237501267 cycles: 120431256 heartbeat IPC: 1.878 cumulative IPC: 1.706 (Simulation time: 00 hr 26 min 39 sec)
Heartbeat CPU 0 instructions: 238001267 cycles: 120699117 heartbeat IPC: 1.867 cumulative IPC: 1.706 (Simulation time: 00 hr 26 min 43 sec)
Heartbeat CPU 0 instructions: 238501268 cycles: 120980511 heartbeat IPC: 1.777 cumulative IPC: 1.706 (Simulation time: 00 hr 26 min 46 sec)
Heartbeat CPU 0 instructions: 239001275 cycles: 121247127 heartbeat IPC: 1.875 cumulative IPC: 1.706 (Simulation time: 00 hr 26 min 50 sec)
Heartbeat CPU 0 instructions: 239501276 cycles: 121564378 heartbeat IPC: 1.576 cumulative IPC: 1.706 (Simulation time: 00 hr 26 min 54 sec)
Heartbeat CPU 0 instructions: 240001277 cycles: 121896623 heartbeat IPC: 1.505 cumulative IPC: 1.706 (Simulation time: 00 hr 26 min 57 sec)
Heartbeat CPU 0 instructions: 240501278 cycles: 122232587 heartbeat IPC: 1.488 cumulative IPC: 1.705 (Simulation time: 00 hr 27 min 01 sec)
Heartbeat CPU 0 instructions: 241001278 cycles: 122505478 heartbeat IPC: 1.832 cumulative IPC: 1.705 (Simulation time: 00 hr 27 min 04 sec)
Heartbeat CPU 0 instructions: 241501278 cycles: 122815219 heartbeat IPC: 1.614 cumulative IPC: 1.705 (Simulation time: 00 hr 27 min 08 sec)
Heartbeat CPU 0 instructions: 242001285 cycles: 123114417 heartbeat IPC: 1.671 cumulative IPC: 1.705 (Simulation time: 00 hr 27 min 12 sec)
Heartbeat CPU 0 instructions: 242501286 cycles: 123383696 heartbeat IPC: 1.857 cumulative IPC: 1.705 (Simulation time: 00 hr 27 min 15 sec)
Heartbeat CPU 0 instructions: 243001286 cycles: 123654998 heartbeat IPC: 1.843 cumulative IPC: 1.706 (Simulation time: 00 hr 27 min 18 sec)
Heartbeat CPU 0 instructions: 243501291 cycles: 123917206 heartbeat IPC: 1.907 cumulative IPC: 1.706 (Simulation time: 00 hr 27 min 22 sec)
Heartbeat CPU 0 instructions: 244001296 cycles: 124509134 heartbeat IPC: 0.8447 cumulative IPC: 1.702 (Simulation time: 00 hr 27 min 27 sec)
Heartbeat CPU 0 instructions: 244501300 cycles: 124846763 heartbeat IPC: 1.481 cumulative IPC: 1.701 (Simulation time: 00 hr 27 min 31 sec)
Heartbeat CPU 0 instructions: 245001307 cycles: 125137610 heartbeat IPC: 1.719 cumulative IPC: 1.701 (Simulation time: 00 hr 27 min 34 sec)
Heartbeat CPU 0 instructions: 245501310 cycles: 125418094 heartbeat IPC: 1.783 cumulative IPC: 1.701 (Simulation time: 00 hr 27 min 38 sec)
Heartbeat CPU 0 instructions: 246001315 cycles: 125675640 heartbeat IPC: 1.941 cumulative IPC: 1.702 (Simulation time: 00 hr 27 min 41 sec)
Heartbeat CPU 0 instructions: 246501319 cycles: 125967024 heartbeat IPC: 1.716 cumulative IPC: 1.702 (Simulation time: 00 hr 27 min 44 sec)
Heartbeat CPU 0 instructions: 247001321 cycles: 126252602 heartbeat IPC: 1.751 cumulative IPC: 1.702 (Simulation time: 00 hr 27 min 48 sec)
Heartbeat CPU 0 instructions: 247501322 cycles: 126512836 heartbeat IPC: 1.921 cumulative IPC: 1.702 (Simulation time: 00 hr 27 min 51 sec)
Heartbeat CPU 0 instructions: 248001328 cycles: 126797830 heartbeat IPC: 1.754 cumulative IPC: 1.702 (Simulation time: 00 hr 27 min 54 sec)
Heartbeat CPU 0 instructions: 248501328 cycles: 127087454 heartbeat IPC: 1.726 cumulative IPC: 1.702 (Simulation time: 00 hr 27 min 57 sec)
Heartbeat CPU 0 instructions: 249001330 cycles: 127376034 heartbeat IPC: 1.733 cumulative IPC: 1.703 (Simulation time: 00 hr 28 min 01 sec)
Heartbeat CPU 0 instructions: 249501330 cycles: 127680649 heartbeat IPC: 1.641 cumulative IPC: 1.702 (Simulation time: 00 hr 28 min 04 sec)
Simulation finished CPU 0 instructions: 200000000 cycles: 117509021 cumulative IPC: 1.702 (Simulation time: 00 hr 28 min 07 sec)
Simulation complete CPU 0 instructions: 200000000 cycles: 117509021 cumulative IPC: 1.702 (Simulation time: 00 hr 28 min 07 sec)

ChampSim completed all CPUs

=== Simulation ===
CPU 0 runs /local-ssd/ben/dpc4-traces/gtraces_v2/arizona_0000.champsim.gz

Region of Interest Statistics

CPU 0 cumulative IPC: 1.702 instructions: 200000000 cycles: 117509021
CPU 0 Branch Prediction Accuracy: 95.83% MPKI: 6.843 Average ROB Occupancy at Mispredict: 41.02
Branch type MPKI
BRANCH_DIRECT_JUMP: 0.05195
BRANCH_INDIRECT: 0.1514
BRANCH_CONDITIONAL: 6.607
BRANCH_DIRECT_CALL: 0.01005
BRANCH_INDIRECT_CALL: 0.00441
BRANCH_RETURN: 0.01804

cpu0->cpu0_STLB TOTAL        ACCESS:     247338 HIT:     195900 MISS:      51438 MSHR_MERGE:          0
cpu0->cpu0_STLB LOAD         ACCESS:     247338 HIT:     195900 MISS:      51438 MSHR_MERGE:          0
cpu0->cpu0_STLB RFO          ACCESS:          0 HIT:          0 MISS:          0 MSHR_MERGE:          0
cpu0->cpu0_STLB PREFETCH     ACCESS:          0 HIT:          0 MISS:          0 MSHR_MERGE:          0
cpu0->cpu0_STLB WRITE        ACCESS:          0 HIT:          0 MISS:          0 MSHR_MERGE:          0
cpu0->cpu0_STLB TRANSLATION  ACCESS:          0 HIT:          0 MISS:          0 MSHR_MERGE:          0
cpu0->cpu0_STLB PREFETCH REQUESTED:          0 ISSUED:          0 USEFUL:          0 USELESS:          0
cpu0->cpu0_STLB AVERAGE MISS LATENCY: 318.1 cycles
cpu0->cpu0_L2C TOTAL        ACCESS:    5678742 HIT:    3955210 MISS:    1723532 MSHR_MERGE:     531971
cpu0->cpu0_L2C LOAD         ACCESS:     507073 HIT:     311842 MISS:     195231 MSHR_MERGE:      67144
cpu0->cpu0_L2C RFO          ACCESS:     529967 HIT:      72011 MISS:     457956 MSHR_MERGE:        594
cpu0->cpu0_L2C PREFETCH     ACCESS:    4019742 HIT:    2982270 MISS:    1037472 MSHR_MERGE:     464233
cpu0->cpu0_L2C WRITE        ACCESS:     572428 HIT:     572391 MISS:         37 MSHR_MERGE:          0
cpu0->cpu0_L2C TRANSLATION  ACCESS:      49532 HIT:      16696 MISS:      32836 MSHR_MERGE:          0
cpu0->cpu0_L2C PREFETCH REQUESTED:    3710578 ISSUED:    3453078 USEFUL:     354190 USELESS:     122796
cpu0->cpu0_L2C AVERAGE MISS LATENCY: 300.9 cycles
cpu0->cpu0_L1I TOTAL        ACCESS:   19820255 HIT:   19768232 MISS:      52023 MSHR_MERGE:      10810
cpu0->cpu0_L1I LOAD         ACCESS:   19820255 HIT:   19768232 MISS:      52023 MSHR_MERGE:      10810
cpu0->cpu0_L1I RFO          ACCESS:          0 HIT:          0 MISS:          0 MSHR_MERGE:          0
cpu0->cpu0_L1I PREFETCH     ACCESS:          0 HIT:          0 MISS:          0 MSHR_MERGE:          0
cpu0->cpu0_L1I WRITE        ACCESS:          0 HIT:          0 MISS:          0 MSHR_MERGE:          0
cpu0->cpu0_L1I TRANSLATION  ACCESS:          0 HIT:          0 MISS:          0 MSHR_MERGE:          0
cpu0->cpu0_L1I PREFETCH REQUESTED:          0 ISSUED:          0 USEFUL:          0 USELESS:          0
cpu0->cpu0_L1I AVERAGE MISS LATENCY: 230.8 cycles
cpu0->cpu0_L1D TOTAL        ACCESS:   59016879 HIT:   55952328 MISS:    3064551 MSHR_MERGE:    1452473
cpu0->cpu0_L1D LOAD         ACCESS:   32854169 HIT:   32268894 MISS:     585275 MSHR_MERGE:     119412
cpu0->cpu0_L1D RFO          ACCESS:          0 HIT:          0 MISS:          0 MSHR_MERGE:          0
cpu0->cpu0_L1D PREFETCH     ACCESS:    1658053 HIT:    1043242 MISS:     614811 MSHR_MERGE:      48146
cpu0->cpu0_L1D WRITE        ACCESS:   24374674 HIT:   22560641 MISS:    1814033 MSHR_MERGE:    1284015
cpu0->cpu0_L1D TRANSLATION  ACCESS:     129983 HIT:      79551 MISS:      50432 MSHR_MERGE:        900
cpu0->cpu0_L1D PREFETCH REQUESTED:   28000156 ISSUED:    1658045 USEFUL:     331962 USELESS:     234635
cpu0->cpu0_L1D AVERAGE MISS LATENCY: 196 cycles
cpu0->cpu0_ITLB TOTAL        ACCESS:   17335045 HIT:   17325216 MISS:       9829 MSHR_MERGE:       4621
cpu0->cpu0_ITLB LOAD         ACCESS:   17335045 HIT:   17325216 MISS:       9829 MSHR_MERGE:       4621
cpu0->cpu0_ITLB RFO          ACCESS:          0 HIT:          0 MISS:          0 MSHR_MERGE:          0
cpu0->cpu0_ITLB PREFETCH     ACCESS:          0 HIT:          0 MISS:          0 MSHR_MERGE:          0
cpu0->cpu0_ITLB WRITE        ACCESS:          0 HIT:          0 MISS:          0 MSHR_MERGE:          0
cpu0->cpu0_ITLB TRANSLATION  ACCESS:          0 HIT:          0 MISS:          0 MSHR_MERGE:          0
cpu0->cpu0_ITLB PREFETCH REQUESTED:          0 ISSUED:          0 USEFUL:          0 USELESS:          0
cpu0->cpu0_ITLB AVERAGE MISS LATENCY: 141.5 cycles
cpu0->cpu0_DTLB TOTAL        ACCESS:   54073313 HIT:   53668499 MISS:     404814 MSHR_MERGE:     162684
cpu0->cpu0_DTLB LOAD         ACCESS:   54073313 HIT:   53668499 MISS:     404814 MSHR_MERGE:     162684
cpu0->cpu0_DTLB RFO          ACCESS:          0 HIT:          0 MISS:          0 MSHR_MERGE:          0
cpu0->cpu0_DTLB PREFETCH     ACCESS:          0 HIT:          0 MISS:          0 MSHR_MERGE:          0
cpu0->cpu0_DTLB WRITE        ACCESS:          0 HIT:          0 MISS:          0 MSHR_MERGE:          0
cpu0->cpu0_DTLB TRANSLATION  ACCESS:          0 HIT:          0 MISS:          0 MSHR_MERGE:          0
cpu0->cpu0_DTLB PREFETCH REQUESTED:          0 ISSUED:          0 USEFUL:          0 USELESS:          0
cpu0->cpu0_DTLB AVERAGE MISS LATENCY: 69.86 cycles
cpu0->LLC TOTAL        ACCESS:    2274242 HIT:     395754 MISS:    1878488 MSHR_MERGE:     131383
cpu0->LLC LOAD         ACCESS:     128087 HIT:      26734 MISS:     101353 MSHR_MERGE:       7944
cpu0->LLC RFO          ACCESS:     457362 HIT:      17321 MISS:     440041 MSHR_MERGE:        213
cpu0->LLC PREFETCH     ACCESS:    1148003 HIT:     273764 MISS:     874239 MSHR_MERGE:     123226
cpu0->LLC WRITE        ACCESS:     507954 HIT:      77478 MISS:     430476 MSHR_MERGE:          0
cpu0->LLC TRANSLATION  ACCESS:      32836 HIT:        457 MISS:      32379 MSHR_MERGE:          0
cpu0->LLC PREFETCH REQUESTED:     593875 ISSUED:     574764 USEFUL:     231761 USELESS:     222138
cpu0->LLC AVERAGE MISS LATENCY: 179.6 cycles

DRAM Statistics

Channel 0 RQ ROW_BUFFER_HIT:      93021
  ROW_BUFFER_MISS:    1223562
  AVG DBUS CONGESTED CYCLE: 14.79
Channel 0 WQ ROW_BUFFER_HIT:      65953
  ROW_BUFFER_MISS:     434575
  FULL:      19626
Channel 0 REFRESHES ISSUED:       9792
