[VMEM] WARNING: physical memory size is smaller than virtual memory size.

*** ChampSim Multicore Out-of-Order Simulator ***
Warmup Instructions: 50000000
Simulation Instructions: 200000000
Number of CPUs: 1
Page size: 4096
Core 0: /local-ssd/ben/dpc4-traces/SPEC17/602.gcc_s-1850B.champsimtrace.xz
sBerti (Smart Stride + Berti) Prefetcher Initialized
Off-chip DRAM Size: 64 GiB Channels: 1 Width: 64-bit Data Rate: 4807 MT/s
Heartbeat CPU 0 instructions: 500002 cycles: 120968 heartbeat IPC: 4.133 cumulative IPC: 4.133 (Simulation time: 00 hr 00 min 04 sec)
Heartbeat CPU 0 instructions: 1000009 cycles: 236144 heartbeat IPC: 4.341 cumulative IPC: 4.235 (Simulation time: 00 hr 00 min 07 sec)
Heartbeat CPU 0 instructions: 1500013 cycles: 352447 heartbeat IPC: 4.299 cumulative IPC: 4.256 (Simulation time: 00 hr 00 min 11 sec)
Heartbeat CPU 0 instructions: 2000016 cycles: 467157 heartbeat IPC: 4.359 cumulative IPC: 4.281 (Simulation time: 00 hr 00 min 14 sec)
Heartbeat CPU 0 instructions: 2500023 cycles: 581802 heartbeat IPC: 4.361 cumulative IPC: 4.297 (Simulation time: 00 hr 00 min 17 sec)
Heartbeat CPU 0 instructions: 3000030 cycles: 698068 heartbeat IPC: 4.301 cumulative IPC: 4.298 (Simulation time: 00 hr 00 min 20 sec)
Heartbeat CPU 0 instructions: 3500034 cycles: 813345 heartbeat IPC: 4.337 cumulative IPC: 4.303 (Simulation time: 00 hr 00 min 23 sec)
Heartbeat CPU 0 instructions: 4000034 cycles: 928110 heartbeat IPC: 4.357 cumulative IPC: 4.31 (Simulation time: 00 hr 00 min 27 sec)
Heartbeat CPU 0 instructions: 4500040 cycles: 1042828 heartbeat IPC: 4.359 cumulative IPC: 4.315 (Simulation time: 00 hr 00 min 30 sec)
Heartbeat CPU 0 instructions: 5000043 cycles: 1157686 heartbeat IPC: 4.353 cumulative IPC: 4.319 (Simulation time: 00 hr 00 min 33 sec)
Heartbeat CPU 0 instructions: 5500044 cycles: 1272199 heartbeat IPC: 4.366 cumulative IPC: 4.323 (Simulation time: 00 hr 00 min 36 sec)
Heartbeat CPU 0 instructions: 6000049 cycles: 1389579 heartbeat IPC: 4.26 cumulative IPC: 4.318 (Simulation time: 00 hr 00 min 39 sec)
Heartbeat CPU 0 instructions: 6500049 cycles: 1503807 heartbeat IPC: 4.377 cumulative IPC: 4.322 (Simulation time: 00 hr 00 min 43 sec)
Heartbeat CPU 0 instructions: 7000055 cycles: 1618687 heartbeat IPC: 4.352 cumulative IPC: 4.325 (Simulation time: 00 hr 00 min 46 sec)
Heartbeat CPU 0 instructions: 7500057 cycles: 1733424 heartbeat IPC: 4.358 cumulative IPC: 4.327 (Simulation time: 00 hr 00 min 49 sec)
Heartbeat CPU 0 instructions: 8000060 cycles: 1848298 heartbeat IPC: 4.353 cumulative IPC: 4.328 (Simulation time: 00 hr 00 min 52 sec)
Heartbeat CPU 0 instructions: 8500062 cycles: 1962847 heartbeat IPC: 4.365 cumulative IPC: 4.33 (Simulation time: 00 hr 00 min 55 sec)
Heartbeat CPU 0 instructions: 9000065 cycles: 2077149 heartbeat IPC: 4.374 cumulative IPC: 4.333 (Simulation time: 00 hr 00 min 58 sec)
Heartbeat CPU 0 instructions: 9500069 cycles: 2190793 heartbeat IPC: 4.4 cumulative IPC: 4.336 (Simulation time: 00 hr 01 min 02 sec)
Heartbeat CPU 0 instructions: 10000070 cycles: 2306267 heartbeat IPC: 4.33 cumulative IPC: 4.336 (Simulation time: 00 hr 01 min 05 sec)
Heartbeat CPU 0 instructions: 10500072 cycles: 2421485 heartbeat IPC: 4.34 cumulative IPC: 4.336 (Simulation time: 00 hr 01 min 08 sec)
Heartbeat CPU 0 instructions: 11000072 cycles: 2536071 heartbeat IPC: 4.364 cumulative IPC: 4.337 (Simulation time: 00 hr 01 min 11 sec)
Heartbeat CPU 0 instructions: 11500075 cycles: 2651729 heartbeat IPC: 4.323 cumulative IPC: 4.337 (Simulation time: 00 hr 01 min 14 sec)
Heartbeat CPU 0 instructions: 12000080 cycles: 2767032 heartbeat IPC: 4.336 cumulative IPC: 4.337 (Simulation time: 00 hr 01 min 17 sec)
Heartbeat CPU 0 instructions: 12500081 cycles: 2883106 heartbeat IPC: 4.308 cumulative IPC: 4.336 (Simulation time: 00 hr 01 min 21 sec)
Heartbeat CPU 0 instructions: 13000083 cycles: 2997677 heartbeat IPC: 4.364 cumulative IPC: 4.337 (Simulation time: 00 hr 01 min 24 sec)
Heartbeat CPU 0 instructions: 13500090 cycles: 3114387 heartbeat IPC: 4.284 cumulative IPC: 4.335 (Simulation time: 00 hr 01 min 27 sec)
Heartbeat CPU 0 instructions: 14000092 cycles: 3228670 heartbeat IPC: 4.375 cumulative IPC: 4.336 (Simulation time: 00 hr 01 min 30 sec)
Heartbeat CPU 0 instructions: 14500095 cycles: 3344544 heartbeat IPC: 4.315 cumulative IPC: 4.335 (Simulation time: 00 hr 01 min 33 sec)
Heartbeat CPU 0 instructions: 15000097 cycles: 3459323 heartbeat IPC: 4.356 cumulative IPC: 4.336 (Simulation time: 00 hr 01 min 37 sec)
Heartbeat CPU 0 instructions: 15500099 cycles: 3573349 heartbeat IPC: 4.385 cumulative IPC: 4.338 (Simulation time: 00 hr 01 min 40 sec)
Heartbeat CPU 0 instructions: 16000100 cycles: 3689318 heartbeat IPC: 4.312 cumulative IPC: 4.337 (Simulation time: 00 hr 01 min 43 sec)
Heartbeat CPU 0 instructions: 16500100 cycles: 3803288 heartbeat IPC: 4.387 cumulative IPC: 4.338 (Simulation time: 00 hr 01 min 46 sec)
Heartbeat CPU 0 instructions: 17000103 cycles: 3918293 heartbeat IPC: 4.348 cumulative IPC: 4.339 (Simulation time: 00 hr 01 min 49 sec)
Heartbeat CPU 0 instructions: 17500108 cycles: 4033455 heartbeat IPC: 4.342 cumulative IPC: 4.339 (Simulation time: 00 hr 01 min 53 sec)
Heartbeat CPU 0 instructions: 18000108 cycles: 4148251 heartbeat IPC: 4.356 cumulative IPC: 4.339 (Simulation time: 00 hr 01 min 56 sec)
Heartbeat CPU 0 instructions: 18500114 cycles: 4262420 heartbeat IPC: 4.38 cumulative IPC: 4.34 (Simulation time: 00 hr 01 min 59 sec)
Heartbeat CPU 0 instructions: 19000117 cycles: 4376829 heartbeat IPC: 4.37 cumulative IPC: 4.341 (Simulation time: 00 hr 02 min 02 sec)
Heartbeat CPU 0 instructions: 19500121 cycles: 4491110 heartbeat IPC: 4.375 cumulative IPC: 4.342 (Simulation time: 00 hr 02 min 05 sec)
Heartbeat CPU 0 instructions: 20000121 cycles: 4605135 heartbeat IPC: 4.385 cumulative IPC: 4.343 (Simulation time: 00 hr 02 min 09 sec)
Heartbeat CPU 0 instructions: 20500127 cycles: 4719430 heartbeat IPC: 4.375 cumulative IPC: 4.344 (Simulation time: 00 hr 02 min 12 sec)
Heartbeat CPU 0 instructions: 21000128 cycles: 4834672 heartbeat IPC: 4.339 cumulative IPC: 4.344 (Simulation time: 00 hr 02 min 15 sec)
Heartbeat CPU 0 instructions: 21500135 cycles: 4948827 heartbeat IPC: 4.38 cumulative IPC: 4.344 (Simulation time: 00 hr 02 min 18 sec)
Heartbeat CPU 0 instructions: 22000135 cycles: 5063030 heartbeat IPC: 4.378 cumulative IPC: 4.345 (Simulation time: 00 hr 02 min 21 sec)
Heartbeat CPU 0 instructions: 22500138 cycles: 5177241 heartbeat IPC: 4.378 cumulative IPC: 4.346 (Simulation time: 00 hr 02 min 24 sec)
Heartbeat CPU 0 instructions: 23000145 cycles: 5291338 heartbeat IPC: 4.382 cumulative IPC: 4.347 (Simulation time: 00 hr 02 min 28 sec)
Heartbeat CPU 0 instructions: 23500150 cycles: 5404981 heartbeat IPC: 4.4 cumulative IPC: 4.348 (Simulation time: 00 hr 02 min 31 sec)
Heartbeat CPU 0 instructions: 24000154 cycles: 5518828 heartbeat IPC: 4.392 cumulative IPC: 4.349 (Simulation time: 00 hr 02 min 34 sec)
Heartbeat CPU 0 instructions: 24500156 cycles: 5633199 heartbeat IPC: 4.372 cumulative IPC: 4.349 (Simulation time: 00 hr 02 min 37 sec)
Heartbeat CPU 0 instructions: 25000156 cycles: 5747615 heartbeat IPC: 4.37 cumulative IPC: 4.35 (Simulation time: 00 hr 02 min 40 sec)
Heartbeat CPU 0 instructions: 25500159 cycles: 5863874 heartbeat IPC: 4.301 cumulative IPC: 4.349 (Simulation time: 00 hr 02 min 44 sec)
Heartbeat CPU 0 instructions: 26000164 cycles: 5979836 heartbeat IPC: 4.312 cumulative IPC: 4.348 (Simulation time: 00 hr 02 min 47 sec)
Heartbeat CPU 0 instructions: 26500168 cycles: 6095105 heartbeat IPC: 4.338 cumulative IPC: 4.348 (Simulation time: 00 hr 02 min 50 sec)
Heartbeat CPU 0 instructions: 27000175 cycles: 6211125 heartbeat IPC: 4.31 cumulative IPC: 4.347 (Simulation time: 00 hr 02 min 53 sec)
Heartbeat CPU 0 instructions: 27500179 cycles: 6328328 heartbeat IPC: 4.266 cumulative IPC: 4.346 (Simulation time: 00 hr 02 min 56 sec)
Heartbeat CPU 0 instructions: 28000181 cycles: 6445697 heartbeat IPC: 4.26 cumulative IPC: 4.344 (Simulation time: 00 hr 03 min 00 sec)
Heartbeat CPU 0 instructions: 28500186 cycles: 6561155 heartbeat IPC: 4.331 cumulative IPC: 4.344 (Simulation time: 00 hr 03 min 03 sec)
Heartbeat CPU 0 instructions: 29000188 cycles: 6676649 heartbeat IPC: 4.329 cumulative IPC: 4.344 (Simulation time: 00 hr 03 min 06 sec)
Heartbeat CPU 0 instructions: 29500195 cycles: 6792282 heartbeat IPC: 4.324 cumulative IPC: 4.343 (Simulation time: 00 hr 03 min 09 sec)
Heartbeat CPU 0 instructions: 30000197 cycles: 6908439 heartbeat IPC: 4.305 cumulative IPC: 4.343 (Simulation time: 00 hr 03 min 13 sec)
Heartbeat CPU 0 instructions: 30500204 cycles: 7024238 heartbeat IPC: 4.318 cumulative IPC: 4.342 (Simulation time: 00 hr 03 min 16 sec)
Heartbeat CPU 0 instructions: 31000211 cycles: 7139347 heartbeat IPC: 4.344 cumulative IPC: 4.342 (Simulation time: 00 hr 03 min 19 sec)
Heartbeat CPU 0 instructions: 31500211 cycles: 7255501 heartbeat IPC: 4.305 cumulative IPC: 4.342 (Simulation time: 00 hr 03 min 22 sec)
Heartbeat CPU 0 instructions: 32000211 cycles: 7370054 heartbeat IPC: 4.365 cumulative IPC: 4.342 (Simulation time: 00 hr 03 min 25 sec)
Heartbeat CPU 0 instructions: 32500214 cycles: 7486204 heartbeat IPC: 4.305 cumulative IPC: 4.341 (Simulation time: 00 hr 03 min 29 sec)
Heartbeat CPU 0 instructions: 33000218 cycles: 7602005 heartbeat IPC: 4.318 cumulative IPC: 4.341 (Simulation time: 00 hr 03 min 32 sec)
Heartbeat CPU 0 instructions: 33500220 cycles: 7716564 heartbeat IPC: 4.365 cumulative IPC: 4.341 (Simulation time: 00 hr 03 min 35 sec)
Heartbeat CPU 0 instructions: 34000225 cycles: 7833064 heartbeat IPC: 4.292 cumulative IPC: 4.341 (Simulation time: 00 hr 03 min 38 sec)
Heartbeat CPU 0 instructions: 34500227 cycles: 7948916 heartbeat IPC: 4.316 cumulative IPC: 4.34 (Simulation time: 00 hr 03 min 41 sec)
Heartbeat CPU 0 instructions: 35000233 cycles: 8064231 heartbeat IPC: 4.336 cumulative IPC: 4.34 (Simulation time: 00 hr 03 min 45 sec)
Heartbeat CPU 0 instructions: 35500239 cycles: 8178945 heartbeat IPC: 4.359 cumulative IPC: 4.34 (Simulation time: 00 hr 03 min 48 sec)
Heartbeat CPU 0 instructions: 36000239 cycles: 8293171 heartbeat IPC: 4.377 cumulative IPC: 4.341 (Simulation time: 00 hr 03 min 51 sec)
Heartbeat CPU 0 instructions: 36500244 cycles: 8409019 heartbeat IPC: 4.316 cumulative IPC: 4.341 (Simulation time: 00 hr 03 min 54 sec)
Heartbeat CPU 0 instructions: 37000246 cycles: 8525160 heartbeat IPC: 4.305 cumulative IPC: 4.34 (Simulation time: 00 hr 03 min 57 sec)
Heartbeat CPU 0 instructions: 37500250 cycles: 8641547 heartbeat IPC: 4.296 cumulative IPC: 4.34 (Simulation time: 00 hr 04 min 01 sec)
Heartbeat CPU 0 instructions: 38000255 cycles: 8756073 heartbeat IPC: 4.366 cumulative IPC: 4.34 (Simulation time: 00 hr 04 min 04 sec)
Heartbeat CPU 0 instructions: 38500261 cycles: 8870607 heartbeat IPC: 4.366 cumulative IPC: 4.34 (Simulation time: 00 hr 04 min 07 sec)
Heartbeat CPU 0 instructions: 39000268 cycles: 8984596 heartbeat IPC: 4.386 cumulative IPC: 4.341 (Simulation time: 00 hr 04 min 10 sec)
Heartbeat CPU 0 instructions: 39500275 cycles: 9099209 heartbeat IPC: 4.363 cumulative IPC: 4.341 (Simulation time: 00 hr 04 min 13 sec)
Heartbeat CPU 0 instructions: 40000275 cycles: 9213231 heartbeat IPC: 4.385 cumulative IPC: 4.342 (Simulation time: 00 hr 04 min 17 sec)
Heartbeat CPU 0 instructions: 40500276 cycles: 9327074 heartbeat IPC: 4.392 cumulative IPC: 4.342 (Simulation time: 00 hr 04 min 20 sec)
Heartbeat CPU 0 instructions: 41000280 cycles: 9441358 heartbeat IPC: 4.375 cumulative IPC: 4.343 (Simulation time: 00 hr 04 min 23 sec)
Heartbeat CPU 0 instructions: 41500283 cycles: 9555213 heartbeat IPC: 4.392 cumulative IPC: 4.343 (Simulation time: 00 hr 04 min 26 sec)
Heartbeat CPU 0 instructions: 42000285 cycles: 9669458 heartbeat IPC: 4.377 cumulative IPC: 4.344 (Simulation time: 00 hr 04 min 29 sec)
Heartbeat CPU 0 instructions: 42500290 cycles: 9783850 heartbeat IPC: 4.371 cumulative IPC: 4.344 (Simulation time: 00 hr 04 min 32 sec)
Heartbeat CPU 0 instructions: 43000292 cycles: 9898886 heartbeat IPC: 4.346 cumulative IPC: 4.344 (Simulation time: 00 hr 04 min 36 sec)
Heartbeat CPU 0 instructions: 43500293 cycles: 10013544 heartbeat IPC: 4.361 cumulative IPC: 4.344 (Simulation time: 00 hr 04 min 39 sec)
Heartbeat CPU 0 instructions: 44000294 cycles: 10129055 heartbeat IPC: 4.329 cumulative IPC: 4.344 (Simulation time: 00 hr 04 min 42 sec)
Heartbeat CPU 0 instructions: 44500295 cycles: 10244125 heartbeat IPC: 4.345 cumulative IPC: 4.344 (Simulation time: 00 hr 04 min 45 sec)
Heartbeat CPU 0 instructions: 45000302 cycles: 10358811 heartbeat IPC: 4.36 cumulative IPC: 4.344 (Simulation time: 00 hr 04 min 48 sec)
Heartbeat CPU 0 instructions: 45500307 cycles: 10472943 heartbeat IPC: 4.381 cumulative IPC: 4.345 (Simulation time: 00 hr 04 min 52 sec)
Heartbeat CPU 0 instructions: 46000308 cycles: 10587454 heartbeat IPC: 4.366 cumulative IPC: 4.345 (Simulation time: 00 hr 04 min 55 sec)
Heartbeat CPU 0 instructions: 46500315 cycles: 10702269 heartbeat IPC: 4.355 cumulative IPC: 4.345 (Simulation time: 00 hr 04 min 58 sec)
Heartbeat CPU 0 instructions: 47000320 cycles: 10817435 heartbeat IPC: 4.342 cumulative IPC: 4.345 (Simulation time: 00 hr 05 min 01 sec)
Heartbeat CPU 0 instructions: 47500323 cycles: 10931831 heartbeat IPC: 4.371 cumulative IPC: 4.345 (Simulation time: 00 hr 05 min 04 sec)
Heartbeat CPU 0 instructions: 48000330 cycles: 11048213 heartbeat IPC: 4.296 cumulative IPC: 4.345 (Simulation time: 00 hr 05 min 07 sec)
Heartbeat CPU 0 instructions: 48500334 cycles: 11164482 heartbeat IPC: 4.3 cumulative IPC: 4.344 (Simulation time: 00 hr 05 min 11 sec)
Heartbeat CPU 0 instructions: 49000340 cycles: 11279449 heartbeat IPC: 4.349 cumulative IPC: 4.344 (Simulation time: 00 hr 05 min 14 sec)
Heartbeat CPU 0 instructions: 49500342 cycles: 11394536 heartbeat IPC: 4.345 cumulative IPC: 4.344 (Simulation time: 00 hr 05 min 17 sec)
Warmup halting CPU 0 at instruction 50000001 cycle 11509468 for remainder of phase
Warmup finished CPU 0 instructions: 50000001 cycles: 11509468 cumulative IPC: 4.344 (Simulation time: 00 hr 05 min 20 sec)
Warmup complete CPU 0 instructions: 50000001 cycles: 11509468 cumulative IPC: 4.344 (Simulation time: 00 hr 05 min 20 sec)
Heartbeat CPU 0 instructions: 50000345 cycles: 11509512 heartbeat IPC: 4.349 cumulative IPC: 7.818 (Simulation time: 00 hr 05 min 20 sec)
Heartbeat CPU 0 instructions: 50500348 cycles: 11856005 heartbeat IPC: 1.443 cumulative IPC: 1.444 (Simulation time: 00 hr 05 min 26 sec)
Heartbeat CPU 0 instructions: 51000348 cycles: 12216253 heartbeat IPC: 1.388 cumulative IPC: 1.415 (Simulation time: 00 hr 05 min 32 sec)
Heartbeat CPU 0 instructions: 51500353 cycles: 12563634 heartbeat IPC: 1.439 cumulative IPC: 1.423 (Simulation time: 00 hr 05 min 38 sec)
Heartbeat CPU 0 instructions: 52000357 cycles: 12921929 heartbeat IPC: 1.396 cumulative IPC: 1.416 (Simulation time: 00 hr 05 min 43 sec)
Heartbeat CPU 0 instructions: 52500360 cycles: 13265909 heartbeat IPC: 1.454 cumulative IPC: 1.424 (Simulation time: 00 hr 05 min 49 sec)
Heartbeat CPU 0 instructions: 53000360 cycles: 13622422 heartbeat IPC: 1.402 cumulative IPC: 1.42 (Simulation time: 00 hr 05 min 55 sec)
Heartbeat CPU 0 instructions: 53500361 cycles: 13973686 heartbeat IPC: 1.423 cumulative IPC: 1.42 (Simulation time: 00 hr 06 min 01 sec)
Heartbeat CPU 0 instructions: 54000368 cycles: 14320760 heartbeat IPC: 1.441 cumulative IPC: 1.423 (Simulation time: 00 hr 06 min 06 sec)
Heartbeat CPU 0 instructions: 54500369 cycles: 14669418 heartbeat IPC: 1.434 cumulative IPC: 1.424 (Simulation time: 00 hr 06 min 12 sec)
Heartbeat CPU 0 instructions: 55000373 cycles: 15026467 heartbeat IPC: 1.4 cumulative IPC: 1.422 (Simulation time: 00 hr 06 min 18 sec)
Heartbeat CPU 0 instructions: 55500375 cycles: 15368547 heartbeat IPC: 1.462 cumulative IPC: 1.425 (Simulation time: 00 hr 06 min 21 sec)
Heartbeat CPU 0 instructions: 56000376 cycles: 15726236 heartbeat IPC: 1.398 cumulative IPC: 1.423 (Simulation time: 00 hr 06 min 25 sec)
Heartbeat CPU 0 instructions: 56500377 cycles: 16085366 heartbeat IPC: 1.392 cumulative IPC: 1.421 (Simulation time: 00 hr 06 min 29 sec)
Heartbeat CPU 0 instructions: 57000377 cycles: 16443486 heartbeat IPC: 1.396 cumulative IPC: 1.419 (Simulation time: 00 hr 06 min 33 sec)
Heartbeat CPU 0 instructions: 57500379 cycles: 16786359 heartbeat IPC: 1.458 cumulative IPC: 1.421 (Simulation time: 00 hr 06 min 37 sec)
Heartbeat CPU 0 instructions: 58000380 cycles: 17134129 heartbeat IPC: 1.438 cumulative IPC: 1.422 (Simulation time: 00 hr 06 min 41 sec)
Heartbeat CPU 0 instructions: 58500383 cycles: 17483785 heartbeat IPC: 1.43 cumulative IPC: 1.423 (Simulation time: 00 hr 06 min 45 sec)
Heartbeat CPU 0 instructions: 59000384 cycles: 17835421 heartbeat IPC: 1.422 cumulative IPC: 1.423 (Simulation time: 00 hr 06 min 48 sec)
Heartbeat CPU 0 instructions: 59500387 cycles: 18183603 heartbeat IPC: 1.436 cumulative IPC: 1.423 (Simulation time: 00 hr 06 min 52 sec)
Heartbeat CPU 0 instructions: 60000391 cycles: 18529593 heartbeat IPC: 1.445 cumulative IPC: 1.425 (Simulation time: 00 hr 06 min 56 sec)
Heartbeat CPU 0 instructions: 60500393 cycles: 18894409 heartbeat IPC: 1.371 cumulative IPC: 1.422 (Simulation time: 00 hr 07 min 00 sec)
Heartbeat CPU 0 instructions: 61000393 cycles: 19241874 heartbeat IPC: 1.439 cumulative IPC: 1.423 (Simulation time: 00 hr 07 min 04 sec)
Heartbeat CPU 0 instructions: 61500394 cycles: 19595303 heartbeat IPC: 1.415 cumulative IPC: 1.422 (Simulation time: 00 hr 07 min 08 sec)
Heartbeat CPU 0 instructions: 62000396 cycles: 19967897 heartbeat IPC: 1.342 cumulative IPC: 1.419 (Simulation time: 00 hr 07 min 12 sec)
Heartbeat CPU 0 instructions: 62500397 cycles: 20336283 heartbeat IPC: 1.357 cumulative IPC: 1.416 (Simulation time: 00 hr 07 min 16 sec)
Heartbeat CPU 0 instructions: 63000398 cycles: 20696890 heartbeat IPC: 1.387 cumulative IPC: 1.415 (Simulation time: 00 hr 07 min 20 sec)
Heartbeat CPU 0 instructions: 63500398 cycles: 21045470 heartbeat IPC: 1.434 cumulative IPC: 1.416 (Simulation time: 00 hr 07 min 23 sec)
Heartbeat CPU 0 instructions: 64000398 cycles: 21410757 heartbeat IPC: 1.369 cumulative IPC: 1.414 (Simulation time: 00 hr 07 min 27 sec)
Heartbeat CPU 0 instructions: 64500401 cycles: 21758658 heartbeat IPC: 1.437 cumulative IPC: 1.415 (Simulation time: 00 hr 07 min 31 sec)
Heartbeat CPU 0 instructions: 65000401 cycles: 22101703 heartbeat IPC: 1.458 cumulative IPC: 1.416 (Simulation time: 00 hr 07 min 35 sec)
Heartbeat CPU 0 instructions: 65500403 cycles: 22450372 heartbeat IPC: 1.434 cumulative IPC: 1.417 (Simulation time: 00 hr 07 min 39 sec)
Heartbeat CPU 0 instructions: 66000405 cycles: 22811326 heartbeat IPC: 1.385 cumulative IPC: 1.416 (Simulation time: 00 hr 07 min 43 sec)
Heartbeat CPU 0 instructions: 66500405 cycles: 23158623 heartbeat IPC: 1.44 cumulative IPC: 1.416 (Simulation time: 00 hr 07 min 46 sec)
Heartbeat CPU 0 instructions: 67000405 cycles: 23498820 heartbeat IPC: 1.47 cumulative IPC: 1.418 (Simulation time: 00 hr 07 min 50 sec)
Heartbeat CPU 0 instructions: 67500411 cycles: 23842310 heartbeat IPC: 1.456 cumulative IPC: 1.419 (Simulation time: 00 hr 07 min 54 sec)
Heartbeat CPU 0 instructions: 68000411 cycles: 24207669 heartbeat IPC: 1.369 cumulative IPC: 1.418 (Simulation time: 00 hr 07 min 58 sec)
Heartbeat CPU 0 instructions: 68500415 cycles: 24540397 heartbeat IPC: 1.503 cumulative IPC: 1.42 (Simulation time: 00 hr 08 min 01 sec)
Heartbeat CPU 0 instructions: 69000420 cycles: 24878319 heartbeat IPC: 1.48 cumulative IPC: 1.421 (Simulation time: 00 hr 08 min 05 sec)
Heartbeat CPU 0 instructions: 69500422 cycles: 25221092 heartbeat IPC: 1.459 cumulative IPC: 1.422 (Simulation time: 00 hr 08 min 09 sec)
Heartbeat CPU 0 instructions: 70000426 cycles: 25565552 heartbeat IPC: 1.452 cumulative IPC: 1.423 (Simulation time: 00 hr 08 min 12 sec)
Heartbeat CPU 0 instructions: 70500426 cycles: 25903876 heartbeat IPC: 1.478 cumulative IPC: 1.424 (Simulation time: 00 hr 08 min 16 sec)
Heartbeat CPU 0 instructions: 71000426 cycles: 26249048 heartbeat IPC: 1.449 cumulative IPC: 1.425 (Simulation time: 00 hr 08 min 20 sec)
Heartbeat CPU 0 instructions: 71500426 cycles: 26620251 heartbeat IPC: 1.347 cumulative IPC: 1.423 (Simulation time: 00 hr 08 min 24 sec)
Heartbeat CPU 0 instructions: 72000428 cycles: 26971287 heartbeat IPC: 1.424 cumulative IPC: 1.423 (Simulation time: 00 hr 08 min 27 sec)
Heartbeat CPU 0 instructions: 72500435 cycles: 27331135 heartbeat IPC: 1.389 cumulative IPC: 1.422 (Simulation time: 00 hr 08 min 31 sec)
Heartbeat CPU 0 instructions: 73000436 cycles: 27675424 heartbeat IPC: 1.452 cumulative IPC: 1.423 (Simulation time: 00 hr 08 min 35 sec)
Heartbeat CPU 0 instructions: 73500436 cycles: 28032786 heartbeat IPC: 1.399 cumulative IPC: 1.422 (Simulation time: 00 hr 08 min 39 sec)
Heartbeat CPU 0 instructions: 74000439 cycles: 28379860 heartbeat IPC: 1.441 cumulative IPC: 1.423 (Simulation time: 00 hr 08 min 42 sec)
Heartbeat CPU 0 instructions: 74500439 cycles: 28733418 heartbeat IPC: 1.414 cumulative IPC: 1.422 (Simulation time: 00 hr 08 min 46 sec)
Heartbeat CPU 0 instructions: 75000439 cycles: 29076317 heartbeat IPC: 1.458 cumulative IPC: 1.423 (Simulation time: 00 hr 08 min 50 sec)
Heartbeat CPU 0 instructions: 75500439 cycles: 29419174 heartbeat IPC: 1.458 cumulative IPC: 1.424 (Simulation time: 00 hr 08 min 54 sec)
Heartbeat CPU 0 instructions: 76000442 cycles: 29764809 heartbeat IPC: 1.447 cumulative IPC: 1.424 (Simulation time: 00 hr 08 min 57 sec)
Heartbeat CPU 0 instructions: 76500446 cycles: 30105647 heartbeat IPC: 1.467 cumulative IPC: 1.425 (Simulation time: 00 hr 09 min 01 sec)
Heartbeat CPU 0 instructions: 77000447 cycles: 30451249 heartbeat IPC: 1.447 cumulative IPC: 1.425 (Simulation time: 00 hr 09 min 05 sec)
Heartbeat CPU 0 instructions: 77500447 cycles: 30799483 heartbeat IPC: 1.436 cumulative IPC: 1.426 (Simulation time: 00 hr 09 min 08 sec)
Heartbeat CPU 0 instructions: 78000448 cycles: 31152578 heartbeat IPC: 1.416 cumulative IPC: 1.425 (Simulation time: 00 hr 09 min 12 sec)
Heartbeat CPU 0 instructions: 78500448 cycles: 31509007 heartbeat IPC: 1.403 cumulative IPC: 1.425 (Simulation time: 00 hr 09 min 16 sec)
Heartbeat CPU 0 instructions: 79000448 cycles: 31849644 heartbeat IPC: 1.468 cumulative IPC: 1.426 (Simulation time: 00 hr 09 min 19 sec)
Heartbeat CPU 0 instructions: 79500449 cycles: 32213837 heartbeat IPC: 1.373 cumulative IPC: 1.425 (Simulation time: 00 hr 09 min 23 sec)
Heartbeat CPU 0 instructions: 80000451 cycles: 32575507 heartbeat IPC: 1.382 cumulative IPC: 1.424 (Simulation time: 00 hr 09 min 27 sec)
Heartbeat CPU 0 instructions: 80500451 cycles: 32945168 heartbeat IPC: 1.353 cumulative IPC: 1.423 (Simulation time: 00 hr 09 min 31 sec)
Heartbeat CPU 0 instructions: 81000452 cycles: 33289831 heartbeat IPC: 1.451 cumulative IPC: 1.423 (Simulation time: 00 hr 09 min 34 sec)
Heartbeat CPU 0 instructions: 81500453 cycles: 33658423 heartbeat IPC: 1.357 cumulative IPC: 1.422 (Simulation time: 00 hr 09 min 38 sec)
Heartbeat CPU 0 instructions: 82000453 cycles: 34015235 heartbeat IPC: 1.401 cumulative IPC: 1.422 (Simulation time: 00 hr 09 min 42 sec)
Heartbeat CPU 0 instructions: 82500456 cycles: 34367820 heartbeat IPC: 1.418 cumulative IPC: 1.422 (Simulation time: 00 hr 09 min 46 sec)
Heartbeat CPU 0 instructions: 83000457 cycles: 34735323 heartbeat IPC: 1.361 cumulative IPC: 1.421 (Simulation time: 00 hr 09 min 49 sec)
Heartbeat CPU 0 instructions: 83500457 cycles: 35075986 heartbeat IPC: 1.468 cumulative IPC: 1.422 (Simulation time: 00 hr 09 min 53 sec)
Heartbeat CPU 0 instructions: 84000458 cycles: 35423207 heartbeat IPC: 1.44 cumulative IPC: 1.422 (Simulation time: 00 hr 09 min 57 sec)
Heartbeat CPU 0 instructions: 84500458 cycles: 35766264 heartbeat IPC: 1.457 cumulative IPC: 1.422 (Simulation time: 00 hr 10 min 00 sec)
Heartbeat CPU 0 instructions: 85000458 cycles: 36110789 heartbeat IPC: 1.451 cumulative IPC: 1.423 (Simulation time: 00 hr 10 min 04 sec)
Heartbeat CPU 0 instructions: 85500458 cycles: 36453602 heartbeat IPC: 1.459 cumulative IPC: 1.423 (Simulation time: 00 hr 10 min 07 sec)
Heartbeat CPU 0 instructions: 86000461 cycles: 36796999 heartbeat IPC: 1.456 cumulative IPC: 1.424 (Simulation time: 00 hr 10 min 11 sec)
Heartbeat CPU 0 instructions: 86500466 cycles: 37146221 heartbeat IPC: 1.432 cumulative IPC: 1.424 (Simulation time: 00 hr 10 min 15 sec)
Heartbeat CPU 0 instructions: 87000469 cycles: 37486225 heartbeat IPC: 1.471 cumulative IPC: 1.424 (Simulation time: 00 hr 10 min 18 sec)
Heartbeat CPU 0 instructions: 87500473 cycles: 37835876 heartbeat IPC: 1.43 cumulative IPC: 1.424 (Simulation time: 00 hr 10 min 22 sec)
Heartbeat CPU 0 instructions: 88000476 cycles: 38180436 heartbeat IPC: 1.451 cumulative IPC: 1.425 (Simulation time: 00 hr 10 min 25 sec)
Heartbeat CPU 0 instructions: 88500477 cycles: 38529063 heartbeat IPC: 1.434 cumulative IPC: 1.425 (Simulation time: 00 hr 10 min 29 sec)
Heartbeat CPU 0 instructions: 89000477 cycles: 38882349 heartbeat IPC: 1.415 cumulative IPC: 1.425 (Simulation time: 00 hr 10 min 33 sec)
Heartbeat CPU 0 instructions: 89500481 cycles: 39228603 heartbeat IPC: 1.444 cumulative IPC: 1.425 (Simulation time: 00 hr 10 min 36 sec)
Heartbeat CPU 0 instructions: 90000481 cycles: 39578776 heartbeat IPC: 1.428 cumulative IPC: 1.425 (Simulation time: 00 hr 10 min 40 sec)
Heartbeat CPU 0 instructions: 90500481 cycles: 39929443 heartbeat IPC: 1.426 cumulative IPC: 1.425 (Simulation time: 00 hr 10 min 44 sec)
Heartbeat CPU 0 instructions: 91000486 cycles: 40272289 heartbeat IPC: 1.458 cumulative IPC: 1.425 (Simulation time: 00 hr 10 min 47 sec)
Heartbeat CPU 0 instructions: 91500486 cycles: 40622102 heartbeat IPC: 1.429 cumulative IPC: 1.426 (Simulation time: 00 hr 10 min 51 sec)
Heartbeat CPU 0 instructions: 92000491 cycles: 40964830 heartbeat IPC: 1.459 cumulative IPC: 1.426 (Simulation time: 00 hr 10 min 54 sec)
Heartbeat CPU 0 instructions: 92500491 cycles: 41305263 heartbeat IPC: 1.469 cumulative IPC: 1.426 (Simulation time: 00 hr 10 min 58 sec)
Heartbeat CPU 0 instructions: 93000495 cycles: 41656529 heartbeat IPC: 1.423 cumulative IPC: 1.426 (Simulation time: 00 hr 11 min 02 sec)
Heartbeat CPU 0 instructions: 93500499 cycles: 42006047 heartbeat IPC: 1.431 cumulative IPC: 1.426 (Simulation time: 00 hr 11 min 05 sec)
Heartbeat CPU 0 instructions: 94000499 cycles: 42361086 heartbeat IPC: 1.408 cumulative IPC: 1.426 (Simulation time: 00 hr 11 min 09 sec)
Heartbeat CPU 0 instructions: 94500499 cycles: 42718351 heartbeat IPC: 1.4 cumulative IPC: 1.426 (Simulation time: 00 hr 11 min 12 sec)
Heartbeat CPU 0 instructions: 95000500 cycles: 43083357 heartbeat IPC: 1.37 cumulative IPC: 1.425 (Simulation time: 00 hr 11 min 16 sec)
Heartbeat CPU 0 instructions: 95500500 cycles: 43436203 heartbeat IPC: 1.417 cumulative IPC: 1.425 (Simulation time: 00 hr 11 min 20 sec)
Heartbeat CPU 0 instructions: 96000503 cycles: 43785681 heartbeat IPC: 1.431 cumulative IPC: 1.425 (Simulation time: 00 hr 11 min 23 sec)
Heartbeat CPU 0 instructions: 96500510 cycles: 44132607 heartbeat IPC: 1.441 cumulative IPC: 1.425 (Simulation time: 00 hr 11 min 27 sec)
Heartbeat CPU 0 instructions: 97000514 cycles: 44487087 heartbeat IPC: 1.411 cumulative IPC: 1.425 (Simulation time: 00 hr 11 min 31 sec)
Heartbeat CPU 0 instructions: 97500515 cycles: 44847135 heartbeat IPC: 1.389 cumulative IPC: 1.425 (Simulation time: 00 hr 11 min 34 sec)
Heartbeat CPU 0 instructions: 98000515 cycles: 45196194 heartbeat IPC: 1.432 cumulative IPC: 1.425 (Simulation time: 00 hr 11 min 38 sec)
Heartbeat CPU 0 instructions: 98500515 cycles: 45542355 heartbeat IPC: 1.444 cumulative IPC: 1.425 (Simulation time: 00 hr 11 min 42 sec)
Heartbeat CPU 0 instructions: 99000518 cycles: 45885247 heartbeat IPC: 1.458 cumulative IPC: 1.425 (Simulation time: 00 hr 11 min 45 sec)
Heartbeat CPU 0 instructions: 99500522 cycles: 46225819 heartbeat IPC: 1.468 cumulative IPC: 1.426 (Simulation time: 00 hr 11 min 49 sec)
Heartbeat CPU 0 instructions: 100000529 cycles: 46568520 heartbeat IPC: 1.459 cumulative IPC: 1.426 (Simulation time: 00 hr 11 min 52 sec)
Heartbeat CPU 0 instructions: 100500531 cycles: 46914536 heartbeat IPC: 1.445 cumulative IPC: 1.426 (Simulation time: 00 hr 11 min 56 sec)
Heartbeat CPU 0 instructions: 101000533 cycles: 47279794 heartbeat IPC: 1.369 cumulative IPC: 1.426 (Simulation time: 00 hr 11 min 59 sec)
Heartbeat CPU 0 instructions: 101500534 cycles: 47695252 heartbeat IPC: 1.203 cumulative IPC: 1.423 (Simulation time: 00 hr 12 min 03 sec)
Heartbeat CPU 0 instructions: 102000535 cycles: 48058913 heartbeat IPC: 1.375 cumulative IPC: 1.423 (Simulation time: 00 hr 12 min 07 sec)
Heartbeat CPU 0 instructions: 102500538 cycles: 48413044 heartbeat IPC: 1.412 cumulative IPC: 1.423 (Simulation time: 00 hr 12 min 11 sec)
Heartbeat CPU 0 instructions: 103000538 cycles: 48773511 heartbeat IPC: 1.387 cumulative IPC: 1.422 (Simulation time: 00 hr 12 min 14 sec)
Heartbeat CPU 0 instructions: 103500541 cycles: 49123405 heartbeat IPC: 1.429 cumulative IPC: 1.422 (Simulation time: 00 hr 12 min 18 sec)
Heartbeat CPU 0 instructions: 104000544 cycles: 49482673 heartbeat IPC: 1.392 cumulative IPC: 1.422 (Simulation time: 00 hr 12 min 22 sec)
Heartbeat CPU 0 instructions: 104500544 cycles: 49825324 heartbeat IPC: 1.459 cumulative IPC: 1.422 (Simulation time: 00 hr 12 min 25 sec)
Heartbeat CPU 0 instructions: 105000546 cycles: 50169117 heartbeat IPC: 1.454 cumulative IPC: 1.423 (Simulation time: 00 hr 12 min 29 sec)
Heartbeat CPU 0 instructions: 105500546 cycles: 50520722 heartbeat IPC: 1.422 cumulative IPC: 1.423 (Simulation time: 00 hr 12 min 32 sec)
Heartbeat CPU 0 instructions: 106000547 cycles: 50867426 heartbeat IPC: 1.442 cumulative IPC: 1.423 (Simulation time: 00 hr 12 min 36 sec)
Heartbeat CPU 0 instructions: 106500553 cycles: 51215787 heartbeat IPC: 1.435 cumulative IPC: 1.423 (Simulation time: 00 hr 12 min 39 sec)
Heartbeat CPU 0 instructions: 107000559 cycles: 51575108 heartbeat IPC: 1.392 cumulative IPC: 1.423 (Simulation time: 00 hr 12 min 43 sec)
Heartbeat CPU 0 instructions: 107500565 cycles: 51929267 heartbeat IPC: 1.412 cumulative IPC: 1.423 (Simulation time: 00 hr 12 min 47 sec)
Heartbeat CPU 0 instructions: 108000571 cycles: 52291884 heartbeat IPC: 1.379 cumulative IPC: 1.422 (Simulation time: 00 hr 12 min 50 sec)
Heartbeat CPU 0 instructions: 108500571 cycles: 52671209 heartbeat IPC: 1.318 cumulative IPC: 1.421 (Simulation time: 00 hr 12 min 54 sec)
Heartbeat CPU 0 instructions: 109000573 cycles: 53025912 heartbeat IPC: 1.41 cumulative IPC: 1.421 (Simulation time: 00 hr 12 min 58 sec)
Heartbeat CPU 0 instructions: 109500578 cycles: 53363394 heartbeat IPC: 1.482 cumulative IPC: 1.422 (Simulation time: 00 hr 13 min 01 sec)
Heartbeat CPU 0 instructions: 110000579 cycles: 53728057 heartbeat IPC: 1.371 cumulative IPC: 1.421 (Simulation time: 00 hr 13 min 05 sec)
Heartbeat CPU 0 instructions: 110500579 cycles: 54067204 heartbeat IPC: 1.474 cumulative IPC: 1.422 (Simulation time: 00 hr 13 min 08 sec)
Heartbeat CPU 0 instructions: 111000579 cycles: 54403599 heartbeat IPC: 1.486 cumulative IPC: 1.422 (Simulation time: 00 hr 13 min 12 sec)
Heartbeat CPU 0 instructions: 111500584 cycles: 54744880 heartbeat IPC: 1.465 cumulative IPC: 1.422 (Simulation time: 00 hr 13 min 15 sec)
Heartbeat CPU 0 instructions: 112000587 cycles: 55082546 heartbeat IPC: 1.481 cumulative IPC: 1.423 (Simulation time: 00 hr 13 min 19 sec)
Heartbeat CPU 0 instructions: 112500588 cycles: 55419346 heartbeat IPC: 1.485 cumulative IPC: 1.423 (Simulation time: 00 hr 13 min 22 sec)
Heartbeat CPU 0 instructions: 113000589 cycles: 55774834 heartbeat IPC: 1.407 cumulative IPC: 1.423 (Simulation time: 00 hr 13 min 26 sec)
Heartbeat CPU 0 instructions: 113500591 cycles: 56136492 heartbeat IPC: 1.383 cumulative IPC: 1.423 (Simulation time: 00 hr 13 min 29 sec)
Heartbeat CPU 0 instructions: 114000591 cycles: 56493870 heartbeat IPC: 1.399 cumulative IPC: 1.423 (Simulation time: 00 hr 13 min 33 sec)
Heartbeat CPU 0 instructions: 114500593 cycles: 56843590 heartbeat IPC: 1.43 cumulative IPC: 1.423 (Simulation time: 00 hr 13 min 37 sec)
Heartbeat CPU 0 instructions: 115000599 cycles: 57199631 heartbeat IPC: 1.404 cumulative IPC: 1.423 (Simulation time: 00 hr 13 min 40 sec)
Heartbeat CPU 0 instructions: 115500599 cycles: 57569529 heartbeat IPC: 1.352 cumulative IPC: 1.422 (Simulation time: 00 hr 13 min 44 sec)
Heartbeat CPU 0 instructions: 116000601 cycles: 57925434 heartbeat IPC: 1.405 cumulative IPC: 1.422 (Simulation time: 00 hr 13 min 47 sec)
Heartbeat CPU 0 instructions: 116500601 cycles: 58295411 heartbeat IPC: 1.351 cumulative IPC: 1.421 (Simulation time: 00 hr 13 min 51 sec)
Heartbeat CPU 0 instructions: 117000605 cycles: 58662725 heartbeat IPC: 1.361 cumulative IPC: 1.421 (Simulation time: 00 hr 13 min 55 sec)
Heartbeat CPU 0 instructions: 117500608 cycles: 59012060 heartbeat IPC: 1.431 cumulative IPC: 1.421 (Simulation time: 00 hr 13 min 58 sec)
Heartbeat CPU 0 instructions: 118000608 cycles: 59415519 heartbeat IPC: 1.239 cumulative IPC: 1.419 (Simulation time: 00 hr 14 min 02 sec)
Heartbeat CPU 0 instructions: 118500608 cycles: 59794268 heartbeat IPC: 1.32 cumulative IPC: 1.419 (Simulation time: 00 hr 14 min 06 sec)
Heartbeat CPU 0 instructions: 119000611 cycles: 60139390 heartbeat IPC: 1.449 cumulative IPC: 1.419 (Simulation time: 00 hr 14 min 10 sec)
Heartbeat CPU 0 instructions: 119500617 cycles: 60503210 heartbeat IPC: 1.374 cumulative IPC: 1.419 (Simulation time: 00 hr 14 min 13 sec)
Heartbeat CPU 0 instructions: 120000618 cycles: 60862779 heartbeat IPC: 1.391 cumulative IPC: 1.418 (Simulation time: 00 hr 14 min 17 sec)
Heartbeat CPU 0 instructions: 120500620 cycles: 61213639 heartbeat IPC: 1.425 cumulative IPC: 1.418 (Simulation time: 00 hr 14 min 21 sec)
Heartbeat CPU 0 instructions: 121000624 cycles: 61567853 heartbeat IPC: 1.412 cumulative IPC: 1.418 (Simulation time: 00 hr 14 min 24 sec)
Heartbeat CPU 0 instructions: 121500626 cycles: 61915726 heartbeat IPC: 1.437 cumulative IPC: 1.418 (Simulation time: 00 hr 14 min 28 sec)
Heartbeat CPU 0 instructions: 122000627 cycles: 62266377 heartbeat IPC: 1.426 cumulative IPC: 1.419 (Simulation time: 00 hr 14 min 31 sec)
Heartbeat CPU 0 instructions: 122500631 cycles: 62627794 heartbeat IPC: 1.383 cumulative IPC: 1.418 (Simulation time: 00 hr 14 min 35 sec)
Heartbeat CPU 0 instructions: 123000634 cycles: 62980599 heartbeat IPC: 1.417 cumulative IPC: 1.418 (Simulation time: 00 hr 14 min 39 sec)
Heartbeat CPU 0 instructions: 123500638 cycles: 63336401 heartbeat IPC: 1.405 cumulative IPC: 1.418 (Simulation time: 00 hr 14 min 42 sec)
Heartbeat CPU 0 instructions: 124000641 cycles: 63687523 heartbeat IPC: 1.424 cumulative IPC: 1.418 (Simulation time: 00 hr 14 min 46 sec)
Heartbeat CPU 0 instructions: 124500644 cycles: 64041556 heartbeat IPC: 1.412 cumulative IPC: 1.418 (Simulation time: 00 hr 14 min 49 sec)
Heartbeat CPU 0 instructions: 125000644 cycles: 64397953 heartbeat IPC: 1.403 cumulative IPC: 1.418 (Simulation time: 00 hr 14 min 53 sec)
Heartbeat CPU 0 instructions: 125500645 cycles: 64760131 heartbeat IPC: 1.381 cumulative IPC: 1.418 (Simulation time: 00 hr 14 min 56 sec)
Heartbeat CPU 0 instructions: 126000645 cycles: 65119492 heartbeat IPC: 1.391 cumulative IPC: 1.418 (Simulation time: 00 hr 15 min 00 sec)
Heartbeat CPU 0 instructions: 126500648 cycles: 65474658 heartbeat IPC: 1.408 cumulative IPC: 1.418 (Simulation time: 00 hr 15 min 04 sec)
Heartbeat CPU 0 instructions: 127000650 cycles: 65818204 heartbeat IPC: 1.455 cumulative IPC: 1.418 (Simulation time: 00 hr 15 min 07 sec)
Heartbeat CPU 0 instructions: 127500650 cycles: 66169525 heartbeat IPC: 1.423 cumulative IPC: 1.418 (Simulation time: 00 hr 15 min 11 sec)
Heartbeat CPU 0 instructions: 128000651 cycles: 66533571 heartbeat IPC: 1.373 cumulative IPC: 1.418 (Simulation time: 00 hr 15 min 14 sec)
Heartbeat CPU 0 instructions: 128500652 cycles: 66888303 heartbeat IPC: 1.41 cumulative IPC: 1.418 (Simulation time: 00 hr 15 min 18 sec)
Heartbeat CPU 0 instructions: 129000652 cycles: 67251625 heartbeat IPC: 1.376 cumulative IPC: 1.417 (Simulation time: 00 hr 15 min 22 sec)
Heartbeat CPU 0 instructions: 129500652 cycles: 67620044 heartbeat IPC: 1.357 cumulative IPC: 1.417 (Simulation time: 00 hr 15 min 25 sec)
Heartbeat CPU 0 instructions: 130000659 cycles: 67968057 heartbeat IPC: 1.437 cumulative IPC: 1.417 (Simulation time: 00 hr 15 min 29 sec)
Heartbeat CPU 0 instructions: 130500660 cycles: 68307545 heartbeat IPC: 1.473 cumulative IPC: 1.417 (Simulation time: 00 hr 15 min 32 sec)
Heartbeat CPU 0 instructions: 131000660 cycles: 68650334 heartbeat IPC: 1.459 cumulative IPC: 1.418 (Simulation time: 00 hr 15 min 36 sec)
Heartbeat CPU 0 instructions: 131500661 cycles: 68998133 heartbeat IPC: 1.438 cumulative IPC: 1.418 (Simulation time: 00 hr 15 min 39 sec)
Heartbeat CPU 0 instructions: 132000661 cycles: 69340750 heartbeat IPC: 1.459 cumulative IPC: 1.418 (Simulation time: 00 hr 15 min 43 sec)
Heartbeat CPU 0 instructions: 132500663 cycles: 69682786 heartbeat IPC: 1.462 cumulative IPC: 1.418 (Simulation time: 00 hr 15 min 46 sec)
Heartbeat CPU 0 instructions: 133000663 cycles: 70046141 heartbeat IPC: 1.376 cumulative IPC: 1.418 (Simulation time: 00 hr 15 min 50 sec)
Heartbeat CPU 0 instructions: 133500665 cycles: 70395846 heartbeat IPC: 1.43 cumulative IPC: 1.418 (Simulation time: 00 hr 15 min 53 sec)
Heartbeat CPU 0 instructions: 134000667 cycles: 70736617 heartbeat IPC: 1.467 cumulative IPC: 1.418 (Simulation time: 00 hr 15 min 57 sec)
Heartbeat CPU 0 instructions: 134500670 cycles: 71091342 heartbeat IPC: 1.41 cumulative IPC: 1.418 (Simulation time: 00 hr 16 min 00 sec)
Heartbeat CPU 0 instructions: 135000675 cycles: 71432363 heartbeat IPC: 1.466 cumulative IPC: 1.419 (Simulation time: 00 hr 16 min 04 sec)
Heartbeat CPU 0 instructions: 135500676 cycles: 71803943 heartbeat IPC: 1.346 cumulative IPC: 1.418 (Simulation time: 00 hr 16 min 07 sec)
Heartbeat CPU 0 instructions: 136000676 cycles: 72157511 heartbeat IPC: 1.414 cumulative IPC: 1.418 (Simulation time: 00 hr 16 min 11 sec)
Heartbeat CPU 0 instructions: 136500677 cycles: 72510058 heartbeat IPC: 1.418 cumulative IPC: 1.418 (Simulation time: 00 hr 16 min 15 sec)
Heartbeat CPU 0 instructions: 137000679 cycles: 72862495 heartbeat IPC: 1.419 cumulative IPC: 1.418 (Simulation time: 00 hr 16 min 18 sec)
Heartbeat CPU 0 instructions: 137500684 cycles: 73210272 heartbeat IPC: 1.438 cumulative IPC: 1.418 (Simulation time: 00 hr 16 min 21 sec)
Heartbeat CPU 0 instructions: 138000691 cycles: 73557374 heartbeat IPC: 1.441 cumulative IPC: 1.418 (Simulation time: 00 hr 16 min 25 sec)
Heartbeat CPU 0 instructions: 138500692 cycles: 73913067 heartbeat IPC: 1.406 cumulative IPC: 1.418 (Simulation time: 00 hr 16 min 28 sec)
Heartbeat CPU 0 instructions: 139000697 cycles: 74271174 heartbeat IPC: 1.396 cumulative IPC: 1.418 (Simulation time: 00 hr 16 min 32 sec)
Heartbeat CPU 0 instructions: 139500698 cycles: 74620356 heartbeat IPC: 1.432 cumulative IPC: 1.418 (Simulation time: 00 hr 16 min 35 sec)
Heartbeat CPU 0 instructions: 140000698 cycles: 74961914 heartbeat IPC: 1.464 cumulative IPC: 1.418 (Simulation time: 00 hr 16 min 39 sec)
Heartbeat CPU 0 instructions: 140500699 cycles: 75324641 heartbeat IPC: 1.378 cumulative IPC: 1.418 (Simulation time: 00 hr 16 min 42 sec)
Heartbeat CPU 0 instructions: 141000701 cycles: 75681067 heartbeat IPC: 1.403 cumulative IPC: 1.418 (Simulation time: 00 hr 16 min 46 sec)
Heartbeat CPU 0 instructions: 141500701 cycles: 76030019 heartbeat IPC: 1.433 cumulative IPC: 1.418 (Simulation time: 00 hr 16 min 49 sec)
Heartbeat CPU 0 instructions: 142000707 cycles: 76393621 heartbeat IPC: 1.375 cumulative IPC: 1.418 (Simulation time: 00 hr 16 min 53 sec)
Heartbeat CPU 0 instructions: 142500711 cycles: 76764509 heartbeat IPC: 1.348 cumulative IPC: 1.418 (Simulation time: 00 hr 16 min 57 sec)
Heartbeat CPU 0 instructions: 143000714 cycles: 77113097 heartbeat IPC: 1.434 cumulative IPC: 1.418 (Simulation time: 00 hr 17 min 00 sec)
Heartbeat CPU 0 instructions: 143500714 cycles: 77458381 heartbeat IPC: 1.448 cumulative IPC: 1.418 (Simulation time: 00 hr 17 min 04 sec)
Heartbeat CPU 0 instructions: 144000716 cycles: 77805780 heartbeat IPC: 1.439 cumulative IPC: 1.418 (Simulation time: 00 hr 17 min 07 sec)
Heartbeat CPU 0 instructions: 144500717 cycles: 78150593 heartbeat IPC: 1.45 cumulative IPC: 1.418 (Simulation time: 00 hr 17 min 10 sec)
Heartbeat CPU 0 instructions: 145000717 cycles: 78497043 heartbeat IPC: 1.443 cumulative IPC: 1.418 (Simulation time: 00 hr 17 min 14 sec)
Heartbeat CPU 0 instructions: 145500720 cycles: 78837666 heartbeat IPC: 1.468 cumulative IPC: 1.418 (Simulation time: 00 hr 17 min 17 sec)
Heartbeat CPU 0 instructions: 146000722 cycles: 79181174 heartbeat IPC: 1.456 cumulative IPC: 1.419 (Simulation time: 00 hr 17 min 21 sec)
Heartbeat CPU 0 instructions: 146500723 cycles: 79520851 heartbeat IPC: 1.472 cumulative IPC: 1.419 (Simulation time: 00 hr 17 min 24 sec)
Heartbeat CPU 0 instructions: 147000724 cycles: 79868553 heartbeat IPC: 1.438 cumulative IPC: 1.419 (Simulation time: 00 hr 17 min 27 sec)
Heartbeat CPU 0 instructions: 147500724 cycles: 80219904 heartbeat IPC: 1.423 cumulative IPC: 1.419 (Simulation time: 00 hr 17 min 31 sec)
Heartbeat CPU 0 instructions: 148000730 cycles: 80568706 heartbeat IPC: 1.433 cumulative IPC: 1.419 (Simulation time: 00 hr 17 min 34 sec)
Heartbeat CPU 0 instructions: 148500731 cycles: 80913078 heartbeat IPC: 1.452 cumulative IPC: 1.419 (Simulation time: 00 hr 17 min 38 sec)
Heartbeat CPU 0 instructions: 149000731 cycles: 81259685 heartbeat IPC: 1.443 cumulative IPC: 1.419 (Simulation time: 00 hr 17 min 41 sec)
Heartbeat CPU 0 instructions: 149500735 cycles: 81610266 heartbeat IPC: 1.426 cumulative IPC: 1.419 (Simulation time: 00 hr 17 min 45 sec)
Heartbeat CPU 0 instructions: 150000737 cycles: 81958161 heartbeat IPC: 1.437 cumulative IPC: 1.419 (Simulation time: 00 hr 17 min 48 sec)
Heartbeat CPU 0 instructions: 150500738 cycles: 82328512 heartbeat IPC: 1.35 cumulative IPC: 1.419 (Simulation time: 00 hr 17 min 52 sec)
Heartbeat CPU 0 instructions: 151000742 cycles: 82711738 heartbeat IPC: 1.305 cumulative IPC: 1.419 (Simulation time: 00 hr 17 min 56 sec)
Heartbeat CPU 0 instructions: 151500742 cycles: 83068206 heartbeat IPC: 1.403 cumulative IPC: 1.418 (Simulation time: 00 hr 17 min 59 sec)
Heartbeat CPU 0 instructions: 152000743 cycles: 83423162 heartbeat IPC: 1.409 cumulative IPC: 1.418 (Simulation time: 00 hr 18 min 03 sec)
Heartbeat CPU 0 instructions: 152500743 cycles: 83772272 heartbeat IPC: 1.432 cumulative IPC: 1.418 (Simulation time: 00 hr 18 min 06 sec)
Heartbeat CPU 0 instructions: 153000743 cycles: 84178219 heartbeat IPC: 1.232 cumulative IPC: 1.417 (Simulation time: 00 hr 18 min 10 sec)
Heartbeat CPU 0 instructions: 153500743 cycles: 84548923 heartbeat IPC: 1.349 cumulative IPC: 1.417 (Simulation time: 00 hr 18 min 14 sec)
Heartbeat CPU 0 instructions: 154000747 cycles: 84900044 heartbeat IPC: 1.424 cumulative IPC: 1.417 (Simulation time: 00 hr 18 min 17 sec)
Heartbeat CPU 0 instructions: 154500750 cycles: 85247944 heartbeat IPC: 1.437 cumulative IPC: 1.417 (Simulation time: 00 hr 18 min 20 sec)
Heartbeat CPU 0 instructions: 155000750 cycles: 85611107 heartbeat IPC: 1.377 cumulative IPC: 1.417 (Simulation time: 00 hr 18 min 24 sec)
Heartbeat CPU 0 instructions: 155500750 cycles: 85954347 heartbeat IPC: 1.457 cumulative IPC: 1.417 (Simulation time: 00 hr 18 min 27 sec)
Heartbeat CPU 0 instructions: 156000754 cycles: 86304674 heartbeat IPC: 1.427 cumulative IPC: 1.417 (Simulation time: 00 hr 18 min 31 sec)
Heartbeat CPU 0 instructions: 156500758 cycles: 86646111 heartbeat IPC: 1.464 cumulative IPC: 1.417 (Simulation time: 00 hr 18 min 34 sec)
Heartbeat CPU 0 instructions: 157000759 cycles: 86996181 heartbeat IPC: 1.428 cumulative IPC: 1.417 (Simulation time: 00 hr 18 min 38 sec)
Heartbeat CPU 0 instructions: 157500759 cycles: 87344919 heartbeat IPC: 1.434 cumulative IPC: 1.418 (Simulation time: 00 hr 18 min 41 sec)
Heartbeat CPU 0 instructions: 158000761 cycles: 87690853 heartbeat IPC: 1.445 cumulative IPC: 1.418 (Simulation time: 00 hr 18 min 44 sec)
Heartbeat CPU 0 instructions: 158500763 cycles: 88042001 heartbeat IPC: 1.424 cumulative IPC: 1.418 (Simulation time: 00 hr 18 min 48 sec)
Heartbeat CPU 0 instructions: 159000769 cycles: 88389620 heartbeat IPC: 1.438 cumulative IPC: 1.418 (Simulation time: 00 hr 18 min 51 sec)
Heartbeat CPU 0 instructions: 159500770 cycles: 88744473 heartbeat IPC: 1.409 cumulative IPC: 1.418 (Simulation time: 00 hr 18 min 55 sec)
Heartbeat CPU 0 instructions: 160000772 cycles: 89100160 heartbeat IPC: 1.406 cumulative IPC: 1.418 (Simulation time: 00 hr 18 min 58 sec)
Heartbeat CPU 0 instructions: 160500776 cycles: 89436926 heartbeat IPC: 1.485 cumulative IPC: 1.418 (Simulation time: 00 hr 19 min 02 sec)
Heartbeat CPU 0 instructions: 161000779 cycles: 89790257 heartbeat IPC: 1.415 cumulative IPC: 1.418 (Simulation time: 00 hr 19 min 05 sec)
Heartbeat CPU 0 instructions: 161500780 cycles: 90137770 heartbeat IPC: 1.439 cumulative IPC: 1.418 (Simulation time: 00 hr 19 min 08 sec)
Heartbeat CPU 0 instructions: 162000782 cycles: 90491195 heartbeat IPC: 1.415 cumulative IPC: 1.418 (Simulation time: 00 hr 19 min 12 sec)
Heartbeat CPU 0 instructions: 162500789 cycles: 90852383 heartbeat IPC: 1.384 cumulative IPC: 1.418 (Simulation time: 00 hr 19 min 15 sec)
Heartbeat CPU 0 instructions: 163000789 cycles: 91208187 heartbeat IPC: 1.405 cumulative IPC: 1.418 (Simulation time: 00 hr 19 min 19 sec)
Heartbeat CPU 0 instructions: 163500790 cycles: 91569497 heartbeat IPC: 1.384 cumulative IPC: 1.418 (Simulation time: 00 hr 19 min 23 sec)
Heartbeat CPU 0 instructions: 164000795 cycles: 91929655 heartbeat IPC: 1.388 cumulative IPC: 1.418 (Simulation time: 00 hr 19 min 26 sec)
Heartbeat CPU 0 instructions: 164500798 cycles: 92279935 heartbeat IPC: 1.427 cumulative IPC: 1.418 (Simulation time: 00 hr 19 min 30 sec)
Heartbeat CPU 0 instructions: 165000798 cycles: 92650778 heartbeat IPC: 1.348 cumulative IPC: 1.417 (Simulation time: 00 hr 19 min 33 sec)
Heartbeat CPU 0 instructions: 165500801 cycles: 93007668 heartbeat IPC: 1.401 cumulative IPC: 1.417 (Simulation time: 00 hr 19 min 37 sec)
Heartbeat CPU 0 instructions: 166000802 cycles: 93363017 heartbeat IPC: 1.407 cumulative IPC: 1.417 (Simulation time: 00 hr 19 min 40 sec)
Heartbeat CPU 0 instructions: 166500807 cycles: 93715952 heartbeat IPC: 1.417 cumulative IPC: 1.417 (Simulation time: 00 hr 19 min 44 sec)
Heartbeat CPU 0 instructions: 167000809 cycles: 94071453 heartbeat IPC: 1.406 cumulative IPC: 1.417 (Simulation time: 00 hr 19 min 47 sec)
Heartbeat CPU 0 instructions: 167500809 cycles: 94434380 heartbeat IPC: 1.378 cumulative IPC: 1.417 (Simulation time: 00 hr 19 min 51 sec)
Heartbeat CPU 0 instructions: 168000812 cycles: 94793095 heartbeat IPC: 1.394 cumulative IPC: 1.417 (Simulation time: 00 hr 19 min 54 sec)
Heartbeat CPU 0 instructions: 168500813 cycles: 95148648 heartbeat IPC: 1.406 cumulative IPC: 1.417 (Simulation time: 00 hr 19 min 58 sec)
Heartbeat CPU 0 instructions: 169000813 cycles: 95513847 heartbeat IPC: 1.369 cumulative IPC: 1.417 (Simulation time: 00 hr 20 min 01 sec)
Heartbeat CPU 0 instructions: 169500813 cycles: 95885430 heartbeat IPC: 1.346 cumulative IPC: 1.416 (Simulation time: 00 hr 20 min 05 sec)
Heartbeat CPU 0 instructions: 170000813 cycles: 96229896 heartbeat IPC: 1.452 cumulative IPC: 1.416 (Simulation time: 00 hr 20 min 08 sec)
Heartbeat CPU 0 instructions: 170500817 cycles: 96580152 heartbeat IPC: 1.428 cumulative IPC: 1.416 (Simulation time: 00 hr 20 min 12 sec)
Heartbeat CPU 0 instructions: 171000819 cycles: 96933215 heartbeat IPC: 1.416 cumulative IPC: 1.416 (Simulation time: 00 hr 20 min 15 sec)
Heartbeat CPU 0 instructions: 171500819 cycles: 97282089 heartbeat IPC: 1.433 cumulative IPC: 1.417 (Simulation time: 00 hr 20 min 19 sec)
Heartbeat CPU 0 instructions: 172000822 cycles: 97638217 heartbeat IPC: 1.404 cumulative IPC: 1.416 (Simulation time: 00 hr 20 min 22 sec)
Heartbeat CPU 0 instructions: 172500822 cycles: 97984931 heartbeat IPC: 1.442 cumulative IPC: 1.417 (Simulation time: 00 hr 20 min 25 sec)
Heartbeat CPU 0 instructions: 173000822 cycles: 98350035 heartbeat IPC: 1.369 cumulative IPC: 1.416 (Simulation time: 00 hr 20 min 29 sec)
Heartbeat CPU 0 instructions: 173500822 cycles: 98716043 heartbeat IPC: 1.366 cumulative IPC: 1.416 (Simulation time: 00 hr 20 min 33 sec)
Heartbeat CPU 0 instructions: 174000822 cycles: 99069707 heartbeat IPC: 1.414 cumulative IPC: 1.416 (Simulation time: 00 hr 20 min 36 sec)
Heartbeat CPU 0 instructions: 174500823 cycles: 99425186 heartbeat IPC: 1.407 cumulative IPC: 1.416 (Simulation time: 00 hr 20 min 39 sec)
Heartbeat CPU 0 instructions: 175000823 cycles: 99788139 heartbeat IPC: 1.378 cumulative IPC: 1.416 (Simulation time: 00 hr 20 min 43 sec)
Heartbeat CPU 0 instructions: 175500825 cycles: 100149670 heartbeat IPC: 1.383 cumulative IPC: 1.416 (Simulation time: 00 hr 20 min 47 sec)
Heartbeat CPU 0 instructions: 176000827 cycles: 100505556 heartbeat IPC: 1.405 cumulative IPC: 1.416 (Simulation time: 00 hr 20 min 50 sec)
Heartbeat CPU 0 instructions: 176500828 cycles: 100859288 heartbeat IPC: 1.414 cumulative IPC: 1.416 (Simulation time: 00 hr 20 min 53 sec)
Heartbeat CPU 0 instructions: 177000828 cycles: 101209673 heartbeat IPC: 1.427 cumulative IPC: 1.416 (Simulation time: 00 hr 20 min 57 sec)
Heartbeat CPU 0 instructions: 177500829 cycles: 101558880 heartbeat IPC: 1.432 cumulative IPC: 1.416 (Simulation time: 00 hr 21 min 00 sec)
Heartbeat CPU 0 instructions: 178000831 cycles: 101902345 heartbeat IPC: 1.456 cumulative IPC: 1.416 (Simulation time: 00 hr 21 min 03 sec)
Heartbeat CPU 0 instructions: 178500832 cycles: 102246476 heartbeat IPC: 1.453 cumulative IPC: 1.416 (Simulation time: 00 hr 21 min 07 sec)
Heartbeat CPU 0 instructions: 179000833 cycles: 102589785 heartbeat IPC: 1.456 cumulative IPC: 1.416 (Simulation time: 00 hr 21 min 10 sec)
Heartbeat CPU 0 instructions: 179500836 cycles: 102933327 heartbeat IPC: 1.455 cumulative IPC: 1.416 (Simulation time: 00 hr 21 min 13 sec)
Heartbeat CPU 0 instructions: 180000837 cycles: 103295217 heartbeat IPC: 1.382 cumulative IPC: 1.416 (Simulation time: 00 hr 21 min 17 sec)
Heartbeat CPU 0 instructions: 180500840 cycles: 103659023 heartbeat IPC: 1.374 cumulative IPC: 1.416 (Simulation time: 00 hr 21 min 20 sec)
Heartbeat CPU 0 instructions: 181000841 cycles: 104006619 heartbeat IPC: 1.438 cumulative IPC: 1.416 (Simulation time: 00 hr 21 min 24 sec)
Heartbeat CPU 0 instructions: 181500843 cycles: 104366313 heartbeat IPC: 1.39 cumulative IPC: 1.416 (Simulation time: 00 hr 21 min 27 sec)
Heartbeat CPU 0 instructions: 182000846 cycles: 104721786 heartbeat IPC: 1.407 cumulative IPC: 1.416 (Simulation time: 00 hr 21 min 31 sec)
Heartbeat CPU 0 instructions: 182500849 cycles: 105063994 heartbeat IPC: 1.461 cumulative IPC: 1.416 (Simulation time: 00 hr 21 min 34 sec)
Heartbeat CPU 0 instructions: 183000853 cycles: 105409531 heartbeat IPC: 1.447 cumulative IPC: 1.416 (Simulation time: 00 hr 21 min 37 sec)
Heartbeat CPU 0 instructions: 183500853 cycles: 105761320 heartbeat IPC: 1.421 cumulative IPC: 1.416 (Simulation time: 00 hr 21 min 41 sec)
Heartbeat CPU 0 instructions: 184000853 cycles: 106110068 heartbeat IPC: 1.434 cumulative IPC: 1.416 (Simulation time: 00 hr 21 min 44 sec)
Heartbeat CPU 0 instructions: 184500853 cycles: 106466694 heartbeat IPC: 1.402 cumulative IPC: 1.416 (Simulation time: 00 hr 21 min 47 sec)
Heartbeat CPU 0 instructions: 185000853 cycles: 106809606 heartbeat IPC: 1.458 cumulative IPC: 1.417 (Simulation time: 00 hr 21 min 51 sec)
Heartbeat CPU 0 instructions: 185500853 cycles: 107162428 heartbeat IPC: 1.417 cumulative IPC: 1.417 (Simulation time: 00 hr 21 min 54 sec)
Heartbeat CPU 0 instructions: 186000855 cycles: 107515325 heartbeat IPC: 1.417 cumulative IPC: 1.417 (Simulation time: 00 hr 21 min 57 sec)
Heartbeat CPU 0 instructions: 186500856 cycles: 107874786 heartbeat IPC: 1.391 cumulative IPC: 1.416 (Simulation time: 00 hr 22 min 01 sec)
Heartbeat CPU 0 instructions: 187000862 cycles: 108232259 heartbeat IPC: 1.399 cumulative IPC: 1.416 (Simulation time: 00 hr 22 min 04 sec)
Heartbeat CPU 0 instructions: 187500863 cycles: 108587966 heartbeat IPC: 1.406 cumulative IPC: 1.416 (Simulation time: 00 hr 22 min 08 sec)
Heartbeat CPU 0 instructions: 188000863 cycles: 108944946 heartbeat IPC: 1.401 cumulative IPC: 1.416 (Simulation time: 00 hr 22 min 11 sec)
Heartbeat CPU 0 instructions: 188500864 cycles: 109323165 heartbeat IPC: 1.322 cumulative IPC: 1.416 (Simulation time: 00 hr 22 min 15 sec)
Heartbeat CPU 0 instructions: 189000866 cycles: 109781931 heartbeat IPC: 1.09 cumulative IPC: 1.414 (Simulation time: 00 hr 22 min 19 sec)
Heartbeat CPU 0 instructions: 189500869 cycles: 110133078 heartbeat IPC: 1.424 cumulative IPC: 1.414 (Simulation time: 00 hr 22 min 22 sec)
Heartbeat CPU 0 instructions: 190000872 cycles: 110489423 heartbeat IPC: 1.403 cumulative IPC: 1.414 (Simulation time: 00 hr 22 min 25 sec)
Heartbeat CPU 0 instructions: 190500872 cycles: 110834454 heartbeat IPC: 1.449 cumulative IPC: 1.415 (Simulation time: 00 hr 22 min 29 sec)
Heartbeat CPU 0 instructions: 191000874 cycles: 111186976 heartbeat IPC: 1.418 cumulative IPC: 1.415 (Simulation time: 00 hr 22 min 32 sec)
Heartbeat CPU 0 instructions: 191500876 cycles: 111531891 heartbeat IPC: 1.45 cumulative IPC: 1.415 (Simulation time: 00 hr 22 min 35 sec)
Heartbeat CPU 0 instructions: 192000881 cycles: 111878698 heartbeat IPC: 1.442 cumulative IPC: 1.415 (Simulation time: 00 hr 22 min 39 sec)
Heartbeat CPU 0 instructions: 192500881 cycles: 112219273 heartbeat IPC: 1.468 cumulative IPC: 1.415 (Simulation time: 00 hr 22 min 42 sec)
Heartbeat CPU 0 instructions: 193000881 cycles: 112563282 heartbeat IPC: 1.453 cumulative IPC: 1.415 (Simulation time: 00 hr 22 min 45 sec)
Heartbeat CPU 0 instructions: 193500883 cycles: 112910523 heartbeat IPC: 1.44 cumulative IPC: 1.415 (Simulation time: 00 hr 22 min 48 sec)
Heartbeat CPU 0 instructions: 194000884 cycles: 113269462 heartbeat IPC: 1.393 cumulative IPC: 1.415 (Simulation time: 00 hr 22 min 52 sec)
Heartbeat CPU 0 instructions: 194500885 cycles: 113616013 heartbeat IPC: 1.443 cumulative IPC: 1.415 (Simulation time: 00 hr 22 min 55 sec)
Heartbeat CPU 0 instructions: 195000888 cycles: 113965051 heartbeat IPC: 1.433 cumulative IPC: 1.415 (Simulation time: 00 hr 22 min 58 sec)
Heartbeat CPU 0 instructions: 195500891 cycles: 114319295 heartbeat IPC: 1.411 cumulative IPC: 1.415 (Simulation time: 00 hr 23 min 02 sec)
Heartbeat CPU 0 instructions: 196000893 cycles: 114663285 heartbeat IPC: 1.454 cumulative IPC: 1.415 (Simulation time: 00 hr 23 min 05 sec)
Heartbeat CPU 0 instructions: 196500894 cycles: 115009492 heartbeat IPC: 1.444 cumulative IPC: 1.415 (Simulation time: 00 hr 23 min 08 sec)
Heartbeat CPU 0 instructions: 197000896 cycles: 115359549 heartbeat IPC: 1.428 cumulative IPC: 1.416 (Simulation time: 00 hr 23 min 11 sec)
Heartbeat CPU 0 instructions: 197500898 cycles: 115710760 heartbeat IPC: 1.424 cumulative IPC: 1.416 (Simulation time: 00 hr 23 min 15 sec)
Heartbeat CPU 0 instructions: 198000898 cycles: 116059613 heartbeat IPC: 1.433 cumulative IPC: 1.416 (Simulation time: 00 hr 23 min 18 sec)
Heartbeat CPU 0 instructions: 198500898 cycles: 116414145 heartbeat IPC: 1.41 cumulative IPC: 1.416 (Simulation time: 00 hr 23 min 21 sec)
Heartbeat CPU 0 instructions: 199000898 cycles: 116770300 heartbeat IPC: 1.404 cumulative IPC: 1.416 (Simulation time: 00 hr 23 min 25 sec)
Heartbeat CPU 0 instructions: 199500902 cycles: 117111273 heartbeat IPC: 1.466 cumulative IPC: 1.416 (Simulation time: 00 hr 23 min 28 sec)
Heartbeat CPU 0 instructions: 200000904 cycles: 117454267 heartbeat IPC: 1.458 cumulative IPC: 1.416 (Simulation time: 00 hr 23 min 31 sec)
Heartbeat CPU 0 instructions: 200500909 cycles: 117797890 heartbeat IPC: 1.455 cumulative IPC: 1.416 (Simulation time: 00 hr 23 min 34 sec)
Heartbeat CPU 0 instructions: 201000909 cycles: 118152542 heartbeat IPC: 1.41 cumulative IPC: 1.416 (Simulation time: 00 hr 23 min 38 sec)
Heartbeat CPU 0 instructions: 201500916 cycles: 118518456 heartbeat IPC: 1.366 cumulative IPC: 1.416 (Simulation time: 00 hr 23 min 41 sec)
Heartbeat CPU 0 instructions: 202000919 cycles: 118874351 heartbeat IPC: 1.405 cumulative IPC: 1.416 (Simulation time: 00 hr 23 min 44 sec)
Heartbeat CPU 0 instructions: 202500921 cycles: 119243167 heartbeat IPC: 1.356 cumulative IPC: 1.416 (Simulation time: 00 hr 23 min 48 sec)
Heartbeat CPU 0 instructions: 203000927 cycles: 119593565 heartbeat IPC: 1.427 cumulative IPC: 1.416 (Simulation time: 00 hr 23 min 51 sec)
Heartbeat CPU 0 instructions: 203500928 cycles: 119940148 heartbeat IPC: 1.443 cumulative IPC: 1.416 (Simulation time: 00 hr 23 min 54 sec)
Heartbeat CPU 0 instructions: 204000928 cycles: 120290062 heartbeat IPC: 1.429 cumulative IPC: 1.416 (Simulation time: 00 hr 23 min 57 sec)
Heartbeat CPU 0 instructions: 204500929 cycles: 120644953 heartbeat IPC: 1.409 cumulative IPC: 1.416 (Simulation time: 00 hr 24 min 01 sec)
Heartbeat CPU 0 instructions: 205000929 cycles: 120987840 heartbeat IPC: 1.458 cumulative IPC: 1.416 (Simulation time: 00 hr 24 min 04 sec)
Heartbeat CPU 0 instructions: 205500932 cycles: 121335227 heartbeat IPC: 1.439 cumulative IPC: 1.416 (Simulation time: 00 hr 24 min 07 sec)
Heartbeat CPU 0 instructions: 206000932 cycles: 121699493 heartbeat IPC: 1.373 cumulative IPC: 1.416 (Simulation time: 00 hr 24 min 10 sec)
Heartbeat CPU 0 instructions: 206500938 cycles: 122076672 heartbeat IPC: 1.326 cumulative IPC: 1.415 (Simulation time: 00 hr 24 min 14 sec)
Heartbeat CPU 0 instructions: 207000939 cycles: 122441216 heartbeat IPC: 1.372 cumulative IPC: 1.415 (Simulation time: 00 hr 24 min 17 sec)
Heartbeat CPU 0 instructions: 207500941 cycles: 122794425 heartbeat IPC: 1.416 cumulative IPC: 1.415 (Simulation time: 00 hr 24 min 20 sec)
Heartbeat CPU 0 instructions: 208000942 cycles: 123140948 heartbeat IPC: 1.443 cumulative IPC: 1.415 (Simulation time: 00 hr 24 min 24 sec)
Heartbeat CPU 0 instructions: 208500944 cycles: 123493753 heartbeat IPC: 1.417 cumulative IPC: 1.415 (Simulation time: 00 hr 24 min 27 sec)
Heartbeat CPU 0 instructions: 209000944 cycles: 123856123 heartbeat IPC: 1.38 cumulative IPC: 1.415 (Simulation time: 00 hr 24 min 30 sec)
Heartbeat CPU 0 instructions: 209500944 cycles: 124212131 heartbeat IPC: 1.404 cumulative IPC: 1.415 (Simulation time: 00 hr 24 min 34 sec)
Heartbeat CPU 0 instructions: 210000947 cycles: 124563509 heartbeat IPC: 1.423 cumulative IPC: 1.415 (Simulation time: 00 hr 24 min 37 sec)
Heartbeat CPU 0 instructions: 210500950 cycles: 124910294 heartbeat IPC: 1.442 cumulative IPC: 1.415 (Simulation time: 00 hr 24 min 40 sec)
Heartbeat CPU 0 instructions: 211000951 cycles: 125263348 heartbeat IPC: 1.416 cumulative IPC: 1.415 (Simulation time: 00 hr 24 min 43 sec)
Heartbeat CPU 0 instructions: 211500957 cycles: 125618127 heartbeat IPC: 1.409 cumulative IPC: 1.415 (Simulation time: 00 hr 24 min 46 sec)
Heartbeat CPU 0 instructions: 212000957 cycles: 125981248 heartbeat IPC: 1.377 cumulative IPC: 1.415 (Simulation time: 00 hr 24 min 50 sec)
Heartbeat CPU 0 instructions: 212500957 cycles: 126339331 heartbeat IPC: 1.396 cumulative IPC: 1.415 (Simulation time: 00 hr 24 min 53 sec)
Heartbeat CPU 0 instructions: 213000957 cycles: 126692658 heartbeat IPC: 1.415 cumulative IPC: 1.415 (Simulation time: 00 hr 24 min 56 sec)
Heartbeat CPU 0 instructions: 213500959 cycles: 127047941 heartbeat IPC: 1.407 cumulative IPC: 1.415 (Simulation time: 00 hr 25 min 00 sec)
Heartbeat CPU 0 instructions: 214000961 cycles: 127397782 heartbeat IPC: 1.429 cumulative IPC: 1.415 (Simulation time: 00 hr 25 min 03 sec)
Heartbeat CPU 0 instructions: 214500961 cycles: 127752550 heartbeat IPC: 1.409 cumulative IPC: 1.415 (Simulation time: 00 hr 25 min 06 sec)
Heartbeat CPU 0 instructions: 215000964 cycles: 128116082 heartbeat IPC: 1.375 cumulative IPC: 1.415 (Simulation time: 00 hr 25 min 09 sec)
Heartbeat CPU 0 instructions: 215500965 cycles: 128478199 heartbeat IPC: 1.381 cumulative IPC: 1.415 (Simulation time: 00 hr 25 min 13 sec)
Heartbeat CPU 0 instructions: 216000966 cycles: 128875423 heartbeat IPC: 1.259 cumulative IPC: 1.414 (Simulation time: 00 hr 25 min 16 sec)
Heartbeat CPU 0 instructions: 216500967 cycles: 129228231 heartbeat IPC: 1.417 cumulative IPC: 1.414 (Simulation time: 00 hr 25 min 20 sec)
Heartbeat CPU 0 instructions: 217000968 cycles: 129588305 heartbeat IPC: 1.389 cumulative IPC: 1.414 (Simulation time: 00 hr 25 min 23 sec)
Heartbeat CPU 0 instructions: 217500968 cycles: 129949523 heartbeat IPC: 1.384 cumulative IPC: 1.414 (Simulation time: 00 hr 25 min 26 sec)
Heartbeat CPU 0 instructions: 218000971 cycles: 130308754 heartbeat IPC: 1.392 cumulative IPC: 1.414 (Simulation time: 00 hr 25 min 30 sec)
Heartbeat CPU 0 instructions: 218500971 cycles: 130659058 heartbeat IPC: 1.427 cumulative IPC: 1.414 (Simulation time: 00 hr 25 min 33 sec)
Heartbeat CPU 0 instructions: 219000975 cycles: 131022547 heartbeat IPC: 1.376 cumulative IPC: 1.414 (Simulation time: 00 hr 25 min 36 sec)
Heartbeat CPU 0 instructions: 219500981 cycles: 131373784 heartbeat IPC: 1.424 cumulative IPC: 1.414 (Simulation time: 00 hr 25 min 40 sec)
Heartbeat CPU 0 instructions: 220000982 cycles: 131740436 heartbeat IPC: 1.364 cumulative IPC: 1.414 (Simulation time: 00 hr 25 min 43 sec)
Heartbeat CPU 0 instructions: 220500987 cycles: 132101186 heartbeat IPC: 1.386 cumulative IPC: 1.414 (Simulation time: 00 hr 25 min 46 sec)
Heartbeat CPU 0 instructions: 221000987 cycles: 132455866 heartbeat IPC: 1.41 cumulative IPC: 1.414 (Simulation time: 00 hr 25 min 50 sec)
Heartbeat CPU 0 instructions: 221500987 cycles: 132828541 heartbeat IPC: 1.342 cumulative IPC: 1.414 (Simulation time: 00 hr 25 min 53 sec)
Heartbeat CPU 0 instructions: 222000992 cycles: 133191649 heartbeat IPC: 1.377 cumulative IPC: 1.414 (Simulation time: 00 hr 25 min 56 sec)
Heartbeat CPU 0 instructions: 222500994 cycles: 133554210 heartbeat IPC: 1.379 cumulative IPC: 1.413 (Simulation time: 00 hr 26 min 00 sec)
Heartbeat CPU 0 instructions: 223000994 cycles: 133906089 heartbeat IPC: 1.421 cumulative IPC: 1.413 (Simulation time: 00 hr 26 min 03 sec)
Heartbeat CPU 0 instructions: 223500994 cycles: 134267061 heartbeat IPC: 1.385 cumulative IPC: 1.413 (Simulation time: 00 hr 26 min 06 sec)
Heartbeat CPU 0 instructions: 224000994 cycles: 134624182 heartbeat IPC: 1.4 cumulative IPC: 1.413 (Simulation time: 00 hr 26 min 09 sec)
Heartbeat CPU 0 instructions: 224500995 cycles: 134973005 heartbeat IPC: 1.433 cumulative IPC: 1.413 (Simulation time: 00 hr 26 min 13 sec)
Heartbeat CPU 0 instructions: 225001001 cycles: 135321868 heartbeat IPC: 1.433 cumulative IPC: 1.413 (Simulation time: 00 hr 26 min 16 sec)
Heartbeat CPU 0 instructions: 225501004 cycles: 135677078 heartbeat IPC: 1.408 cumulative IPC: 1.413 (Simulation time: 00 hr 26 min 19 sec)
Heartbeat CPU 0 instructions: 226001005 cycles: 136028098 heartbeat IPC: 1.424 cumulative IPC: 1.413 (Simulation time: 00 hr 26 min 22 sec)
Heartbeat CPU 0 instructions: 226501010 cycles: 136384074 heartbeat IPC: 1.405 cumulative IPC: 1.413 (Simulation time: 00 hr 26 min 26 sec)
Heartbeat CPU 0 instructions: 227001013 cycles: 136739779 heartbeat IPC: 1.406 cumulative IPC: 1.413 (Simulation time: 00 hr 26 min 29 sec)
Heartbeat CPU 0 instructions: 227501013 cycles: 137100509 heartbeat IPC: 1.386 cumulative IPC: 1.413 (Simulation time: 00 hr 26 min 32 sec)
Heartbeat CPU 0 instructions: 228001014 cycles: 137446470 heartbeat IPC: 1.445 cumulative IPC: 1.413 (Simulation time: 00 hr 26 min 35 sec)
Heartbeat CPU 0 instructions: 228501014 cycles: 137801483 heartbeat IPC: 1.408 cumulative IPC: 1.413 (Simulation time: 00 hr 26 min 39 sec)
Heartbeat CPU 0 instructions: 229001019 cycles: 138157761 heartbeat IPC: 1.403 cumulative IPC: 1.413 (Simulation time: 00 hr 26 min 42 sec)
Heartbeat CPU 0 instructions: 229501021 cycles: 138515870 heartbeat IPC: 1.396 cumulative IPC: 1.413 (Simulation time: 00 hr 26 min 45 sec)
Heartbeat CPU 0 instructions: 230001023 cycles: 138864474 heartbeat IPC: 1.434 cumulative IPC: 1.413 (Simulation time: 00 hr 26 min 48 sec)
Heartbeat CPU 0 instructions: 230501028 cycles: 139206137 heartbeat IPC: 1.463 cumulative IPC: 1.414 (Simulation time: 00 hr 26 min 51 sec)
Heartbeat CPU 0 instructions: 231001028 cycles: 139547265 heartbeat IPC: 1.466 cumulative IPC: 1.414 (Simulation time: 00 hr 26 min 55 sec)
Heartbeat CPU 0 instructions: 231501029 cycles: 139897185 heartbeat IPC: 1.429 cumulative IPC: 1.414 (Simulation time: 00 hr 26 min 58 sec)
Heartbeat CPU 0 instructions: 232001031 cycles: 140255374 heartbeat IPC: 1.396 cumulative IPC: 1.414 (Simulation time: 00 hr 27 min 01 sec)
Heartbeat CPU 0 instructions: 232501038 cycles: 140663864 heartbeat IPC: 1.224 cumulative IPC: 1.413 (Simulation time: 00 hr 27 min 05 sec)
Heartbeat CPU 0 instructions: 233001039 cycles: 141023645 heartbeat IPC: 1.39 cumulative IPC: 1.413 (Simulation time: 00 hr 27 min 08 sec)
Heartbeat CPU 0 instructions: 233501039 cycles: 141379378 heartbeat IPC: 1.406 cumulative IPC: 1.413 (Simulation time: 00 hr 27 min 11 sec)
Heartbeat CPU 0 instructions: 234001043 cycles: 141714875 heartbeat IPC: 1.49 cumulative IPC: 1.413 (Simulation time: 00 hr 27 min 14 sec)
Heartbeat CPU 0 instructions: 234501047 cycles: 142055005 heartbeat IPC: 1.47 cumulative IPC: 1.413 (Simulation time: 00 hr 27 min 18 sec)
Heartbeat CPU 0 instructions: 235001049 cycles: 142405379 heartbeat IPC: 1.427 cumulative IPC: 1.413 (Simulation time: 00 hr 27 min 21 sec)
Heartbeat CPU 0 instructions: 235501053 cycles: 142752075 heartbeat IPC: 1.442 cumulative IPC: 1.413 (Simulation time: 00 hr 27 min 24 sec)
Heartbeat CPU 0 instructions: 236001057 cycles: 143103016 heartbeat IPC: 1.425 cumulative IPC: 1.413 (Simulation time: 00 hr 27 min 27 sec)
Heartbeat CPU 0 instructions: 236501060 cycles: 143455776 heartbeat IPC: 1.417 cumulative IPC: 1.413 (Simulation time: 00 hr 27 min 30 sec)
Heartbeat CPU 0 instructions: 237001065 cycles: 143797104 heartbeat IPC: 1.465 cumulative IPC: 1.414 (Simulation time: 00 hr 27 min 34 sec)
Heartbeat CPU 0 instructions: 237501068 cycles: 144160630 heartbeat IPC: 1.375 cumulative IPC: 1.413 (Simulation time: 00 hr 27 min 37 sec)
Heartbeat CPU 0 instructions: 238001068 cycles: 144521046 heartbeat IPC: 1.387 cumulative IPC: 1.413 (Simulation time: 00 hr 27 min 40 sec)
Heartbeat CPU 0 instructions: 238501069 cycles: 144876180 heartbeat IPC: 1.408 cumulative IPC: 1.413 (Simulation time: 00 hr 27 min 44 sec)
Heartbeat CPU 0 instructions: 239001069 cycles: 145225528 heartbeat IPC: 1.431 cumulative IPC: 1.413 (Simulation time: 00 hr 27 min 47 sec)
Heartbeat CPU 0 instructions: 239501072 cycles: 145589514 heartbeat IPC: 1.374 cumulative IPC: 1.413 (Simulation time: 00 hr 27 min 50 sec)
Heartbeat CPU 0 instructions: 240001072 cycles: 145936354 heartbeat IPC: 1.442 cumulative IPC: 1.413 (Simulation time: 00 hr 27 min 53 sec)
Heartbeat CPU 0 instructions: 240501075 cycles: 146282726 heartbeat IPC: 1.444 cumulative IPC: 1.413 (Simulation time: 00 hr 27 min 56 sec)
Heartbeat CPU 0 instructions: 241001077 cycles: 146624115 heartbeat IPC: 1.465 cumulative IPC: 1.414 (Simulation time: 00 hr 28 min 00 sec)
Heartbeat CPU 0 instructions: 241501077 cycles: 146975561 heartbeat IPC: 1.423 cumulative IPC: 1.414 (Simulation time: 00 hr 28 min 03 sec)
Heartbeat CPU 0 instructions: 242001080 cycles: 147367076 heartbeat IPC: 1.277 cumulative IPC: 1.413 (Simulation time: 00 hr 28 min 06 sec)
Heartbeat CPU 0 instructions: 242501082 cycles: 147720567 heartbeat IPC: 1.414 cumulative IPC: 1.413 (Simulation time: 00 hr 28 min 09 sec)
Heartbeat CPU 0 instructions: 243001083 cycles: 148067353 heartbeat IPC: 1.442 cumulative IPC: 1.413 (Simulation time: 00 hr 28 min 13 sec)
Heartbeat CPU 0 instructions: 243501085 cycles: 148416694 heartbeat IPC: 1.431 cumulative IPC: 1.413 (Simulation time: 00 hr 28 min 16 sec)
Heartbeat CPU 0 instructions: 244001090 cycles: 148770009 heartbeat IPC: 1.415 cumulative IPC: 1.413 (Simulation time: 00 hr 28 min 19 sec)
Heartbeat CPU 0 instructions: 244501097 cycles: 149123897 heartbeat IPC: 1.413 cumulative IPC: 1.413 (Simulation time: 00 hr 28 min 22 sec)
Heartbeat CPU 0 instructions: 245001098 cycles: 149483453 heartbeat IPC: 1.391 cumulative IPC: 1.413 (Simulation time: 00 hr 28 min 26 sec)
Heartbeat CPU 0 instructions: 245501098 cycles: 149871806 heartbeat IPC: 1.287 cumulative IPC: 1.413 (Simulation time: 00 hr 28 min 29 sec)
Heartbeat CPU 0 instructions: 246001100 cycles: 150223992 heartbeat IPC: 1.42 cumulative IPC: 1.413 (Simulation time: 00 hr 28 min 32 sec)
Heartbeat CPU 0 instructions: 246501103 cycles: 150587004 heartbeat IPC: 1.377 cumulative IPC: 1.413 (Simulation time: 00 hr 28 min 36 sec)
Heartbeat CPU 0 instructions: 247001105 cycles: 150945377 heartbeat IPC: 1.395 cumulative IPC: 1.413 (Simulation time: 00 hr 28 min 39 sec)
Heartbeat CPU 0 instructions: 247501105 cycles: 151307680 heartbeat IPC: 1.38 cumulative IPC: 1.413 (Simulation time: 00 hr 28 min 42 sec)
Heartbeat CPU 0 instructions: 248001105 cycles: 151669284 heartbeat IPC: 1.383 cumulative IPC: 1.413 (Simulation time: 00 hr 28 min 45 sec)
Heartbeat CPU 0 instructions: 248501105 cycles: 152018391 heartbeat IPC: 1.432 cumulative IPC: 1.413 (Simulation time: 00 hr 28 min 49 sec)
Heartbeat CPU 0 instructions: 249001111 cycles: 152378596 heartbeat IPC: 1.388 cumulative IPC: 1.413 (Simulation time: 00 hr 28 min 52 sec)
Heartbeat CPU 0 instructions: 249501113 cycles: 152732581 heartbeat IPC: 1.412 cumulative IPC: 1.413 (Simulation time: 00 hr 28 min 55 sec)
Simulation finished CPU 0 instructions: 200000000 cycles: 141584370 cumulative IPC: 1.413 (Simulation time: 00 hr 28 min 58 sec)
Simulation complete CPU 0 instructions: 200000000 cycles: 141584370 cumulative IPC: 1.413 (Simulation time: 00 hr 28 min 58 sec)

ChampSim completed all CPUs

=== Simulation ===
CPU 0 runs /local-ssd/ben/dpc4-traces/SPEC17/602.gcc_s-1850B.champsimtrace.xz

Region of Interest Statistics

CPU 0 cumulative IPC: 1.413 instructions: 200000000 cycles: 141584370
CPU 0 Branch Prediction Accuracy: 96.74% MPKI: 8.371 Average ROB Occupancy at Mispredict: 42.71
Branch type MPKI
BRANCH_DIRECT_JUMP: 0.009825
BRANCH_INDIRECT: 0
BRANCH_CONDITIONAL: 8.361
BRANCH_DIRECT_CALL: 0
BRANCH_INDIRECT_CALL: 0
BRANCH_RETURN: 0

cpu0->cpu0_STLB TOTAL        ACCESS:      66434 HIT:       5234 MISS:      61200 MSHR_MERGE:          0
cpu0->cpu0_STLB LOAD         ACCESS:      66434 HIT:       5234 MISS:      61200 MSHR_MERGE:          0
cpu0->cpu0_STLB RFO          ACCESS:          0 HIT:          0 MISS:          0 MSHR_MERGE:          0
cpu0->cpu0_STLB PREFETCH     ACCESS:          0 HIT:          0 MISS:          0 MSHR_MERGE:          0
cpu0->cpu0_STLB WRITE        ACCESS:          0 HIT:          0 MISS:          0 MSHR_MERGE:          0
cpu0->cpu0_STLB TRANSLATION  ACCESS:          0 HIT:          0 MISS:          0 MSHR_MERGE:          0
cpu0->cpu0_STLB PREFETCH REQUESTED:          0 ISSUED:          0 USEFUL:          0 USELESS:          0
cpu0->cpu0_STLB AVERAGE MISS LATENCY: 258.7 cycles
cpu0->cpu0_L2C TOTAL        ACCESS:   27574614 HIT:   19639593 MISS:    7935021 MSHR_MERGE:    4314360
cpu0->cpu0_L2C LOAD         ACCESS:     594338 HIT:     569028 MISS:      25310 MSHR_MERGE:       1842
cpu0->cpu0_L2C RFO          ACCESS:       1166 HIT:       1122 MISS:         44 MSHR_MERGE:         25
cpu0->cpu0_L2C PREFETCH     ACCESS:   26955548 HIT:   19056420 MISS:    7899128 MSHR_MERGE:    4312493
cpu0->cpu0_L2C WRITE        ACCESS:       8916 HIT:       8916 MISS:          0 MSHR_MERGE:          0
cpu0->cpu0_L2C TRANSLATION  ACCESS:      14646 HIT:       4107 MISS:      10539 MSHR_MERGE:          0
cpu0->cpu0_L2C PREFETCH REQUESTED:   22545531 ISSUED:   22481778 USEFUL:    3083395 USELESS:     304811
cpu0->cpu0_L2C AVERAGE MISS LATENCY: 220.9 cycles
cpu0->cpu0_L1I TOTAL        ACCESS:   11893739 HIT:   11893739 MISS:          0 MSHR_MERGE:          0
cpu0->cpu0_L1I LOAD         ACCESS:   11893739 HIT:   11893739 MISS:          0 MSHR_MERGE:          0
cpu0->cpu0_L1I RFO          ACCESS:          0 HIT:          0 MISS:          0 MSHR_MERGE:          0
cpu0->cpu0_L1I PREFETCH     ACCESS:          0 HIT:          0 MISS:          0 MSHR_MERGE:          0
cpu0->cpu0_L1I WRITE        ACCESS:          0 HIT:          0 MISS:          0 MSHR_MERGE:          0
cpu0->cpu0_L1I TRANSLATION  ACCESS:          0 HIT:          0 MISS:          0 MSHR_MERGE:          0
cpu0->cpu0_L1I PREFETCH REQUESTED:          0 ISSUED:          0 USEFUL:          0 USELESS:          0
cpu0->cpu0_L1I AVERAGE MISS LATENCY: - cycles
cpu0->cpu0_L1D TOTAL        ACCESS:   63083117 HIT:   56487791 MISS:    6595326 MSHR_MERGE:    1511406
cpu0->cpu0_L1D LOAD         ACCESS:   34669293 HIT:   33411457 MISS:    1257836 MSHR_MERGE:     663498
cpu0->cpu0_L1D RFO          ACCESS:          0 HIT:          0 MISS:          0 MSHR_MERGE:          0
cpu0->cpu0_L1D PREFETCH     ACCESS:   11027588 HIT:    5705944 MISS:    5321644 MSHR_MERGE:     847874
cpu0->cpu0_L1D WRITE        ACCESS:   17263234 HIT:   17262055 MISS:       1179 MSHR_MERGE:         13
cpu0->cpu0_L1D TRANSLATION  ACCESS:     123002 HIT:     108335 MISS:      14667 MSHR_MERGE:         21
cpu0->cpu0_L1D PREFETCH REQUESTED:   11027595 ISSUED:   11027580 USEFUL:    4298739 USELESS:     175001
cpu0->cpu0_L1D AVERAGE MISS LATENCY: 36.5 cycles
cpu0->cpu0_ITLB TOTAL        ACCESS:   10661606 HIT:   10661606 MISS:          0 MSHR_MERGE:          0
cpu0->cpu0_ITLB LOAD         ACCESS:   10661606 HIT:   10661606 MISS:          0 MSHR_MERGE:          0
cpu0->cpu0_ITLB RFO          ACCESS:          0 HIT:          0 MISS:          0 MSHR_MERGE:          0
cpu0->cpu0_ITLB PREFETCH     ACCESS:          0 HIT:          0 MISS:          0 MSHR_MERGE:          0
cpu0->cpu0_ITLB WRITE        ACCESS:          0 HIT:          0 MISS:          0 MSHR_MERGE:          0
cpu0->cpu0_ITLB TRANSLATION  ACCESS:          0 HIT:          0 MISS:          0 MSHR_MERGE:          0
cpu0->cpu0_ITLB PREFETCH REQUESTED:          0 ISSUED:          0 USEFUL:          0 USELESS:          0
cpu0->cpu0_ITLB AVERAGE MISS LATENCY: - cycles
cpu0->cpu0_DTLB TOTAL        ACCESS:   57271433 HIT:   57030496 MISS:     240937 MSHR_MERGE:     174503
cpu0->cpu0_DTLB LOAD         ACCESS:   57271433 HIT:   57030496 MISS:     240937 MSHR_MERGE:     174503
cpu0->cpu0_DTLB RFO          ACCESS:          0 HIT:          0 MISS:          0 MSHR_MERGE:          0
cpu0->cpu0_DTLB PREFETCH     ACCESS:          0 HIT:          0 MISS:          0 MSHR_MERGE:          0
cpu0->cpu0_DTLB WRITE        ACCESS:          0 HIT:          0 MISS:          0 MSHR_MERGE:          0
cpu0->cpu0_DTLB TRANSLATION  ACCESS:          0 HIT:          0 MISS:          0 MSHR_MERGE:          0
cpu0->cpu0_DTLB PREFETCH REQUESTED:          0 ISSUED:          0 USEFUL:          0 USELESS:          0
cpu0->cpu0_DTLB AVERAGE MISS LATENCY: 244.3 cycles
cpu0->LLC TOTAL        ACCESS:    7052010 HIT:    2847058 MISS:    4204952 MSHR_MERGE:     494549
cpu0->LLC LOAD         ACCESS:      23468 HIT:       4723 MISS:      18745 MSHR_MERGE:        131
cpu0->LLC RFO          ACCESS:         19 HIT:         11 MISS:          8 MSHR_MERGE:          0
cpu0->LLC PREFETCH     ACCESS:    7013055 HIT:    2839138 MISS:    4173917 MSHR_MERGE:     494418
cpu0->LLC WRITE        ACCESS:       4929 HIT:       3182 MISS:       1747 MSHR_MERGE:          0
cpu0->LLC TRANSLATION  ACCESS:      10539 HIT:          4 MISS:      10535 MSHR_MERGE:          0
cpu0->LLC PREFETCH REQUESTED:    3429004 ISSUED:    3426426 USEFUL:    2811485 USELESS:     338788
cpu0->LLC AVERAGE MISS LATENCY: 228.9 cycles

DRAM Statistics

Channel 0 RQ ROW_BUFFER_HIT:    1507848
  ROW_BUFFER_MISS:    2200781
  AVG DBUS CONGESTED CYCLE: 4.032
Channel 0 WQ ROW_BUFFER_HIT:        145
  ROW_BUFFER_MISS:       4713
  FULL:          0
Channel 0 REFRESHES ISSUED:      11798
