[VMEM] WARNING: physical memory size is smaller than virtual memory size.

*** ChampSim Multicore Out-of-Order Simulator ***
Warmup Instructions: 50000000
Simulation Instructions: 200000000
Number of CPUs: 1
Page size: 4096
Core 0: /local-ssd/ben/dpc4-traces/gtraces_v2/tahoe_0001.champsim.gz
Off-chip DRAM Size: 64 GiB Channels: 1 Width: 64-bit Data Rate: 4807 MT/s
[BTB] WARNING: target of return is a lower address than the corresponding call. This is usually a problem with your trace.
[BTB] WARNING: target of return is a lower address than the corresponding call. This is usually a problem with your trace.
[BTB] WARNING: target of return is a lower address than the corresponding call. This is usually a problem with your trace.
[BTB] WARNING: target of return is a lower address than the corresponding call. This is usually a problem with your trace.
[BTB] WARNING: target of return is a lower address than the corresponding call. This is usually a problem with your trace.
[BTB] WARNING: target of return is a lower address than the corresponding call. This is usually a problem with your trace.
[BTB] WARNING: target of return is a lower address than the corresponding call. This is usually a problem with your trace.
[BTB] WARNING: target of return is a lower address than the corresponding call. This is usually a problem with your trace.
[BTB] WARNING: target of return is a lower address than the corresponding call. This is usually a problem with your trace.
[BTB] WARNING: target of return is a lower address than the corresponding call. This is usually a problem with your trace.
Heartbeat CPU 0 instructions: 500002 cycles: 296482 heartbeat IPC: 1.686 cumulative IPC: 1.686 (Simulation time: 00 hr 00 min 05 sec)
Heartbeat CPU 0 instructions: 1000007 cycles: 421117 heartbeat IPC: 4.012 cumulative IPC: 2.375 (Simulation time: 00 hr 00 min 07 sec)
Heartbeat CPU 0 instructions: 1500009 cycles: 539146 heartbeat IPC: 4.236 cumulative IPC: 2.782 (Simulation time: 00 hr 00 min 09 sec)
Heartbeat CPU 0 instructions: 2000012 cycles: 660365 heartbeat IPC: 4.125 cumulative IPC: 3.029 (Simulation time: 00 hr 00 min 12 sec)
Heartbeat CPU 0 instructions: 2500019 cycles: 778058 heartbeat IPC: 4.248 cumulative IPC: 3.213 (Simulation time: 00 hr 00 min 14 sec)
Heartbeat CPU 0 instructions: 3000026 cycles: 890066 heartbeat IPC: 4.464 cumulative IPC: 3.371 (Simulation time: 00 hr 00 min 16 sec)
Heartbeat CPU 0 instructions: 3500030 cycles: 992351 heartbeat IPC: 4.888 cumulative IPC: 3.527 (Simulation time: 00 hr 00 min 18 sec)
Heartbeat CPU 0 instructions: 4000031 cycles: 1094562 heartbeat IPC: 4.892 cumulative IPC: 3.654 (Simulation time: 00 hr 00 min 20 sec)
Heartbeat CPU 0 instructions: 4500032 cycles: 1198309 heartbeat IPC: 4.819 cumulative IPC: 3.755 (Simulation time: 00 hr 00 min 22 sec)
Heartbeat CPU 0 instructions: 5000032 cycles: 1301302 heartbeat IPC: 4.855 cumulative IPC: 3.842 (Simulation time: 00 hr 00 min 24 sec)
Heartbeat CPU 0 instructions: 5500038 cycles: 1403312 heartbeat IPC: 4.902 cumulative IPC: 3.919 (Simulation time: 00 hr 00 min 26 sec)
Heartbeat CPU 0 instructions: 6000041 cycles: 1505856 heartbeat IPC: 4.876 cumulative IPC: 3.984 (Simulation time: 00 hr 00 min 28 sec)
Heartbeat CPU 0 instructions: 6500046 cycles: 1607661 heartbeat IPC: 4.911 cumulative IPC: 4.043 (Simulation time: 00 hr 00 min 30 sec)
Heartbeat CPU 0 instructions: 7000049 cycles: 1709803 heartbeat IPC: 4.895 cumulative IPC: 4.094 (Simulation time: 00 hr 00 min 32 sec)
Heartbeat CPU 0 instructions: 7500054 cycles: 1812344 heartbeat IPC: 4.876 cumulative IPC: 4.138 (Simulation time: 00 hr 00 min 34 sec)
Heartbeat CPU 0 instructions: 8000058 cycles: 1914182 heartbeat IPC: 4.91 cumulative IPC: 4.179 (Simulation time: 00 hr 00 min 36 sec)
Heartbeat CPU 0 instructions: 8500061 cycles: 2016319 heartbeat IPC: 4.895 cumulative IPC: 4.216 (Simulation time: 00 hr 00 min 38 sec)
Heartbeat CPU 0 instructions: 9000068 cycles: 2119259 heartbeat IPC: 4.857 cumulative IPC: 4.247 (Simulation time: 00 hr 00 min 40 sec)
Heartbeat CPU 0 instructions: 9500074 cycles: 2282289 heartbeat IPC: 3.067 cumulative IPC: 4.163 (Simulation time: 00 hr 00 min 43 sec)
Heartbeat CPU 0 instructions: 10000080 cycles: 2487309 heartbeat IPC: 2.439 cumulative IPC: 4.02 (Simulation time: 00 hr 00 min 47 sec)
Heartbeat CPU 0 instructions: 10500081 cycles: 2692321 heartbeat IPC: 2.439 cumulative IPC: 3.9 (Simulation time: 00 hr 00 min 50 sec)
Heartbeat CPU 0 instructions: 11000088 cycles: 2830798 heartbeat IPC: 3.611 cumulative IPC: 3.886 (Simulation time: 00 hr 00 min 53 sec)
Heartbeat CPU 0 instructions: 11500092 cycles: 2984402 heartbeat IPC: 3.255 cumulative IPC: 3.853 (Simulation time: 00 hr 00 min 56 sec)
Heartbeat CPU 0 instructions: 12000094 cycles: 3109839 heartbeat IPC: 3.986 cumulative IPC: 3.859 (Simulation time: 00 hr 00 min 58 sec)
Heartbeat CPU 0 instructions: 12500095 cycles: 3313751 heartbeat IPC: 2.452 cumulative IPC: 3.772 (Simulation time: 00 hr 01 min 02 sec)
Heartbeat CPU 0 instructions: 13000099 cycles: 3479932 heartbeat IPC: 3.009 cumulative IPC: 3.736 (Simulation time: 00 hr 01 min 05 sec)
Heartbeat CPU 0 instructions: 13500105 cycles: 3590584 heartbeat IPC: 4.519 cumulative IPC: 3.76 (Simulation time: 00 hr 01 min 07 sec)
Heartbeat CPU 0 instructions: 14000109 cycles: 3695495 heartbeat IPC: 4.766 cumulative IPC: 3.788 (Simulation time: 00 hr 01 min 10 sec)
Heartbeat CPU 0 instructions: 14500115 cycles: 3819285 heartbeat IPC: 4.039 cumulative IPC: 3.797 (Simulation time: 00 hr 01 min 12 sec)
Heartbeat CPU 0 instructions: 15000121 cycles: 3948463 heartbeat IPC: 3.871 cumulative IPC: 3.799 (Simulation time: 00 hr 01 min 15 sec)
Heartbeat CPU 0 instructions: 15500123 cycles: 4078842 heartbeat IPC: 3.835 cumulative IPC: 3.8 (Simulation time: 00 hr 01 min 17 sec)
Heartbeat CPU 0 instructions: 16000124 cycles: 4186072 heartbeat IPC: 4.663 cumulative IPC: 3.822 (Simulation time: 00 hr 01 min 19 sec)
Heartbeat CPU 0 instructions: 16500128 cycles: 4298164 heartbeat IPC: 4.461 cumulative IPC: 3.839 (Simulation time: 00 hr 01 min 21 sec)
Heartbeat CPU 0 instructions: 17000135 cycles: 4484110 heartbeat IPC: 2.689 cumulative IPC: 3.791 (Simulation time: 00 hr 01 min 25 sec)
Heartbeat CPU 0 instructions: 17500141 cycles: 4614806 heartbeat IPC: 3.826 cumulative IPC: 3.792 (Simulation time: 00 hr 01 min 27 sec)
Heartbeat CPU 0 instructions: 18000148 cycles: 4758079 heartbeat IPC: 3.49 cumulative IPC: 3.783 (Simulation time: 00 hr 01 min 30 sec)
Heartbeat CPU 0 instructions: 18500148 cycles: 4874460 heartbeat IPC: 4.296 cumulative IPC: 3.795 (Simulation time: 00 hr 01 min 32 sec)
Heartbeat CPU 0 instructions: 19000154 cycles: 5012357 heartbeat IPC: 3.626 cumulative IPC: 3.791 (Simulation time: 00 hr 01 min 35 sec)
Heartbeat CPU 0 instructions: 19500156 cycles: 5142935 heartbeat IPC: 3.829 cumulative IPC: 3.792 (Simulation time: 00 hr 01 min 37 sec)
Heartbeat CPU 0 instructions: 20000159 cycles: 5293140 heartbeat IPC: 3.329 cumulative IPC: 3.779 (Simulation time: 00 hr 01 min 40 sec)
Heartbeat CPU 0 instructions: 20500164 cycles: 5428840 heartbeat IPC: 3.685 cumulative IPC: 3.776 (Simulation time: 00 hr 01 min 43 sec)
Heartbeat CPU 0 instructions: 21000171 cycles: 5602011 heartbeat IPC: 2.887 cumulative IPC: 3.749 (Simulation time: 00 hr 01 min 46 sec)
Heartbeat CPU 0 instructions: 21500172 cycles: 5712507 heartbeat IPC: 4.525 cumulative IPC: 3.764 (Simulation time: 00 hr 01 min 48 sec)
Heartbeat CPU 0 instructions: 22000172 cycles: 5896543 heartbeat IPC: 2.717 cumulative IPC: 3.731 (Simulation time: 00 hr 01 min 51 sec)
Heartbeat CPU 0 instructions: 22500177 cycles: 6081198 heartbeat IPC: 2.708 cumulative IPC: 3.7 (Simulation time: 00 hr 01 min 54 sec)
Heartbeat CPU 0 instructions: 23000183 cycles: 6259732 heartbeat IPC: 2.801 cumulative IPC: 3.674 (Simulation time: 00 hr 01 min 58 sec)
Heartbeat CPU 0 instructions: 23500185 cycles: 6411427 heartbeat IPC: 3.296 cumulative IPC: 3.665 (Simulation time: 00 hr 02 min 01 sec)
Heartbeat CPU 0 instructions: 24000185 cycles: 6558816 heartbeat IPC: 3.392 cumulative IPC: 3.659 (Simulation time: 00 hr 02 min 04 sec)
Heartbeat CPU 0 instructions: 24500190 cycles: 6678696 heartbeat IPC: 4.171 cumulative IPC: 3.668 (Simulation time: 00 hr 02 min 06 sec)
Heartbeat CPU 0 instructions: 25000194 cycles: 6808833 heartbeat IPC: 3.842 cumulative IPC: 3.672 (Simulation time: 00 hr 02 min 09 sec)
Heartbeat CPU 0 instructions: 25500197 cycles: 6947430 heartbeat IPC: 3.608 cumulative IPC: 3.67 (Simulation time: 00 hr 02 min 12 sec)
Heartbeat CPU 0 instructions: 26000203 cycles: 7071412 heartbeat IPC: 4.033 cumulative IPC: 3.677 (Simulation time: 00 hr 02 min 14 sec)
Heartbeat CPU 0 instructions: 26500210 cycles: 7258341 heartbeat IPC: 2.675 cumulative IPC: 3.651 (Simulation time: 00 hr 02 min 18 sec)
Heartbeat CPU 0 instructions: 27000217 cycles: 7439689 heartbeat IPC: 2.757 cumulative IPC: 3.629 (Simulation time: 00 hr 02 min 21 sec)
Heartbeat CPU 0 instructions: 27500218 cycles: 7599739 heartbeat IPC: 3.124 cumulative IPC: 3.619 (Simulation time: 00 hr 02 min 24 sec)
Heartbeat CPU 0 instructions: 28000219 cycles: 7751633 heartbeat IPC: 3.292 cumulative IPC: 3.612 (Simulation time: 00 hr 02 min 26 sec)
Heartbeat CPU 0 instructions: 28500226 cycles: 7915408 heartbeat IPC: 3.053 cumulative IPC: 3.601 (Simulation time: 00 hr 02 min 29 sec)
Heartbeat CPU 0 instructions: 29000228 cycles: 8067449 heartbeat IPC: 3.289 cumulative IPC: 3.595 (Simulation time: 00 hr 02 min 32 sec)
Heartbeat CPU 0 instructions: 29500229 cycles: 8233930 heartbeat IPC: 3.003 cumulative IPC: 3.583 (Simulation time: 00 hr 02 min 36 sec)
Heartbeat CPU 0 instructions: 30000229 cycles: 8358698 heartbeat IPC: 4.007 cumulative IPC: 3.589 (Simulation time: 00 hr 02 min 38 sec)
Heartbeat CPU 0 instructions: 30500231 cycles: 8491138 heartbeat IPC: 3.775 cumulative IPC: 3.592 (Simulation time: 00 hr 02 min 41 sec)
Heartbeat CPU 0 instructions: 31000235 cycles: 8616534 heartbeat IPC: 3.987 cumulative IPC: 3.598 (Simulation time: 00 hr 02 min 43 sec)
Heartbeat CPU 0 instructions: 31500235 cycles: 8760878 heartbeat IPC: 3.464 cumulative IPC: 3.596 (Simulation time: 00 hr 02 min 46 sec)
Heartbeat CPU 0 instructions: 32000237 cycles: 8874222 heartbeat IPC: 4.411 cumulative IPC: 3.606 (Simulation time: 00 hr 02 min 48 sec)
Heartbeat CPU 0 instructions: 32500240 cycles: 8984756 heartbeat IPC: 4.524 cumulative IPC: 3.617 (Simulation time: 00 hr 02 min 51 sec)
Heartbeat CPU 0 instructions: 33000243 cycles: 9133590 heartbeat IPC: 3.359 cumulative IPC: 3.613 (Simulation time: 00 hr 02 min 53 sec)
Heartbeat CPU 0 instructions: 33500250 cycles: 9262686 heartbeat IPC: 3.873 cumulative IPC: 3.617 (Simulation time: 00 hr 02 min 56 sec)
Heartbeat CPU 0 instructions: 34000252 cycles: 9395109 heartbeat IPC: 3.776 cumulative IPC: 3.619 (Simulation time: 00 hr 02 min 58 sec)
Heartbeat CPU 0 instructions: 34500258 cycles: 9516259 heartbeat IPC: 4.127 cumulative IPC: 3.625 (Simulation time: 00 hr 03 min 00 sec)
Heartbeat CPU 0 instructions: 35000258 cycles: 9667200 heartbeat IPC: 3.313 cumulative IPC: 3.621 (Simulation time: 00 hr 03 min 03 sec)
Heartbeat CPU 0 instructions: 35500260 cycles: 9842070 heartbeat IPC: 2.859 cumulative IPC: 3.607 (Simulation time: 00 hr 03 min 07 sec)
Heartbeat CPU 0 instructions: 36000262 cycles: 10006253 heartbeat IPC: 3.045 cumulative IPC: 3.598 (Simulation time: 00 hr 03 min 10 sec)
Heartbeat CPU 0 instructions: 36500263 cycles: 10153432 heartbeat IPC: 3.397 cumulative IPC: 3.595 (Simulation time: 00 hr 03 min 13 sec)
Heartbeat CPU 0 instructions: 37000270 cycles: 10273127 heartbeat IPC: 4.177 cumulative IPC: 3.602 (Simulation time: 00 hr 03 min 15 sec)
Heartbeat CPU 0 instructions: 37500271 cycles: 10380065 heartbeat IPC: 4.676 cumulative IPC: 3.613 (Simulation time: 00 hr 03 min 17 sec)
Heartbeat CPU 0 instructions: 38000277 cycles: 10500848 heartbeat IPC: 4.14 cumulative IPC: 3.619 (Simulation time: 00 hr 03 min 19 sec)
Heartbeat CPU 0 instructions: 38500277 cycles: 10615143 heartbeat IPC: 4.375 cumulative IPC: 3.627 (Simulation time: 00 hr 03 min 22 sec)
Heartbeat CPU 0 instructions: 39000281 cycles: 10732661 heartbeat IPC: 4.255 cumulative IPC: 3.634 (Simulation time: 00 hr 03 min 24 sec)
Heartbeat CPU 0 instructions: 39500281 cycles: 10846495 heartbeat IPC: 4.392 cumulative IPC: 3.642 (Simulation time: 00 hr 03 min 27 sec)
Heartbeat CPU 0 instructions: 40000288 cycles: 10959087 heartbeat IPC: 4.441 cumulative IPC: 3.65 (Simulation time: 00 hr 03 min 29 sec)
Heartbeat CPU 0 instructions: 40500295 cycles: 11091614 heartbeat IPC: 3.773 cumulative IPC: 3.651 (Simulation time: 00 hr 03 min 31 sec)
Heartbeat CPU 0 instructions: 41000298 cycles: 11234598 heartbeat IPC: 3.497 cumulative IPC: 3.649 (Simulation time: 00 hr 03 min 34 sec)
Heartbeat CPU 0 instructions: 41500302 cycles: 11345339 heartbeat IPC: 4.515 cumulative IPC: 3.658 (Simulation time: 00 hr 03 min 36 sec)
Heartbeat CPU 0 instructions: 42000305 cycles: 11488284 heartbeat IPC: 3.498 cumulative IPC: 3.656 (Simulation time: 00 hr 03 min 39 sec)
Heartbeat CPU 0 instructions: 42500311 cycles: 11643341 heartbeat IPC: 3.225 cumulative IPC: 3.65 (Simulation time: 00 hr 03 min 42 sec)
Heartbeat CPU 0 instructions: 43000315 cycles: 11783213 heartbeat IPC: 3.575 cumulative IPC: 3.649 (Simulation time: 00 hr 03 min 45 sec)
Heartbeat CPU 0 instructions: 43500321 cycles: 11889545 heartbeat IPC: 4.702 cumulative IPC: 3.659 (Simulation time: 00 hr 03 min 47 sec)
Heartbeat CPU 0 instructions: 44000326 cycles: 11994411 heartbeat IPC: 4.768 cumulative IPC: 3.668 (Simulation time: 00 hr 03 min 49 sec)
Heartbeat CPU 0 instructions: 44500327 cycles: 12099462 heartbeat IPC: 4.76 cumulative IPC: 3.678 (Simulation time: 00 hr 03 min 51 sec)
Heartbeat CPU 0 instructions: 45000328 cycles: 12201792 heartbeat IPC: 4.886 cumulative IPC: 3.688 (Simulation time: 00 hr 03 min 53 sec)
Heartbeat CPU 0 instructions: 45500335 cycles: 12329170 heartbeat IPC: 3.925 cumulative IPC: 3.69 (Simulation time: 00 hr 03 min 56 sec)
Heartbeat CPU 0 instructions: 46000339 cycles: 12494782 heartbeat IPC: 3.019 cumulative IPC: 3.682 (Simulation time: 00 hr 03 min 58 sec)
Heartbeat CPU 0 instructions: 46500344 cycles: 12633908 heartbeat IPC: 3.594 cumulative IPC: 3.681 (Simulation time: 00 hr 04 min 01 sec)
Heartbeat CPU 0 instructions: 47000349 cycles: 12791192 heartbeat IPC: 3.179 cumulative IPC: 3.674 (Simulation time: 00 hr 04 min 04 sec)
Heartbeat CPU 0 instructions: 47500355 cycles: 12938241 heartbeat IPC: 3.4 cumulative IPC: 3.671 (Simulation time: 00 hr 04 min 07 sec)
Heartbeat CPU 0 instructions: 48000355 cycles: 13076496 heartbeat IPC: 3.617 cumulative IPC: 3.671 (Simulation time: 00 hr 04 min 10 sec)
Heartbeat CPU 0 instructions: 48500359 cycles: 13221786 heartbeat IPC: 3.441 cumulative IPC: 3.668 (Simulation time: 00 hr 04 min 12 sec)
Heartbeat CPU 0 instructions: 49000363 cycles: 13361334 heartbeat IPC: 3.583 cumulative IPC: 3.667 (Simulation time: 00 hr 04 min 15 sec)
Heartbeat CPU 0 instructions: 49500363 cycles: 13514839 heartbeat IPC: 3.257 cumulative IPC: 3.663 (Simulation time: 00 hr 04 min 18 sec)
Warmup halting CPU 0 at instruction 50000001 cycle 13617806 for remainder of phase
Warmup finished CPU 0 instructions: 50000001 cycles: 13617806 cumulative IPC: 3.672 (Simulation time: 00 hr 04 min 20 sec)
Warmup complete CPU 0 instructions: 50000001 cycles: 13617806 cumulative IPC: 3.672 (Simulation time: 00 hr 04 min 20 sec)
Heartbeat CPU 0 instructions: 50000364 cycles: 13617931 heartbeat IPC: 4.85 cumulative IPC: 2.904 (Simulation time: 00 hr 04 min 20 sec)
Heartbeat CPU 0 instructions: 50500366 cycles: 15091972 heartbeat IPC: 0.3392 cumulative IPC: 0.3394 (Simulation time: 00 hr 04 min 31 sec)
Heartbeat CPU 0 instructions: 51000366 cycles: 15694662 heartbeat IPC: 0.8296 cumulative IPC: 0.4817 (Simulation time: 00 hr 04 min 37 sec)
Heartbeat CPU 0 instructions: 51500367 cycles: 15986497 heartbeat IPC: 1.713 cumulative IPC: 0.6334 (Simulation time: 00 hr 04 min 41 sec)
Heartbeat CPU 0 instructions: 52000368 cycles: 16306481 heartbeat IPC: 1.563 cumulative IPC: 0.744 (Simulation time: 00 hr 04 min 44 sec)
Heartbeat CPU 0 instructions: 52500374 cycles: 16584825 heartbeat IPC: 1.796 cumulative IPC: 0.8427 (Simulation time: 00 hr 04 min 48 sec)
Heartbeat CPU 0 instructions: 53000375 cycles: 16874993 heartbeat IPC: 1.723 cumulative IPC: 0.9212 (Simulation time: 00 hr 04 min 51 sec)
Heartbeat CPU 0 instructions: 53500380 cycles: 17155781 heartbeat IPC: 1.781 cumulative IPC: 0.9894 (Simulation time: 00 hr 04 min 54 sec)
Heartbeat CPU 0 instructions: 54000384 cycles: 17435080 heartbeat IPC: 1.79 cumulative IPC: 1.048 (Simulation time: 00 hr 04 min 58 sec)
Heartbeat CPU 0 instructions: 54500386 cycles: 17719163 heartbeat IPC: 1.76 cumulative IPC: 1.097 (Simulation time: 00 hr 05 min 01 sec)
Heartbeat CPU 0 instructions: 55000387 cycles: 18012480 heartbeat IPC: 1.705 cumulative IPC: 1.138 (Simulation time: 00 hr 05 min 05 sec)
Heartbeat CPU 0 instructions: 55500391 cycles: 18297810 heartbeat IPC: 1.752 cumulative IPC: 1.175 (Simulation time: 00 hr 05 min 08 sec)
Heartbeat CPU 0 instructions: 56000392 cycles: 18575128 heartbeat IPC: 1.803 cumulative IPC: 1.21 (Simulation time: 00 hr 05 min 11 sec)
Heartbeat CPU 0 instructions: 56500394 cycles: 18855944 heartbeat IPC: 1.781 cumulative IPC: 1.241 (Simulation time: 00 hr 05 min 15 sec)
Heartbeat CPU 0 instructions: 57000396 cycles: 19144172 heartbeat IPC: 1.735 cumulative IPC: 1.267 (Simulation time: 00 hr 05 min 18 sec)
Heartbeat CPU 0 instructions: 57500396 cycles: 19432349 heartbeat IPC: 1.735 cumulative IPC: 1.29 (Simulation time: 00 hr 05 min 22 sec)
Heartbeat CPU 0 instructions: 58000396 cycles: 19712590 heartbeat IPC: 1.784 cumulative IPC: 1.313 (Simulation time: 00 hr 05 min 25 sec)
Heartbeat CPU 0 instructions: 58500396 cycles: 19990421 heartbeat IPC: 1.8 cumulative IPC: 1.334 (Simulation time: 00 hr 05 min 29 sec)
Heartbeat CPU 0 instructions: 59000397 cycles: 20284562 heartbeat IPC: 1.7 cumulative IPC: 1.35 (Simulation time: 00 hr 05 min 32 sec)
Heartbeat CPU 0 instructions: 59500397 cycles: 20568839 heartbeat IPC: 1.759 cumulative IPC: 1.367 (Simulation time: 00 hr 05 min 35 sec)
Heartbeat CPU 0 instructions: 60000401 cycles: 20853553 heartbeat IPC: 1.756 cumulative IPC: 1.382 (Simulation time: 00 hr 05 min 39 sec)
Heartbeat CPU 0 instructions: 60500408 cycles: 21131666 heartbeat IPC: 1.798 cumulative IPC: 1.397 (Simulation time: 00 hr 05 min 42 sec)
Heartbeat CPU 0 instructions: 61000411 cycles: 21417180 heartbeat IPC: 1.751 cumulative IPC: 1.41 (Simulation time: 00 hr 05 min 46 sec)
Heartbeat CPU 0 instructions: 61500413 cycles: 23411672 heartbeat IPC: 0.2507 cumulative IPC: 1.174 (Simulation time: 00 hr 06 min 01 sec)
Heartbeat CPU 0 instructions: 62000414 cycles: 25349066 heartbeat IPC: 0.2581 cumulative IPC: 1.023 (Simulation time: 00 hr 06 min 15 sec)
Heartbeat CPU 0 instructions: 62500414 cycles: 27043634 heartbeat IPC: 0.2951 cumulative IPC: 0.9311 (Simulation time: 00 hr 06 min 28 sec)
Heartbeat CPU 0 instructions: 63000419 cycles: 29412314 heartbeat IPC: 0.2111 cumulative IPC: 0.8231 (Simulation time: 00 hr 06 min 45 sec)
Heartbeat CPU 0 instructions: 63500419 cycles: 30732103 heartbeat IPC: 0.3788 cumulative IPC: 0.7888 (Simulation time: 00 hr 06 min 56 sec)
Heartbeat CPU 0 instructions: 64000422 cycles: 33037132 heartbeat IPC: 0.2169 cumulative IPC: 0.721 (Simulation time: 00 hr 07 min 13 sec)
Heartbeat CPU 0 instructions: 64500427 cycles: 35725882 heartbeat IPC: 0.186 cumulative IPC: 0.6559 (Simulation time: 00 hr 07 min 34 sec)
Heartbeat CPU 0 instructions: 65000427 cycles: 37464211 heartbeat IPC: 0.2876 cumulative IPC: 0.629 (Simulation time: 00 hr 07 min 47 sec)
Heartbeat CPU 0 instructions: 65500432 cycles: 37907349 heartbeat IPC: 1.128 cumulative IPC: 0.6382 (Simulation time: 00 hr 07 min 51 sec)
Heartbeat CPU 0 instructions: 66000432 cycles: 38522819 heartbeat IPC: 0.8124 cumulative IPC: 0.6425 (Simulation time: 00 hr 07 min 57 sec)
Heartbeat CPU 0 instructions: 66500436 cycles: 39105413 heartbeat IPC: 0.8582 cumulative IPC: 0.6474 (Simulation time: 00 hr 08 min 03 sec)
Heartbeat CPU 0 instructions: 67000436 cycles: 41052856 heartbeat IPC: 0.2567 cumulative IPC: 0.6197 (Simulation time: 00 hr 08 min 17 sec)
Heartbeat CPU 0 instructions: 67500436 cycles: 42946810 heartbeat IPC: 0.264 cumulative IPC: 0.5967 (Simulation time: 00 hr 08 min 32 sec)
Heartbeat CPU 0 instructions: 68000436 cycles: 44402343 heartbeat IPC: 0.3435 cumulative IPC: 0.5847 (Simulation time: 00 hr 08 min 43 sec)
Heartbeat CPU 0 instructions: 68500442 cycles: 46492188 heartbeat IPC: 0.2393 cumulative IPC: 0.5628 (Simulation time: 00 hr 08 min 58 sec)
Heartbeat CPU 0 instructions: 69000443 cycles: 47837764 heartbeat IPC: 0.3716 cumulative IPC: 0.5552 (Simulation time: 00 hr 09 min 09 sec)
Heartbeat CPU 0 instructions: 69500449 cycles: 48820963 heartbeat IPC: 0.5086 cumulative IPC: 0.5539 (Simulation time: 00 hr 09 min 16 sec)
Heartbeat CPU 0 instructions: 70000452 cycles: 49345119 heartbeat IPC: 0.9539 cumulative IPC: 0.5598 (Simulation time: 00 hr 09 min 21 sec)
Heartbeat CPU 0 instructions: 70500453 cycles: 50277603 heartbeat IPC: 0.5362 cumulative IPC: 0.5592 (Simulation time: 00 hr 09 min 29 sec)
Heartbeat CPU 0 instructions: 71000453 cycles: 51711500 heartbeat IPC: 0.3487 cumulative IPC: 0.5513 (Simulation time: 00 hr 09 min 40 sec)
Heartbeat CPU 0 instructions: 71500455 cycles: 52660617 heartbeat IPC: 0.5268 cumulative IPC: 0.5507 (Simulation time: 00 hr 09 min 47 sec)
Heartbeat CPU 0 instructions: 72000460 cycles: 54427263 heartbeat IPC: 0.283 cumulative IPC: 0.5391 (Simulation time: 00 hr 10 min 01 sec)
Heartbeat CPU 0 instructions: 72500467 cycles: 56436859 heartbeat IPC: 0.2488 cumulative IPC: 0.5255 (Simulation time: 00 hr 10 min 16 sec)
Heartbeat CPU 0 instructions: 73000468 cycles: 57875948 heartbeat IPC: 0.3474 cumulative IPC: 0.5197 (Simulation time: 00 hr 10 min 27 sec)
Heartbeat CPU 0 instructions: 73500470 cycles: 58865702 heartbeat IPC: 0.5052 cumulative IPC: 0.5194 (Simulation time: 00 hr 10 min 35 sec)
Heartbeat CPU 0 instructions: 74000476 cycles: 59389660 heartbeat IPC: 0.9543 cumulative IPC: 0.5244 (Simulation time: 00 hr 10 min 41 sec)
Heartbeat CPU 0 instructions: 74500479 cycles: 60554055 heartbeat IPC: 0.4294 cumulative IPC: 0.522 (Simulation time: 00 hr 10 min 50 sec)
Heartbeat CPU 0 instructions: 75000479 cycles: 63641968 heartbeat IPC: 0.1619 cumulative IPC: 0.4998 (Simulation time: 00 hr 11 min 13 sec)
Heartbeat CPU 0 instructions: 75500481 cycles: 65346443 heartbeat IPC: 0.2933 cumulative IPC: 0.493 (Simulation time: 00 hr 11 min 25 sec)
Heartbeat CPU 0 instructions: 76000485 cycles: 66684941 heartbeat IPC: 0.3736 cumulative IPC: 0.49 (Simulation time: 00 hr 11 min 36 sec)
Heartbeat CPU 0 instructions: 76500488 cycles: 67791824 heartbeat IPC: 0.4517 cumulative IPC: 0.4892 (Simulation time: 00 hr 11 min 46 sec)
Heartbeat CPU 0 instructions: 77000489 cycles: 69871907 heartbeat IPC: 0.2404 cumulative IPC: 0.48 (Simulation time: 00 hr 12 min 01 sec)
Heartbeat CPU 0 instructions: 77500489 cycles: 71205400 heartbeat IPC: 0.375 cumulative IPC: 0.4775 (Simulation time: 00 hr 12 min 13 sec)
Heartbeat CPU 0 instructions: 78000490 cycles: 72751465 heartbeat IPC: 0.3234 cumulative IPC: 0.4735 (Simulation time: 00 hr 12 min 24 sec)
Heartbeat CPU 0 instructions: 78500494 cycles: 74419139 heartbeat IPC: 0.2998 cumulative IPC: 0.4687 (Simulation time: 00 hr 12 min 36 sec)
Heartbeat CPU 0 instructions: 79000497 cycles: 75124165 heartbeat IPC: 0.7092 cumulative IPC: 0.4715 (Simulation time: 00 hr 12 min 43 sec)
Heartbeat CPU 0 instructions: 79500497 cycles: 75831213 heartbeat IPC: 0.7072 cumulative IPC: 0.4742 (Simulation time: 00 hr 12 min 49 sec)
Heartbeat CPU 0 instructions: 80000498 cycles: 76003546 heartbeat IPC: 2.901 cumulative IPC: 0.4809 (Simulation time: 00 hr 12 min 52 sec)
Heartbeat CPU 0 instructions: 80500499 cycles: 76155730 heartbeat IPC: 3.286 cumulative IPC: 0.4877 (Simulation time: 00 hr 12 min 54 sec)
Heartbeat CPU 0 instructions: 81000501 cycles: 76309869 heartbeat IPC: 3.244 cumulative IPC: 0.4945 (Simulation time: 00 hr 12 min 57 sec)
Heartbeat CPU 0 instructions: 81500501 cycles: 76474915 heartbeat IPC: 3.029 cumulative IPC: 0.5011 (Simulation time: 00 hr 12 min 59 sec)
Heartbeat CPU 0 instructions: 82000505 cycles: 76637466 heartbeat IPC: 3.076 cumulative IPC: 0.5078 (Simulation time: 00 hr 13 min 02 sec)
Heartbeat CPU 0 instructions: 82500507 cycles: 76797546 heartbeat IPC: 3.123 cumulative IPC: 0.5144 (Simulation time: 00 hr 13 min 04 sec)
Heartbeat CPU 0 instructions: 83000512 cycles: 76960290 heartbeat IPC: 3.072 cumulative IPC: 0.521 (Simulation time: 00 hr 13 min 07 sec)
Heartbeat CPU 0 instructions: 83500517 cycles: 77118837 heartbeat IPC: 3.154 cumulative IPC: 0.5276 (Simulation time: 00 hr 13 min 10 sec)
Heartbeat CPU 0 instructions: 84000519 cycles: 77281119 heartbeat IPC: 3.081 cumulative IPC: 0.5341 (Simulation time: 00 hr 13 min 12 sec)
Heartbeat CPU 0 instructions: 84500521 cycles: 77454944 heartbeat IPC: 2.876 cumulative IPC: 0.5404 (Simulation time: 00 hr 13 min 15 sec)
Heartbeat CPU 0 instructions: 85000521 cycles: 77621207 heartbeat IPC: 3.007 cumulative IPC: 0.5469 (Simulation time: 00 hr 13 min 17 sec)
Heartbeat CPU 0 instructions: 85500522 cycles: 77786536 heartbeat IPC: 3.024 cumulative IPC: 0.5532 (Simulation time: 00 hr 13 min 20 sec)
Heartbeat CPU 0 instructions: 86000525 cycles: 77956408 heartbeat IPC: 2.943 cumulative IPC: 0.5595 (Simulation time: 00 hr 13 min 23 sec)
Heartbeat CPU 0 instructions: 86500526 cycles: 78124023 heartbeat IPC: 2.983 cumulative IPC: 0.5658 (Simulation time: 00 hr 13 min 25 sec)
Heartbeat CPU 0 instructions: 87000526 cycles: 78298418 heartbeat IPC: 2.867 cumulative IPC: 0.572 (Simulation time: 00 hr 13 min 28 sec)
Heartbeat CPU 0 instructions: 87500527 cycles: 78478243 heartbeat IPC: 2.78 cumulative IPC: 0.5782 (Simulation time: 00 hr 13 min 30 sec)
Heartbeat CPU 0 instructions: 88000529 cycles: 78648064 heartbeat IPC: 2.944 cumulative IPC: 0.5844 (Simulation time: 00 hr 13 min 33 sec)
Heartbeat CPU 0 instructions: 88500530 cycles: 78830252 heartbeat IPC: 2.744 cumulative IPC: 0.5904 (Simulation time: 00 hr 13 min 36 sec)
Heartbeat CPU 0 instructions: 89000530 cycles: 79171776 heartbeat IPC: 1.464 cumulative IPC: 0.5949 (Simulation time: 00 hr 13 min 40 sec)
Heartbeat CPU 0 instructions: 89500531 cycles: 79386314 heartbeat IPC: 2.331 cumulative IPC: 0.6006 (Simulation time: 00 hr 13 min 43 sec)
Heartbeat CPU 0 instructions: 90000534 cycles: 79583551 heartbeat IPC: 2.535 cumulative IPC: 0.6064 (Simulation time: 00 hr 13 min 46 sec)
Heartbeat CPU 0 instructions: 90500535 cycles: 81442004 heartbeat IPC: 0.269 cumulative IPC: 0.5971 (Simulation time: 00 hr 14 min 02 sec)
Heartbeat CPU 0 instructions: 91000535 cycles: 84221308 heartbeat IPC: 0.1799 cumulative IPC: 0.5807 (Simulation time: 00 hr 14 min 23 sec)
Heartbeat CPU 0 instructions: 91500535 cycles: 85792989 heartbeat IPC: 0.3181 cumulative IPC: 0.575 (Simulation time: 00 hr 14 min 35 sec)
Heartbeat CPU 0 instructions: 92000535 cycles: 87341686 heartbeat IPC: 0.3229 cumulative IPC: 0.5697 (Simulation time: 00 hr 14 min 47 sec)
Heartbeat CPU 0 instructions: 92500535 cycles: 89636696 heartbeat IPC: 0.2179 cumulative IPC: 0.5591 (Simulation time: 00 hr 15 min 04 sec)
Heartbeat CPU 0 instructions: 93000540 cycles: 91157849 heartbeat IPC: 0.3287 cumulative IPC: 0.5546 (Simulation time: 00 hr 15 min 17 sec)
Heartbeat CPU 0 instructions: 93500540 cycles: 93434914 heartbeat IPC: 0.2196 cumulative IPC: 0.545 (Simulation time: 00 hr 15 min 34 sec)
Heartbeat CPU 0 instructions: 94000542 cycles: 94384248 heartbeat IPC: 0.5267 cumulative IPC: 0.5448 (Simulation time: 00 hr 15 min 42 sec)
Heartbeat CPU 0 instructions: 94500546 cycles: 94859565 heartbeat IPC: 1.052 cumulative IPC: 0.5478 (Simulation time: 00 hr 15 min 47 sec)
Heartbeat CPU 0 instructions: 95000550 cycles: 96374102 heartbeat IPC: 0.3301 cumulative IPC: 0.5438 (Simulation time: 00 hr 15 min 59 sec)
Heartbeat CPU 0 instructions: 95500554 cycles: 96901441 heartbeat IPC: 0.9482 cumulative IPC: 0.5463 (Simulation time: 00 hr 16 min 04 sec)
Heartbeat CPU 0 instructions: 96000559 cycles: 97272081 heartbeat IPC: 1.349 cumulative IPC: 0.5499 (Simulation time: 00 hr 16 min 08 sec)
Heartbeat CPU 0 instructions: 96500559 cycles: 97536204 heartbeat IPC: 1.893 cumulative IPC: 0.5541 (Simulation time: 00 hr 16 min 12 sec)
Heartbeat CPU 0 instructions: 97000559 cycles: 98226298 heartbeat IPC: 0.7245 cumulative IPC: 0.5555 (Simulation time: 00 hr 16 min 18 sec)
Heartbeat CPU 0 instructions: 97500563 cycles: 100248675 heartbeat IPC: 0.2472 cumulative IPC: 0.5483 (Simulation time: 00 hr 16 min 34 sec)
Heartbeat CPU 0 instructions: 98000563 cycles: 101409355 heartbeat IPC: 0.4308 cumulative IPC: 0.5468 (Simulation time: 00 hr 16 min 43 sec)
Heartbeat CPU 0 instructions: 98500566 cycles: 102176348 heartbeat IPC: 0.6519 cumulative IPC: 0.5477 (Simulation time: 00 hr 16 min 50 sec)
Heartbeat CPU 0 instructions: 99000566 cycles: 103353887 heartbeat IPC: 0.4246 cumulative IPC: 0.5461 (Simulation time: 00 hr 17 min 00 sec)
Heartbeat CPU 0 instructions: 99500568 cycles: 104243267 heartbeat IPC: 0.5622 cumulative IPC: 0.5462 (Simulation time: 00 hr 17 min 08 sec)
Heartbeat CPU 0 instructions: 100000570 cycles: 105092351 heartbeat IPC: 0.5889 cumulative IPC: 0.5466 (Simulation time: 00 hr 17 min 15 sec)
Heartbeat CPU 0 instructions: 100500571 cycles: 105915803 heartbeat IPC: 0.6072 cumulative IPC: 0.5471 (Simulation time: 00 hr 17 min 22 sec)
Heartbeat CPU 0 instructions: 101000571 cycles: 107572561 heartbeat IPC: 0.3018 cumulative IPC: 0.5428 (Simulation time: 00 hr 17 min 35 sec)
Heartbeat CPU 0 instructions: 101500571 cycles: 109440998 heartbeat IPC: 0.2676 cumulative IPC: 0.5375 (Simulation time: 00 hr 17 min 49 sec)
Heartbeat CPU 0 instructions: 102000575 cycles: 110322653 heartbeat IPC: 0.5671 cumulative IPC: 0.5377 (Simulation time: 00 hr 17 min 57 sec)
Heartbeat CPU 0 instructions: 102500575 cycles: 111559509 heartbeat IPC: 0.4043 cumulative IPC: 0.536 (Simulation time: 00 hr 18 min 07 sec)
Heartbeat CPU 0 instructions: 103000577 cycles: 112573602 heartbeat IPC: 0.4931 cumulative IPC: 0.5356 (Simulation time: 00 hr 18 min 16 sec)
Heartbeat CPU 0 instructions: 103500577 cycles: 112865530 heartbeat IPC: 1.713 cumulative IPC: 0.5391 (Simulation time: 00 hr 18 min 19 sec)
Heartbeat CPU 0 instructions: 104000581 cycles: 114373710 heartbeat IPC: 0.3315 cumulative IPC: 0.536 (Simulation time: 00 hr 18 min 32 sec)
Heartbeat CPU 0 instructions: 104500584 cycles: 114954225 heartbeat IPC: 0.8613 cumulative IPC: 0.5378 (Simulation time: 00 hr 18 min 38 sec)
Heartbeat CPU 0 instructions: 105000585 cycles: 115439655 heartbeat IPC: 1.03 cumulative IPC: 0.5402 (Simulation time: 00 hr 18 min 44 sec)
Heartbeat CPU 0 instructions: 105500585 cycles: 115782425 heartbeat IPC: 1.459 cumulative IPC: 0.5432 (Simulation time: 00 hr 18 min 49 sec)
Heartbeat CPU 0 instructions: 106000587 cycles: 116091877 heartbeat IPC: 1.616 cumulative IPC: 0.5465 (Simulation time: 00 hr 18 min 54 sec)
Heartbeat CPU 0 instructions: 106500590 cycles: 116422299 heartbeat IPC: 1.513 cumulative IPC: 0.5496 (Simulation time: 00 hr 18 min 59 sec)
Heartbeat CPU 0 instructions: 107000591 cycles: 116739340 heartbeat IPC: 1.577 cumulative IPC: 0.5528 (Simulation time: 00 hr 19 min 04 sec)
Heartbeat CPU 0 instructions: 107500592 cycles: 117061395 heartbeat IPC: 1.553 cumulative IPC: 0.5559 (Simulation time: 00 hr 19 min 08 sec)
Heartbeat CPU 0 instructions: 108000596 cycles: 117372675 heartbeat IPC: 1.606 cumulative IPC: 0.559 (Simulation time: 00 hr 19 min 13 sec)
Heartbeat CPU 0 instructions: 108500597 cycles: 118286259 heartbeat IPC: 0.5473 cumulative IPC: 0.5589 (Simulation time: 00 hr 19 min 21 sec)
Heartbeat CPU 0 instructions: 109000600 cycles: 119254590 heartbeat IPC: 0.5164 cumulative IPC: 0.5585 (Simulation time: 00 hr 19 min 29 sec)
Heartbeat CPU 0 instructions: 109500604 cycles: 119764221 heartbeat IPC: 0.9811 cumulative IPC: 0.5606 (Simulation time: 00 hr 19 min 34 sec)
Heartbeat CPU 0 instructions: 110000611 cycles: 121090831 heartbeat IPC: 0.3769 cumulative IPC: 0.5583 (Simulation time: 00 hr 19 min 44 sec)
Heartbeat CPU 0 instructions: 110500613 cycles: 121540043 heartbeat IPC: 1.113 cumulative IPC: 0.5606 (Simulation time: 00 hr 19 min 49 sec)
Heartbeat CPU 0 instructions: 111000613 cycles: 121894075 heartbeat IPC: 1.412 cumulative IPC: 0.5634 (Simulation time: 00 hr 19 min 53 sec)
Heartbeat CPU 0 instructions: 111500613 cycles: 122153097 heartbeat IPC: 1.93 cumulative IPC: 0.5666 (Simulation time: 00 hr 19 min 56 sec)
Heartbeat CPU 0 instructions: 112000617 cycles: 122799127 heartbeat IPC: 0.774 cumulative IPC: 0.5679 (Simulation time: 00 hr 20 min 02 sec)
Heartbeat CPU 0 instructions: 112500622 cycles: 124667019 heartbeat IPC: 0.2677 cumulative IPC: 0.5628 (Simulation time: 00 hr 20 min 16 sec)
Heartbeat CPU 0 instructions: 113000622 cycles: 126473325 heartbeat IPC: 0.2768 cumulative IPC: 0.5582 (Simulation time: 00 hr 20 min 29 sec)
Heartbeat CPU 0 instructions: 113500622 cycles: 127311828 heartbeat IPC: 0.5963 cumulative IPC: 0.5585 (Simulation time: 00 hr 20 min 37 sec)
Heartbeat CPU 0 instructions: 114000628 cycles: 128774501 heartbeat IPC: 0.3418 cumulative IPC: 0.5558 (Simulation time: 00 hr 20 min 48 sec)
Heartbeat CPU 0 instructions: 114500632 cycles: 129809255 heartbeat IPC: 0.4832 cumulative IPC: 0.5551 (Simulation time: 00 hr 20 min 56 sec)
Heartbeat CPU 0 instructions: 115000632 cycles: 131943692 heartbeat IPC: 0.2343 cumulative IPC: 0.5493 (Simulation time: 00 hr 21 min 12 sec)
Heartbeat CPU 0 instructions: 115500634 cycles: 133455623 heartbeat IPC: 0.3307 cumulative IPC: 0.5466 (Simulation time: 00 hr 21 min 23 sec)
Heartbeat CPU 0 instructions: 116000640 cycles: 134715304 heartbeat IPC: 0.3969 cumulative IPC: 0.545 (Simulation time: 00 hr 21 min 33 sec)
Heartbeat CPU 0 instructions: 116500641 cycles: 135495982 heartbeat IPC: 0.6405 cumulative IPC: 0.5456 (Simulation time: 00 hr 21 min 40 sec)
Heartbeat CPU 0 instructions: 117000642 cycles: 135898754 heartbeat IPC: 1.241 cumulative IPC: 0.5479 (Simulation time: 00 hr 21 min 44 sec)
Heartbeat CPU 0 instructions: 117500643 cycles: 136159414 heartbeat IPC: 1.918 cumulative IPC: 0.5508 (Simulation time: 00 hr 21 min 48 sec)
Heartbeat CPU 0 instructions: 118000643 cycles: 136726063 heartbeat IPC: 0.8824 cumulative IPC: 0.5524 (Simulation time: 00 hr 21 min 53 sec)
Heartbeat CPU 0 instructions: 118500644 cycles: 138313055 heartbeat IPC: 0.3151 cumulative IPC: 0.5493 (Simulation time: 00 hr 22 min 05 sec)
Heartbeat CPU 0 instructions: 119000644 cycles: 139907937 heartbeat IPC: 0.3135 cumulative IPC: 0.5464 (Simulation time: 00 hr 22 min 17 sec)
Heartbeat CPU 0 instructions: 119500645 cycles: 141627179 heartbeat IPC: 0.2908 cumulative IPC: 0.5429 (Simulation time: 00 hr 22 min 30 sec)
Heartbeat CPU 0 instructions: 120000647 cycles: 143661306 heartbeat IPC: 0.2458 cumulative IPC: 0.5383 (Simulation time: 00 hr 22 min 45 sec)
Heartbeat CPU 0 instructions: 120500648 cycles: 144449311 heartbeat IPC: 0.6345 cumulative IPC: 0.5389 (Simulation time: 00 hr 22 min 52 sec)
Heartbeat CPU 0 instructions: 121000650 cycles: 145713702 heartbeat IPC: 0.3954 cumulative IPC: 0.5375 (Simulation time: 00 hr 23 min 02 sec)
Heartbeat CPU 0 instructions: 121500657 cycles: 146123068 heartbeat IPC: 1.221 cumulative IPC: 0.5396 (Simulation time: 00 hr 23 min 06 sec)
Heartbeat CPU 0 instructions: 122000660 cycles: 146478112 heartbeat IPC: 1.408 cumulative IPC: 0.5419 (Simulation time: 00 hr 23 min 10 sec)
Heartbeat CPU 0 instructions: 122500662 cycles: 146728888 heartbeat IPC: 1.994 cumulative IPC: 0.5447 (Simulation time: 00 hr 23 min 13 sec)
Heartbeat CPU 0 instructions: 123000664 cycles: 147307439 heartbeat IPC: 0.8642 cumulative IPC: 0.546 (Simulation time: 00 hr 23 min 19 sec)
Heartbeat CPU 0 instructions: 123500666 cycles: 148268536 heartbeat IPC: 0.5202 cumulative IPC: 0.5459 (Simulation time: 00 hr 23 min 27 sec)
Heartbeat CPU 0 instructions: 124000666 cycles: 150114910 heartbeat IPC: 0.2708 cumulative IPC: 0.5421 (Simulation time: 00 hr 23 min 41 sec)
Heartbeat CPU 0 instructions: 124500672 cycles: 152801243 heartbeat IPC: 0.1861 cumulative IPC: 0.5353 (Simulation time: 00 hr 24 min 01 sec)
Heartbeat CPU 0 instructions: 125000672 cycles: 154151051 heartbeat IPC: 0.3704 cumulative IPC: 0.5337 (Simulation time: 00 hr 24 min 13 sec)
Heartbeat CPU 0 instructions: 125500672 cycles: 155617878 heartbeat IPC: 0.3409 cumulative IPC: 0.5317 (Simulation time: 00 hr 24 min 26 sec)
Heartbeat CPU 0 instructions: 126000674 cycles: 157015543 heartbeat IPC: 0.3577 cumulative IPC: 0.53 (Simulation time: 00 hr 24 min 40 sec)
Heartbeat CPU 0 instructions: 126500679 cycles: 158235620 heartbeat IPC: 0.4098 cumulative IPC: 0.529 (Simulation time: 00 hr 24 min 52 sec)
Heartbeat CPU 0 instructions: 127000680 cycles: 159419841 heartbeat IPC: 0.4222 cumulative IPC: 0.5281 (Simulation time: 00 hr 25 min 04 sec)
Heartbeat CPU 0 instructions: 127500684 cycles: 160771297 heartbeat IPC: 0.37 cumulative IPC: 0.5267 (Simulation time: 00 hr 25 min 17 sec)
Heartbeat CPU 0 instructions: 128000691 cycles: 161862412 heartbeat IPC: 0.4583 cumulative IPC: 0.5262 (Simulation time: 00 hr 25 min 28 sec)
Heartbeat CPU 0 instructions: 128500695 cycles: 163185741 heartbeat IPC: 0.3778 cumulative IPC: 0.5248 (Simulation time: 00 hr 25 min 42 sec)
Heartbeat CPU 0 instructions: 129000696 cycles: 164401995 heartbeat IPC: 0.4111 cumulative IPC: 0.5239 (Simulation time: 00 hr 25 min 54 sec)
Heartbeat CPU 0 instructions: 129500702 cycles: 165729086 heartbeat IPC: 0.3768 cumulative IPC: 0.5226 (Simulation time: 00 hr 26 min 06 sec)
Heartbeat CPU 0 instructions: 130000705 cycles: 166880697 heartbeat IPC: 0.4342 cumulative IPC: 0.522 (Simulation time: 00 hr 26 min 18 sec)
Heartbeat CPU 0 instructions: 130500711 cycles: 168388467 heartbeat IPC: 0.3316 cumulative IPC: 0.5201 (Simulation time: 00 hr 26 min 33 sec)
Heartbeat CPU 0 instructions: 131000717 cycles: 169588695 heartbeat IPC: 0.4166 cumulative IPC: 0.5193 (Simulation time: 00 hr 26 min 45 sec)
Heartbeat CPU 0 instructions: 131500720 cycles: 171686116 heartbeat IPC: 0.2384 cumulative IPC: 0.5156 (Simulation time: 00 hr 27 min 03 sec)
Heartbeat CPU 0 instructions: 132000721 cycles: 175017466 heartbeat IPC: 0.1501 cumulative IPC: 0.5081 (Simulation time: 00 hr 27 min 26 sec)
Heartbeat CPU 0 instructions: 132500722 cycles: 175901016 heartbeat IPC: 0.5659 cumulative IPC: 0.5084 (Simulation time: 00 hr 27 min 34 sec)
Heartbeat CPU 0 instructions: 133000723 cycles: 176461999 heartbeat IPC: 0.8913 cumulative IPC: 0.5097 (Simulation time: 00 hr 27 min 41 sec)
Heartbeat CPU 0 instructions: 133500730 cycles: 177366728 heartbeat IPC: 0.5527 cumulative IPC: 0.5099 (Simulation time: 00 hr 27 min 50 sec)
Heartbeat CPU 0 instructions: 134000730 cycles: 178277348 heartbeat IPC: 0.5491 cumulative IPC: 0.5101 (Simulation time: 00 hr 28 min 00 sec)
Heartbeat CPU 0 instructions: 134500736 cycles: 179438307 heartbeat IPC: 0.4307 cumulative IPC: 0.5096 (Simulation time: 00 hr 28 min 11 sec)
Heartbeat CPU 0 instructions: 135000736 cycles: 181233341 heartbeat IPC: 0.2785 cumulative IPC: 0.5071 (Simulation time: 00 hr 28 min 26 sec)
Heartbeat CPU 0 instructions: 135500740 cycles: 183158186 heartbeat IPC: 0.2598 cumulative IPC: 0.5043 (Simulation time: 00 hr 28 min 40 sec)
Heartbeat CPU 0 instructions: 136000740 cycles: 183735069 heartbeat IPC: 0.8667 cumulative IPC: 0.5055 (Simulation time: 00 hr 28 min 45 sec)
Heartbeat CPU 0 instructions: 136500745 cycles: 185394509 heartbeat IPC: 0.3013 cumulative IPC: 0.5036 (Simulation time: 00 hr 28 min 57 sec)
Heartbeat CPU 0 instructions: 137000748 cycles: 186630498 heartbeat IPC: 0.4045 cumulative IPC: 0.5029 (Simulation time: 00 hr 29 min 07 sec)
Heartbeat CPU 0 instructions: 137500753 cycles: 188441894 heartbeat IPC: 0.276 cumulative IPC: 0.5005 (Simulation time: 00 hr 29 min 21 sec)
Heartbeat CPU 0 instructions: 138000758 cycles: 189512272 heartbeat IPC: 0.4671 cumulative IPC: 0.5003 (Simulation time: 00 hr 29 min 30 sec)
Heartbeat CPU 0 instructions: 138500758 cycles: 190571534 heartbeat IPC: 0.472 cumulative IPC: 0.5001 (Simulation time: 00 hr 29 min 39 sec)
Heartbeat CPU 0 instructions: 139000762 cycles: 192242065 heartbeat IPC: 0.2993 cumulative IPC: 0.4983 (Simulation time: 00 hr 29 min 52 sec)
Heartbeat CPU 0 instructions: 139500764 cycles: 193229450 heartbeat IPC: 0.5064 cumulative IPC: 0.4983 (Simulation time: 00 hr 30 min 01 sec)
Heartbeat CPU 0 instructions: 140000764 cycles: 195726171 heartbeat IPC: 0.2003 cumulative IPC: 0.4942 (Simulation time: 00 hr 30 min 22 sec)
Heartbeat CPU 0 instructions: 140500764 cycles: 197042807 heartbeat IPC: 0.3798 cumulative IPC: 0.4934 (Simulation time: 00 hr 30 min 32 sec)
Heartbeat CPU 0 instructions: 141000764 cycles: 197673700 heartbeat IPC: 0.7925 cumulative IPC: 0.4944 (Simulation time: 00 hr 30 min 38 sec)
Heartbeat CPU 0 instructions: 141500768 cycles: 198281696 heartbeat IPC: 0.8224 cumulative IPC: 0.4955 (Simulation time: 00 hr 30 min 43 sec)
Heartbeat CPU 0 instructions: 142000769 cycles: 198803944 heartbeat IPC: 0.9574 cumulative IPC: 0.4968 (Simulation time: 00 hr 30 min 48 sec)
Heartbeat CPU 0 instructions: 142500771 cycles: 199352644 heartbeat IPC: 0.9112 cumulative IPC: 0.498 (Simulation time: 00 hr 30 min 53 sec)
Heartbeat CPU 0 instructions: 143000771 cycles: 200020080 heartbeat IPC: 0.7491 cumulative IPC: 0.4989 (Simulation time: 00 hr 30 min 59 sec)
Heartbeat CPU 0 instructions: 143500771 cycles: 200519851 heartbeat IPC: 1 cumulative IPC: 0.5003 (Simulation time: 00 hr 31 min 04 sec)
Heartbeat CPU 0 instructions: 144000774 cycles: 201867936 heartbeat IPC: 0.3709 cumulative IPC: 0.4993 (Simulation time: 00 hr 31 min 14 sec)
Heartbeat CPU 0 instructions: 144500778 cycles: 203492181 heartbeat IPC: 0.3078 cumulative IPC: 0.4977 (Simulation time: 00 hr 31 min 26 sec)
Heartbeat CPU 0 instructions: 145000784 cycles: 205075611 heartbeat IPC: 0.3158 cumulative IPC: 0.4962 (Simulation time: 00 hr 31 min 39 sec)
Heartbeat CPU 0 instructions: 145500784 cycles: 206868065 heartbeat IPC: 0.2789 cumulative IPC: 0.4942 (Simulation time: 00 hr 31 min 52 sec)
Heartbeat CPU 0 instructions: 146000786 cycles: 207220375 heartbeat IPC: 1.419 cumulative IPC: 0.4959 (Simulation time: 00 hr 31 min 56 sec)
Heartbeat CPU 0 instructions: 146500787 cycles: 208539752 heartbeat IPC: 0.379 cumulative IPC: 0.4951 (Simulation time: 00 hr 32 min 06 sec)
Heartbeat CPU 0 instructions: 147000791 cycles: 209494990 heartbeat IPC: 0.5234 cumulative IPC: 0.4952 (Simulation time: 00 hr 32 min 14 sec)
Heartbeat CPU 0 instructions: 147500795 cycles: 210407744 heartbeat IPC: 0.5478 cumulative IPC: 0.4955 (Simulation time: 00 hr 32 min 21 sec)
Heartbeat CPU 0 instructions: 148000796 cycles: 210855550 heartbeat IPC: 1.117 cumulative IPC: 0.4969 (Simulation time: 00 hr 32 min 25 sec)
Heartbeat CPU 0 instructions: 148500798 cycles: 212169201 heartbeat IPC: 0.3806 cumulative IPC: 0.4961 (Simulation time: 00 hr 32 min 36 sec)
Heartbeat CPU 0 instructions: 149000798 cycles: 214032381 heartbeat IPC: 0.2684 cumulative IPC: 0.494 (Simulation time: 00 hr 32 min 50 sec)
Heartbeat CPU 0 instructions: 149500798 cycles: 215582782 heartbeat IPC: 0.3225 cumulative IPC: 0.4927 (Simulation time: 00 hr 33 min 01 sec)
Heartbeat CPU 0 instructions: 150000798 cycles: 216325055 heartbeat IPC: 0.6736 cumulative IPC: 0.4933 (Simulation time: 00 hr 33 min 09 sec)
Heartbeat CPU 0 instructions: 150500803 cycles: 216875354 heartbeat IPC: 0.9086 cumulative IPC: 0.4945 (Simulation time: 00 hr 33 min 16 sec)
Heartbeat CPU 0 instructions: 151000807 cycles: 218694156 heartbeat IPC: 0.2749 cumulative IPC: 0.4925 (Simulation time: 00 hr 33 min 29 sec)
Heartbeat CPU 0 instructions: 151500809 cycles: 219755502 heartbeat IPC: 0.4711 cumulative IPC: 0.4924 (Simulation time: 00 hr 33 min 38 sec)
Heartbeat CPU 0 instructions: 152000809 cycles: 221443561 heartbeat IPC: 0.2962 cumulative IPC: 0.4908 (Simulation time: 00 hr 33 min 50 sec)
Heartbeat CPU 0 instructions: 152500809 cycles: 222379687 heartbeat IPC: 0.5341 cumulative IPC: 0.491 (Simulation time: 00 hr 33 min 58 sec)
Heartbeat CPU 0 instructions: 153000814 cycles: 225319868 heartbeat IPC: 0.1701 cumulative IPC: 0.4865 (Simulation time: 00 hr 34 min 18 sec)
Heartbeat CPU 0 instructions: 153500814 cycles: 226635968 heartbeat IPC: 0.3799 cumulative IPC: 0.4859 (Simulation time: 00 hr 34 min 29 sec)
Heartbeat CPU 0 instructions: 154000814 cycles: 227064844 heartbeat IPC: 1.166 cumulative IPC: 0.4872 (Simulation time: 00 hr 34 min 33 sec)
Heartbeat CPU 0 instructions: 154500820 cycles: 228181370 heartbeat IPC: 0.4478 cumulative IPC: 0.487 (Simulation time: 00 hr 34 min 42 sec)
Heartbeat CPU 0 instructions: 155000827 cycles: 229527967 heartbeat IPC: 0.3713 cumulative IPC: 0.4863 (Simulation time: 00 hr 34 min 53 sec)
Heartbeat CPU 0 instructions: 155500828 cycles: 231402785 heartbeat IPC: 0.2667 cumulative IPC: 0.4844 (Simulation time: 00 hr 35 min 06 sec)
Heartbeat CPU 0 instructions: 156000832 cycles: 232538369 heartbeat IPC: 0.4403 cumulative IPC: 0.4842 (Simulation time: 00 hr 35 min 16 sec)
Heartbeat CPU 0 instructions: 156500833 cycles: 233254910 heartbeat IPC: 0.6978 cumulative IPC: 0.4849 (Simulation time: 00 hr 35 min 23 sec)
Heartbeat CPU 0 instructions: 157000834 cycles: 233833352 heartbeat IPC: 0.8644 cumulative IPC: 0.4859 (Simulation time: 00 hr 35 min 30 sec)
Heartbeat CPU 0 instructions: 157500841 cycles: 235862136 heartbeat IPC: 0.2465 cumulative IPC: 0.4837 (Simulation time: 00 hr 35 min 47 sec)
Heartbeat CPU 0 instructions: 158000844 cycles: 236865246 heartbeat IPC: 0.4985 cumulative IPC: 0.4838 (Simulation time: 00 hr 36 min 00 sec)
Heartbeat CPU 0 instructions: 158500844 cycles: 238368851 heartbeat IPC: 0.3325 cumulative IPC: 0.4828 (Simulation time: 00 hr 36 min 22 sec)
Heartbeat CPU 0 instructions: 159000846 cycles: 239441529 heartbeat IPC: 0.4661 cumulative IPC: 0.4827 (Simulation time: 00 hr 36 min 31 sec)
Heartbeat CPU 0 instructions: 159500849 cycles: 240443112 heartbeat IPC: 0.4992 cumulative IPC: 0.4828 (Simulation time: 00 hr 36 min 40 sec)
Heartbeat CPU 0 instructions: 160000850 cycles: 242976042 heartbeat IPC: 0.1974 cumulative IPC: 0.4796 (Simulation time: 00 hr 37 min 01 sec)
Heartbeat CPU 0 instructions: 160500850 cycles: 244915862 heartbeat IPC: 0.2578 cumulative IPC: 0.4777 (Simulation time: 00 hr 37 min 16 sec)
Heartbeat CPU 0 instructions: 161000850 cycles: 246966496 heartbeat IPC: 0.2438 cumulative IPC: 0.4757 (Simulation time: 00 hr 37 min 31 sec)
Heartbeat CPU 0 instructions: 161500850 cycles: 247754241 heartbeat IPC: 0.6347 cumulative IPC: 0.4762 (Simulation time: 00 hr 37 min 39 sec)
Heartbeat CPU 0 instructions: 162000850 cycles: 248732638 heartbeat IPC: 0.511 cumulative IPC: 0.4764 (Simulation time: 00 hr 37 min 49 sec)
Heartbeat CPU 0 instructions: 162500855 cycles: 250921450 heartbeat IPC: 0.2284 cumulative IPC: 0.4741 (Simulation time: 00 hr 38 min 04 sec)
Heartbeat CPU 0 instructions: 163000856 cycles: 252263002 heartbeat IPC: 0.3727 cumulative IPC: 0.4735 (Simulation time: 00 hr 38 min 15 sec)
Heartbeat CPU 0 instructions: 163500856 cycles: 254009868 heartbeat IPC: 0.2862 cumulative IPC: 0.4721 (Simulation time: 00 hr 38 min 27 sec)
Heartbeat CPU 0 instructions: 164000862 cycles: 256566140 heartbeat IPC: 0.1956 cumulative IPC: 0.4692 (Simulation time: 00 hr 38 min 45 sec)
Heartbeat CPU 0 instructions: 164500863 cycles: 258013659 heartbeat IPC: 0.3454 cumulative IPC: 0.4685 (Simulation time: 00 hr 38 min 57 sec)
Heartbeat CPU 0 instructions: 165000864 cycles: 259298182 heartbeat IPC: 0.3893 cumulative IPC: 0.4681 (Simulation time: 00 hr 39 min 07 sec)
Heartbeat CPU 0 instructions: 165500865 cycles: 260672756 heartbeat IPC: 0.3637 cumulative IPC: 0.4675 (Simulation time: 00 hr 39 min 18 sec)
Heartbeat CPU 0 instructions: 166000865 cycles: 262632254 heartbeat IPC: 0.2552 cumulative IPC: 0.4658 (Simulation time: 00 hr 39 min 32 sec)
Heartbeat CPU 0 instructions: 166500865 cycles: 264072221 heartbeat IPC: 0.3472 cumulative IPC: 0.4652 (Simulation time: 00 hr 39 min 43 sec)
Heartbeat CPU 0 instructions: 167000865 cycles: 264837927 heartbeat IPC: 0.653 cumulative IPC: 0.4657 (Simulation time: 00 hr 39 min 50 sec)
Heartbeat CPU 0 instructions: 167500865 cycles: 265836700 heartbeat IPC: 0.5006 cumulative IPC: 0.4659 (Simulation time: 00 hr 39 min 58 sec)
Heartbeat CPU 0 instructions: 168000866 cycles: 266299270 heartbeat IPC: 1.081 cumulative IPC: 0.467 (Simulation time: 00 hr 40 min 02 sec)
Heartbeat CPU 0 instructions: 168500866 cycles: 267685955 heartbeat IPC: 0.3606 cumulative IPC: 0.4664 (Simulation time: 00 hr 40 min 13 sec)
Heartbeat CPU 0 instructions: 169000867 cycles: 269084688 heartbeat IPC: 0.3575 cumulative IPC: 0.4658 (Simulation time: 00 hr 40 min 24 sec)
Heartbeat CPU 0 instructions: 169500867 cycles: 270105431 heartbeat IPC: 0.4898 cumulative IPC: 0.4659 (Simulation time: 00 hr 40 min 32 sec)
Heartbeat CPU 0 instructions: 170000867 cycles: 271713310 heartbeat IPC: 0.311 cumulative IPC: 0.4649 (Simulation time: 00 hr 40 min 45 sec)
Heartbeat CPU 0 instructions: 170500867 cycles: 272426104 heartbeat IPC: 0.7015 cumulative IPC: 0.4656 (Simulation time: 00 hr 40 min 51 sec)
Heartbeat CPU 0 instructions: 171000869 cycles: 272659326 heartbeat IPC: 2.144 cumulative IPC: 0.4671 (Simulation time: 00 hr 40 min 53 sec)
Heartbeat CPU 0 instructions: 171500873 cycles: 272879832 heartbeat IPC: 2.268 cumulative IPC: 0.4686 (Simulation time: 00 hr 40 min 56 sec)
Heartbeat CPU 0 instructions: 172000873 cycles: 273373024 heartbeat IPC: 1.014 cumulative IPC: 0.4697 (Simulation time: 00 hr 41 min 00 sec)
Heartbeat CPU 0 instructions: 172500873 cycles: 275509541 heartbeat IPC: 0.234 cumulative IPC: 0.4678 (Simulation time: 00 hr 41 min 16 sec)
Heartbeat CPU 0 instructions: 173000873 cycles: 277100282 heartbeat IPC: 0.3143 cumulative IPC: 0.4668 (Simulation time: 00 hr 41 min 28 sec)
Heartbeat CPU 0 instructions: 173500875 cycles: 278715168 heartbeat IPC: 0.3096 cumulative IPC: 0.4659 (Simulation time: 00 hr 41 min 41 sec)
Heartbeat CPU 0 instructions: 174000877 cycles: 280599464 heartbeat IPC: 0.2654 cumulative IPC: 0.4645 (Simulation time: 00 hr 41 min 55 sec)
Heartbeat CPU 0 instructions: 174500880 cycles: 282747456 heartbeat IPC: 0.2328 cumulative IPC: 0.4626 (Simulation time: 00 hr 42 min 11 sec)
Heartbeat CPU 0 instructions: 175000884 cycles: 284180430 heartbeat IPC: 0.3489 cumulative IPC: 0.462 (Simulation time: 00 hr 42 min 23 sec)
Heartbeat CPU 0 instructions: 175500888 cycles: 284793391 heartbeat IPC: 0.8157 cumulative IPC: 0.4628 (Simulation time: 00 hr 42 min 30 sec)
Heartbeat CPU 0 instructions: 176000888 cycles: 286536602 heartbeat IPC: 0.2868 cumulative IPC: 0.4617 (Simulation time: 00 hr 42 min 43 sec)
Heartbeat CPU 0 instructions: 176500888 cycles: 287586585 heartbeat IPC: 0.4762 cumulative IPC: 0.4617 (Simulation time: 00 hr 42 min 52 sec)
Heartbeat CPU 0 instructions: 177000893 cycles: 289082095 heartbeat IPC: 0.3343 cumulative IPC: 0.461 (Simulation time: 00 hr 43 min 03 sec)
Heartbeat CPU 0 instructions: 177500896 cycles: 290454876 heartbeat IPC: 0.3642 cumulative IPC: 0.4606 (Simulation time: 00 hr 43 min 14 sec)
Heartbeat CPU 0 instructions: 178000901 cycles: 292355402 heartbeat IPC: 0.2631 cumulative IPC: 0.4592 (Simulation time: 00 hr 43 min 28 sec)
Heartbeat CPU 0 instructions: 178500904 cycles: 293512921 heartbeat IPC: 0.432 cumulative IPC: 0.4591 (Simulation time: 00 hr 43 min 38 sec)
Heartbeat CPU 0 instructions: 179000907 cycles: 294540289 heartbeat IPC: 0.4867 cumulative IPC: 0.4592 (Simulation time: 00 hr 43 min 46 sec)
Heartbeat CPU 0 instructions: 179500907 cycles: 296536075 heartbeat IPC: 0.2505 cumulative IPC: 0.4577 (Simulation time: 00 hr 44 min 01 sec)
Heartbeat CPU 0 instructions: 180000907 cycles: 297039325 heartbeat IPC: 0.9935 cumulative IPC: 0.4587 (Simulation time: 00 hr 44 min 07 sec)
Heartbeat CPU 0 instructions: 180500910 cycles: 297760287 heartbeat IPC: 0.6935 cumulative IPC: 0.4593 (Simulation time: 00 hr 44 min 13 sec)
Heartbeat CPU 0 instructions: 181000910 cycles: 298806389 heartbeat IPC: 0.478 cumulative IPC: 0.4593 (Simulation time: 00 hr 44 min 22 sec)
Heartbeat CPU 0 instructions: 181500910 cycles: 299350333 heartbeat IPC: 0.9192 cumulative IPC: 0.4602 (Simulation time: 00 hr 44 min 27 sec)
Heartbeat CPU 0 instructions: 182000910 cycles: 300713474 heartbeat IPC: 0.3668 cumulative IPC: 0.4598 (Simulation time: 00 hr 44 min 38 sec)
Heartbeat CPU 0 instructions: 182500913 cycles: 301864308 heartbeat IPC: 0.4345 cumulative IPC: 0.4597 (Simulation time: 00 hr 44 min 49 sec)
Heartbeat CPU 0 instructions: 183000915 cycles: 302952080 heartbeat IPC: 0.4597 cumulative IPC: 0.4597 (Simulation time: 00 hr 45 min 01 sec)
Heartbeat CPU 0 instructions: 183500921 cycles: 304097313 heartbeat IPC: 0.4366 cumulative IPC: 0.4596 (Simulation time: 00 hr 45 min 12 sec)
Heartbeat CPU 0 instructions: 184000926 cycles: 304883567 heartbeat IPC: 0.6359 cumulative IPC: 0.4601 (Simulation time: 00 hr 45 min 20 sec)
Heartbeat CPU 0 instructions: 184500931 cycles: 305676516 heartbeat IPC: 0.6306 cumulative IPC: 0.4605 (Simulation time: 00 hr 45 min 28 sec)
Heartbeat CPU 0 instructions: 185000935 cycles: 306651010 heartbeat IPC: 0.5131 cumulative IPC: 0.4607 (Simulation time: 00 hr 45 min 39 sec)
Heartbeat CPU 0 instructions: 185500941 cycles: 307353954 heartbeat IPC: 0.7113 cumulative IPC: 0.4613 (Simulation time: 00 hr 45 min 46 sec)
Heartbeat CPU 0 instructions: 186000942 cycles: 310253739 heartbeat IPC: 0.1724 cumulative IPC: 0.4585 (Simulation time: 00 hr 46 min 08 sec)
Heartbeat CPU 0 instructions: 186500946 cycles: 311068562 heartbeat IPC: 0.6136 cumulative IPC: 0.4589 (Simulation time: 00 hr 46 min 15 sec)
Heartbeat CPU 0 instructions: 187000949 cycles: 312766769 heartbeat IPC: 0.2944 cumulative IPC: 0.458 (Simulation time: 00 hr 46 min 28 sec)
Heartbeat CPU 0 instructions: 187500949 cycles: 313679238 heartbeat IPC: 0.548 cumulative IPC: 0.4582 (Simulation time: 00 hr 46 min 36 sec)
Heartbeat CPU 0 instructions: 188000949 cycles: 315940881 heartbeat IPC: 0.2211 cumulative IPC: 0.4565 (Simulation time: 00 hr 46 min 52 sec)
Heartbeat CPU 0 instructions: 188500951 cycles: 317447491 heartbeat IPC: 0.3319 cumulative IPC: 0.4559 (Simulation time: 00 hr 47 min 03 sec)
Heartbeat CPU 0 instructions: 189000957 cycles: 318569136 heartbeat IPC: 0.4458 cumulative IPC: 0.4558 (Simulation time: 00 hr 47 min 11 sec)
Heartbeat CPU 0 instructions: 189500958 cycles: 320191355 heartbeat IPC: 0.3082 cumulative IPC: 0.455 (Simulation time: 00 hr 47 min 24 sec)
Heartbeat CPU 0 instructions: 190000958 cycles: 321966275 heartbeat IPC: 0.2817 cumulative IPC: 0.454 (Simulation time: 00 hr 47 min 38 sec)
Heartbeat CPU 0 instructions: 190500959 cycles: 323276335 heartbeat IPC: 0.3817 cumulative IPC: 0.4537 (Simulation time: 00 hr 47 min 48 sec)
Heartbeat CPU 0 instructions: 191000961 cycles: 324090538 heartbeat IPC: 0.6141 cumulative IPC: 0.4541 (Simulation time: 00 hr 47 min 55 sec)
Heartbeat CPU 0 instructions: 191500961 cycles: 326274809 heartbeat IPC: 0.2289 cumulative IPC: 0.4526 (Simulation time: 00 hr 48 min 10 sec)
Heartbeat CPU 0 instructions: 192000966 cycles: 328656994 heartbeat IPC: 0.2099 cumulative IPC: 0.4507 (Simulation time: 00 hr 48 min 27 sec)
Heartbeat CPU 0 instructions: 192500968 cycles: 330384271 heartbeat IPC: 0.2895 cumulative IPC: 0.4499 (Simulation time: 00 hr 48 min 40 sec)
Heartbeat CPU 0 instructions: 193000973 cycles: 330966714 heartbeat IPC: 0.8585 cumulative IPC: 0.4506 (Simulation time: 00 hr 48 min 45 sec)
Heartbeat CPU 0 instructions: 193500973 cycles: 331981775 heartbeat IPC: 0.4926 cumulative IPC: 0.4507 (Simulation time: 00 hr 48 min 54 sec)
Heartbeat CPU 0 instructions: 194000973 cycles: 333245092 heartbeat IPC: 0.3958 cumulative IPC: 0.4505 (Simulation time: 00 hr 49 min 03 sec)
Heartbeat CPU 0 instructions: 194500977 cycles: 334361432 heartbeat IPC: 0.4479 cumulative IPC: 0.4505 (Simulation time: 00 hr 49 min 12 sec)
Heartbeat CPU 0 instructions: 195000978 cycles: 335448681 heartbeat IPC: 0.4599 cumulative IPC: 0.4506 (Simulation time: 00 hr 49 min 20 sec)
Heartbeat CPU 0 instructions: 195500978 cycles: 335900395 heartbeat IPC: 1.107 cumulative IPC: 0.4515 (Simulation time: 00 hr 49 min 24 sec)
Heartbeat CPU 0 instructions: 196000978 cycles: 336315993 heartbeat IPC: 1.203 cumulative IPC: 0.4524 (Simulation time: 00 hr 49 min 28 sec)
Heartbeat CPU 0 instructions: 196500980 cycles: 336469781 heartbeat IPC: 3.251 cumulative IPC: 0.4538 (Simulation time: 00 hr 49 min 30 sec)
Heartbeat CPU 0 instructions: 197000981 cycles: 336624232 heartbeat IPC: 3.237 cumulative IPC: 0.4551 (Simulation time: 00 hr 49 min 33 sec)
Heartbeat CPU 0 instructions: 197500981 cycles: 336785084 heartbeat IPC: 3.108 cumulative IPC: 0.4564 (Simulation time: 00 hr 49 min 35 sec)
Heartbeat CPU 0 instructions: 198000982 cycles: 336947853 heartbeat IPC: 3.072 cumulative IPC: 0.4577 (Simulation time: 00 hr 49 min 38 sec)
Heartbeat CPU 0 instructions: 198500983 cycles: 337113490 heartbeat IPC: 3.019 cumulative IPC: 0.4591 (Simulation time: 00 hr 49 min 40 sec)
Heartbeat CPU 0 instructions: 199000985 cycles: 337328872 heartbeat IPC: 2.321 cumulative IPC: 0.4603 (Simulation time: 00 hr 49 min 43 sec)
Heartbeat CPU 0 instructions: 199500991 cycles: 339057698 heartbeat IPC: 0.2892 cumulative IPC: 0.4594 (Simulation time: 00 hr 49 min 55 sec)
Heartbeat CPU 0 instructions: 200000996 cycles: 340639448 heartbeat IPC: 0.3161 cumulative IPC: 0.4587 (Simulation time: 00 hr 50 min 06 sec)
Heartbeat CPU 0 instructions: 200501000 cycles: 342056003 heartbeat IPC: 0.353 cumulative IPC: 0.4582 (Simulation time: 00 hr 50 min 17 sec)
Heartbeat CPU 0 instructions: 201001000 cycles: 344169104 heartbeat IPC: 0.2366 cumulative IPC: 0.4568 (Simulation time: 00 hr 50 min 31 sec)
Heartbeat CPU 0 instructions: 201501000 cycles: 345544515 heartbeat IPC: 0.3635 cumulative IPC: 0.4564 (Simulation time: 00 hr 50 min 41 sec)
Heartbeat CPU 0 instructions: 202001000 cycles: 345987627 heartbeat IPC: 1.128 cumulative IPC: 0.4573 (Simulation time: 00 hr 50 min 45 sec)
Heartbeat CPU 0 instructions: 202501001 cycles: 346361334 heartbeat IPC: 1.338 cumulative IPC: 0.4583 (Simulation time: 00 hr 50 min 49 sec)
Heartbeat CPU 0 instructions: 203001004 cycles: 346725919 heartbeat IPC: 1.371 cumulative IPC: 0.4593 (Simulation time: 00 hr 50 min 52 sec)
Heartbeat CPU 0 instructions: 203501009 cycles: 347073674 heartbeat IPC: 1.438 cumulative IPC: 0.4603 (Simulation time: 00 hr 50 min 56 sec)
Heartbeat CPU 0 instructions: 204001010 cycles: 347431132 heartbeat IPC: 1.399 cumulative IPC: 0.4613 (Simulation time: 00 hr 50 min 59 sec)
Heartbeat CPU 0 instructions: 204501017 cycles: 347770372 heartbeat IPC: 1.474 cumulative IPC: 0.4624 (Simulation time: 00 hr 51 min 02 sec)
Heartbeat CPU 0 instructions: 205001018 cycles: 348135686 heartbeat IPC: 1.369 cumulative IPC: 0.4634 (Simulation time: 00 hr 51 min 06 sec)
Heartbeat CPU 0 instructions: 205501018 cycles: 349635236 heartbeat IPC: 0.3334 cumulative IPC: 0.4628 (Simulation time: 00 hr 51 min 18 sec)
Heartbeat CPU 0 instructions: 206001020 cycles: 350792379 heartbeat IPC: 0.4321 cumulative IPC: 0.4627 (Simulation time: 00 hr 51 min 27 sec)
Heartbeat CPU 0 instructions: 206501024 cycles: 352205747 heartbeat IPC: 0.3538 cumulative IPC: 0.4622 (Simulation time: 00 hr 51 min 38 sec)
Heartbeat CPU 0 instructions: 207001031 cycles: 353975903 heartbeat IPC: 0.2825 cumulative IPC: 0.4613 (Simulation time: 00 hr 51 min 51 sec)
Heartbeat CPU 0 instructions: 207501032 cycles: 355778065 heartbeat IPC: 0.2774 cumulative IPC: 0.4603 (Simulation time: 00 hr 52 min 04 sec)
Heartbeat CPU 0 instructions: 208001032 cycles: 357340215 heartbeat IPC: 0.3201 cumulative IPC: 0.4597 (Simulation time: 00 hr 52 min 15 sec)
Heartbeat CPU 0 instructions: 208501032 cycles: 358677663 heartbeat IPC: 0.3738 cumulative IPC: 0.4593 (Simulation time: 00 hr 52 min 25 sec)
Heartbeat CPU 0 instructions: 209001032 cycles: 360308426 heartbeat IPC: 0.3066 cumulative IPC: 0.4586 (Simulation time: 00 hr 52 min 37 sec)
Heartbeat CPU 0 instructions: 209501032 cycles: 361597793 heartbeat IPC: 0.3878 cumulative IPC: 0.4584 (Simulation time: 00 hr 52 min 47 sec)
Heartbeat CPU 0 instructions: 210001032 cycles: 363216899 heartbeat IPC: 0.3088 cumulative IPC: 0.4577 (Simulation time: 00 hr 52 min 58 sec)
Heartbeat CPU 0 instructions: 210501036 cycles: 364659441 heartbeat IPC: 0.3466 cumulative IPC: 0.4572 (Simulation time: 00 hr 53 min 08 sec)
Heartbeat CPU 0 instructions: 211001037 cycles: 365569295 heartbeat IPC: 0.5495 cumulative IPC: 0.4575 (Simulation time: 00 hr 53 min 15 sec)
Heartbeat CPU 0 instructions: 211501037 cycles: 367155525 heartbeat IPC: 0.3152 cumulative IPC: 0.4568 (Simulation time: 00 hr 53 min 27 sec)
Heartbeat CPU 0 instructions: 212001041 cycles: 368742868 heartbeat IPC: 0.315 cumulative IPC: 0.4562 (Simulation time: 00 hr 53 min 38 sec)
Heartbeat CPU 0 instructions: 212501041 cycles: 370135618 heartbeat IPC: 0.359 cumulative IPC: 0.4558 (Simulation time: 00 hr 53 min 48 sec)
Heartbeat CPU 0 instructions: 213001043 cycles: 371605953 heartbeat IPC: 0.3401 cumulative IPC: 0.4553 (Simulation time: 00 hr 53 min 59 sec)
Heartbeat CPU 0 instructions: 213501043 cycles: 372574112 heartbeat IPC: 0.5164 cumulative IPC: 0.4555 (Simulation time: 00 hr 54 min 07 sec)
Heartbeat CPU 0 instructions: 214001048 cycles: 373364357 heartbeat IPC: 0.6327 cumulative IPC: 0.4559 (Simulation time: 00 hr 54 min 13 sec)
Heartbeat CPU 0 instructions: 214501050 cycles: 375604375 heartbeat IPC: 0.2232 cumulative IPC: 0.4544 (Simulation time: 00 hr 54 min 28 sec)
Heartbeat CPU 0 instructions: 215001050 cycles: 376871065 heartbeat IPC: 0.3947 cumulative IPC: 0.4542 (Simulation time: 00 hr 54 min 38 sec)
Heartbeat CPU 0 instructions: 215501054 cycles: 377738095 heartbeat IPC: 0.5767 cumulative IPC: 0.4545 (Simulation time: 00 hr 54 min 44 sec)
Heartbeat CPU 0 instructions: 216001054 cycles: 378830687 heartbeat IPC: 0.4576 cumulative IPC: 0.4545 (Simulation time: 00 hr 54 min 53 sec)
Heartbeat CPU 0 instructions: 216501056 cycles: 380107412 heartbeat IPC: 0.3916 cumulative IPC: 0.4543 (Simulation time: 00 hr 55 min 02 sec)
Heartbeat CPU 0 instructions: 217001062 cycles: 381014522 heartbeat IPC: 0.5512 cumulative IPC: 0.4546 (Simulation time: 00 hr 55 min 10 sec)
Heartbeat CPU 0 instructions: 217501068 cycles: 382918699 heartbeat IPC: 0.2626 cumulative IPC: 0.4536 (Simulation time: 00 hr 55 min 23 sec)
Heartbeat CPU 0 instructions: 218001068 cycles: 383999709 heartbeat IPC: 0.4625 cumulative IPC: 0.4536 (Simulation time: 00 hr 55 min 31 sec)
Heartbeat CPU 0 instructions: 218501068 cycles: 385267163 heartbeat IPC: 0.3945 cumulative IPC: 0.4534 (Simulation time: 00 hr 55 min 41 sec)
Heartbeat CPU 0 instructions: 219001069 cycles: 387540164 heartbeat IPC: 0.22 cumulative IPC: 0.452 (Simulation time: 00 hr 55 min 56 sec)
Heartbeat CPU 0 instructions: 219501073 cycles: 388758644 heartbeat IPC: 0.4104 cumulative IPC: 0.4518 (Simulation time: 00 hr 56 min 05 sec)
Heartbeat CPU 0 instructions: 220001073 cycles: 390262947 heartbeat IPC: 0.3324 cumulative IPC: 0.4514 (Simulation time: 00 hr 56 min 15 sec)
Heartbeat CPU 0 instructions: 220501073 cycles: 391288377 heartbeat IPC: 0.4876 cumulative IPC: 0.4515 (Simulation time: 00 hr 56 min 23 sec)
Heartbeat CPU 0 instructions: 221001073 cycles: 392491507 heartbeat IPC: 0.4156 cumulative IPC: 0.4513 (Simulation time: 00 hr 56 min 32 sec)
Heartbeat CPU 0 instructions: 221501075 cycles: 393607915 heartbeat IPC: 0.4479 cumulative IPC: 0.4513 (Simulation time: 00 hr 56 min 40 sec)
Heartbeat CPU 0 instructions: 222001076 cycles: 394254007 heartbeat IPC: 0.7739 cumulative IPC: 0.4519 (Simulation time: 00 hr 56 min 45 sec)
Heartbeat CPU 0 instructions: 222501080 cycles: 396191213 heartbeat IPC: 0.2581 cumulative IPC: 0.4509 (Simulation time: 00 hr 56 min 59 sec)
Heartbeat CPU 0 instructions: 223001080 cycles: 398625359 heartbeat IPC: 0.2054 cumulative IPC: 0.4493 (Simulation time: 00 hr 57 min 15 sec)
Heartbeat CPU 0 instructions: 223501084 cycles: 400120986 heartbeat IPC: 0.3343 cumulative IPC: 0.4489 (Simulation time: 00 hr 57 min 26 sec)
Heartbeat CPU 0 instructions: 224001090 cycles: 401494552 heartbeat IPC: 0.364 cumulative IPC: 0.4486 (Simulation time: 00 hr 57 min 36 sec)
Heartbeat CPU 0 instructions: 224501094 cycles: 401975923 heartbeat IPC: 1.039 cumulative IPC: 0.4493 (Simulation time: 00 hr 57 min 40 sec)
Heartbeat CPU 0 instructions: 225001101 cycles: 402665153 heartbeat IPC: 0.7255 cumulative IPC: 0.4498 (Simulation time: 00 hr 57 min 45 sec)
Heartbeat CPU 0 instructions: 225501101 cycles: 403187489 heartbeat IPC: 0.9572 cumulative IPC: 0.4505 (Simulation time: 00 hr 57 min 49 sec)
Heartbeat CPU 0 instructions: 226001101 cycles: 403756783 heartbeat IPC: 0.8783 cumulative IPC: 0.4511 (Simulation time: 00 hr 57 min 54 sec)
Heartbeat CPU 0 instructions: 226501103 cycles: 404261604 heartbeat IPC: 0.9905 cumulative IPC: 0.4518 (Simulation time: 00 hr 57 min 58 sec)
Heartbeat CPU 0 instructions: 227001103 cycles: 405434327 heartbeat IPC: 0.4264 cumulative IPC: 0.4517 (Simulation time: 00 hr 58 min 07 sec)
Heartbeat CPU 0 instructions: 227501104 cycles: 408302148 heartbeat IPC: 0.1743 cumulative IPC: 0.4497 (Simulation time: 00 hr 58 min 26 sec)
Heartbeat CPU 0 instructions: 228001106 cycles: 410561925 heartbeat IPC: 0.2213 cumulative IPC: 0.4484 (Simulation time: 00 hr 58 min 41 sec)
Heartbeat CPU 0 instructions: 228501108 cycles: 411233262 heartbeat IPC: 0.7448 cumulative IPC: 0.4489 (Simulation time: 00 hr 58 min 47 sec)
Heartbeat CPU 0 instructions: 229001111 cycles: 411713570 heartbeat IPC: 1.041 cumulative IPC: 0.4496 (Simulation time: 00 hr 58 min 53 sec)
Heartbeat CPU 0 instructions: 229501117 cycles: 413221367 heartbeat IPC: 0.3316 cumulative IPC: 0.4492 (Simulation time: 00 hr 59 min 03 sec)
Heartbeat CPU 0 instructions: 230001123 cycles: 414490356 heartbeat IPC: 0.394 cumulative IPC: 0.449 (Simulation time: 00 hr 59 min 12 sec)
Heartbeat CPU 0 instructions: 230501127 cycles: 415184917 heartbeat IPC: 0.7199 cumulative IPC: 0.4495 (Simulation time: 00 hr 59 min 18 sec)
Heartbeat CPU 0 instructions: 231001130 cycles: 415626423 heartbeat IPC: 1.132 cumulative IPC: 0.4502 (Simulation time: 00 hr 59 min 24 sec)
Heartbeat CPU 0 instructions: 231501132 cycles: 417427717 heartbeat IPC: 0.2776 cumulative IPC: 0.4495 (Simulation time: 00 hr 59 min 36 sec)
Heartbeat CPU 0 instructions: 232001137 cycles: 418885394 heartbeat IPC: 0.343 cumulative IPC: 0.4491 (Simulation time: 00 hr 59 min 46 sec)
Heartbeat CPU 0 instructions: 232501137 cycles: 419862880 heartbeat IPC: 0.5115 cumulative IPC: 0.4492 (Simulation time: 00 hr 59 min 54 sec)
Heartbeat CPU 0 instructions: 233001140 cycles: 420459142 heartbeat IPC: 0.8386 cumulative IPC: 0.4498 (Simulation time: 00 hr 59 min 58 sec)
Heartbeat CPU 0 instructions: 233501141 cycles: 420834896 heartbeat IPC: 1.331 cumulative IPC: 0.4506 (Simulation time: 01 hr 00 min 01 sec)
Heartbeat CPU 0 instructions: 234001143 cycles: 422040951 heartbeat IPC: 0.4146 cumulative IPC: 0.4505 (Simulation time: 01 hr 00 min 10 sec)
Heartbeat CPU 0 instructions: 234501143 cycles: 423234524 heartbeat IPC: 0.4189 cumulative IPC: 0.4504 (Simulation time: 01 hr 00 min 18 sec)
Heartbeat CPU 0 instructions: 235001143 cycles: 424732884 heartbeat IPC: 0.3337 cumulative IPC: 0.45 (Simulation time: 01 hr 00 min 28 sec)
Heartbeat CPU 0 instructions: 235501143 cycles: 426679014 heartbeat IPC: 0.2569 cumulative IPC: 0.4491 (Simulation time: 01 hr 00 min 40 sec)
Heartbeat CPU 0 instructions: 236001145 cycles: 428052294 heartbeat IPC: 0.3641 cumulative IPC: 0.4488 (Simulation time: 01 hr 00 min 50 sec)
Heartbeat CPU 0 instructions: 236501152 cycles: 428530244 heartbeat IPC: 1.046 cumulative IPC: 0.4495 (Simulation time: 01 hr 00 min 54 sec)
Heartbeat CPU 0 instructions: 237001154 cycles: 430323808 heartbeat IPC: 0.2788 cumulative IPC: 0.4488 (Simulation time: 01 hr 01 min 06 sec)
Heartbeat CPU 0 instructions: 237501154 cycles: 432414369 heartbeat IPC: 0.2392 cumulative IPC: 0.4477 (Simulation time: 01 hr 01 min 20 sec)
Heartbeat CPU 0 instructions: 238001154 cycles: 433447432 heartbeat IPC: 0.484 cumulative IPC: 0.4478 (Simulation time: 01 hr 01 min 27 sec)
Heartbeat CPU 0 instructions: 238501155 cycles: 433597770 heartbeat IPC: 3.326 cumulative IPC: 0.4488 (Simulation time: 01 hr 01 min 29 sec)
Heartbeat CPU 0 instructions: 239001155 cycles: 433755877 heartbeat IPC: 3.162 cumulative IPC: 0.4499 (Simulation time: 01 hr 01 min 32 sec)
Heartbeat CPU 0 instructions: 239501156 cycles: 433912398 heartbeat IPC: 3.194 cumulative IPC: 0.4509 (Simulation time: 01 hr 01 min 34 sec)
Heartbeat CPU 0 instructions: 240001158 cycles: 434075691 heartbeat IPC: 3.062 cumulative IPC: 0.4519 (Simulation time: 01 hr 01 min 36 sec)
Heartbeat CPU 0 instructions: 240501161 cycles: 434748866 heartbeat IPC: 0.7428 cumulative IPC: 0.4524 (Simulation time: 01 hr 01 min 41 sec)
Heartbeat CPU 0 instructions: 241001161 cycles: 436438315 heartbeat IPC: 0.296 cumulative IPC: 0.4517 (Simulation time: 01 hr 01 min 53 sec)
Heartbeat CPU 0 instructions: 241501166 cycles: 437409286 heartbeat IPC: 0.515 cumulative IPC: 0.4519 (Simulation time: 01 hr 02 min 00 sec)
Heartbeat CPU 0 instructions: 242001168 cycles: 439336295 heartbeat IPC: 0.2595 cumulative IPC: 0.451 (Simulation time: 01 hr 02 min 12 sec)
Heartbeat CPU 0 instructions: 242501170 cycles: 440753839 heartbeat IPC: 0.3527 cumulative IPC: 0.4507 (Simulation time: 01 hr 02 min 21 sec)
Heartbeat CPU 0 instructions: 243001170 cycles: 442510612 heartbeat IPC: 0.2846 cumulative IPC: 0.45 (Simulation time: 01 hr 02 min 33 sec)
Heartbeat CPU 0 instructions: 243501171 cycles: 444638784 heartbeat IPC: 0.2349 cumulative IPC: 0.4489 (Simulation time: 01 hr 02 min 46 sec)
Heartbeat CPU 0 instructions: 244001176 cycles: 445550225 heartbeat IPC: 0.5486 cumulative IPC: 0.4491 (Simulation time: 01 hr 02 min 53 sec)
Heartbeat CPU 0 instructions: 244501183 cycles: 446658881 heartbeat IPC: 0.451 cumulative IPC: 0.4492 (Simulation time: 01 hr 03 min 01 sec)
Heartbeat CPU 0 instructions: 245001190 cycles: 448740051 heartbeat IPC: 0.2403 cumulative IPC: 0.4482 (Simulation time: 01 hr 03 min 14 sec)
Heartbeat CPU 0 instructions: 245501190 cycles: 450637926 heartbeat IPC: 0.2635 cumulative IPC: 0.4474 (Simulation time: 01 hr 03 min 26 sec)
Heartbeat CPU 0 instructions: 246001195 cycles: 451985812 heartbeat IPC: 0.371 cumulative IPC: 0.4471 (Simulation time: 01 hr 03 min 35 sec)
Heartbeat CPU 0 instructions: 246501195 cycles: 453146042 heartbeat IPC: 0.4309 cumulative IPC: 0.4471 (Simulation time: 01 hr 03 min 43 sec)
Heartbeat CPU 0 instructions: 247001199 cycles: 454097262 heartbeat IPC: 0.5256 cumulative IPC: 0.4472 (Simulation time: 01 hr 03 min 50 sec)
Heartbeat CPU 0 instructions: 247501202 cycles: 456087277 heartbeat IPC: 0.2513 cumulative IPC: 0.4464 (Simulation time: 01 hr 04 min 03 sec)
Heartbeat CPU 0 instructions: 248001203 cycles: 457673871 heartbeat IPC: 0.3151 cumulative IPC: 0.4459 (Simulation time: 01 hr 04 min 13 sec)
Heartbeat CPU 0 instructions: 248501205 cycles: 458734161 heartbeat IPC: 0.4716 cumulative IPC: 0.446 (Simulation time: 01 hr 04 min 20 sec)
Heartbeat CPU 0 instructions: 249001208 cycles: 459313153 heartbeat IPC: 0.8636 cumulative IPC: 0.4465 (Simulation time: 01 hr 04 min 25 sec)
Heartbeat CPU 0 instructions: 249501211 cycles: 459844823 heartbeat IPC: 0.9404 cumulative IPC: 0.4471 (Simulation time: 01 hr 04 min 29 sec)
Simulation finished CPU 0 instructions: 200000000 cycles: 447420477 cumulative IPC: 0.447 (Simulation time: 01 hr 04 min 37 sec)
Simulation complete CPU 0 instructions: 200000000 cycles: 447420477 cumulative IPC: 0.447 (Simulation time: 01 hr 04 min 37 sec)

ChampSim completed all CPUs

=== Simulation ===
CPU 0 runs /local-ssd/ben/dpc4-traces/gtraces_v2/tahoe_0001.champsim.gz

Region of Interest Statistics

CPU 0 cumulative IPC: 0.447 instructions: 200000000 cycles: 447420477
CPU 0 Branch Prediction Accuracy: 90.69% MPKI: 18.02 Average ROB Occupancy at Mispredict: 25.64
Branch type MPKI
BRANCH_DIRECT_JUMP: 0.754
BRANCH_INDIRECT: 0.3313
BRANCH_CONDITIONAL: 14.72
BRANCH_DIRECT_CALL: 0.889
BRANCH_INDIRECT_CALL: 0.4762
BRANCH_RETURN: 0.846

cpu0->cpu0_STLB TOTAL        ACCESS:    2209536 HIT:    1467590 MISS:     741946 MSHR_MERGE:          0
cpu0->cpu0_STLB LOAD         ACCESS:    2209536 HIT:    1467590 MISS:     741946 MSHR_MERGE:          0
cpu0->cpu0_STLB RFO          ACCESS:          0 HIT:          0 MISS:          0 MSHR_MERGE:          0
cpu0->cpu0_STLB PREFETCH     ACCESS:          0 HIT:          0 MISS:          0 MSHR_MERGE:          0
cpu0->cpu0_STLB WRITE        ACCESS:          0 HIT:          0 MISS:          0 MSHR_MERGE:          0
cpu0->cpu0_STLB TRANSLATION  ACCESS:          0 HIT:          0 MISS:          0 MSHR_MERGE:          0
cpu0->cpu0_STLB PREFETCH REQUESTED:          0 ISSUED:          0 USEFUL:          0 USELESS:          0
cpu0->cpu0_STLB AVERAGE MISS LATENCY: 153.6 cycles
cpu0->cpu0_L2C TOTAL        ACCESS:   15052924 HIT:    8429041 MISS:    6623883 MSHR_MERGE:    1466324
cpu0->cpu0_L2C LOAD         ACCESS:    3682439 HIT:    1878781 MISS:    1803658 MSHR_MERGE:      73088
cpu0->cpu0_L2C RFO          ACCESS:     644707 HIT:     198205 MISS:     446502 MSHR_MERGE:       3364
cpu0->cpu0_L2C PREFETCH     ACCESS:    8824054 HIT:    4782738 MISS:    4041316 MSHR_MERGE:    1389872
cpu0->cpu0_L2C WRITE        ACCESS:    1105715 HIT:    1105660 MISS:         55 MSHR_MERGE:          0
cpu0->cpu0_L2C TRANSLATION  ACCESS:     796009 HIT:     463657 MISS:     332352 MSHR_MERGE:          0
cpu0->cpu0_L2C PREFETCH REQUESTED:    7543627 ISSUED:    7091317 USEFUL:     621069 USELESS:    1315564
cpu0->cpu0_L2C AVERAGE MISS LATENCY: 225.4 cycles
cpu0->cpu0_L1I TOTAL        ACCESS:   15655986 HIT:   13254728 MISS:    2401258 MSHR_MERGE:     442939
cpu0->cpu0_L1I LOAD         ACCESS:   15655986 HIT:   13254728 MISS:    2401258 MSHR_MERGE:     442939
cpu0->cpu0_L1I RFO          ACCESS:          0 HIT:          0 MISS:          0 MSHR_MERGE:          0
cpu0->cpu0_L1I PREFETCH     ACCESS:          0 HIT:          0 MISS:          0 MSHR_MERGE:          0
cpu0->cpu0_L1I WRITE        ACCESS:          0 HIT:          0 MISS:          0 MSHR_MERGE:          0
cpu0->cpu0_L1I TRANSLATION  ACCESS:          0 HIT:          0 MISS:          0 MSHR_MERGE:          0
cpu0->cpu0_L1I PREFETCH REQUESTED:          0 ISSUED:          0 USEFUL:          0 USELESS:          0
cpu0->cpu0_L1I AVERAGE MISS LATENCY: 121.2 cycles
cpu0->cpu0_L1D TOTAL        ACCESS:   77752620 HIT:   69963628 MISS:    7788992 MSHR_MERGE:    2891370
cpu0->cpu0_L1D LOAD         ACCESS:   34492994 HIT:   32086518 MISS:    2406476 MSHR_MERGE:     682344
cpu0->cpu0_L1D RFO          ACCESS:          0 HIT:          0 MISS:          0 MSHR_MERGE:          0
cpu0->cpu0_L1D PREFETCH     ACCESS:   18349904 HIT:   15911632 MISS:    2438272 MSHR_MERGE:     705525
cpu0->cpu0_L1D WRITE        ACCESS:   23007321 HIT:   20866891 MISS:    2140430 MSHR_MERGE:    1495696
cpu0->cpu0_L1D TRANSLATION  ACCESS:    1902401 HIT:    1098587 MISS:     803814 MSHR_MERGE:       7805
cpu0->cpu0_L1D PREFETCH REQUESTED:   21343769 ISSUED:   18349896 USEFUL:     614879 USELESS:    1117753
cpu0->cpu0_L1D AVERAGE MISS LATENCY: 122 cycles
cpu0->cpu0_ITLB TOTAL        ACCESS:   13155646 HIT:   12782867 MISS:     372779 MSHR_MERGE:     159545
cpu0->cpu0_ITLB LOAD         ACCESS:   13155646 HIT:   12782867 MISS:     372779 MSHR_MERGE:     159545
cpu0->cpu0_ITLB RFO          ACCESS:          0 HIT:          0 MISS:          0 MSHR_MERGE:          0
cpu0->cpu0_ITLB PREFETCH     ACCESS:          0 HIT:          0 MISS:          0 MSHR_MERGE:          0
cpu0->cpu0_ITLB WRITE        ACCESS:          0 HIT:          0 MISS:          0 MSHR_MERGE:          0
cpu0->cpu0_ITLB TRANSLATION  ACCESS:          0 HIT:          0 MISS:          0 MSHR_MERGE:          0
cpu0->cpu0_ITLB PREFETCH REQUESTED:          0 ISSUED:          0 USEFUL:          0 USELESS:          0
cpu0->cpu0_ITLB AVERAGE MISS LATENCY: 46.78 cycles
cpu0->cpu0_DTLB TOTAL        ACCESS:   69696065 HIT:   66600200 MISS:    3095865 MSHR_MERGE:    1099563
cpu0->cpu0_DTLB LOAD         ACCESS:   69696065 HIT:   66600200 MISS:    3095865 MSHR_MERGE:    1099563
cpu0->cpu0_DTLB RFO          ACCESS:          0 HIT:          0 MISS:          0 MSHR_MERGE:          0
cpu0->cpu0_DTLB PREFETCH     ACCESS:          0 HIT:          0 MISS:          0 MSHR_MERGE:          0
cpu0->cpu0_DTLB WRITE        ACCESS:          0 HIT:          0 MISS:          0 MSHR_MERGE:          0
cpu0->cpu0_DTLB TRANSLATION  ACCESS:          0 HIT:          0 MISS:          0 MSHR_MERGE:          0
cpu0->cpu0_DTLB PREFETCH REQUESTED:          0 ISSUED:          0 USEFUL:          0 USELESS:          0
cpu0->cpu0_DTLB AVERAGE MISS LATENCY: 58.01 cycles
cpu0->LLC TOTAL        ACCESS:    6874234 HIT:     989909 MISS:    5884325 MSHR_MERGE:     154686
cpu0->LLC LOAD         ACCESS:    1730569 HIT:     221352 MISS:    1509217 MSHR_MERGE:       2300
cpu0->LLC RFO          ACCESS:     443138 HIT:      13804 MISS:     429334 MSHR_MERGE:        128
cpu0->LLC PREFETCH     ACCESS:    3604316 HIT:     364018 MISS:    3240298 MSHR_MERGE:     152258
cpu0->LLC WRITE        ACCESS:     763859 HIT:     353025 MISS:     410834 MSHR_MERGE:          0
cpu0->LLC TRANSLATION  ACCESS:     332352 HIT:      37710 MISS:     294642 MSHR_MERGE:          0
cpu0->LLC PREFETCH REQUESTED:     971554 ISSUED:     952872 USEFUL:     102068 USELESS:     610421
cpu0->LLC AVERAGE MISS LATENCY: 196.2 cycles

DRAM Statistics

Channel 0 RQ ROW_BUFFER_HIT:     166407
  ROW_BUFFER_MISS:    5152197
  AVG DBUS CONGESTED CYCLE: 19.94
Channel 0 WQ ROW_BUFFER_HIT:     189548
  ROW_BUFFER_MISS:     539252
  FULL:          0
Channel 0 REFRESHES ISSUED:      37283
