[VMEM] WARNING: physical memory size is smaller than virtual memory size.

*** ChampSim Multicore Out-of-Order Simulator ***
Warmup Instructions: 50000000
Simulation Instructions: 200000000
Number of CPUs: 1
Page size: 4096
Core 0: /local-ssd/ben/dpc4-traces/SPEC17/602.gcc_s-734B.champsimtrace.xz
Off-chip DRAM Size: 64 GiB Channels: 1 Width: 64-bit Data Rate: 4807 MT/s
Heartbeat CPU 0 instructions: 500003 cycles: 113914 heartbeat IPC: 4.389 cumulative IPC: 4.389 (Simulation time: 00 hr 00 min 04 sec)
Heartbeat CPU 0 instructions: 1000004 cycles: 224055 heartbeat IPC: 4.54 cumulative IPC: 4.463 (Simulation time: 00 hr 00 min 06 sec)
Heartbeat CPU 0 instructions: 1500008 cycles: 333709 heartbeat IPC: 4.56 cumulative IPC: 4.495 (Simulation time: 00 hr 00 min 08 sec)
Heartbeat CPU 0 instructions: 2000012 cycles: 444146 heartbeat IPC: 4.528 cumulative IPC: 4.503 (Simulation time: 00 hr 00 min 10 sec)
Heartbeat CPU 0 instructions: 2500014 cycles: 551889 heartbeat IPC: 4.641 cumulative IPC: 4.53 (Simulation time: 00 hr 00 min 11 sec)
Heartbeat CPU 0 instructions: 3000014 cycles: 660093 heartbeat IPC: 4.621 cumulative IPC: 4.545 (Simulation time: 00 hr 00 min 13 sec)
Heartbeat CPU 0 instructions: 3500018 cycles: 768313 heartbeat IPC: 4.62 cumulative IPC: 4.555 (Simulation time: 00 hr 00 min 15 sec)
Heartbeat CPU 0 instructions: 4000018 cycles: 876622 heartbeat IPC: 4.616 cumulative IPC: 4.563 (Simulation time: 00 hr 00 min 17 sec)
Heartbeat CPU 0 instructions: 4500021 cycles: 985289 heartbeat IPC: 4.601 cumulative IPC: 4.567 (Simulation time: 00 hr 00 min 19 sec)
Heartbeat CPU 0 instructions: 5000026 cycles: 1094109 heartbeat IPC: 4.595 cumulative IPC: 4.57 (Simulation time: 00 hr 00 min 20 sec)
Heartbeat CPU 0 instructions: 5500031 cycles: 1202921 heartbeat IPC: 4.595 cumulative IPC: 4.572 (Simulation time: 00 hr 00 min 22 sec)
Heartbeat CPU 0 instructions: 6000031 cycles: 1310028 heartbeat IPC: 4.668 cumulative IPC: 4.58 (Simulation time: 00 hr 00 min 24 sec)
Heartbeat CPU 0 instructions: 6500034 cycles: 1418020 heartbeat IPC: 4.63 cumulative IPC: 4.584 (Simulation time: 00 hr 00 min 26 sec)
Heartbeat CPU 0 instructions: 7000036 cycles: 1528498 heartbeat IPC: 4.526 cumulative IPC: 4.58 (Simulation time: 00 hr 00 min 28 sec)
Heartbeat CPU 0 instructions: 7500036 cycles: 1638372 heartbeat IPC: 4.551 cumulative IPC: 4.578 (Simulation time: 00 hr 00 min 30 sec)
Heartbeat CPU 0 instructions: 8000038 cycles: 1748271 heartbeat IPC: 4.55 cumulative IPC: 4.576 (Simulation time: 00 hr 00 min 31 sec)
Heartbeat CPU 0 instructions: 8500041 cycles: 1858063 heartbeat IPC: 4.554 cumulative IPC: 4.575 (Simulation time: 00 hr 00 min 33 sec)
Heartbeat CPU 0 instructions: 9000048 cycles: 1966918 heartbeat IPC: 4.593 cumulative IPC: 4.576 (Simulation time: 00 hr 00 min 35 sec)
Heartbeat CPU 0 instructions: 9500054 cycles: 2075259 heartbeat IPC: 4.615 cumulative IPC: 4.578 (Simulation time: 00 hr 00 min 37 sec)
Heartbeat CPU 0 instructions: 10000056 cycles: 2186376 heartbeat IPC: 4.5 cumulative IPC: 4.574 (Simulation time: 00 hr 00 min 39 sec)
Heartbeat CPU 0 instructions: 10500057 cycles: 2294367 heartbeat IPC: 4.63 cumulative IPC: 4.576 (Simulation time: 00 hr 00 min 40 sec)
Heartbeat CPU 0 instructions: 11000060 cycles: 2402836 heartbeat IPC: 4.61 cumulative IPC: 4.578 (Simulation time: 00 hr 00 min 42 sec)
Heartbeat CPU 0 instructions: 11500062 cycles: 2511750 heartbeat IPC: 4.591 cumulative IPC: 4.579 (Simulation time: 00 hr 00 min 44 sec)
Heartbeat CPU 0 instructions: 12000064 cycles: 2620245 heartbeat IPC: 4.609 cumulative IPC: 4.58 (Simulation time: 00 hr 00 min 46 sec)
Heartbeat CPU 0 instructions: 12500070 cycles: 2730521 heartbeat IPC: 4.534 cumulative IPC: 4.578 (Simulation time: 00 hr 00 min 48 sec)
Heartbeat CPU 0 instructions: 13000071 cycles: 2838789 heartbeat IPC: 4.618 cumulative IPC: 4.579 (Simulation time: 00 hr 00 min 49 sec)
Heartbeat CPU 0 instructions: 13500072 cycles: 2948679 heartbeat IPC: 4.55 cumulative IPC: 4.578 (Simulation time: 00 hr 00 min 51 sec)
Heartbeat CPU 0 instructions: 14000079 cycles: 3061967 heartbeat IPC: 4.414 cumulative IPC: 4.572 (Simulation time: 00 hr 00 min 53 sec)
Heartbeat CPU 0 instructions: 14500082 cycles: 3171376 heartbeat IPC: 4.57 cumulative IPC: 4.572 (Simulation time: 00 hr 00 min 55 sec)
Heartbeat CPU 0 instructions: 15000082 cycles: 3290254 heartbeat IPC: 4.206 cumulative IPC: 4.559 (Simulation time: 00 hr 00 min 57 sec)
Heartbeat CPU 0 instructions: 15500084 cycles: 3398455 heartbeat IPC: 4.621 cumulative IPC: 4.561 (Simulation time: 00 hr 00 min 59 sec)
Heartbeat CPU 0 instructions: 16000084 cycles: 3506571 heartbeat IPC: 4.625 cumulative IPC: 4.563 (Simulation time: 00 hr 01 min 01 sec)
Heartbeat CPU 0 instructions: 16500087 cycles: 3615027 heartbeat IPC: 4.61 cumulative IPC: 4.564 (Simulation time: 00 hr 01 min 03 sec)
Heartbeat CPU 0 instructions: 17000090 cycles: 3722733 heartbeat IPC: 4.642 cumulative IPC: 4.567 (Simulation time: 00 hr 01 min 05 sec)
Heartbeat CPU 0 instructions: 17500093 cycles: 3830681 heartbeat IPC: 4.632 cumulative IPC: 4.568 (Simulation time: 00 hr 01 min 06 sec)
Heartbeat CPU 0 instructions: 18000094 cycles: 3939673 heartbeat IPC: 4.588 cumulative IPC: 4.569 (Simulation time: 00 hr 01 min 08 sec)
Heartbeat CPU 0 instructions: 18500096 cycles: 4048059 heartbeat IPC: 4.613 cumulative IPC: 4.57 (Simulation time: 00 hr 01 min 10 sec)
Heartbeat CPU 0 instructions: 19000097 cycles: 4156448 heartbeat IPC: 4.613 cumulative IPC: 4.571 (Simulation time: 00 hr 01 min 12 sec)
Heartbeat CPU 0 instructions: 19500101 cycles: 4263763 heartbeat IPC: 4.659 cumulative IPC: 4.573 (Simulation time: 00 hr 01 min 14 sec)
Heartbeat CPU 0 instructions: 20000103 cycles: 4371306 heartbeat IPC: 4.649 cumulative IPC: 4.575 (Simulation time: 00 hr 01 min 16 sec)
Heartbeat CPU 0 instructions: 20500106 cycles: 4478827 heartbeat IPC: 4.65 cumulative IPC: 4.577 (Simulation time: 00 hr 01 min 17 sec)
Heartbeat CPU 0 instructions: 21000109 cycles: 4587362 heartbeat IPC: 4.607 cumulative IPC: 4.578 (Simulation time: 00 hr 01 min 19 sec)
Heartbeat CPU 0 instructions: 21500113 cycles: 4694906 heartbeat IPC: 4.649 cumulative IPC: 4.579 (Simulation time: 00 hr 01 min 21 sec)
Heartbeat CPU 0 instructions: 22000118 cycles: 4802764 heartbeat IPC: 4.636 cumulative IPC: 4.581 (Simulation time: 00 hr 01 min 23 sec)
Heartbeat CPU 0 instructions: 22500120 cycles: 4910271 heartbeat IPC: 4.651 cumulative IPC: 4.582 (Simulation time: 00 hr 01 min 25 sec)
Heartbeat CPU 0 instructions: 23000125 cycles: 5018487 heartbeat IPC: 4.62 cumulative IPC: 4.583 (Simulation time: 00 hr 01 min 27 sec)
Heartbeat CPU 0 instructions: 23500129 cycles: 5126318 heartbeat IPC: 4.637 cumulative IPC: 4.584 (Simulation time: 00 hr 01 min 28 sec)
Heartbeat CPU 0 instructions: 24000130 cycles: 5234197 heartbeat IPC: 4.635 cumulative IPC: 4.585 (Simulation time: 00 hr 01 min 30 sec)
Heartbeat CPU 0 instructions: 24500136 cycles: 5342263 heartbeat IPC: 4.627 cumulative IPC: 4.586 (Simulation time: 00 hr 01 min 32 sec)
Heartbeat CPU 0 instructions: 25000136 cycles: 5449518 heartbeat IPC: 4.662 cumulative IPC: 4.588 (Simulation time: 00 hr 01 min 34 sec)
Heartbeat CPU 0 instructions: 25500143 cycles: 5556608 heartbeat IPC: 4.669 cumulative IPC: 4.589 (Simulation time: 00 hr 01 min 36 sec)
Heartbeat CPU 0 instructions: 26000144 cycles: 5663522 heartbeat IPC: 4.677 cumulative IPC: 4.591 (Simulation time: 00 hr 01 min 38 sec)
Heartbeat CPU 0 instructions: 26500145 cycles: 5770470 heartbeat IPC: 4.675 cumulative IPC: 4.592 (Simulation time: 00 hr 01 min 39 sec)
Heartbeat CPU 0 instructions: 27000146 cycles: 5878358 heartbeat IPC: 4.634 cumulative IPC: 4.593 (Simulation time: 00 hr 01 min 41 sec)
Heartbeat CPU 0 instructions: 27500150 cycles: 5985115 heartbeat IPC: 4.684 cumulative IPC: 4.595 (Simulation time: 00 hr 01 min 43 sec)
Heartbeat CPU 0 instructions: 28000154 cycles: 6093013 heartbeat IPC: 4.634 cumulative IPC: 4.595 (Simulation time: 00 hr 01 min 45 sec)
Heartbeat CPU 0 instructions: 28500157 cycles: 6199167 heartbeat IPC: 4.71 cumulative IPC: 4.597 (Simulation time: 00 hr 01 min 47 sec)
Heartbeat CPU 0 instructions: 29000158 cycles: 6307074 heartbeat IPC: 4.634 cumulative IPC: 4.598 (Simulation time: 00 hr 01 min 48 sec)
Heartbeat CPU 0 instructions: 29500161 cycles: 6414907 heartbeat IPC: 4.637 cumulative IPC: 4.599 (Simulation time: 00 hr 01 min 50 sec)
Heartbeat CPU 0 instructions: 30000168 cycles: 6515433 heartbeat IPC: 4.974 cumulative IPC: 4.604 (Simulation time: 00 hr 01 min 52 sec)
Heartbeat CPU 0 instructions: 30500172 cycles: 6615432 heartbeat IPC: 5 cumulative IPC: 4.61 (Simulation time: 00 hr 01 min 54 sec)
Heartbeat CPU 0 instructions: 31000173 cycles: 6715439 heartbeat IPC: 5 cumulative IPC: 4.616 (Simulation time: 00 hr 01 min 55 sec)
Heartbeat CPU 0 instructions: 31500174 cycles: 6815435 heartbeat IPC: 5 cumulative IPC: 4.622 (Simulation time: 00 hr 01 min 57 sec)
Heartbeat CPU 0 instructions: 32000177 cycles: 6915435 heartbeat IPC: 5 cumulative IPC: 4.627 (Simulation time: 00 hr 01 min 58 sec)
Heartbeat CPU 0 instructions: 32500177 cycles: 7015433 heartbeat IPC: 5 cumulative IPC: 4.633 (Simulation time: 00 hr 02 min 00 sec)
Heartbeat CPU 0 instructions: 33000181 cycles: 7115439 heartbeat IPC: 5 cumulative IPC: 4.638 (Simulation time: 00 hr 02 min 01 sec)
Heartbeat CPU 0 instructions: 33500183 cycles: 7215547 heartbeat IPC: 4.995 cumulative IPC: 4.643 (Simulation time: 00 hr 02 min 03 sec)
Heartbeat CPU 0 instructions: 34000185 cycles: 7315658 heartbeat IPC: 4.994 cumulative IPC: 4.648 (Simulation time: 00 hr 02 min 05 sec)
Heartbeat CPU 0 instructions: 34500188 cycles: 7415788 heartbeat IPC: 4.994 cumulative IPC: 4.652 (Simulation time: 00 hr 02 min 06 sec)
Heartbeat CPU 0 instructions: 35000194 cycles: 7515788 heartbeat IPC: 5 cumulative IPC: 4.657 (Simulation time: 00 hr 02 min 08 sec)
Heartbeat CPU 0 instructions: 35500195 cycles: 7615791 heartbeat IPC: 5 cumulative IPC: 4.661 (Simulation time: 00 hr 02 min 09 sec)
Heartbeat CPU 0 instructions: 36000199 cycles: 7715796 heartbeat IPC: 5 cumulative IPC: 4.666 (Simulation time: 00 hr 02 min 11 sec)
Heartbeat CPU 0 instructions: 36500204 cycles: 7815793 heartbeat IPC: 5 cumulative IPC: 4.67 (Simulation time: 00 hr 02 min 13 sec)
Heartbeat CPU 0 instructions: 37000204 cycles: 7915862 heartbeat IPC: 4.997 cumulative IPC: 4.674 (Simulation time: 00 hr 02 min 14 sec)
Heartbeat CPU 0 instructions: 37500208 cycles: 8015857 heartbeat IPC: 5 cumulative IPC: 4.678 (Simulation time: 00 hr 02 min 16 sec)
Heartbeat CPU 0 instructions: 38000209 cycles: 8116080 heartbeat IPC: 4.989 cumulative IPC: 4.682 (Simulation time: 00 hr 02 min 18 sec)
Heartbeat CPU 0 instructions: 38500210 cycles: 8217242 heartbeat IPC: 4.943 cumulative IPC: 4.685 (Simulation time: 00 hr 02 min 19 sec)
Heartbeat CPU 0 instructions: 39000217 cycles: 8317235 heartbeat IPC: 5 cumulative IPC: 4.689 (Simulation time: 00 hr 02 min 21 sec)
Heartbeat CPU 0 instructions: 39500219 cycles: 8417240 heartbeat IPC: 5 cumulative IPC: 4.693 (Simulation time: 00 hr 02 min 22 sec)
Heartbeat CPU 0 instructions: 40000220 cycles: 8517238 heartbeat IPC: 5 cumulative IPC: 4.696 (Simulation time: 00 hr 02 min 24 sec)
Heartbeat CPU 0 instructions: 40500223 cycles: 8617242 heartbeat IPC: 5 cumulative IPC: 4.7 (Simulation time: 00 hr 02 min 26 sec)
Heartbeat CPU 0 instructions: 41000226 cycles: 8717241 heartbeat IPC: 5 cumulative IPC: 4.703 (Simulation time: 00 hr 02 min 27 sec)
Heartbeat CPU 0 instructions: 41500232 cycles: 8817242 heartbeat IPC: 5 cumulative IPC: 4.707 (Simulation time: 00 hr 02 min 29 sec)
Heartbeat CPU 0 instructions: 42000235 cycles: 8917240 heartbeat IPC: 5 cumulative IPC: 4.71 (Simulation time: 00 hr 02 min 30 sec)
Heartbeat CPU 0 instructions: 42500235 cycles: 9017240 heartbeat IPC: 5 cumulative IPC: 4.713 (Simulation time: 00 hr 02 min 32 sec)
Heartbeat CPU 0 instructions: 43000239 cycles: 9117253 heartbeat IPC: 4.999 cumulative IPC: 4.716 (Simulation time: 00 hr 02 min 34 sec)
Heartbeat CPU 0 instructions: 43500243 cycles: 9217242 heartbeat IPC: 5.001 cumulative IPC: 4.719 (Simulation time: 00 hr 02 min 35 sec)
Heartbeat CPU 0 instructions: 44000248 cycles: 9317245 heartbeat IPC: 5 cumulative IPC: 4.722 (Simulation time: 00 hr 02 min 37 sec)
Heartbeat CPU 0 instructions: 44500248 cycles: 9417241 heartbeat IPC: 5 cumulative IPC: 4.725 (Simulation time: 00 hr 02 min 39 sec)
Heartbeat CPU 0 instructions: 45000249 cycles: 9517246 heartbeat IPC: 5 cumulative IPC: 4.728 (Simulation time: 00 hr 02 min 40 sec)
Heartbeat CPU 0 instructions: 45500252 cycles: 9617246 heartbeat IPC: 5 cumulative IPC: 4.731 (Simulation time: 00 hr 02 min 42 sec)
Heartbeat CPU 0 instructions: 46000256 cycles: 9717245 heartbeat IPC: 5 cumulative IPC: 4.734 (Simulation time: 00 hr 02 min 44 sec)
Heartbeat CPU 0 instructions: 46500258 cycles: 9817249 heartbeat IPC: 5 cumulative IPC: 4.737 (Simulation time: 00 hr 02 min 45 sec)
Heartbeat CPU 0 instructions: 47000262 cycles: 9917248 heartbeat IPC: 5 cumulative IPC: 4.739 (Simulation time: 00 hr 02 min 47 sec)
Heartbeat CPU 0 instructions: 47500262 cycles: 10017299 heartbeat IPC: 4.997 cumulative IPC: 4.742 (Simulation time: 00 hr 02 min 48 sec)
Heartbeat CPU 0 instructions: 48000268 cycles: 10117300 heartbeat IPC: 5 cumulative IPC: 4.744 (Simulation time: 00 hr 02 min 50 sec)
Heartbeat CPU 0 instructions: 48500270 cycles: 10217297 heartbeat IPC: 5 cumulative IPC: 4.747 (Simulation time: 00 hr 02 min 52 sec)
Heartbeat CPU 0 instructions: 49000277 cycles: 10317306 heartbeat IPC: 5 cumulative IPC: 4.749 (Simulation time: 00 hr 02 min 53 sec)
Heartbeat CPU 0 instructions: 49500284 cycles: 10417300 heartbeat IPC: 5 cumulative IPC: 4.752 (Simulation time: 00 hr 02 min 55 sec)
Warmup halting CPU 0 at instruction 50000005 cycle 10517249 for remainder of phase
Warmup finished CPU 0 instructions: 50000005 cycles: 10517249 cumulative IPC: 4.754 (Simulation time: 00 hr 02 min 57 sec)
Warmup complete CPU 0 instructions: 50000005 cycles: 10517249 cumulative IPC: 4.754 (Simulation time: 00 hr 02 min 57 sec)
Heartbeat CPU 0 instructions: 50000286 cycles: 10517450 heartbeat IPC: 4.993 cumulative IPC: 1.398 (Simulation time: 00 hr 02 min 57 sec)
Heartbeat CPU 0 instructions: 50500291 cycles: 10707614 heartbeat IPC: 2.629 cumulative IPC: 2.628 (Simulation time: 00 hr 03 min 00 sec)
Heartbeat CPU 0 instructions: 51000297 cycles: 10902700 heartbeat IPC: 2.563 cumulative IPC: 2.595 (Simulation time: 00 hr 03 min 04 sec)
Heartbeat CPU 0 instructions: 51500299 cycles: 11099977 heartbeat IPC: 2.535 cumulative IPC: 2.575 (Simulation time: 00 hr 03 min 08 sec)
Heartbeat CPU 0 instructions: 52000300 cycles: 11296774 heartbeat IPC: 2.541 cumulative IPC: 2.566 (Simulation time: 00 hr 03 min 12 sec)
Heartbeat CPU 0 instructions: 52500303 cycles: 11487221 heartbeat IPC: 2.625 cumulative IPC: 2.578 (Simulation time: 00 hr 03 min 15 sec)
Heartbeat CPU 0 instructions: 53000303 cycles: 11686774 heartbeat IPC: 2.506 cumulative IPC: 2.565 (Simulation time: 00 hr 03 min 19 sec)
Heartbeat CPU 0 instructions: 53500303 cycles: 11880999 heartbeat IPC: 2.574 cumulative IPC: 2.567 (Simulation time: 00 hr 03 min 23 sec)
Heartbeat CPU 0 instructions: 54000303 cycles: 12077362 heartbeat IPC: 2.546 cumulative IPC: 2.564 (Simulation time: 00 hr 03 min 27 sec)
Heartbeat CPU 0 instructions: 54500305 cycles: 12279645 heartbeat IPC: 2.472 cumulative IPC: 2.554 (Simulation time: 00 hr 03 min 30 sec)
Heartbeat CPU 0 instructions: 55000311 cycles: 12479859 heartbeat IPC: 2.497 cumulative IPC: 2.548 (Simulation time: 00 hr 03 min 34 sec)
Heartbeat CPU 0 instructions: 55500311 cycles: 12681888 heartbeat IPC: 2.475 cumulative IPC: 2.541 (Simulation time: 00 hr 03 min 38 sec)
Heartbeat CPU 0 instructions: 56000312 cycles: 12876887 heartbeat IPC: 2.564 cumulative IPC: 2.543 (Simulation time: 00 hr 03 min 42 sec)
Heartbeat CPU 0 instructions: 56500314 cycles: 13072708 heartbeat IPC: 2.553 cumulative IPC: 2.544 (Simulation time: 00 hr 03 min 45 sec)
Heartbeat CPU 0 instructions: 57000314 cycles: 13264513 heartbeat IPC: 2.607 cumulative IPC: 2.548 (Simulation time: 00 hr 03 min 49 sec)
Heartbeat CPU 0 instructions: 57500314 cycles: 13463127 heartbeat IPC: 2.517 cumulative IPC: 2.546 (Simulation time: 00 hr 03 min 53 sec)
Heartbeat CPU 0 instructions: 58000315 cycles: 13659067 heartbeat IPC: 2.552 cumulative IPC: 2.546 (Simulation time: 00 hr 03 min 57 sec)
Heartbeat CPU 0 instructions: 58500316 cycles: 13851680 heartbeat IPC: 2.596 cumulative IPC: 2.549 (Simulation time: 00 hr 04 min 00 sec)
Heartbeat CPU 0 instructions: 59000318 cycles: 14050271 heartbeat IPC: 2.518 cumulative IPC: 2.547 (Simulation time: 00 hr 04 min 04 sec)
Heartbeat CPU 0 instructions: 59500318 cycles: 14239437 heartbeat IPC: 2.643 cumulative IPC: 2.552 (Simulation time: 00 hr 04 min 08 sec)
Heartbeat CPU 0 instructions: 60000318 cycles: 14437138 heartbeat IPC: 2.529 cumulative IPC: 2.551 (Simulation time: 00 hr 04 min 12 sec)
Heartbeat CPU 0 instructions: 60500318 cycles: 14657377 heartbeat IPC: 2.27 cumulative IPC: 2.536 (Simulation time: 00 hr 04 min 15 sec)
Heartbeat CPU 0 instructions: 61000323 cycles: 14906721 heartbeat IPC: 2.005 cumulative IPC: 2.506 (Simulation time: 00 hr 04 min 20 sec)
Heartbeat CPU 0 instructions: 61500325 cycles: 15108509 heartbeat IPC: 2.478 cumulative IPC: 2.505 (Simulation time: 00 hr 04 min 23 sec)
Heartbeat CPU 0 instructions: 62000330 cycles: 15352364 heartbeat IPC: 2.05 cumulative IPC: 2.482 (Simulation time: 00 hr 04 min 27 sec)
Heartbeat CPU 0 instructions: 62500331 cycles: 15762655 heartbeat IPC: 1.219 cumulative IPC: 2.383 (Simulation time: 00 hr 04 min 32 sec)
Heartbeat CPU 0 instructions: 63000337 cycles: 16258748 heartbeat IPC: 1.008 cumulative IPC: 2.264 (Simulation time: 00 hr 04 min 37 sec)
Heartbeat CPU 0 instructions: 63500344 cycles: 16474085 heartbeat IPC: 2.322 cumulative IPC: 2.266 (Simulation time: 00 hr 04 min 41 sec)
Heartbeat CPU 0 instructions: 64000347 cycles: 16667797 heartbeat IPC: 2.581 cumulative IPC: 2.276 (Simulation time: 00 hr 04 min 45 sec)
Heartbeat CPU 0 instructions: 64500347 cycles: 16861169 heartbeat IPC: 2.586 cumulative IPC: 2.286 (Simulation time: 00 hr 04 min 49 sec)
Heartbeat CPU 0 instructions: 65000351 cycles: 17055181 heartbeat IPC: 2.577 cumulative IPC: 2.294 (Simulation time: 00 hr 04 min 52 sec)
Heartbeat CPU 0 instructions: 65500351 cycles: 17244833 heartbeat IPC: 2.636 cumulative IPC: 2.304 (Simulation time: 00 hr 04 min 56 sec)
Heartbeat CPU 0 instructions: 66000354 cycles: 17438410 heartbeat IPC: 2.583 cumulative IPC: 2.312 (Simulation time: 00 hr 05 min 00 sec)
Heartbeat CPU 0 instructions: 66500358 cycles: 17634773 heartbeat IPC: 2.546 cumulative IPC: 2.318 (Simulation time: 00 hr 05 min 04 sec)
Heartbeat CPU 0 instructions: 67000361 cycles: 17831357 heartbeat IPC: 2.543 cumulative IPC: 2.324 (Simulation time: 00 hr 05 min 07 sec)
Heartbeat CPU 0 instructions: 67500361 cycles: 18029540 heartbeat IPC: 2.523 cumulative IPC: 2.33 (Simulation time: 00 hr 05 min 11 sec)
Heartbeat CPU 0 instructions: 68000367 cycles: 18223097 heartbeat IPC: 2.583 cumulative IPC: 2.336 (Simulation time: 00 hr 05 min 15 sec)
Heartbeat CPU 0 instructions: 68500368 cycles: 18416761 heartbeat IPC: 2.582 cumulative IPC: 2.342 (Simulation time: 00 hr 05 min 19 sec)
Heartbeat CPU 0 instructions: 69000371 cycles: 18607870 heartbeat IPC: 2.616 cumulative IPC: 2.348 (Simulation time: 00 hr 05 min 22 sec)
Heartbeat CPU 0 instructions: 69500372 cycles: 18805574 heartbeat IPC: 2.529 cumulative IPC: 2.353 (Simulation time: 00 hr 05 min 26 sec)
Heartbeat CPU 0 instructions: 70000373 cycles: 18999044 heartbeat IPC: 2.584 cumulative IPC: 2.358 (Simulation time: 00 hr 05 min 30 sec)
Heartbeat CPU 0 instructions: 70500376 cycles: 19190763 heartbeat IPC: 2.608 cumulative IPC: 2.364 (Simulation time: 00 hr 05 min 34 sec)
Heartbeat CPU 0 instructions: 71000376 cycles: 19384413 heartbeat IPC: 2.582 cumulative IPC: 2.368 (Simulation time: 00 hr 05 min 37 sec)
Heartbeat CPU 0 instructions: 71500380 cycles: 19580870 heartbeat IPC: 2.545 cumulative IPC: 2.372 (Simulation time: 00 hr 05 min 41 sec)
Heartbeat CPU 0 instructions: 72000382 cycles: 19774255 heartbeat IPC: 2.586 cumulative IPC: 2.377 (Simulation time: 00 hr 05 min 45 sec)
Heartbeat CPU 0 instructions: 72500383 cycles: 19969544 heartbeat IPC: 2.56 cumulative IPC: 2.38 (Simulation time: 00 hr 05 min 49 sec)
Heartbeat CPU 0 instructions: 73000384 cycles: 20166428 heartbeat IPC: 2.54 cumulative IPC: 2.384 (Simulation time: 00 hr 05 min 52 sec)
Heartbeat CPU 0 instructions: 73500389 cycles: 20356281 heartbeat IPC: 2.634 cumulative IPC: 2.388 (Simulation time: 00 hr 05 min 56 sec)
Heartbeat CPU 0 instructions: 74000393 cycles: 20542959 heartbeat IPC: 2.678 cumulative IPC: 2.394 (Simulation time: 00 hr 06 min 00 sec)
Heartbeat CPU 0 instructions: 74500394 cycles: 20732581 heartbeat IPC: 2.637 cumulative IPC: 2.398 (Simulation time: 00 hr 06 min 03 sec)
Heartbeat CPU 0 instructions: 75000397 cycles: 20920531 heartbeat IPC: 2.66 cumulative IPC: 2.403 (Simulation time: 00 hr 06 min 07 sec)
Heartbeat CPU 0 instructions: 75500398 cycles: 21113804 heartbeat IPC: 2.587 cumulative IPC: 2.406 (Simulation time: 00 hr 06 min 11 sec)
Heartbeat CPU 0 instructions: 76000398 cycles: 21308680 heartbeat IPC: 2.566 cumulative IPC: 2.409 (Simulation time: 00 hr 06 min 14 sec)
Heartbeat CPU 0 instructions: 76500399 cycles: 21504596 heartbeat IPC: 2.552 cumulative IPC: 2.412 (Simulation time: 00 hr 06 min 18 sec)
Heartbeat CPU 0 instructions: 77000403 cycles: 21695259 heartbeat IPC: 2.622 cumulative IPC: 2.415 (Simulation time: 00 hr 06 min 22 sec)
Heartbeat CPU 0 instructions: 77500405 cycles: 21891210 heartbeat IPC: 2.552 cumulative IPC: 2.418 (Simulation time: 00 hr 06 min 26 sec)
Heartbeat CPU 0 instructions: 78000412 cycles: 22083533 heartbeat IPC: 2.6 cumulative IPC: 2.421 (Simulation time: 00 hr 06 min 29 sec)
Heartbeat CPU 0 instructions: 78500412 cycles: 22282848 heartbeat IPC: 2.509 cumulative IPC: 2.422 (Simulation time: 00 hr 06 min 33 sec)
Heartbeat CPU 0 instructions: 79000412 cycles: 22483435 heartbeat IPC: 2.493 cumulative IPC: 2.424 (Simulation time: 00 hr 06 min 37 sec)
Heartbeat CPU 0 instructions: 79500416 cycles: 22683478 heartbeat IPC: 2.499 cumulative IPC: 2.425 (Simulation time: 00 hr 06 min 41 sec)
Heartbeat CPU 0 instructions: 80000420 cycles: 22881389 heartbeat IPC: 2.526 cumulative IPC: 2.426 (Simulation time: 00 hr 06 min 45 sec)
Heartbeat CPU 0 instructions: 80500420 cycles: 23077233 heartbeat IPC: 2.553 cumulative IPC: 2.428 (Simulation time: 00 hr 06 min 48 sec)
Heartbeat CPU 0 instructions: 81000423 cycles: 23268156 heartbeat IPC: 2.619 cumulative IPC: 2.431 (Simulation time: 00 hr 06 min 52 sec)
Heartbeat CPU 0 instructions: 81500425 cycles: 23459531 heartbeat IPC: 2.613 cumulative IPC: 2.434 (Simulation time: 00 hr 06 min 56 sec)
Heartbeat CPU 0 instructions: 82000425 cycles: 23653249 heartbeat IPC: 2.581 cumulative IPC: 2.436 (Simulation time: 00 hr 06 min 59 sec)
Heartbeat CPU 0 instructions: 82500427 cycles: 23853232 heartbeat IPC: 2.5 cumulative IPC: 2.437 (Simulation time: 00 hr 07 min 03 sec)
Heartbeat CPU 0 instructions: 83000427 cycles: 24046194 heartbeat IPC: 2.591 cumulative IPC: 2.439 (Simulation time: 00 hr 07 min 06 sec)
Heartbeat CPU 0 instructions: 83500428 cycles: 24245325 heartbeat IPC: 2.511 cumulative IPC: 2.44 (Simulation time: 00 hr 07 min 10 sec)
Heartbeat CPU 0 instructions: 84000434 cycles: 24434900 heartbeat IPC: 2.638 cumulative IPC: 2.443 (Simulation time: 00 hr 07 min 13 sec)
Heartbeat CPU 0 instructions: 84500434 cycles: 24631760 heartbeat IPC: 2.54 cumulative IPC: 2.444 (Simulation time: 00 hr 07 min 17 sec)
Heartbeat CPU 0 instructions: 85000435 cycles: 24838209 heartbeat IPC: 2.422 cumulative IPC: 2.444 (Simulation time: 00 hr 07 min 21 sec)
Heartbeat CPU 0 instructions: 85500435 cycles: 25047454 heartbeat IPC: 2.39 cumulative IPC: 2.443 (Simulation time: 00 hr 07 min 24 sec)
Heartbeat CPU 0 instructions: 86000439 cycles: 25254896 heartbeat IPC: 2.41 cumulative IPC: 2.443 (Simulation time: 00 hr 07 min 28 sec)
Heartbeat CPU 0 instructions: 86500444 cycles: 25469208 heartbeat IPC: 2.333 cumulative IPC: 2.441 (Simulation time: 00 hr 07 min 31 sec)
Heartbeat CPU 0 instructions: 87000445 cycles: 25673616 heartbeat IPC: 2.446 cumulative IPC: 2.441 (Simulation time: 00 hr 07 min 35 sec)
Heartbeat CPU 0 instructions: 87500445 cycles: 25867657 heartbeat IPC: 2.577 cumulative IPC: 2.443 (Simulation time: 00 hr 07 min 39 sec)
Heartbeat CPU 0 instructions: 88000447 cycles: 26082254 heartbeat IPC: 2.33 cumulative IPC: 2.441 (Simulation time: 00 hr 07 min 42 sec)
Heartbeat CPU 0 instructions: 88500448 cycles: 26271992 heartbeat IPC: 2.635 cumulative IPC: 2.444 (Simulation time: 00 hr 07 min 46 sec)
Heartbeat CPU 0 instructions: 89000454 cycles: 26464929 heartbeat IPC: 2.592 cumulative IPC: 2.446 (Simulation time: 00 hr 07 min 49 sec)
Heartbeat CPU 0 instructions: 89500457 cycles: 26655578 heartbeat IPC: 2.623 cumulative IPC: 2.448 (Simulation time: 00 hr 07 min 53 sec)
Heartbeat CPU 0 instructions: 90000460 cycles: 26849677 heartbeat IPC: 2.576 cumulative IPC: 2.449 (Simulation time: 00 hr 07 min 56 sec)
Heartbeat CPU 0 instructions: 90500463 cycles: 27057153 heartbeat IPC: 2.41 cumulative IPC: 2.449 (Simulation time: 00 hr 08 min 00 sec)
Heartbeat CPU 0 instructions: 91000464 cycles: 27247884 heartbeat IPC: 2.621 cumulative IPC: 2.451 (Simulation time: 00 hr 08 min 03 sec)
Heartbeat CPU 0 instructions: 91500464 cycles: 27450445 heartbeat IPC: 2.468 cumulative IPC: 2.451 (Simulation time: 00 hr 08 min 07 sec)
Heartbeat CPU 0 instructions: 92000465 cycles: 27695401 heartbeat IPC: 2.041 cumulative IPC: 2.445 (Simulation time: 00 hr 08 min 10 sec)
Heartbeat CPU 0 instructions: 92500467 cycles: 28135717 heartbeat IPC: 1.136 cumulative IPC: 2.412 (Simulation time: 00 hr 08 min 16 sec)
Heartbeat CPU 0 instructions: 93000467 cycles: 29072060 heartbeat IPC: 0.534 cumulative IPC: 2.317 (Simulation time: 00 hr 08 min 29 sec)
Heartbeat CPU 0 instructions: 93500471 cycles: 29961595 heartbeat IPC: 0.5621 cumulative IPC: 2.237 (Simulation time: 00 hr 08 min 40 sec)
Heartbeat CPU 0 instructions: 94000471 cycles: 30826077 heartbeat IPC: 0.5784 cumulative IPC: 2.167 (Simulation time: 00 hr 08 min 51 sec)
Heartbeat CPU 0 instructions: 94500471 cycles: 31680459 heartbeat IPC: 0.5852 cumulative IPC: 2.103 (Simulation time: 00 hr 09 min 02 sec)
Heartbeat CPU 0 instructions: 95000472 cycles: 32426325 heartbeat IPC: 0.6704 cumulative IPC: 2.054 (Simulation time: 00 hr 09 min 11 sec)
Heartbeat CPU 0 instructions: 95500472 cycles: 34240549 heartbeat IPC: 0.2756 cumulative IPC: 1.918 (Simulation time: 00 hr 09 min 24 sec)
Heartbeat CPU 0 instructions: 96000473 cycles: 34956054 heartbeat IPC: 0.6988 cumulative IPC: 1.882 (Simulation time: 00 hr 09 min 31 sec)
Heartbeat CPU 0 instructions: 96500473 cycles: 35172301 heartbeat IPC: 2.312 cumulative IPC: 1.886 (Simulation time: 00 hr 09 min 34 sec)
Heartbeat CPU 0 instructions: 97000474 cycles: 35368245 heartbeat IPC: 2.552 cumulative IPC: 1.891 (Simulation time: 00 hr 09 min 38 sec)
Heartbeat CPU 0 instructions: 97500474 cycles: 35554793 heartbeat IPC: 2.68 cumulative IPC: 1.897 (Simulation time: 00 hr 09 min 42 sec)
Heartbeat CPU 0 instructions: 98000474 cycles: 35752689 heartbeat IPC: 2.527 cumulative IPC: 1.902 (Simulation time: 00 hr 09 min 46 sec)
Heartbeat CPU 0 instructions: 98500474 cycles: 35938437 heartbeat IPC: 2.692 cumulative IPC: 1.908 (Simulation time: 00 hr 09 min 49 sec)
Heartbeat CPU 0 instructions: 99000476 cycles: 36132060 heartbeat IPC: 2.582 cumulative IPC: 1.913 (Simulation time: 00 hr 09 min 53 sec)
Heartbeat CPU 0 instructions: 99500480 cycles: 36327666 heartbeat IPC: 2.556 cumulative IPC: 1.918 (Simulation time: 00 hr 09 min 57 sec)
Heartbeat CPU 0 instructions: 100000480 cycles: 36525272 heartbeat IPC: 2.53 cumulative IPC: 1.923 (Simulation time: 00 hr 10 min 01 sec)
Heartbeat CPU 0 instructions: 100500482 cycles: 36718617 heartbeat IPC: 2.586 cumulative IPC: 1.927 (Simulation time: 00 hr 10 min 04 sec)
Heartbeat CPU 0 instructions: 101000483 cycles: 36908876 heartbeat IPC: 2.628 cumulative IPC: 1.932 (Simulation time: 00 hr 10 min 08 sec)
Heartbeat CPU 0 instructions: 101500489 cycles: 37100499 heartbeat IPC: 2.609 cumulative IPC: 1.937 (Simulation time: 00 hr 10 min 12 sec)
Heartbeat CPU 0 instructions: 102000490 cycles: 37289305 heartbeat IPC: 2.648 cumulative IPC: 1.942 (Simulation time: 00 hr 10 min 15 sec)
Heartbeat CPU 0 instructions: 102500494 cycles: 37483878 heartbeat IPC: 2.57 cumulative IPC: 1.947 (Simulation time: 00 hr 10 min 19 sec)
Heartbeat CPU 0 instructions: 103000496 cycles: 37676844 heartbeat IPC: 2.591 cumulative IPC: 1.951 (Simulation time: 00 hr 10 min 23 sec)
Heartbeat CPU 0 instructions: 103500501 cycles: 37864813 heartbeat IPC: 2.66 cumulative IPC: 1.956 (Simulation time: 00 hr 10 min 26 sec)
Heartbeat CPU 0 instructions: 104000502 cycles: 38053165 heartbeat IPC: 2.655 cumulative IPC: 1.961 (Simulation time: 00 hr 10 min 30 sec)
Heartbeat CPU 0 instructions: 104500504 cycles: 38249157 heartbeat IPC: 2.551 cumulative IPC: 1.965 (Simulation time: 00 hr 10 min 34 sec)
Heartbeat CPU 0 instructions: 105000508 cycles: 38438009 heartbeat IPC: 2.648 cumulative IPC: 1.97 (Simulation time: 00 hr 10 min 38 sec)
Heartbeat CPU 0 instructions: 105500508 cycles: 38634960 heartbeat IPC: 2.539 cumulative IPC: 1.974 (Simulation time: 00 hr 10 min 41 sec)
Heartbeat CPU 0 instructions: 106000510 cycles: 38834488 heartbeat IPC: 2.506 cumulative IPC: 1.978 (Simulation time: 00 hr 10 min 45 sec)
Heartbeat CPU 0 instructions: 106500513 cycles: 39025220 heartbeat IPC: 2.621 cumulative IPC: 1.982 (Simulation time: 00 hr 10 min 49 sec)
Heartbeat CPU 0 instructions: 107000513 cycles: 39212967 heartbeat IPC: 2.663 cumulative IPC: 1.986 (Simulation time: 00 hr 10 min 52 sec)
Heartbeat CPU 0 instructions: 107500514 cycles: 39399905 heartbeat IPC: 2.675 cumulative IPC: 1.991 (Simulation time: 00 hr 10 min 56 sec)
Heartbeat CPU 0 instructions: 108000520 cycles: 39587669 heartbeat IPC: 2.663 cumulative IPC: 1.995 (Simulation time: 00 hr 11 min 00 sec)
Heartbeat CPU 0 instructions: 108500523 cycles: 39780979 heartbeat IPC: 2.587 cumulative IPC: 1.999 (Simulation time: 00 hr 11 min 04 sec)
Heartbeat CPU 0 instructions: 109000524 cycles: 39970001 heartbeat IPC: 2.645 cumulative IPC: 2.003 (Simulation time: 00 hr 11 min 07 sec)
Heartbeat CPU 0 instructions: 109500526 cycles: 40167014 heartbeat IPC: 2.538 cumulative IPC: 2.007 (Simulation time: 00 hr 11 min 11 sec)
Heartbeat CPU 0 instructions: 110000528 cycles: 40356188 heartbeat IPC: 2.643 cumulative IPC: 2.011 (Simulation time: 00 hr 11 min 15 sec)
Heartbeat CPU 0 instructions: 110500528 cycles: 40548027 heartbeat IPC: 2.606 cumulative IPC: 2.015 (Simulation time: 00 hr 11 min 18 sec)
Heartbeat CPU 0 instructions: 111000529 cycles: 40746106 heartbeat IPC: 2.524 cumulative IPC: 2.018 (Simulation time: 00 hr 11 min 22 sec)
Heartbeat CPU 0 instructions: 111500529 cycles: 40934239 heartbeat IPC: 2.658 cumulative IPC: 2.022 (Simulation time: 00 hr 11 min 26 sec)
Heartbeat CPU 0 instructions: 112000531 cycles: 41135791 heartbeat IPC: 2.481 cumulative IPC: 2.025 (Simulation time: 00 hr 11 min 30 sec)
Heartbeat CPU 0 instructions: 112500531 cycles: 41336211 heartbeat IPC: 2.495 cumulative IPC: 2.028 (Simulation time: 00 hr 11 min 33 sec)
Heartbeat CPU 0 instructions: 113000538 cycles: 41532894 heartbeat IPC: 2.542 cumulative IPC: 2.031 (Simulation time: 00 hr 11 min 37 sec)
Heartbeat CPU 0 instructions: 113500538 cycles: 41729813 heartbeat IPC: 2.539 cumulative IPC: 2.034 (Simulation time: 00 hr 11 min 41 sec)
Heartbeat CPU 0 instructions: 114000538 cycles: 41921730 heartbeat IPC: 2.605 cumulative IPC: 2.038 (Simulation time: 00 hr 11 min 45 sec)
Heartbeat CPU 0 instructions: 114500545 cycles: 42111252 heartbeat IPC: 2.638 cumulative IPC: 2.042 (Simulation time: 00 hr 11 min 48 sec)
Heartbeat CPU 0 instructions: 115000545 cycles: 42302506 heartbeat IPC: 2.614 cumulative IPC: 2.045 (Simulation time: 00 hr 11 min 52 sec)
Heartbeat CPU 0 instructions: 115500546 cycles: 42502704 heartbeat IPC: 2.498 cumulative IPC: 2.048 (Simulation time: 00 hr 11 min 56 sec)
Heartbeat CPU 0 instructions: 116000548 cycles: 42693455 heartbeat IPC: 2.621 cumulative IPC: 2.051 (Simulation time: 00 hr 11 min 59 sec)
Heartbeat CPU 0 instructions: 116500549 cycles: 42883703 heartbeat IPC: 2.628 cumulative IPC: 2.055 (Simulation time: 00 hr 12 min 03 sec)
Heartbeat CPU 0 instructions: 117000555 cycles: 43072822 heartbeat IPC: 2.644 cumulative IPC: 2.058 (Simulation time: 00 hr 12 min 07 sec)
Heartbeat CPU 0 instructions: 117500555 cycles: 43267512 heartbeat IPC: 2.568 cumulative IPC: 2.061 (Simulation time: 00 hr 12 min 11 sec)
Heartbeat CPU 0 instructions: 118000557 cycles: 43462096 heartbeat IPC: 2.57 cumulative IPC: 2.064 (Simulation time: 00 hr 12 min 14 sec)
Heartbeat CPU 0 instructions: 118500560 cycles: 43680579 heartbeat IPC: 2.289 cumulative IPC: 2.066 (Simulation time: 00 hr 12 min 18 sec)
Heartbeat CPU 0 instructions: 119000560 cycles: 43874989 heartbeat IPC: 2.572 cumulative IPC: 2.069 (Simulation time: 00 hr 12 min 22 sec)
Heartbeat CPU 0 instructions: 119500563 cycles: 44086209 heartbeat IPC: 2.367 cumulative IPC: 2.07 (Simulation time: 00 hr 12 min 26 sec)
Heartbeat CPU 0 instructions: 120000569 cycles: 44302733 heartbeat IPC: 2.309 cumulative IPC: 2.072 (Simulation time: 00 hr 12 min 30 sec)
Heartbeat CPU 0 instructions: 120500570 cycles: 44498886 heartbeat IPC: 2.549 cumulative IPC: 2.075 (Simulation time: 00 hr 12 min 33 sec)
Heartbeat CPU 0 instructions: 121000571 cycles: 44709858 heartbeat IPC: 2.37 cumulative IPC: 2.076 (Simulation time: 00 hr 12 min 37 sec)
Heartbeat CPU 0 instructions: 121500576 cycles: 44899087 heartbeat IPC: 2.642 cumulative IPC: 2.08 (Simulation time: 00 hr 12 min 41 sec)
Heartbeat CPU 0 instructions: 122000577 cycles: 45089500 heartbeat IPC: 2.626 cumulative IPC: 2.083 (Simulation time: 00 hr 12 min 44 sec)
Heartbeat CPU 0 instructions: 122500578 cycles: 45282393 heartbeat IPC: 2.592 cumulative IPC: 2.085 (Simulation time: 00 hr 12 min 48 sec)
Heartbeat CPU 0 instructions: 123000584 cycles: 45467957 heartbeat IPC: 2.695 cumulative IPC: 2.089 (Simulation time: 00 hr 12 min 52 sec)
Heartbeat CPU 0 instructions: 123500586 cycles: 45684995 heartbeat IPC: 2.304 cumulative IPC: 2.09 (Simulation time: 00 hr 12 min 55 sec)
Heartbeat CPU 0 instructions: 124000590 cycles: 45871166 heartbeat IPC: 2.686 cumulative IPC: 2.093 (Simulation time: 00 hr 12 min 59 sec)
Heartbeat CPU 0 instructions: 124500592 cycles: 46072999 heartbeat IPC: 2.477 cumulative IPC: 2.095 (Simulation time: 00 hr 13 min 03 sec)
Heartbeat CPU 0 instructions: 125000596 cycles: 46286085 heartbeat IPC: 2.346 cumulative IPC: 2.097 (Simulation time: 00 hr 13 min 07 sec)
Heartbeat CPU 0 instructions: 125500603 cycles: 46806878 heartbeat IPC: 0.9601 cumulative IPC: 2.081 (Simulation time: 00 hr 13 min 13 sec)
Heartbeat CPU 0 instructions: 126000603 cycles: 47583153 heartbeat IPC: 0.6441 cumulative IPC: 2.05 (Simulation time: 00 hr 13 min 23 sec)
Heartbeat CPU 0 instructions: 126500603 cycles: 48352226 heartbeat IPC: 0.6501 cumulative IPC: 2.022 (Simulation time: 00 hr 13 min 33 sec)
Heartbeat CPU 0 instructions: 127000604 cycles: 48879655 heartbeat IPC: 0.948 cumulative IPC: 2.007 (Simulation time: 00 hr 13 min 40 sec)
Heartbeat CPU 0 instructions: 127500607 cycles: 49139421 heartbeat IPC: 1.925 cumulative IPC: 2.007 (Simulation time: 00 hr 13 min 44 sec)
Heartbeat CPU 0 instructions: 128000610 cycles: 49343916 heartbeat IPC: 2.445 cumulative IPC: 2.009 (Simulation time: 00 hr 13 min 48 sec)
Heartbeat CPU 0 instructions: 128500612 cycles: 49541579 heartbeat IPC: 2.53 cumulative IPC: 2.012 (Simulation time: 00 hr 13 min 52 sec)
Heartbeat CPU 0 instructions: 129000615 cycles: 49748040 heartbeat IPC: 2.422 cumulative IPC: 2.014 (Simulation time: 00 hr 13 min 56 sec)
Heartbeat CPU 0 instructions: 129500616 cycles: 49947025 heartbeat IPC: 2.513 cumulative IPC: 2.016 (Simulation time: 00 hr 14 min 00 sec)
Heartbeat CPU 0 instructions: 130000620 cycles: 50149101 heartbeat IPC: 2.474 cumulative IPC: 2.019 (Simulation time: 00 hr 14 min 04 sec)
Heartbeat CPU 0 instructions: 130500627 cycles: 50353770 heartbeat IPC: 2.443 cumulative IPC: 2.021 (Simulation time: 00 hr 14 min 08 sec)
Heartbeat CPU 0 instructions: 131000628 cycles: 50559781 heartbeat IPC: 2.427 cumulative IPC: 2.023 (Simulation time: 00 hr 14 min 12 sec)
Heartbeat CPU 0 instructions: 131500633 cycles: 50762374 heartbeat IPC: 2.468 cumulative IPC: 2.025 (Simulation time: 00 hr 14 min 16 sec)
Heartbeat CPU 0 instructions: 132000635 cycles: 50961617 heartbeat IPC: 2.51 cumulative IPC: 2.027 (Simulation time: 00 hr 14 min 20 sec)
Heartbeat CPU 0 instructions: 132500635 cycles: 51163337 heartbeat IPC: 2.479 cumulative IPC: 2.03 (Simulation time: 00 hr 14 min 24 sec)
Heartbeat CPU 0 instructions: 133000640 cycles: 51362539 heartbeat IPC: 2.51 cumulative IPC: 2.032 (Simulation time: 00 hr 14 min 28 sec)
Heartbeat CPU 0 instructions: 133500641 cycles: 51569767 heartbeat IPC: 2.413 cumulative IPC: 2.034 (Simulation time: 00 hr 14 min 32 sec)
Heartbeat CPU 0 instructions: 134000641 cycles: 51769364 heartbeat IPC: 2.505 cumulative IPC: 2.036 (Simulation time: 00 hr 14 min 36 sec)
Heartbeat CPU 0 instructions: 134500641 cycles: 51970394 heartbeat IPC: 2.487 cumulative IPC: 2.038 (Simulation time: 00 hr 14 min 40 sec)
Heartbeat CPU 0 instructions: 135000647 cycles: 52174433 heartbeat IPC: 2.451 cumulative IPC: 2.04 (Simulation time: 00 hr 14 min 44 sec)
Heartbeat CPU 0 instructions: 135500647 cycles: 52378521 heartbeat IPC: 2.45 cumulative IPC: 2.042 (Simulation time: 00 hr 14 min 48 sec)
Heartbeat CPU 0 instructions: 136000647 cycles: 52580799 heartbeat IPC: 2.472 cumulative IPC: 2.045 (Simulation time: 00 hr 14 min 52 sec)
Heartbeat CPU 0 instructions: 136500649 cycles: 52787432 heartbeat IPC: 2.42 cumulative IPC: 2.046 (Simulation time: 00 hr 14 min 56 sec)
Heartbeat CPU 0 instructions: 137000652 cycles: 52997936 heartbeat IPC: 2.375 cumulative IPC: 2.048 (Simulation time: 00 hr 15 min 00 sec)
Heartbeat CPU 0 instructions: 137500652 cycles: 53196087 heartbeat IPC: 2.523 cumulative IPC: 2.05 (Simulation time: 00 hr 15 min 04 sec)
Heartbeat CPU 0 instructions: 138000656 cycles: 53390686 heartbeat IPC: 2.569 cumulative IPC: 2.053 (Simulation time: 00 hr 15 min 07 sec)
Heartbeat CPU 0 instructions: 138500657 cycles: 53587604 heartbeat IPC: 2.539 cumulative IPC: 2.055 (Simulation time: 00 hr 15 min 11 sec)
Heartbeat CPU 0 instructions: 139000659 cycles: 53782372 heartbeat IPC: 2.567 cumulative IPC: 2.057 (Simulation time: 00 hr 15 min 15 sec)
Heartbeat CPU 0 instructions: 139500661 cycles: 53987394 heartbeat IPC: 2.439 cumulative IPC: 2.059 (Simulation time: 00 hr 15 min 19 sec)
Heartbeat CPU 0 instructions: 140000667 cycles: 54185171 heartbeat IPC: 2.528 cumulative IPC: 2.061 (Simulation time: 00 hr 15 min 23 sec)
Heartbeat CPU 0 instructions: 140500667 cycles: 54389201 heartbeat IPC: 2.451 cumulative IPC: 2.063 (Simulation time: 00 hr 15 min 27 sec)
Heartbeat CPU 0 instructions: 141000667 cycles: 54583296 heartbeat IPC: 2.576 cumulative IPC: 2.065 (Simulation time: 00 hr 15 min 31 sec)
Heartbeat CPU 0 instructions: 141500668 cycles: 54788463 heartbeat IPC: 2.437 cumulative IPC: 2.067 (Simulation time: 00 hr 15 min 35 sec)
Heartbeat CPU 0 instructions: 142000673 cycles: 54992336 heartbeat IPC: 2.453 cumulative IPC: 2.069 (Simulation time: 00 hr 15 min 39 sec)
Heartbeat CPU 0 instructions: 142500676 cycles: 55196840 heartbeat IPC: 2.445 cumulative IPC: 2.07 (Simulation time: 00 hr 15 min 43 sec)
Heartbeat CPU 0 instructions: 143000676 cycles: 55412935 heartbeat IPC: 2.314 cumulative IPC: 2.071 (Simulation time: 00 hr 15 min 47 sec)
Heartbeat CPU 0 instructions: 143500677 cycles: 55625212 heartbeat IPC: 2.355 cumulative IPC: 2.073 (Simulation time: 00 hr 15 min 51 sec)
Heartbeat CPU 0 instructions: 144000684 cycles: 55834226 heartbeat IPC: 2.392 cumulative IPC: 2.074 (Simulation time: 00 hr 15 min 55 sec)
Heartbeat CPU 0 instructions: 144500686 cycles: 56043773 heartbeat IPC: 2.386 cumulative IPC: 2.076 (Simulation time: 00 hr 15 min 59 sec)
Heartbeat CPU 0 instructions: 145000689 cycles: 56248033 heartbeat IPC: 2.448 cumulative IPC: 2.077 (Simulation time: 00 hr 16 min 03 sec)
Heartbeat CPU 0 instructions: 145500693 cycles: 56449119 heartbeat IPC: 2.487 cumulative IPC: 2.079 (Simulation time: 00 hr 16 min 07 sec)
Heartbeat CPU 0 instructions: 146000695 cycles: 56654946 heartbeat IPC: 2.429 cumulative IPC: 2.081 (Simulation time: 00 hr 16 min 11 sec)
Heartbeat CPU 0 instructions: 146500696 cycles: 56865733 heartbeat IPC: 2.372 cumulative IPC: 2.082 (Simulation time: 00 hr 16 min 15 sec)
Heartbeat CPU 0 instructions: 147000696 cycles: 57071088 heartbeat IPC: 2.435 cumulative IPC: 2.084 (Simulation time: 00 hr 16 min 19 sec)
Heartbeat CPU 0 instructions: 147500696 cycles: 57278910 heartbeat IPC: 2.406 cumulative IPC: 2.085 (Simulation time: 00 hr 16 min 23 sec)
Heartbeat CPU 0 instructions: 148000697 cycles: 57476946 heartbeat IPC: 2.525 cumulative IPC: 2.087 (Simulation time: 00 hr 16 min 27 sec)
Heartbeat CPU 0 instructions: 148500699 cycles: 57686277 heartbeat IPC: 2.389 cumulative IPC: 2.088 (Simulation time: 00 hr 16 min 31 sec)
Heartbeat CPU 0 instructions: 149000704 cycles: 57899370 heartbeat IPC: 2.346 cumulative IPC: 2.089 (Simulation time: 00 hr 16 min 35 sec)
Heartbeat CPU 0 instructions: 149500704 cycles: 58113966 heartbeat IPC: 2.33 cumulative IPC: 2.09 (Simulation time: 00 hr 16 min 39 sec)
Heartbeat CPU 0 instructions: 150000706 cycles: 58325909 heartbeat IPC: 2.359 cumulative IPC: 2.092 (Simulation time: 00 hr 16 min 43 sec)
Heartbeat CPU 0 instructions: 150500707 cycles: 58556025 heartbeat IPC: 2.173 cumulative IPC: 2.092 (Simulation time: 00 hr 16 min 47 sec)
Heartbeat CPU 0 instructions: 151000707 cycles: 58769202 heartbeat IPC: 2.345 cumulative IPC: 2.093 (Simulation time: 00 hr 16 min 51 sec)
Heartbeat CPU 0 instructions: 151500707 cycles: 58975978 heartbeat IPC: 2.418 cumulative IPC: 2.095 (Simulation time: 00 hr 16 min 55 sec)
Heartbeat CPU 0 instructions: 152000707 cycles: 59197609 heartbeat IPC: 2.256 cumulative IPC: 2.095 (Simulation time: 00 hr 16 min 59 sec)
Heartbeat CPU 0 instructions: 152500712 cycles: 59398220 heartbeat IPC: 2.492 cumulative IPC: 2.097 (Simulation time: 00 hr 17 min 03 sec)
Heartbeat CPU 0 instructions: 153000712 cycles: 59599402 heartbeat IPC: 2.485 cumulative IPC: 2.099 (Simulation time: 00 hr 17 min 07 sec)
Heartbeat CPU 0 instructions: 153500714 cycles: 59799939 heartbeat IPC: 2.493 cumulative IPC: 2.1 (Simulation time: 00 hr 17 min 11 sec)
Heartbeat CPU 0 instructions: 154000716 cycles: 59994347 heartbeat IPC: 2.572 cumulative IPC: 2.102 (Simulation time: 00 hr 17 min 15 sec)
Heartbeat CPU 0 instructions: 154500721 cycles: 60221745 heartbeat IPC: 2.199 cumulative IPC: 2.102 (Simulation time: 00 hr 17 min 19 sec)
Heartbeat CPU 0 instructions: 155000725 cycles: 60419226 heartbeat IPC: 2.532 cumulative IPC: 2.104 (Simulation time: 00 hr 17 min 23 sec)
Heartbeat CPU 0 instructions: 155500728 cycles: 60647562 heartbeat IPC: 2.19 cumulative IPC: 2.105 (Simulation time: 00 hr 17 min 27 sec)
Heartbeat CPU 0 instructions: 156000728 cycles: 60892127 heartbeat IPC: 2.044 cumulative IPC: 2.104 (Simulation time: 00 hr 17 min 31 sec)
Heartbeat CPU 0 instructions: 156500728 cycles: 61181138 heartbeat IPC: 1.73 cumulative IPC: 2.102 (Simulation time: 00 hr 17 min 35 sec)
Heartbeat CPU 0 instructions: 157000735 cycles: 61410123 heartbeat IPC: 2.184 cumulative IPC: 2.102 (Simulation time: 00 hr 17 min 39 sec)
Heartbeat CPU 0 instructions: 157500737 cycles: 61608523 heartbeat IPC: 2.52 cumulative IPC: 2.104 (Simulation time: 00 hr 17 min 43 sec)
Heartbeat CPU 0 instructions: 158000737 cycles: 61798134 heartbeat IPC: 2.637 cumulative IPC: 2.106 (Simulation time: 00 hr 17 min 47 sec)
Heartbeat CPU 0 instructions: 158500739 cycles: 61995799 heartbeat IPC: 2.53 cumulative IPC: 2.108 (Simulation time: 00 hr 17 min 50 sec)
Heartbeat CPU 0 instructions: 159000745 cycles: 62183179 heartbeat IPC: 2.668 cumulative IPC: 2.11 (Simulation time: 00 hr 17 min 54 sec)
Heartbeat CPU 0 instructions: 159500751 cycles: 62373870 heartbeat IPC: 2.622 cumulative IPC: 2.112 (Simulation time: 00 hr 17 min 58 sec)
Heartbeat CPU 0 instructions: 160000752 cycles: 62569599 heartbeat IPC: 2.555 cumulative IPC: 2.113 (Simulation time: 00 hr 18 min 02 sec)
Heartbeat CPU 0 instructions: 160500752 cycles: 62762927 heartbeat IPC: 2.586 cumulative IPC: 2.115 (Simulation time: 00 hr 18 min 05 sec)
Heartbeat CPU 0 instructions: 161000753 cycles: 62958452 heartbeat IPC: 2.557 cumulative IPC: 2.117 (Simulation time: 00 hr 18 min 09 sec)
Heartbeat CPU 0 instructions: 161500757 cycles: 63145297 heartbeat IPC: 2.676 cumulative IPC: 2.119 (Simulation time: 00 hr 18 min 13 sec)
Heartbeat CPU 0 instructions: 162000757 cycles: 63338111 heartbeat IPC: 2.593 cumulative IPC: 2.12 (Simulation time: 00 hr 18 min 17 sec)
Heartbeat CPU 0 instructions: 162500757 cycles: 63528166 heartbeat IPC: 2.631 cumulative IPC: 2.122 (Simulation time: 00 hr 18 min 20 sec)
Heartbeat CPU 0 instructions: 163000761 cycles: 63721475 heartbeat IPC: 2.587 cumulative IPC: 2.124 (Simulation time: 00 hr 18 min 24 sec)
Heartbeat CPU 0 instructions: 163500765 cycles: 63912721 heartbeat IPC: 2.614 cumulative IPC: 2.126 (Simulation time: 00 hr 18 min 28 sec)
Heartbeat CPU 0 instructions: 164000766 cycles: 64103585 heartbeat IPC: 2.62 cumulative IPC: 2.127 (Simulation time: 00 hr 18 min 31 sec)
Heartbeat CPU 0 instructions: 164500770 cycles: 64293047 heartbeat IPC: 2.639 cumulative IPC: 2.129 (Simulation time: 00 hr 18 min 35 sec)
Heartbeat CPU 0 instructions: 165000770 cycles: 64484944 heartbeat IPC: 2.606 cumulative IPC: 2.131 (Simulation time: 00 hr 18 min 39 sec)
Heartbeat CPU 0 instructions: 165500770 cycles: 64676391 heartbeat IPC: 2.612 cumulative IPC: 2.133 (Simulation time: 00 hr 18 min 43 sec)
Heartbeat CPU 0 instructions: 166000774 cycles: 64875531 heartbeat IPC: 2.511 cumulative IPC: 2.134 (Simulation time: 00 hr 18 min 46 sec)
Heartbeat CPU 0 instructions: 166500774 cycles: 65072241 heartbeat IPC: 2.542 cumulative IPC: 2.135 (Simulation time: 00 hr 18 min 50 sec)
Heartbeat CPU 0 instructions: 167000777 cycles: 65263033 heartbeat IPC: 2.621 cumulative IPC: 2.137 (Simulation time: 00 hr 18 min 54 sec)
Heartbeat CPU 0 instructions: 167500779 cycles: 65447776 heartbeat IPC: 2.706 cumulative IPC: 2.139 (Simulation time: 00 hr 18 min 58 sec)
Heartbeat CPU 0 instructions: 168000781 cycles: 65634834 heartbeat IPC: 2.673 cumulative IPC: 2.141 (Simulation time: 00 hr 19 min 01 sec)
Heartbeat CPU 0 instructions: 168500781 cycles: 65822547 heartbeat IPC: 2.664 cumulative IPC: 2.143 (Simulation time: 00 hr 19 min 05 sec)
Heartbeat CPU 0 instructions: 169000783 cycles: 66016374 heartbeat IPC: 2.58 cumulative IPC: 2.144 (Simulation time: 00 hr 19 min 09 sec)
Heartbeat CPU 0 instructions: 169500787 cycles: 66204938 heartbeat IPC: 2.652 cumulative IPC: 2.146 (Simulation time: 00 hr 19 min 12 sec)
Heartbeat CPU 0 instructions: 170000787 cycles: 66403324 heartbeat IPC: 2.52 cumulative IPC: 2.147 (Simulation time: 00 hr 19 min 16 sec)
Heartbeat CPU 0 instructions: 170500788 cycles: 66589928 heartbeat IPC: 2.679 cumulative IPC: 2.149 (Simulation time: 00 hr 19 min 20 sec)
Heartbeat CPU 0 instructions: 171000790 cycles: 66783561 heartbeat IPC: 2.582 cumulative IPC: 2.151 (Simulation time: 00 hr 19 min 24 sec)
Heartbeat CPU 0 instructions: 171500791 cycles: 66978145 heartbeat IPC: 2.57 cumulative IPC: 2.152 (Simulation time: 00 hr 19 min 27 sec)
Heartbeat CPU 0 instructions: 172000792 cycles: 67165770 heartbeat IPC: 2.665 cumulative IPC: 2.154 (Simulation time: 00 hr 19 min 31 sec)
Heartbeat CPU 0 instructions: 172500792 cycles: 67364846 heartbeat IPC: 2.512 cumulative IPC: 2.155 (Simulation time: 00 hr 19 min 35 sec)
Heartbeat CPU 0 instructions: 173000798 cycles: 67563893 heartbeat IPC: 2.512 cumulative IPC: 2.156 (Simulation time: 00 hr 19 min 39 sec)
Heartbeat CPU 0 instructions: 173500803 cycles: 67757966 heartbeat IPC: 2.576 cumulative IPC: 2.158 (Simulation time: 00 hr 19 min 42 sec)
Heartbeat CPU 0 instructions: 174000804 cycles: 67958156 heartbeat IPC: 2.498 cumulative IPC: 2.159 (Simulation time: 00 hr 19 min 46 sec)
Heartbeat CPU 0 instructions: 174500805 cycles: 68148629 heartbeat IPC: 2.625 cumulative IPC: 2.16 (Simulation time: 00 hr 19 min 50 sec)
Heartbeat CPU 0 instructions: 175000806 cycles: 68336949 heartbeat IPC: 2.655 cumulative IPC: 2.162 (Simulation time: 00 hr 19 min 54 sec)
Heartbeat CPU 0 instructions: 175500809 cycles: 68528847 heartbeat IPC: 2.606 cumulative IPC: 2.163 (Simulation time: 00 hr 19 min 57 sec)
Heartbeat CPU 0 instructions: 176000810 cycles: 68726214 heartbeat IPC: 2.533 cumulative IPC: 2.165 (Simulation time: 00 hr 20 min 01 sec)
Heartbeat CPU 0 instructions: 176500813 cycles: 68916619 heartbeat IPC: 2.626 cumulative IPC: 2.166 (Simulation time: 00 hr 20 min 05 sec)
Heartbeat CPU 0 instructions: 177000817 cycles: 69108053 heartbeat IPC: 2.612 cumulative IPC: 2.168 (Simulation time: 00 hr 20 min 08 sec)
Heartbeat CPU 0 instructions: 177500818 cycles: 69295805 heartbeat IPC: 2.663 cumulative IPC: 2.169 (Simulation time: 00 hr 20 min 12 sec)
Heartbeat CPU 0 instructions: 178000824 cycles: 69490344 heartbeat IPC: 2.57 cumulative IPC: 2.17 (Simulation time: 00 hr 20 min 16 sec)
Heartbeat CPU 0 instructions: 178500826 cycles: 69690404 heartbeat IPC: 2.499 cumulative IPC: 2.172 (Simulation time: 00 hr 20 min 20 sec)
Heartbeat CPU 0 instructions: 179000826 cycles: 69940266 heartbeat IPC: 2.001 cumulative IPC: 2.171 (Simulation time: 00 hr 20 min 24 sec)
Heartbeat CPU 0 instructions: 179500827 cycles: 70159412 heartbeat IPC: 2.282 cumulative IPC: 2.171 (Simulation time: 00 hr 20 min 28 sec)
Heartbeat CPU 0 instructions: 180000827 cycles: 70399898 heartbeat IPC: 2.079 cumulative IPC: 2.171 (Simulation time: 00 hr 20 min 31 sec)
Heartbeat CPU 0 instructions: 180500828 cycles: 70686460 heartbeat IPC: 1.745 cumulative IPC: 2.169 (Simulation time: 00 hr 20 min 36 sec)
Heartbeat CPU 0 instructions: 181000831 cycles: 71036294 heartbeat IPC: 1.429 cumulative IPC: 2.165 (Simulation time: 00 hr 20 min 40 sec)
Heartbeat CPU 0 instructions: 181500832 cycles: 71365912 heartbeat IPC: 1.517 cumulative IPC: 2.161 (Simulation time: 00 hr 20 min 44 sec)
Heartbeat CPU 0 instructions: 182000834 cycles: 71695317 heartbeat IPC: 1.518 cumulative IPC: 2.158 (Simulation time: 00 hr 20 min 48 sec)
Heartbeat CPU 0 instructions: 182500837 cycles: 72024311 heartbeat IPC: 1.52 cumulative IPC: 2.154 (Simulation time: 00 hr 20 min 52 sec)
Heartbeat CPU 0 instructions: 183000838 cycles: 72356634 heartbeat IPC: 1.505 cumulative IPC: 2.151 (Simulation time: 00 hr 20 min 56 sec)
Heartbeat CPU 0 instructions: 183500841 cycles: 72688673 heartbeat IPC: 1.506 cumulative IPC: 2.147 (Simulation time: 00 hr 21 min 00 sec)
Heartbeat CPU 0 instructions: 184000841 cycles: 73018806 heartbeat IPC: 1.515 cumulative IPC: 2.144 (Simulation time: 00 hr 21 min 04 sec)
Heartbeat CPU 0 instructions: 184500844 cycles: 73344975 heartbeat IPC: 1.533 cumulative IPC: 2.141 (Simulation time: 00 hr 21 min 08 sec)
Heartbeat CPU 0 instructions: 185000851 cycles: 73680550 heartbeat IPC: 1.49 cumulative IPC: 2.137 (Simulation time: 00 hr 21 min 12 sec)
Heartbeat CPU 0 instructions: 185500856 cycles: 74011663 heartbeat IPC: 1.51 cumulative IPC: 2.134 (Simulation time: 00 hr 21 min 16 sec)
Heartbeat CPU 0 instructions: 186000856 cycles: 74343843 heartbeat IPC: 1.505 cumulative IPC: 2.131 (Simulation time: 00 hr 21 min 20 sec)
Heartbeat CPU 0 instructions: 186500857 cycles: 74670972 heartbeat IPC: 1.528 cumulative IPC: 2.128 (Simulation time: 00 hr 21 min 24 sec)
Heartbeat CPU 0 instructions: 187000861 cycles: 74996623 heartbeat IPC: 1.535 cumulative IPC: 2.125 (Simulation time: 00 hr 21 min 28 sec)
Heartbeat CPU 0 instructions: 187500861 cycles: 75323305 heartbeat IPC: 1.531 cumulative IPC: 2.122 (Simulation time: 00 hr 21 min 32 sec)
Heartbeat CPU 0 instructions: 188000863 cycles: 75644048 heartbeat IPC: 1.559 cumulative IPC: 2.119 (Simulation time: 00 hr 21 min 36 sec)
Heartbeat CPU 0 instructions: 188500863 cycles: 75966402 heartbeat IPC: 1.551 cumulative IPC: 2.116 (Simulation time: 00 hr 21 min 40 sec)
Heartbeat CPU 0 instructions: 189000863 cycles: 76285364 heartbeat IPC: 1.568 cumulative IPC: 2.113 (Simulation time: 00 hr 21 min 44 sec)
Heartbeat CPU 0 instructions: 189500863 cycles: 76614606 heartbeat IPC: 1.519 cumulative IPC: 2.111 (Simulation time: 00 hr 21 min 48 sec)
Heartbeat CPU 0 instructions: 190000866 cycles: 76943937 heartbeat IPC: 1.518 cumulative IPC: 2.108 (Simulation time: 00 hr 21 min 52 sec)
Heartbeat CPU 0 instructions: 190500867 cycles: 77270873 heartbeat IPC: 1.529 cumulative IPC: 2.105 (Simulation time: 00 hr 21 min 56 sec)
Heartbeat CPU 0 instructions: 191000868 cycles: 77603478 heartbeat IPC: 1.503 cumulative IPC: 2.102 (Simulation time: 00 hr 22 min 00 sec)
Heartbeat CPU 0 instructions: 191500868 cycles: 77929226 heartbeat IPC: 1.535 cumulative IPC: 2.099 (Simulation time: 00 hr 22 min 04 sec)
Heartbeat CPU 0 instructions: 192000874 cycles: 78256789 heartbeat IPC: 1.526 cumulative IPC: 2.096 (Simulation time: 00 hr 22 min 08 sec)
Heartbeat CPU 0 instructions: 192500875 cycles: 78588113 heartbeat IPC: 1.509 cumulative IPC: 2.093 (Simulation time: 00 hr 22 min 12 sec)
Heartbeat CPU 0 instructions: 193000878 cycles: 78916079 heartbeat IPC: 1.525 cumulative IPC: 2.091 (Simulation time: 00 hr 22 min 16 sec)
Heartbeat CPU 0 instructions: 193500879 cycles: 79252560 heartbeat IPC: 1.486 cumulative IPC: 2.088 (Simulation time: 00 hr 22 min 20 sec)
Heartbeat CPU 0 instructions: 194000880 cycles: 79526092 heartbeat IPC: 1.828 cumulative IPC: 2.087 (Simulation time: 00 hr 22 min 24 sec)
Heartbeat CPU 0 instructions: 194500880 cycles: 79723786 heartbeat IPC: 2.529 cumulative IPC: 2.088 (Simulation time: 00 hr 22 min 28 sec)
Heartbeat CPU 0 instructions: 195000880 cycles: 79910060 heartbeat IPC: 2.684 cumulative IPC: 2.09 (Simulation time: 00 hr 22 min 31 sec)
Heartbeat CPU 0 instructions: 195500881 cycles: 80104871 heartbeat IPC: 2.567 cumulative IPC: 2.091 (Simulation time: 00 hr 22 min 35 sec)
Heartbeat CPU 0 instructions: 196000882 cycles: 80291408 heartbeat IPC: 2.68 cumulative IPC: 2.092 (Simulation time: 00 hr 22 min 39 sec)
Heartbeat CPU 0 instructions: 196500883 cycles: 80482605 heartbeat IPC: 2.615 cumulative IPC: 2.094 (Simulation time: 00 hr 22 min 43 sec)
Heartbeat CPU 0 instructions: 197000884 cycles: 80675978 heartbeat IPC: 2.586 cumulative IPC: 2.095 (Simulation time: 00 hr 22 min 46 sec)
Heartbeat CPU 0 instructions: 197500889 cycles: 80871436 heartbeat IPC: 2.558 cumulative IPC: 2.097 (Simulation time: 00 hr 22 min 50 sec)
Heartbeat CPU 0 instructions: 198000894 cycles: 81067827 heartbeat IPC: 2.546 cumulative IPC: 2.098 (Simulation time: 00 hr 22 min 54 sec)
Heartbeat CPU 0 instructions: 198500895 cycles: 81259060 heartbeat IPC: 2.615 cumulative IPC: 2.099 (Simulation time: 00 hr 22 min 58 sec)
Heartbeat CPU 0 instructions: 199000896 cycles: 81450638 heartbeat IPC: 2.61 cumulative IPC: 2.101 (Simulation time: 00 hr 23 min 01 sec)
Heartbeat CPU 0 instructions: 199500899 cycles: 81638345 heartbeat IPC: 2.664 cumulative IPC: 2.102 (Simulation time: 00 hr 23 min 05 sec)
Heartbeat CPU 0 instructions: 200000905 cycles: 81831514 heartbeat IPC: 2.588 cumulative IPC: 2.103 (Simulation time: 00 hr 23 min 09 sec)
Heartbeat CPU 0 instructions: 200500906 cycles: 82024452 heartbeat IPC: 2.592 cumulative IPC: 2.105 (Simulation time: 00 hr 23 min 12 sec)
Heartbeat CPU 0 instructions: 201000913 cycles: 82212452 heartbeat IPC: 2.66 cumulative IPC: 2.106 (Simulation time: 00 hr 23 min 16 sec)
Heartbeat CPU 0 instructions: 201500916 cycles: 82403254 heartbeat IPC: 2.621 cumulative IPC: 2.108 (Simulation time: 00 hr 23 min 20 sec)
Heartbeat CPU 0 instructions: 202000923 cycles: 82594109 heartbeat IPC: 2.62 cumulative IPC: 2.109 (Simulation time: 00 hr 23 min 24 sec)
Heartbeat CPU 0 instructions: 202500923 cycles: 82785765 heartbeat IPC: 2.609 cumulative IPC: 2.11 (Simulation time: 00 hr 23 min 27 sec)
Heartbeat CPU 0 instructions: 203000923 cycles: 82979976 heartbeat IPC: 2.575 cumulative IPC: 2.111 (Simulation time: 00 hr 23 min 31 sec)
Heartbeat CPU 0 instructions: 203500930 cycles: 83176073 heartbeat IPC: 2.55 cumulative IPC: 2.113 (Simulation time: 00 hr 23 min 35 sec)
Heartbeat CPU 0 instructions: 204000931 cycles: 83370821 heartbeat IPC: 2.567 cumulative IPC: 2.114 (Simulation time: 00 hr 23 min 39 sec)
Heartbeat CPU 0 instructions: 204500936 cycles: 83558240 heartbeat IPC: 2.668 cumulative IPC: 2.115 (Simulation time: 00 hr 23 min 42 sec)
Heartbeat CPU 0 instructions: 205000937 cycles: 83742837 heartbeat IPC: 2.709 cumulative IPC: 2.117 (Simulation time: 00 hr 23 min 46 sec)
Heartbeat CPU 0 instructions: 205500939 cycles: 83927907 heartbeat IPC: 2.702 cumulative IPC: 2.118 (Simulation time: 00 hr 23 min 50 sec)
Heartbeat CPU 0 instructions: 206000942 cycles: 84119399 heartbeat IPC: 2.611 cumulative IPC: 2.12 (Simulation time: 00 hr 23 min 53 sec)
Heartbeat CPU 0 instructions: 206500943 cycles: 84303724 heartbeat IPC: 2.713 cumulative IPC: 2.121 (Simulation time: 00 hr 23 min 57 sec)
Heartbeat CPU 0 instructions: 207000943 cycles: 84504372 heartbeat IPC: 2.492 cumulative IPC: 2.122 (Simulation time: 00 hr 24 min 01 sec)
Heartbeat CPU 0 instructions: 207500947 cycles: 84693748 heartbeat IPC: 2.64 cumulative IPC: 2.123 (Simulation time: 00 hr 24 min 05 sec)
Heartbeat CPU 0 instructions: 208000952 cycles: 84885209 heartbeat IPC: 2.612 cumulative IPC: 2.125 (Simulation time: 00 hr 24 min 08 sec)
Heartbeat CPU 0 instructions: 208500952 cycles: 85081473 heartbeat IPC: 2.548 cumulative IPC: 2.126 (Simulation time: 00 hr 24 min 12 sec)
Heartbeat CPU 0 instructions: 209000953 cycles: 85269459 heartbeat IPC: 2.66 cumulative IPC: 2.127 (Simulation time: 00 hr 24 min 16 sec)
Heartbeat CPU 0 instructions: 209500953 cycles: 85467737 heartbeat IPC: 2.522 cumulative IPC: 2.128 (Simulation time: 00 hr 24 min 19 sec)
Heartbeat CPU 0 instructions: 210000953 cycles: 85665815 heartbeat IPC: 2.524 cumulative IPC: 2.129 (Simulation time: 00 hr 24 min 23 sec)
Heartbeat CPU 0 instructions: 210500953 cycles: 85861901 heartbeat IPC: 2.55 cumulative IPC: 2.13 (Simulation time: 00 hr 24 min 27 sec)
Heartbeat CPU 0 instructions: 211000954 cycles: 86061347 heartbeat IPC: 2.507 cumulative IPC: 2.131 (Simulation time: 00 hr 24 min 31 sec)
Heartbeat CPU 0 instructions: 211500955 cycles: 86256312 heartbeat IPC: 2.565 cumulative IPC: 2.132 (Simulation time: 00 hr 24 min 35 sec)
Heartbeat CPU 0 instructions: 212000955 cycles: 86448580 heartbeat IPC: 2.601 cumulative IPC: 2.134 (Simulation time: 00 hr 24 min 38 sec)
Heartbeat CPU 0 instructions: 212500956 cycles: 86639578 heartbeat IPC: 2.618 cumulative IPC: 2.135 (Simulation time: 00 hr 24 min 42 sec)
Heartbeat CPU 0 instructions: 213000958 cycles: 86836000 heartbeat IPC: 2.546 cumulative IPC: 2.136 (Simulation time: 00 hr 24 min 46 sec)
Heartbeat CPU 0 instructions: 213500960 cycles: 87029664 heartbeat IPC: 2.582 cumulative IPC: 2.137 (Simulation time: 00 hr 24 min 49 sec)
Heartbeat CPU 0 instructions: 214000960 cycles: 87219533 heartbeat IPC: 2.633 cumulative IPC: 2.138 (Simulation time: 00 hr 24 min 53 sec)
Heartbeat CPU 0 instructions: 214500960 cycles: 87411301 heartbeat IPC: 2.607 cumulative IPC: 2.139 (Simulation time: 00 hr 24 min 57 sec)
Heartbeat CPU 0 instructions: 215000961 cycles: 87604946 heartbeat IPC: 2.582 cumulative IPC: 2.14 (Simulation time: 00 hr 25 min 01 sec)
Heartbeat CPU 0 instructions: 215500962 cycles: 87800182 heartbeat IPC: 2.561 cumulative IPC: 2.141 (Simulation time: 00 hr 25 min 04 sec)
Heartbeat CPU 0 instructions: 216000962 cycles: 88025001 heartbeat IPC: 2.224 cumulative IPC: 2.142 (Simulation time: 00 hr 25 min 08 sec)
Heartbeat CPU 0 instructions: 216500962 cycles: 88270340 heartbeat IPC: 2.038 cumulative IPC: 2.141 (Simulation time: 00 hr 25 min 13 sec)
Heartbeat CPU 0 instructions: 217000962 cycles: 88498253 heartbeat IPC: 2.194 cumulative IPC: 2.142 (Simulation time: 00 hr 25 min 17 sec)
Heartbeat CPU 0 instructions: 217500962 cycles: 88740229 heartbeat IPC: 2.066 cumulative IPC: 2.141 (Simulation time: 00 hr 25 min 21 sec)
Heartbeat CPU 0 instructions: 218000962 cycles: 89025859 heartbeat IPC: 1.751 cumulative IPC: 2.14 (Simulation time: 00 hr 25 min 25 sec)
Heartbeat CPU 0 instructions: 218500964 cycles: 89223642 heartbeat IPC: 2.528 cumulative IPC: 2.141 (Simulation time: 00 hr 25 min 29 sec)
Heartbeat CPU 0 instructions: 219000966 cycles: 89411219 heartbeat IPC: 2.666 cumulative IPC: 2.142 (Simulation time: 00 hr 25 min 33 sec)
Heartbeat CPU 0 instructions: 219500970 cycles: 89608843 heartbeat IPC: 2.53 cumulative IPC: 2.143 (Simulation time: 00 hr 25 min 36 sec)
Heartbeat CPU 0 instructions: 220000970 cycles: 89796015 heartbeat IPC: 2.671 cumulative IPC: 2.144 (Simulation time: 00 hr 25 min 40 sec)
Heartbeat CPU 0 instructions: 220500972 cycles: 89986549 heartbeat IPC: 2.624 cumulative IPC: 2.145 (Simulation time: 00 hr 25 min 44 sec)
Heartbeat CPU 0 instructions: 221000973 cycles: 90180668 heartbeat IPC: 2.576 cumulative IPC: 2.147 (Simulation time: 00 hr 25 min 48 sec)
Heartbeat CPU 0 instructions: 221500980 cycles: 90376333 heartbeat IPC: 2.555 cumulative IPC: 2.148 (Simulation time: 00 hr 25 min 51 sec)
Heartbeat CPU 0 instructions: 222000981 cycles: 90571664 heartbeat IPC: 2.56 cumulative IPC: 2.149 (Simulation time: 00 hr 25 min 55 sec)
Heartbeat CPU 0 instructions: 222500984 cycles: 90760407 heartbeat IPC: 2.649 cumulative IPC: 2.15 (Simulation time: 00 hr 25 min 59 sec)
Heartbeat CPU 0 instructions: 223000984 cycles: 90952816 heartbeat IPC: 2.599 cumulative IPC: 2.151 (Simulation time: 00 hr 26 min 03 sec)
Heartbeat CPU 0 instructions: 223500990 cycles: 91141768 heartbeat IPC: 2.646 cumulative IPC: 2.152 (Simulation time: 00 hr 26 min 06 sec)
Heartbeat CPU 0 instructions: 224000994 cycles: 91336090 heartbeat IPC: 2.573 cumulative IPC: 2.153 (Simulation time: 00 hr 26 min 10 sec)
Heartbeat CPU 0 instructions: 224500998 cycles: 91528751 heartbeat IPC: 2.595 cumulative IPC: 2.154 (Simulation time: 00 hr 26 min 14 sec)
Heartbeat CPU 0 instructions: 225001004 cycles: 91717559 heartbeat IPC: 2.648 cumulative IPC: 2.155 (Simulation time: 00 hr 26 min 18 sec)
Heartbeat CPU 0 instructions: 225501007 cycles: 91908962 heartbeat IPC: 2.612 cumulative IPC: 2.156 (Simulation time: 00 hr 26 min 21 sec)
Heartbeat CPU 0 instructions: 226001012 cycles: 92100865 heartbeat IPC: 2.606 cumulative IPC: 2.157 (Simulation time: 00 hr 26 min 25 sec)
Heartbeat CPU 0 instructions: 226501014 cycles: 92294057 heartbeat IPC: 2.588 cumulative IPC: 2.158 (Simulation time: 00 hr 26 min 29 sec)
Heartbeat CPU 0 instructions: 227001019 cycles: 92487709 heartbeat IPC: 2.582 cumulative IPC: 2.159 (Simulation time: 00 hr 26 min 33 sec)
Heartbeat CPU 0 instructions: 227501020 cycles: 92684528 heartbeat IPC: 2.54 cumulative IPC: 2.16 (Simulation time: 00 hr 26 min 36 sec)
Heartbeat CPU 0 instructions: 228001020 cycles: 92877213 heartbeat IPC: 2.595 cumulative IPC: 2.161 (Simulation time: 00 hr 26 min 40 sec)
Heartbeat CPU 0 instructions: 228501020 cycles: 93064513 heartbeat IPC: 2.67 cumulative IPC: 2.162 (Simulation time: 00 hr 26 min 44 sec)
Heartbeat CPU 0 instructions: 229001027 cycles: 93250069 heartbeat IPC: 2.695 cumulative IPC: 2.164 (Simulation time: 00 hr 26 min 47 sec)
Heartbeat CPU 0 instructions: 229501029 cycles: 93434357 heartbeat IPC: 2.713 cumulative IPC: 2.165 (Simulation time: 00 hr 26 min 51 sec)
Heartbeat CPU 0 instructions: 230001031 cycles: 93625892 heartbeat IPC: 2.61 cumulative IPC: 2.166 (Simulation time: 00 hr 26 min 55 sec)
Heartbeat CPU 0 instructions: 230501037 cycles: 93811531 heartbeat IPC: 2.693 cumulative IPC: 2.167 (Simulation time: 00 hr 26 min 58 sec)
Heartbeat CPU 0 instructions: 231001037 cycles: 94012426 heartbeat IPC: 2.489 cumulative IPC: 2.168 (Simulation time: 00 hr 27 min 02 sec)
Heartbeat CPU 0 instructions: 231501037 cycles: 94202151 heartbeat IPC: 2.635 cumulative IPC: 2.169 (Simulation time: 00 hr 27 min 06 sec)
Heartbeat CPU 0 instructions: 232001037 cycles: 94393070 heartbeat IPC: 2.619 cumulative IPC: 2.17 (Simulation time: 00 hr 27 min 10 sec)
Heartbeat CPU 0 instructions: 232501038 cycles: 94589472 heartbeat IPC: 2.546 cumulative IPC: 2.171 (Simulation time: 00 hr 27 min 13 sec)
Heartbeat CPU 0 instructions: 233001042 cycles: 94778090 heartbeat IPC: 2.651 cumulative IPC: 2.172 (Simulation time: 00 hr 27 min 17 sec)
Heartbeat CPU 0 instructions: 233501043 cycles: 94977413 heartbeat IPC: 2.508 cumulative IPC: 2.173 (Simulation time: 00 hr 27 min 21 sec)
Heartbeat CPU 0 instructions: 234001050 cycles: 95177130 heartbeat IPC: 2.504 cumulative IPC: 2.173 (Simulation time: 00 hr 27 min 25 sec)
Heartbeat CPU 0 instructions: 234501052 cycles: 95371460 heartbeat IPC: 2.573 cumulative IPC: 2.174 (Simulation time: 00 hr 27 min 28 sec)
Heartbeat CPU 0 instructions: 235001055 cycles: 95572352 heartbeat IPC: 2.489 cumulative IPC: 2.175 (Simulation time: 00 hr 27 min 32 sec)
Heartbeat CPU 0 instructions: 235501057 cycles: 95765554 heartbeat IPC: 2.588 cumulative IPC: 2.176 (Simulation time: 00 hr 27 min 36 sec)
Heartbeat CPU 0 instructions: 236001061 cycles: 95954556 heartbeat IPC: 2.645 cumulative IPC: 2.177 (Simulation time: 00 hr 27 min 40 sec)
Heartbeat CPU 0 instructions: 236501061 cycles: 96145487 heartbeat IPC: 2.619 cumulative IPC: 2.178 (Simulation time: 00 hr 27 min 43 sec)
Heartbeat CPU 0 instructions: 237001065 cycles: 96340847 heartbeat IPC: 2.559 cumulative IPC: 2.179 (Simulation time: 00 hr 27 min 47 sec)
Heartbeat CPU 0 instructions: 237501065 cycles: 96534143 heartbeat IPC: 2.587 cumulative IPC: 2.18 (Simulation time: 00 hr 27 min 51 sec)
Heartbeat CPU 0 instructions: 238001066 cycles: 96723694 heartbeat IPC: 2.638 cumulative IPC: 2.181 (Simulation time: 00 hr 27 min 54 sec)
Heartbeat CPU 0 instructions: 238501067 cycles: 96914769 heartbeat IPC: 2.617 cumulative IPC: 2.182 (Simulation time: 00 hr 27 min 58 sec)
Heartbeat CPU 0 instructions: 239001069 cycles: 97107018 heartbeat IPC: 2.601 cumulative IPC: 2.183 (Simulation time: 00 hr 28 min 02 sec)
Heartbeat CPU 0 instructions: 239501069 cycles: 97299882 heartbeat IPC: 2.593 cumulative IPC: 2.184 (Simulation time: 00 hr 28 min 06 sec)
Heartbeat CPU 0 instructions: 240001073 cycles: 97525598 heartbeat IPC: 2.215 cumulative IPC: 2.184 (Simulation time: 00 hr 28 min 10 sec)
Heartbeat CPU 0 instructions: 240501075 cycles: 97769843 heartbeat IPC: 2.047 cumulative IPC: 2.183 (Simulation time: 00 hr 28 min 14 sec)
Heartbeat CPU 0 instructions: 241001078 cycles: 97997751 heartbeat IPC: 2.194 cumulative IPC: 2.183 (Simulation time: 00 hr 28 min 18 sec)
Heartbeat CPU 0 instructions: 241501079 cycles: 98238441 heartbeat IPC: 2.077 cumulative IPC: 2.183 (Simulation time: 00 hr 28 min 22 sec)
Heartbeat CPU 0 instructions: 242001079 cycles: 98807491 heartbeat IPC: 0.8787 cumulative IPC: 2.175 (Simulation time: 00 hr 28 min 27 sec)
Heartbeat CPU 0 instructions: 242501080 cycles: 99171564 heartbeat IPC: 1.373 cumulative IPC: 2.171 (Simulation time: 00 hr 28 min 32 sec)
Heartbeat CPU 0 instructions: 243001080 cycles: 99363892 heartbeat IPC: 2.6 cumulative IPC: 2.172 (Simulation time: 00 hr 28 min 35 sec)
Heartbeat CPU 0 instructions: 243501081 cycles: 99552208 heartbeat IPC: 2.655 cumulative IPC: 2.173 (Simulation time: 00 hr 28 min 39 sec)
Heartbeat CPU 0 instructions: 244001084 cycles: 99741618 heartbeat IPC: 2.64 cumulative IPC: 2.174 (Simulation time: 00 hr 28 min 43 sec)
Heartbeat CPU 0 instructions: 244501085 cycles: 99928621 heartbeat IPC: 2.674 cumulative IPC: 2.175 (Simulation time: 00 hr 28 min 46 sec)
Heartbeat CPU 0 instructions: 245001089 cycles: 100109865 heartbeat IPC: 2.759 cumulative IPC: 2.177 (Simulation time: 00 hr 28 min 50 sec)
Heartbeat CPU 0 instructions: 245501090 cycles: 100299962 heartbeat IPC: 2.63 cumulative IPC: 2.177 (Simulation time: 00 hr 28 min 54 sec)
Heartbeat CPU 0 instructions: 246001090 cycles: 100494478 heartbeat IPC: 2.57 cumulative IPC: 2.178 (Simulation time: 00 hr 28 min 57 sec)
Heartbeat CPU 0 instructions: 246501091 cycles: 100690855 heartbeat IPC: 2.546 cumulative IPC: 2.179 (Simulation time: 00 hr 29 min 01 sec)
Heartbeat CPU 0 instructions: 247001094 cycles: 100884821 heartbeat IPC: 2.578 cumulative IPC: 2.18 (Simulation time: 00 hr 29 min 05 sec)
Heartbeat CPU 0 instructions: 247501094 cycles: 101074240 heartbeat IPC: 2.64 cumulative IPC: 2.181 (Simulation time: 00 hr 29 min 09 sec)
Heartbeat CPU 0 instructions: 248001097 cycles: 101266895 heartbeat IPC: 2.595 cumulative IPC: 2.182 (Simulation time: 00 hr 29 min 12 sec)
Heartbeat CPU 0 instructions: 248501101 cycles: 101455703 heartbeat IPC: 2.648 cumulative IPC: 2.183 (Simulation time: 00 hr 29 min 16 sec)
Heartbeat CPU 0 instructions: 249001108 cycles: 101651716 heartbeat IPC: 2.551 cumulative IPC: 2.184 (Simulation time: 00 hr 29 min 20 sec)
Heartbeat CPU 0 instructions: 249501108 cycles: 101842922 heartbeat IPC: 2.615 cumulative IPC: 2.185 (Simulation time: 00 hr 29 min 24 sec)
Simulation finished CPU 0 instructions: 200000001 cycles: 91518445 cumulative IPC: 2.185 (Simulation time: 00 hr 29 min 28 sec)
Simulation complete CPU 0 instructions: 200000001 cycles: 91518445 cumulative IPC: 2.185 (Simulation time: 00 hr 29 min 28 sec)

ChampSim completed all CPUs

=== Simulation ===
CPU 0 runs /local-ssd/ben/dpc4-traces/SPEC17/602.gcc_s-734B.champsimtrace.xz

Region of Interest Statistics

CPU 0 cumulative IPC: 2.185 instructions: 200000001 cycles: 91518445
CPU 0 Branch Prediction Accuracy: 99.52% MPKI: 1.161 Average ROB Occupancy at Mispredict: 43.89
Branch type MPKI
BRANCH_DIRECT_JUMP: 0.1592
BRANCH_INDIRECT: 0
BRANCH_CONDITIONAL: 0.892
BRANCH_DIRECT_CALL: 0.1092
BRANCH_INDIRECT_CALL: 3e-05
BRANCH_RETURN: 0.000135

cpu0->cpu0_STLB TOTAL        ACCESS:     257047 HIT:     201179 MISS:      55868 MSHR_MERGE:          0
cpu0->cpu0_STLB LOAD         ACCESS:     257047 HIT:     201179 MISS:      55868 MSHR_MERGE:          0
cpu0->cpu0_STLB RFO          ACCESS:          0 HIT:          0 MISS:          0 MSHR_MERGE:          0
cpu0->cpu0_STLB PREFETCH     ACCESS:          0 HIT:          0 MISS:          0 MSHR_MERGE:          0
cpu0->cpu0_STLB WRITE        ACCESS:          0 HIT:          0 MISS:          0 MSHR_MERGE:          0
cpu0->cpu0_STLB TRANSLATION  ACCESS:          0 HIT:          0 MISS:          0 MSHR_MERGE:          0
cpu0->cpu0_STLB PREFETCH REQUESTED:          0 ISSUED:          0 USEFUL:          0 USELESS:          0
cpu0->cpu0_STLB AVERAGE MISS LATENCY: 110.3 cycles
cpu0->cpu0_L2C TOTAL        ACCESS:   23468105 HIT:   15872335 MISS:    7595770 MSHR_MERGE:    5402868
cpu0->cpu0_L2C LOAD         ACCESS:     355339 HIT:     315700 MISS:      39639 MSHR_MERGE:       6257
cpu0->cpu0_L2C RFO          ACCESS:       9166 HIT:       7371 MISS:       1795 MSHR_MERGE:         38
cpu0->cpu0_L2C PREFETCH     ACCESS:   23028013 HIT:   15493646 MISS:    7534367 MSHR_MERGE:    5396573
cpu0->cpu0_L2C WRITE        ACCESS:      46079 HIT:      46066 MISS:         13 MSHR_MERGE:          0
cpu0->cpu0_L2C TRANSLATION  ACCESS:      29508 HIT:       9552 MISS:      19956 MSHR_MERGE:          0
cpu0->cpu0_L2C PREFETCH REQUESTED:   19423537 ISSUED:   19276987 USEFUL:    1322614 USELESS:     675075
cpu0->cpu0_L2C AVERAGE MISS LATENCY: 195.9 cycles
cpu0->cpu0_L1I TOTAL        ACCESS:   37387291 HIT:   37387198 MISS:         93 MSHR_MERGE:          4
cpu0->cpu0_L1I LOAD         ACCESS:   37387291 HIT:   37387198 MISS:         93 MSHR_MERGE:          4
cpu0->cpu0_L1I RFO          ACCESS:          0 HIT:          0 MISS:          0 MSHR_MERGE:          0
cpu0->cpu0_L1I PREFETCH     ACCESS:          0 HIT:          0 MISS:          0 MSHR_MERGE:          0
cpu0->cpu0_L1I WRITE        ACCESS:          0 HIT:          0 MISS:          0 MSHR_MERGE:          0
cpu0->cpu0_L1I TRANSLATION  ACCESS:          0 HIT:          0 MISS:          0 MSHR_MERGE:          0
cpu0->cpu0_L1I PREFETCH REQUESTED:          0 ISSUED:          0 USEFUL:          0 USELESS:          0
cpu0->cpu0_L1I AVERAGE MISS LATENCY: 239.8 cycles
cpu0->cpu0_L1D TOTAL        ACCESS:   75631311 HIT:   66551823 MISS:    9079488 MSHR_MERGE:    4933391
cpu0->cpu0_L1D LOAD         ACCESS:   28750969 HIT:   28100561 MISS:     650408 MSHR_MERGE:     295158
cpu0->cpu0_L1D RFO          ACCESS:          0 HIT:          0 MISS:          0 MSHR_MERGE:          0
cpu0->cpu0_L1D PREFETCH     ACCESS:   27225482 HIT:   18863773 MISS:    8361709 MSHR_MERGE:    4610685
cpu0->cpu0_L1D WRITE        ACCESS:   19538954 HIT:   19501342 MISS:      37612 MSHR_MERGE:      27297
cpu0->cpu0_L1D TRANSLATION  ACCESS:     115906 HIT:      86147 MISS:      29759 MSHR_MERGE:        251
cpu0->cpu0_L1D PREFETCH REQUESTED:   27341283 ISSUED:   27225479 USEFUL:    3247945 USELESS:     502993
cpu0->cpu0_L1D AVERAGE MISS LATENCY: 46.03 cycles
cpu0->cpu0_ITLB TOTAL        ACCESS:   35017168 HIT:   35017155 MISS:         13 MSHR_MERGE:          3
cpu0->cpu0_ITLB LOAD         ACCESS:   35017168 HIT:   35017155 MISS:         13 MSHR_MERGE:          3
cpu0->cpu0_ITLB RFO          ACCESS:          0 HIT:          0 MISS:          0 MSHR_MERGE:          0
cpu0->cpu0_ITLB PREFETCH     ACCESS:          0 HIT:          0 MISS:          0 MSHR_MERGE:          0
cpu0->cpu0_ITLB WRITE        ACCESS:          0 HIT:          0 MISS:          0 MSHR_MERGE:          0
cpu0->cpu0_ITLB TRANSLATION  ACCESS:          0 HIT:          0 MISS:          0 MSHR_MERGE:          0
cpu0->cpu0_ITLB PREFETCH REQUESTED:          0 ISSUED:          0 USEFUL:          0 USELESS:          0
cpu0->cpu0_ITLB AVERAGE MISS LATENCY: 541.7 cycles
cpu0->cpu0_DTLB TOTAL        ACCESS:   62824106 HIT:   62416020 MISS:     408086 MSHR_MERGE:     151049
cpu0->cpu0_DTLB LOAD         ACCESS:   62824106 HIT:   62416020 MISS:     408086 MSHR_MERGE:     151049
cpu0->cpu0_DTLB RFO          ACCESS:          0 HIT:          0 MISS:          0 MSHR_MERGE:          0
cpu0->cpu0_DTLB PREFETCH     ACCESS:          0 HIT:          0 MISS:          0 MSHR_MERGE:          0
cpu0->cpu0_DTLB WRITE        ACCESS:          0 HIT:          0 MISS:          0 MSHR_MERGE:          0
cpu0->cpu0_DTLB TRANSLATION  ACCESS:          0 HIT:          0 MISS:          0 MSHR_MERGE:          0
cpu0->cpu0_DTLB PREFETCH REQUESTED:          0 ISSUED:          0 USEFUL:          0 USELESS:          0
cpu0->cpu0_DTLB AVERAGE MISS LATENCY: 29.18 cycles
cpu0->LLC TOTAL        ACCESS:    2401872 HIT:     332355 MISS:    2069517 MSHR_MERGE:      87074
cpu0->LLC LOAD         ACCESS:      33382 HIT:      10443 MISS:      22939 MSHR_MERGE:        122
cpu0->LLC RFO          ACCESS:       1757 HIT:         84 MISS:       1673 MSHR_MERGE:          2
cpu0->LLC PREFETCH     ACCESS:    2326195 HIT:     310837 MISS:    2015358 MSHR_MERGE:      86950
cpu0->LLC WRITE        ACCESS:      20582 HIT:       7249 MISS:      13333 MSHR_MERGE:          0
cpu0->LLC TRANSLATION  ACCESS:      19956 HIT:       3742 MISS:      16214 MSHR_MERGE:          0
cpu0->LLC PREFETCH REQUESTED:     188398 ISSUED:     188398 USEFUL:      21950 USELESS:      85595
cpu0->LLC AVERAGE MISS LATENCY: 188 cycles

DRAM Statistics

Channel 0 RQ ROW_BUFFER_HIT:     570181
  ROW_BUFFER_MISS:    1398923
  AVG DBUS CONGESTED CYCLE: 10.74
Channel 0 WQ ROW_BUFFER_HIT:       3429
  ROW_BUFFER_MISS:      11464
  FULL:          0
Channel 0 REFRESHES ISSUED:       7626
