[VMEM] WARNING: physical memory size is smaller than virtual memory size.

*** ChampSim Multicore Out-of-Order Simulator ***
Warmup Instructions: 50000000
Simulation Instructions: 200000000
Number of CPUs: 1
Page size: 4096
Core 0: /local-ssd/ben/dpc4-traces/ai-ml/biogpt.cpp-ggml-model-tocilizumab.3.champsimtrace.gz
 L1D Berti prefetcher
Off-chip DRAM Size: 64 GiB Channels: 1 Width: 64-bit Data Rate: 4807 MT/s
Heartbeat CPU 0 instructions: 500002 cycles: 379736 heartbeat IPC: 1.317 cumulative IPC: 1.317 (Simulation time: 00 hr 00 min 06 sec)
Heartbeat CPU 0 instructions: 1000008 cycles: 787853 heartbeat IPC: 1.225 cumulative IPC: 1.269 (Simulation time: 00 hr 00 min 13 sec)
Heartbeat CPU 0 instructions: 1500008 cycles: 1198376 heartbeat IPC: 1.218 cumulative IPC: 1.252 (Simulation time: 00 hr 00 min 20 sec)
Heartbeat CPU 0 instructions: 2000008 cycles: 1575150 heartbeat IPC: 1.327 cumulative IPC: 1.27 (Simulation time: 00 hr 00 min 26 sec)
Heartbeat CPU 0 instructions: 2500010 cycles: 1933307 heartbeat IPC: 1.396 cumulative IPC: 1.293 (Simulation time: 00 hr 00 min 32 sec)
Heartbeat CPU 0 instructions: 3000010 cycles: 2176862 heartbeat IPC: 2.053 cumulative IPC: 1.378 (Simulation time: 00 hr 00 min 36 sec)
Heartbeat CPU 0 instructions: 3500013 cycles: 2505991 heartbeat IPC: 1.519 cumulative IPC: 1.397 (Simulation time: 00 hr 00 min 42 sec)
Heartbeat CPU 0 instructions: 4000015 cycles: 2783456 heartbeat IPC: 1.802 cumulative IPC: 1.437 (Simulation time: 00 hr 00 min 46 sec)
Heartbeat CPU 0 instructions: 4500015 cycles: 3131365 heartbeat IPC: 1.437 cumulative IPC: 1.437 (Simulation time: 00 hr 00 min 52 sec)
Heartbeat CPU 0 instructions: 5000020 cycles: 3489760 heartbeat IPC: 1.395 cumulative IPC: 1.433 (Simulation time: 00 hr 00 min 58 sec)
Heartbeat CPU 0 instructions: 5500020 cycles: 3848157 heartbeat IPC: 1.395 cumulative IPC: 1.429 (Simulation time: 00 hr 01 min 04 sec)
Heartbeat CPU 0 instructions: 6000020 cycles: 4193489 heartbeat IPC: 1.448 cumulative IPC: 1.431 (Simulation time: 00 hr 01 min 10 sec)
Heartbeat CPU 0 instructions: 6500024 cycles: 4604618 heartbeat IPC: 1.216 cumulative IPC: 1.412 (Simulation time: 00 hr 01 min 17 sec)
Heartbeat CPU 0 instructions: 7000028 cycles: 5016743 heartbeat IPC: 1.213 cumulative IPC: 1.395 (Simulation time: 00 hr 01 min 24 sec)
Heartbeat CPU 0 instructions: 7500029 cycles: 5425645 heartbeat IPC: 1.223 cumulative IPC: 1.382 (Simulation time: 00 hr 01 min 31 sec)
Heartbeat CPU 0 instructions: 8000032 cycles: 5779682 heartbeat IPC: 1.412 cumulative IPC: 1.384 (Simulation time: 00 hr 01 min 37 sec)
Heartbeat CPU 0 instructions: 8500032 cycles: 6125786 heartbeat IPC: 1.445 cumulative IPC: 1.388 (Simulation time: 00 hr 01 min 43 sec)
Heartbeat CPU 0 instructions: 9000036 cycles: 6373853 heartbeat IPC: 2.016 cumulative IPC: 1.412 (Simulation time: 00 hr 01 min 47 sec)
Heartbeat CPU 0 instructions: 9500037 cycles: 6621609 heartbeat IPC: 2.018 cumulative IPC: 1.435 (Simulation time: 00 hr 01 min 51 sec)
Heartbeat CPU 0 instructions: 10000037 cycles: 6969097 heartbeat IPC: 1.439 cumulative IPC: 1.435 (Simulation time: 00 hr 01 min 57 sec)
Heartbeat CPU 0 instructions: 10500042 cycles: 7327531 heartbeat IPC: 1.395 cumulative IPC: 1.433 (Simulation time: 00 hr 02 min 03 sec)
Heartbeat CPU 0 instructions: 11000046 cycles: 7685519 heartbeat IPC: 1.397 cumulative IPC: 1.431 (Simulation time: 00 hr 02 min 09 sec)
Heartbeat CPU 0 instructions: 11500046 cycles: 8043789 heartbeat IPC: 1.396 cumulative IPC: 1.43 (Simulation time: 00 hr 02 min 16 sec)
Heartbeat CPU 0 instructions: 12000050 cycles: 8410315 heartbeat IPC: 1.364 cumulative IPC: 1.427 (Simulation time: 00 hr 02 min 22 sec)
Heartbeat CPU 0 instructions: 12500053 cycles: 8818215 heartbeat IPC: 1.226 cumulative IPC: 1.418 (Simulation time: 00 hr 02 min 29 sec)
Heartbeat CPU 0 instructions: 13000057 cycles: 9228037 heartbeat IPC: 1.22 cumulative IPC: 1.409 (Simulation time: 00 hr 02 min 36 sec)
Heartbeat CPU 0 instructions: 13500061 cycles: 9612097 heartbeat IPC: 1.302 cumulative IPC: 1.404 (Simulation time: 00 hr 02 min 42 sec)
Heartbeat CPU 0 instructions: 14000062 cycles: 9969693 heartbeat IPC: 1.398 cumulative IPC: 1.404 (Simulation time: 00 hr 02 min 48 sec)
Heartbeat CPU 0 instructions: 14500067 cycles: 10227872 heartbeat IPC: 1.937 cumulative IPC: 1.418 (Simulation time: 00 hr 02 min 53 sec)
Heartbeat CPU 0 instructions: 15000067 cycles: 10561843 heartbeat IPC: 1.497 cumulative IPC: 1.42 (Simulation time: 00 hr 02 min 59 sec)
Heartbeat CPU 0 instructions: 15500068 cycles: 10809745 heartbeat IPC: 2.017 cumulative IPC: 1.434 (Simulation time: 00 hr 03 min 03 sec)
Heartbeat CPU 0 instructions: 16000072 cycles: 11157765 heartbeat IPC: 1.437 cumulative IPC: 1.434 (Simulation time: 00 hr 03 min 09 sec)
Heartbeat CPU 0 instructions: 16500072 cycles: 11516397 heartbeat IPC: 1.394 cumulative IPC: 1.433 (Simulation time: 00 hr 03 min 15 sec)
Heartbeat CPU 0 instructions: 17000077 cycles: 11874779 heartbeat IPC: 1.395 cumulative IPC: 1.432 (Simulation time: 00 hr 03 min 21 sec)
Heartbeat CPU 0 instructions: 17500082 cycles: 12213444 heartbeat IPC: 1.476 cumulative IPC: 1.433 (Simulation time: 00 hr 03 min 27 sec)
Heartbeat CPU 0 instructions: 18000087 cycles: 12624453 heartbeat IPC: 1.217 cumulative IPC: 1.426 (Simulation time: 00 hr 03 min 34 sec)
Heartbeat CPU 0 instructions: 18500091 cycles: 13032761 heartbeat IPC: 1.225 cumulative IPC: 1.42 (Simulation time: 00 hr 03 min 41 sec)
Heartbeat CPU 0 instructions: 19000095 cycles: 13443387 heartbeat IPC: 1.218 cumulative IPC: 1.413 (Simulation time: 00 hr 03 min 48 sec)
Heartbeat CPU 0 instructions: 19500101 cycles: 13803949 heartbeat IPC: 1.387 cumulative IPC: 1.413 (Simulation time: 00 hr 03 min 55 sec)
Heartbeat CPU 0 instructions: 20000105 cycles: 14161242 heartbeat IPC: 1.399 cumulative IPC: 1.412 (Simulation time: 00 hr 04 min 01 sec)
Heartbeat CPU 0 instructions: 20500105 cycles: 14397718 heartbeat IPC: 2.114 cumulative IPC: 1.424 (Simulation time: 00 hr 04 min 05 sec)
Heartbeat CPU 0 instructions: 21000105 cycles: 14647496 heartbeat IPC: 2.002 cumulative IPC: 1.434 (Simulation time: 00 hr 04 min 10 sec)
Heartbeat CPU 0 instructions: 21500106 cycles: 14993040 heartbeat IPC: 1.447 cumulative IPC: 1.434 (Simulation time: 00 hr 04 min 15 sec)
Heartbeat CPU 0 instructions: 22000110 cycles: 15351532 heartbeat IPC: 1.395 cumulative IPC: 1.433 (Simulation time: 00 hr 04 min 22 sec)
Heartbeat CPU 0 instructions: 22500113 cycles: 15709639 heartbeat IPC: 1.396 cumulative IPC: 1.432 (Simulation time: 00 hr 04 min 28 sec)
Heartbeat CPU 0 instructions: 23000115 cycles: 16067905 heartbeat IPC: 1.396 cumulative IPC: 1.431 (Simulation time: 00 hr 04 min 34 sec)
Heartbeat CPU 0 instructions: 23500119 cycles: 16428895 heartbeat IPC: 1.385 cumulative IPC: 1.43 (Simulation time: 00 hr 04 min 41 sec)
Heartbeat CPU 0 instructions: 24000119 cycles: 16837932 heartbeat IPC: 1.222 cumulative IPC: 1.425 (Simulation time: 00 hr 04 min 48 sec)
Heartbeat CPU 0 instructions: 24500120 cycles: 17249092 heartbeat IPC: 1.216 cumulative IPC: 1.42 (Simulation time: 00 hr 04 min 55 sec)
Heartbeat CPU 0 instructions: 25000121 cycles: 17638254 heartbeat IPC: 1.285 cumulative IPC: 1.417 (Simulation time: 00 hr 05 min 02 sec)
Heartbeat CPU 0 instructions: 25500123 cycles: 17995505 heartbeat IPC: 1.4 cumulative IPC: 1.417 (Simulation time: 00 hr 05 min 09 sec)
Heartbeat CPU 0 instructions: 26000127 cycles: 18283176 heartbeat IPC: 1.738 cumulative IPC: 1.422 (Simulation time: 00 hr 05 min 14 sec)
Heartbeat CPU 0 instructions: 26500129 cycles: 18591402 heartbeat IPC: 1.622 cumulative IPC: 1.425 (Simulation time: 00 hr 05 min 19 sec)
Heartbeat CPU 0 instructions: 27000136 cycles: 18839657 heartbeat IPC: 2.014 cumulative IPC: 1.433 (Simulation time: 00 hr 05 min 23 sec)
Heartbeat CPU 0 instructions: 27500136 cycles: 19187472 heartbeat IPC: 1.438 cumulative IPC: 1.433 (Simulation time: 00 hr 05 min 29 sec)
Heartbeat CPU 0 instructions: 28000141 cycles: 19545710 heartbeat IPC: 1.396 cumulative IPC: 1.433 (Simulation time: 00 hr 05 min 36 sec)
Heartbeat CPU 0 instructions: 28500145 cycles: 19904299 heartbeat IPC: 1.394 cumulative IPC: 1.432 (Simulation time: 00 hr 05 min 42 sec)
Heartbeat CPU 0 instructions: 29000149 cycles: 20262096 heartbeat IPC: 1.397 cumulative IPC: 1.431 (Simulation time: 00 hr 05 min 49 sec)
Heartbeat CPU 0 instructions: 29500153 cycles: 20644738 heartbeat IPC: 1.307 cumulative IPC: 1.429 (Simulation time: 00 hr 05 min 56 sec)
Heartbeat CPU 0 instructions: 30000158 cycles: 21053961 heartbeat IPC: 1.222 cumulative IPC: 1.425 (Simulation time: 00 hr 06 min 03 sec)
Heartbeat CPU 0 instructions: 30500162 cycles: 21463321 heartbeat IPC: 1.221 cumulative IPC: 1.421 (Simulation time: 00 hr 06 min 10 sec)
Heartbeat CPU 0 instructions: 31000169 cycles: 21831096 heartbeat IPC: 1.36 cumulative IPC: 1.42 (Simulation time: 00 hr 06 min 17 sec)
Heartbeat CPU 0 instructions: 31500173 cycles: 22188483 heartbeat IPC: 1.399 cumulative IPC: 1.42 (Simulation time: 00 hr 06 min 24 sec)
Heartbeat CPU 0 instructions: 32000173 cycles: 22423506 heartbeat IPC: 2.127 cumulative IPC: 1.427 (Simulation time: 00 hr 06 min 28 sec)
Heartbeat CPU 0 instructions: 32500177 cycles: 22707539 heartbeat IPC: 1.76 cumulative IPC: 1.431 (Simulation time: 00 hr 06 min 33 sec)
Heartbeat CPU 0 instructions: 33000179 cycles: 23029085 heartbeat IPC: 1.555 cumulative IPC: 1.433 (Simulation time: 00 hr 06 min 38 sec)
Heartbeat CPU 0 instructions: 33500179 cycles: 23377404 heartbeat IPC: 1.435 cumulative IPC: 1.433 (Simulation time: 00 hr 06 min 44 sec)
Heartbeat CPU 0 instructions: 34000183 cycles: 23735418 heartbeat IPC: 1.397 cumulative IPC: 1.432 (Simulation time: 00 hr 06 min 51 sec)
Heartbeat CPU 0 instructions: 34500183 cycles: 24094058 heartbeat IPC: 1.394 cumulative IPC: 1.432 (Simulation time: 00 hr 06 min 57 sec)
Heartbeat CPU 0 instructions: 35000188 cycles: 24447049 heartbeat IPC: 1.416 cumulative IPC: 1.432 (Simulation time: 00 hr 07 min 03 sec)
Heartbeat CPU 0 instructions: 35500194 cycles: 24855645 heartbeat IPC: 1.224 cumulative IPC: 1.428 (Simulation time: 00 hr 07 min 11 sec)
Heartbeat CPU 0 instructions: 36000194 cycles: 25264613 heartbeat IPC: 1.223 cumulative IPC: 1.425 (Simulation time: 00 hr 07 min 18 sec)
Heartbeat CPU 0 instructions: 36500198 cycles: 25661326 heartbeat IPC: 1.26 cumulative IPC: 1.422 (Simulation time: 00 hr 07 min 25 sec)
Heartbeat CPU 0 instructions: 37000199 cycles: 26018757 heartbeat IPC: 1.399 cumulative IPC: 1.422 (Simulation time: 00 hr 07 min 32 sec)
Heartbeat CPU 0 instructions: 37500199 cycles: 26332914 heartbeat IPC: 1.592 cumulative IPC: 1.424 (Simulation time: 00 hr 07 min 37 sec)
Heartbeat CPU 0 instructions: 38000204 cycles: 26614783 heartbeat IPC: 1.774 cumulative IPC: 1.428 (Simulation time: 00 hr 07 min 42 sec)
Heartbeat CPU 0 instructions: 38500205 cycles: 26862669 heartbeat IPC: 2.017 cumulative IPC: 1.433 (Simulation time: 00 hr 07 min 46 sec)
Heartbeat CPU 0 instructions: 39000209 cycles: 27210534 heartbeat IPC: 1.437 cumulative IPC: 1.433 (Simulation time: 00 hr 07 min 52 sec)
Heartbeat CPU 0 instructions: 39500209 cycles: 27568746 heartbeat IPC: 1.396 cumulative IPC: 1.433 (Simulation time: 00 hr 07 min 59 sec)
Heartbeat CPU 0 instructions: 40000214 cycles: 27927109 heartbeat IPC: 1.395 cumulative IPC: 1.432 (Simulation time: 00 hr 08 min 05 sec)
Heartbeat CPU 0 instructions: 40500216 cycles: 28285096 heartbeat IPC: 1.397 cumulative IPC: 1.432 (Simulation time: 00 hr 08 min 12 sec)
Heartbeat CPU 0 instructions: 41000218 cycles: 28662281 heartbeat IPC: 1.326 cumulative IPC: 1.43 (Simulation time: 00 hr 08 min 19 sec)
Heartbeat CPU 0 instructions: 41500220 cycles: 29070094 heartbeat IPC: 1.226 cumulative IPC: 1.428 (Simulation time: 00 hr 08 min 26 sec)
Heartbeat CPU 0 instructions: 42000220 cycles: 29479249 heartbeat IPC: 1.222 cumulative IPC: 1.425 (Simulation time: 00 hr 08 min 34 sec)
Heartbeat CPU 0 instructions: 42500224 cycles: 29853956 heartbeat IPC: 1.334 cumulative IPC: 1.424 (Simulation time: 00 hr 08 min 41 sec)
Heartbeat CPU 0 instructions: 43000226 cycles: 30211383 heartbeat IPC: 1.399 cumulative IPC: 1.423 (Simulation time: 00 hr 08 min 47 sec)
Heartbeat CPU 0 instructions: 43500226 cycles: 30447976 heartbeat IPC: 2.113 cumulative IPC: 1.429 (Simulation time: 00 hr 08 min 52 sec)
Heartbeat CPU 0 instructions: 44000227 cycles: 30765614 heartbeat IPC: 1.574 cumulative IPC: 1.43 (Simulation time: 00 hr 08 min 57 sec)
Heartbeat CPU 0 instructions: 44500231 cycles: 31054041 heartbeat IPC: 1.734 cumulative IPC: 1.433 (Simulation time: 00 hr 09 min 02 sec)
Heartbeat CPU 0 instructions: 45000231 cycles: 31401945 heartbeat IPC: 1.437 cumulative IPC: 1.433 (Simulation time: 00 hr 09 min 08 sec)
Heartbeat CPU 0 instructions: 45500234 cycles: 31759981 heartbeat IPC: 1.397 cumulative IPC: 1.433 (Simulation time: 00 hr 09 min 15 sec)
Heartbeat CPU 0 instructions: 46000236 cycles: 32118072 heartbeat IPC: 1.396 cumulative IPC: 1.432 (Simulation time: 00 hr 09 min 22 sec)
Heartbeat CPU 0 instructions: 46500240 cycles: 32465091 heartbeat IPC: 1.441 cumulative IPC: 1.432 (Simulation time: 00 hr 09 min 28 sec)
Heartbeat CPU 0 instructions: 47000240 cycles: 32873718 heartbeat IPC: 1.224 cumulative IPC: 1.43 (Simulation time: 00 hr 09 min 36 sec)
Heartbeat CPU 0 instructions: 47500245 cycles: 33282545 heartbeat IPC: 1.223 cumulative IPC: 1.427 (Simulation time: 00 hr 09 min 44 sec)
Heartbeat CPU 0 instructions: 48000245 cycles: 33693114 heartbeat IPC: 1.218 cumulative IPC: 1.425 (Simulation time: 00 hr 09 min 51 sec)
Heartbeat CPU 0 instructions: 48500246 cycles: 34045688 heartbeat IPC: 1.418 cumulative IPC: 1.425 (Simulation time: 00 hr 09 min 58 sec)
Heartbeat CPU 0 instructions: 49000247 cycles: 34382882 heartbeat IPC: 1.483 cumulative IPC: 1.425 (Simulation time: 00 hr 10 min 04 sec)
Heartbeat CPU 0 instructions: 49500250 cycles: 34638975 heartbeat IPC: 1.952 cumulative IPC: 1.429 (Simulation time: 00 hr 10 min 09 sec)
Warmup halting CPU 0 at instruction 50000001 cycle 34886612 for remainder of phase
Warmup finished CPU 0 instructions: 50000001 cycles: 34886612 cumulative IPC: 1.433 (Simulation time: 00 hr 10 min 13 sec)
Warmup complete CPU 0 instructions: 50000001 cycles: 34886612 cumulative IPC: 1.433 (Simulation time: 00 hr 10 min 13 sec)
Heartbeat CPU 0 instructions: 50000257 cycles: 34886644 heartbeat IPC: 2.019 cumulative IPC: 8 (Simulation time: 00 hr 10 min 13 sec)
Heartbeat CPU 0 instructions: 50500257 cycles: 35990200 heartbeat IPC: 0.4531 cumulative IPC: 0.4533 (Simulation time: 00 hr 10 min 25 sec)
Heartbeat CPU 0 instructions: 51000264 cycles: 37147367 heartbeat IPC: 0.4321 cumulative IPC: 0.4424 (Simulation time: 00 hr 10 min 39 sec)
Heartbeat CPU 0 instructions: 51500266 cycles: 38304912 heartbeat IPC: 0.432 cumulative IPC: 0.4389 (Simulation time: 00 hr 10 min 52 sec)
Heartbeat CPU 0 instructions: 52000268 cycles: 39462572 heartbeat IPC: 0.4319 cumulative IPC: 0.4371 (Simulation time: 00 hr 11 min 05 sec)
Heartbeat CPU 0 instructions: 52500269 cycles: 40612886 heartbeat IPC: 0.4347 cumulative IPC: 0.4366 (Simulation time: 00 hr 11 min 19 sec)
Heartbeat CPU 0 instructions: 53000269 cycles: 41860667 heartbeat IPC: 0.4007 cumulative IPC: 0.4302 (Simulation time: 00 hr 11 min 34 sec)
Heartbeat CPU 0 instructions: 53500275 cycles: 43109309 heartbeat IPC: 0.4004 cumulative IPC: 0.4257 (Simulation time: 00 hr 11 min 49 sec)
Heartbeat CPU 0 instructions: 54000281 cycles: 44290853 heartbeat IPC: 0.4232 cumulative IPC: 0.4254 (Simulation time: 00 hr 12 min 03 sec)
Heartbeat CPU 0 instructions: 54500286 cycles: 45441480 heartbeat IPC: 0.4346 cumulative IPC: 0.4264 (Simulation time: 00 hr 12 min 16 sec)
Heartbeat CPU 0 instructions: 55000287 cycles: 46107227 heartbeat IPC: 0.751 cumulative IPC: 0.4456 (Simulation time: 00 hr 12 min 24 sec)
Heartbeat CPU 0 instructions: 55500290 cycles: 47169958 heartbeat IPC: 0.4705 cumulative IPC: 0.4478 (Simulation time: 00 hr 12 min 36 sec)
Heartbeat CPU 0 instructions: 56000290 cycles: 47976820 heartbeat IPC: 0.6197 cumulative IPC: 0.4584 (Simulation time: 00 hr 12 min 45 sec)
Heartbeat CPU 0 instructions: 56500292 cycles: 49098399 heartbeat IPC: 0.4458 cumulative IPC: 0.4574 (Simulation time: 00 hr 12 min 58 sec)
Heartbeat CPU 0 instructions: 57000298 cycles: 50252474 heartbeat IPC: 0.4333 cumulative IPC: 0.4556 (Simulation time: 00 hr 13 min 10 sec)
Heartbeat CPU 0 instructions: 57500298 cycles: 51409988 heartbeat IPC: 0.432 cumulative IPC: 0.4539 (Simulation time: 00 hr 13 min 24 sec)
Heartbeat CPU 0 instructions: 58000299 cycles: 52512004 heartbeat IPC: 0.4537 cumulative IPC: 0.4539 (Simulation time: 00 hr 13 min 36 sec)
Heartbeat CPU 0 instructions: 58500299 cycles: 53761931 heartbeat IPC: 0.4 cumulative IPC: 0.4503 (Simulation time: 00 hr 13 min 51 sec)
Heartbeat CPU 0 instructions: 59000299 cycles: 55009225 heartbeat IPC: 0.4009 cumulative IPC: 0.4473 (Simulation time: 00 hr 14 min 06 sec)
Heartbeat CPU 0 instructions: 59500304 cycles: 56258798 heartbeat IPC: 0.4001 cumulative IPC: 0.4445 (Simulation time: 00 hr 14 min 21 sec)
Heartbeat CPU 0 instructions: 60000311 cycles: 57402615 heartbeat IPC: 0.4371 cumulative IPC: 0.4441 (Simulation time: 00 hr 14 min 35 sec)
Heartbeat CPU 0 instructions: 60500311 cycles: 58559846 heartbeat IPC: 0.4321 cumulative IPC: 0.4436 (Simulation time: 00 hr 14 min 48 sec)
Heartbeat CPU 0 instructions: 61000311 cycles: 59154604 heartbeat IPC: 0.8407 cumulative IPC: 0.4533 (Simulation time: 00 hr 14 min 55 sec)
Heartbeat CPU 0 instructions: 61500312 cycles: 59945459 heartbeat IPC: 0.6322 cumulative IPC: 0.4589 (Simulation time: 00 hr 15 min 04 sec)
Heartbeat CPU 0 instructions: 62000312 cycles: 61065159 heartbeat IPC: 0.4465 cumulative IPC: 0.4584 (Simulation time: 00 hr 15 min 17 sec)
Heartbeat CPU 0 instructions: 62500312 cycles: 62222787 heartbeat IPC: 0.4319 cumulative IPC: 0.4573 (Simulation time: 00 hr 15 min 29 sec)
Heartbeat CPU 0 instructions: 63000312 cycles: 63380881 heartbeat IPC: 0.4317 cumulative IPC: 0.4562 (Simulation time: 00 hr 15 min 43 sec)
Heartbeat CPU 0 instructions: 63500313 cycles: 64537850 heartbeat IPC: 0.4322 cumulative IPC: 0.4553 (Simulation time: 00 hr 15 min 56 sec)
Heartbeat CPU 0 instructions: 64000315 cycles: 65681877 heartbeat IPC: 0.4371 cumulative IPC: 0.4546 (Simulation time: 00 hr 16 min 09 sec)
Heartbeat CPU 0 instructions: 64500321 cycles: 66927723 heartbeat IPC: 0.4013 cumulative IPC: 0.4526 (Simulation time: 00 hr 16 min 24 sec)
Heartbeat CPU 0 instructions: 65000322 cycles: 68175044 heartbeat IPC: 0.4009 cumulative IPC: 0.4506 (Simulation time: 00 hr 16 min 39 sec)
Heartbeat CPU 0 instructions: 65500323 cycles: 69371241 heartbeat IPC: 0.418 cumulative IPC: 0.4495 (Simulation time: 00 hr 16 min 53 sec)
Heartbeat CPU 0 instructions: 66000323 cycles: 70529810 heartbeat IPC: 0.4316 cumulative IPC: 0.4489 (Simulation time: 00 hr 17 min 07 sec)
Heartbeat CPU 0 instructions: 66500324 cycles: 71328103 heartbeat IPC: 0.6263 cumulative IPC: 0.4528 (Simulation time: 00 hr 17 min 17 sec)
Heartbeat CPU 0 instructions: 67000325 cycles: 72285860 heartbeat IPC: 0.5221 cumulative IPC: 0.4546 (Simulation time: 00 hr 17 min 27 sec)
Heartbeat CPU 0 instructions: 67500326 cycles: 73079522 heartbeat IPC: 0.63 cumulative IPC: 0.4582 (Simulation time: 00 hr 17 min 36 sec)
Heartbeat CPU 0 instructions: 68000332 cycles: 74198237 heartbeat IPC: 0.4469 cumulative IPC: 0.4579 (Simulation time: 00 hr 17 min 49 sec)
Heartbeat CPU 0 instructions: 68500335 cycles: 75350259 heartbeat IPC: 0.434 cumulative IPC: 0.4572 (Simulation time: 00 hr 18 min 02 sec)
Heartbeat CPU 0 instructions: 69000335 cycles: 76509032 heartbeat IPC: 0.4315 cumulative IPC: 0.4565 (Simulation time: 00 hr 18 min 15 sec)
Heartbeat CPU 0 instructions: 69500338 cycles: 77666042 heartbeat IPC: 0.4322 cumulative IPC: 0.4558 (Simulation time: 00 hr 18 min 28 sec)
Heartbeat CPU 0 instructions: 70000340 cycles: 78848384 heartbeat IPC: 0.4229 cumulative IPC: 0.4549 (Simulation time: 00 hr 18 min 43 sec)
Heartbeat CPU 0 instructions: 70500346 cycles: 80096520 heartbeat IPC: 0.4006 cumulative IPC: 0.4534 (Simulation time: 00 hr 18 min 58 sec)
Heartbeat CPU 0 instructions: 71000348 cycles: 81346473 heartbeat IPC: 0.4 cumulative IPC: 0.452 (Simulation time: 00 hr 19 min 13 sec)
Heartbeat CPU 0 instructions: 71500352 cycles: 82498000 heartbeat IPC: 0.4342 cumulative IPC: 0.4516 (Simulation time: 00 hr 19 min 26 sec)
Heartbeat CPU 0 instructions: 72000353 cycles: 83655351 heartbeat IPC: 0.432 cumulative IPC: 0.4511 (Simulation time: 00 hr 19 min 39 sec)
Heartbeat CPU 0 instructions: 72500356 cycles: 84255518 heartbeat IPC: 0.8331 cumulative IPC: 0.4558 (Simulation time: 00 hr 19 min 47 sec)
Heartbeat CPU 0 instructions: 73000360 cycles: 85143186 heartbeat IPC: 0.5633 cumulative IPC: 0.4577 (Simulation time: 00 hr 19 min 57 sec)
Heartbeat CPU 0 instructions: 73500362 cycles: 86190419 heartbeat IPC: 0.4775 cumulative IPC: 0.4581 (Simulation time: 00 hr 20 min 08 sec)
Heartbeat CPU 0 instructions: 74000365 cycles: 87319874 heartbeat IPC: 0.4427 cumulative IPC: 0.4577 (Simulation time: 00 hr 20 min 21 sec)
Heartbeat CPU 0 instructions: 74500367 cycles: 88474367 heartbeat IPC: 0.4331 cumulative IPC: 0.4572 (Simulation time: 00 hr 20 min 33 sec)
Heartbeat CPU 0 instructions: 75000369 cycles: 89632296 heartbeat IPC: 0.4318 cumulative IPC: 0.4567 (Simulation time: 00 hr 20 min 47 sec)
Heartbeat CPU 0 instructions: 75500370 cycles: 90765702 heartbeat IPC: 0.4411 cumulative IPC: 0.4563 (Simulation time: 00 hr 21 min 00 sec)
Heartbeat CPU 0 instructions: 76000370 cycles: 92012805 heartbeat IPC: 0.4009 cumulative IPC: 0.4551 (Simulation time: 00 hr 21 min 14 sec)
Heartbeat CPU 0 instructions: 76500376 cycles: 93262683 heartbeat IPC: 0.4 cumulative IPC: 0.454 (Simulation time: 00 hr 21 min 29 sec)
Heartbeat CPU 0 instructions: 77000382 cycles: 94466735 heartbeat IPC: 0.4153 cumulative IPC: 0.4532 (Simulation time: 00 hr 21 min 44 sec)
Heartbeat CPU 0 instructions: 77500387 cycles: 95625206 heartbeat IPC: 0.4316 cumulative IPC: 0.4528 (Simulation time: 00 hr 21 min 57 sec)
Heartbeat CPU 0 instructions: 78000394 cycles: 96539618 heartbeat IPC: 0.5468 cumulative IPC: 0.4542 (Simulation time: 00 hr 22 min 07 sec)
Heartbeat CPU 0 instructions: 78500401 cycles: 97374234 heartbeat IPC: 0.5991 cumulative IPC: 0.4561 (Simulation time: 00 hr 22 min 17 sec)
Heartbeat CPU 0 instructions: 79000402 cycles: 98153596 heartbeat IPC: 0.6416 cumulative IPC: 0.4584 (Simulation time: 00 hr 22 min 25 sec)
Heartbeat CPU 0 instructions: 79500408 cycles: 99233120 heartbeat IPC: 0.4632 cumulative IPC: 0.4585 (Simulation time: 00 hr 22 min 37 sec)
Heartbeat CPU 0 instructions: 80000410 cycles: 100348747 heartbeat IPC: 0.4482 cumulative IPC: 0.4583 (Simulation time: 00 hr 22 min 49 sec)
Heartbeat CPU 0 instructions: 80500417 cycles: 101465442 heartbeat IPC: 0.4478 cumulative IPC: 0.4581 (Simulation time: 00 hr 23 min 01 sec)
Heartbeat CPU 0 instructions: 81000419 cycles: 102581095 heartbeat IPC: 0.4482 cumulative IPC: 0.4579 (Simulation time: 00 hr 23 min 13 sec)
Heartbeat CPU 0 instructions: 81500419 cycles: 103703644 heartbeat IPC: 0.4454 cumulative IPC: 0.4577 (Simulation time: 00 hr 23 min 25 sec)
Heartbeat CPU 0 instructions: 82000419 cycles: 104898377 heartbeat IPC: 0.4185 cumulative IPC: 0.4571 (Simulation time: 00 hr 23 min 39 sec)
Heartbeat CPU 0 instructions: 82500420 cycles: 106090216 heartbeat IPC: 0.4195 cumulative IPC: 0.4564 (Simulation time: 00 hr 23 min 52 sec)
Heartbeat CPU 0 instructions: 83000421 cycles: 107200848 heartbeat IPC: 0.4502 cumulative IPC: 0.4563 (Simulation time: 00 hr 24 min 04 sec)
Heartbeat CPU 0 instructions: 83500421 cycles: 108313999 heartbeat IPC: 0.4492 cumulative IPC: 0.4562 (Simulation time: 00 hr 24 min 16 sec)
Heartbeat CPU 0 instructions: 84000424 cycles: 109424582 heartbeat IPC: 0.4502 cumulative IPC: 0.4561 (Simulation time: 00 hr 24 min 27 sec)
Heartbeat CPU 0 instructions: 84500426 cycles: 110536086 heartbeat IPC: 0.4498 cumulative IPC: 0.4561 (Simulation time: 00 hr 24 min 39 sec)
Heartbeat CPU 0 instructions: 85000426 cycles: 111647518 heartbeat IPC: 0.4499 cumulative IPC: 0.456 (Simulation time: 00 hr 24 min 51 sec)
Heartbeat CPU 0 instructions: 85500433 cycles: 112758343 heartbeat IPC: 0.4501 cumulative IPC: 0.4559 (Simulation time: 00 hr 25 min 02 sec)
Heartbeat CPU 0 instructions: 86000435 cycles: 113871056 heartbeat IPC: 0.4494 cumulative IPC: 0.4558 (Simulation time: 00 hr 25 min 14 sec)
Heartbeat CPU 0 instructions: 86500438 cycles: 114984011 heartbeat IPC: 0.4493 cumulative IPC: 0.4557 (Simulation time: 00 hr 25 min 26 sec)
Heartbeat CPU 0 instructions: 87000444 cycles: 116094482 heartbeat IPC: 0.4503 cumulative IPC: 0.4556 (Simulation time: 00 hr 25 min 38 sec)
Heartbeat CPU 0 instructions: 87500444 cycles: 117206549 heartbeat IPC: 0.4496 cumulative IPC: 0.4555 (Simulation time: 00 hr 25 min 49 sec)
Heartbeat CPU 0 instructions: 88000446 cycles: 118316882 heartbeat IPC: 0.4503 cumulative IPC: 0.4555 (Simulation time: 00 hr 26 min 01 sec)
Heartbeat CPU 0 instructions: 88500453 cycles: 119426989 heartbeat IPC: 0.4504 cumulative IPC: 0.4554 (Simulation time: 00 hr 26 min 12 sec)
Heartbeat CPU 0 instructions: 89000455 cycles: 120539447 heartbeat IPC: 0.4495 cumulative IPC: 0.4553 (Simulation time: 00 hr 26 min 24 sec)
Heartbeat CPU 0 instructions: 89500455 cycles: 121650307 heartbeat IPC: 0.4501 cumulative IPC: 0.4553 (Simulation time: 00 hr 26 min 36 sec)
Heartbeat CPU 0 instructions: 90000458 cycles: 122761222 heartbeat IPC: 0.4501 cumulative IPC: 0.4552 (Simulation time: 00 hr 26 min 47 sec)
Heartbeat CPU 0 instructions: 90500464 cycles: 123876277 heartbeat IPC: 0.4484 cumulative IPC: 0.4551 (Simulation time: 00 hr 26 min 59 sec)
Heartbeat CPU 0 instructions: 91000466 cycles: 124986945 heartbeat IPC: 0.4502 cumulative IPC: 0.4551 (Simulation time: 00 hr 27 min 11 sec)
Heartbeat CPU 0 instructions: 91500467 cycles: 126099227 heartbeat IPC: 0.4495 cumulative IPC: 0.455 (Simulation time: 00 hr 27 min 22 sec)
Heartbeat CPU 0 instructions: 92000469 cycles: 127211417 heartbeat IPC: 0.4496 cumulative IPC: 0.4549 (Simulation time: 00 hr 27 min 34 sec)
Heartbeat CPU 0 instructions: 92500471 cycles: 128322472 heartbeat IPC: 0.45 cumulative IPC: 0.4549 (Simulation time: 00 hr 27 min 46 sec)
Heartbeat CPU 0 instructions: 93000475 cycles: 129433964 heartbeat IPC: 0.4498 cumulative IPC: 0.4548 (Simulation time: 00 hr 27 min 57 sec)
Heartbeat CPU 0 instructions: 93500478 cycles: 130546712 heartbeat IPC: 0.4493 cumulative IPC: 0.4547 (Simulation time: 00 hr 28 min 09 sec)
Heartbeat CPU 0 instructions: 94000480 cycles: 131656655 heartbeat IPC: 0.4505 cumulative IPC: 0.4547 (Simulation time: 00 hr 28 min 20 sec)
Heartbeat CPU 0 instructions: 94500487 cycles: 132770817 heartbeat IPC: 0.4488 cumulative IPC: 0.4546 (Simulation time: 00 hr 28 min 31 sec)
Heartbeat CPU 0 instructions: 95000489 cycles: 133884647 heartbeat IPC: 0.4489 cumulative IPC: 0.4546 (Simulation time: 00 hr 28 min 43 sec)
Heartbeat CPU 0 instructions: 95500489 cycles: 134995702 heartbeat IPC: 0.45 cumulative IPC: 0.4545 (Simulation time: 00 hr 28 min 54 sec)
Heartbeat CPU 0 instructions: 96000492 cycles: 136107200 heartbeat IPC: 0.4498 cumulative IPC: 0.4545 (Simulation time: 00 hr 29 min 05 sec)
Heartbeat CPU 0 instructions: 96500498 cycles: 137220603 heartbeat IPC: 0.4491 cumulative IPC: 0.4544 (Simulation time: 00 hr 29 min 16 sec)
Heartbeat CPU 0 instructions: 97000500 cycles: 138332240 heartbeat IPC: 0.4498 cumulative IPC: 0.4543 (Simulation time: 00 hr 29 min 27 sec)
Heartbeat CPU 0 instructions: 97500501 cycles: 139445578 heartbeat IPC: 0.4491 cumulative IPC: 0.4543 (Simulation time: 00 hr 29 min 38 sec)
Heartbeat CPU 0 instructions: 98000503 cycles: 140557335 heartbeat IPC: 0.4497 cumulative IPC: 0.4542 (Simulation time: 00 hr 29 min 49 sec)
Heartbeat CPU 0 instructions: 98500509 cycles: 141671887 heartbeat IPC: 0.4486 cumulative IPC: 0.4542 (Simulation time: 00 hr 30 min 00 sec)
Heartbeat CPU 0 instructions: 99000509 cycles: 142784168 heartbeat IPC: 0.4495 cumulative IPC: 0.4541 (Simulation time: 00 hr 30 min 11 sec)
Heartbeat CPU 0 instructions: 99500512 cycles: 143896992 heartbeat IPC: 0.4493 cumulative IPC: 0.4541 (Simulation time: 00 hr 30 min 22 sec)
Heartbeat CPU 0 instructions: 100000514 cycles: 145009398 heartbeat IPC: 0.4495 cumulative IPC: 0.454 (Simulation time: 00 hr 30 min 32 sec)
Heartbeat CPU 0 instructions: 100500521 cycles: 146123392 heartbeat IPC: 0.4488 cumulative IPC: 0.454 (Simulation time: 00 hr 30 min 43 sec)
Heartbeat CPU 0 instructions: 101000527 cycles: 147235860 heartbeat IPC: 0.4495 cumulative IPC: 0.4539 (Simulation time: 00 hr 30 min 54 sec)
Heartbeat CPU 0 instructions: 101500529 cycles: 148471245 heartbeat IPC: 0.4047 cumulative IPC: 0.4534 (Simulation time: 00 hr 31 min 04 sec)
Heartbeat CPU 0 instructions: 102000532 cycles: 148809544 heartbeat IPC: 1.478 cumulative IPC: 0.4565 (Simulation time: 00 hr 31 min 07 sec)
Heartbeat CPU 0 instructions: 102500532 cycles: 149228716 heartbeat IPC: 1.193 cumulative IPC: 0.4592 (Simulation time: 00 hr 31 min 11 sec)
Heartbeat CPU 0 instructions: 103000539 cycles: 149524328 heartbeat IPC: 1.691 cumulative IPC: 0.4623 (Simulation time: 00 hr 31 min 14 sec)
Heartbeat CPU 0 instructions: 103500539 cycles: 149777332 heartbeat IPC: 1.976 cumulative IPC: 0.4657 (Simulation time: 00 hr 31 min 17 sec)
Heartbeat CPU 0 instructions: 104000539 cycles: 150302246 heartbeat IPC: 0.9525 cumulative IPC: 0.4679 (Simulation time: 00 hr 31 min 21 sec)
Heartbeat CPU 0 instructions: 104500545 cycles: 150771953 heartbeat IPC: 1.065 cumulative IPC: 0.4703 (Simulation time: 00 hr 31 min 25 sec)
Heartbeat CPU 0 instructions: 105000549 cycles: 151015351 heartbeat IPC: 2.054 cumulative IPC: 0.4736 (Simulation time: 00 hr 31 min 27 sec)
Heartbeat CPU 0 instructions: 105500553 cycles: 151238963 heartbeat IPC: 2.236 cumulative IPC: 0.477 (Simulation time: 00 hr 31 min 29 sec)
Heartbeat CPU 0 instructions: 106000554 cycles: 151468175 heartbeat IPC: 2.181 cumulative IPC: 0.4804 (Simulation time: 00 hr 31 min 32 sec)
Heartbeat CPU 0 instructions: 106500554 cycles: 151956995 heartbeat IPC: 1.023 cumulative IPC: 0.4826 (Simulation time: 00 hr 31 min 36 sec)
Heartbeat CPU 0 instructions: 107000556 cycles: 152437580 heartbeat IPC: 1.04 cumulative IPC: 0.4849 (Simulation time: 00 hr 31 min 39 sec)
Heartbeat CPU 0 instructions: 107500561 cycles: 153485377 heartbeat IPC: 0.4772 cumulative IPC: 0.4848 (Simulation time: 00 hr 31 min 48 sec)
Heartbeat CPU 0 instructions: 108000567 cycles: 154698108 heartbeat IPC: 0.4123 cumulative IPC: 0.4841 (Simulation time: 00 hr 32 min 00 sec)
Heartbeat CPU 0 instructions: 108500571 cycles: 155312910 heartbeat IPC: 0.8133 cumulative IPC: 0.4858 (Simulation time: 00 hr 32 min 06 sec)
Heartbeat CPU 0 instructions: 109000571 cycles: 156457041 heartbeat IPC: 0.437 cumulative IPC: 0.4853 (Simulation time: 00 hr 32 min 17 sec)
Heartbeat CPU 0 instructions: 109500573 cycles: 157326623 heartbeat IPC: 0.575 cumulative IPC: 0.486 (Simulation time: 00 hr 32 min 25 sec)
Heartbeat CPU 0 instructions: 110000575 cycles: 158424723 heartbeat IPC: 0.4553 cumulative IPC: 0.4857 (Simulation time: 00 hr 32 min 36 sec)
Heartbeat CPU 0 instructions: 110500582 cycles: 159560024 heartbeat IPC: 0.4404 cumulative IPC: 0.4853 (Simulation time: 00 hr 32 min 46 sec)
Heartbeat CPU 0 instructions: 111000584 cycles: 160697672 heartbeat IPC: 0.4395 cumulative IPC: 0.4849 (Simulation time: 00 hr 32 min 57 sec)
Heartbeat CPU 0 instructions: 111500587 cycles: 161792610 heartbeat IPC: 0.4566 cumulative IPC: 0.4846 (Simulation time: 00 hr 33 min 08 sec)
Heartbeat CPU 0 instructions: 112000587 cycles: 162994598 heartbeat IPC: 0.416 cumulative IPC: 0.484 (Simulation time: 00 hr 33 min 20 sec)
Heartbeat CPU 0 instructions: 112500591 cycles: 164195745 heartbeat IPC: 0.4163 cumulative IPC: 0.4833 (Simulation time: 00 hr 33 min 32 sec)
Heartbeat CPU 0 instructions: 113000593 cycles: 165396872 heartbeat IPC: 0.4163 cumulative IPC: 0.4827 (Simulation time: 00 hr 33 min 44 sec)
Heartbeat CPU 0 instructions: 113500600 cycles: 166505281 heartbeat IPC: 0.4511 cumulative IPC: 0.4825 (Simulation time: 00 hr 33 min 54 sec)
Heartbeat CPU 0 instructions: 114000601 cycles: 167586712 heartbeat IPC: 0.4624 cumulative IPC: 0.4823 (Simulation time: 00 hr 34 min 05 sec)
Heartbeat CPU 0 instructions: 114500602 cycles: 168223871 heartbeat IPC: 0.7847 cumulative IPC: 0.4837 (Simulation time: 00 hr 34 min 11 sec)
Heartbeat CPU 0 instructions: 115000606 cycles: 169027434 heartbeat IPC: 0.6222 cumulative IPC: 0.4846 (Simulation time: 00 hr 34 min 19 sec)
Heartbeat CPU 0 instructions: 115500609 cycles: 170124282 heartbeat IPC: 0.4559 cumulative IPC: 0.4843 (Simulation time: 00 hr 34 min 29 sec)
Heartbeat CPU 0 instructions: 116000609 cycles: 171254724 heartbeat IPC: 0.4423 cumulative IPC: 0.484 (Simulation time: 00 hr 34 min 40 sec)
Heartbeat CPU 0 instructions: 116500611 cycles: 172392402 heartbeat IPC: 0.4395 cumulative IPC: 0.4836 (Simulation time: 00 hr 34 min 51 sec)
Heartbeat CPU 0 instructions: 117000612 cycles: 173528783 heartbeat IPC: 0.44 cumulative IPC: 0.4833 (Simulation time: 00 hr 35 min 02 sec)
Heartbeat CPU 0 instructions: 117500613 cycles: 174505303 heartbeat IPC: 0.512 cumulative IPC: 0.4835 (Simulation time: 00 hr 35 min 11 sec)
Heartbeat CPU 0 instructions: 118000619 cycles: 175709980 heartbeat IPC: 0.4151 cumulative IPC: 0.4829 (Simulation time: 00 hr 35 min 23 sec)
Heartbeat CPU 0 instructions: 118500621 cycles: 176911109 heartbeat IPC: 0.4163 cumulative IPC: 0.4823 (Simulation time: 00 hr 35 min 35 sec)
Heartbeat CPU 0 instructions: 119000624 cycles: 178054060 heartbeat IPC: 0.4375 cumulative IPC: 0.482 (Simulation time: 00 hr 35 min 47 sec)
Heartbeat CPU 0 instructions: 119500630 cycles: 179192351 heartbeat IPC: 0.4393 cumulative IPC: 0.4816 (Simulation time: 00 hr 35 min 57 sec)
Heartbeat CPU 0 instructions: 120000637 cycles: 179874194 heartbeat IPC: 0.7333 cumulative IPC: 0.4828 (Simulation time: 00 hr 36 min 04 sec)
Heartbeat CPU 0 instructions: 120500637 cycles: 180914098 heartbeat IPC: 0.4808 cumulative IPC: 0.4828 (Simulation time: 00 hr 36 min 14 sec)
Heartbeat CPU 0 instructions: 121000640 cycles: 181718841 heartbeat IPC: 0.6213 cumulative IPC: 0.4835 (Simulation time: 00 hr 36 min 22 sec)
Heartbeat CPU 0 instructions: 121500640 cycles: 182818046 heartbeat IPC: 0.4549 cumulative IPC: 0.4833 (Simulation time: 00 hr 36 min 32 sec)
Heartbeat CPU 0 instructions: 122000646 cycles: 183956415 heartbeat IPC: 0.4392 cumulative IPC: 0.483 (Simulation time: 00 hr 36 min 43 sec)
Heartbeat CPU 0 instructions: 122500647 cycles: 185092260 heartbeat IPC: 0.4402 cumulative IPC: 0.4827 (Simulation time: 00 hr 36 min 54 sec)
Heartbeat CPU 0 instructions: 123000651 cycles: 186182853 heartbeat IPC: 0.4585 cumulative IPC: 0.4825 (Simulation time: 00 hr 37 min 04 sec)
Heartbeat CPU 0 instructions: 123500657 cycles: 187385022 heartbeat IPC: 0.4159 cumulative IPC: 0.482 (Simulation time: 00 hr 37 min 16 sec)
Heartbeat CPU 0 instructions: 124000657 cycles: 188587300 heartbeat IPC: 0.4159 cumulative IPC: 0.4815 (Simulation time: 00 hr 37 min 28 sec)
Heartbeat CPU 0 instructions: 124500657 cycles: 189784549 heartbeat IPC: 0.4176 cumulative IPC: 0.481 (Simulation time: 00 hr 37 min 40 sec)
Heartbeat CPU 0 instructions: 125000658 cycles: 190898280 heartbeat IPC: 0.4489 cumulative IPC: 0.4807 (Simulation time: 00 hr 37 min 51 sec)
Heartbeat CPU 0 instructions: 125500665 cycles: 192034882 heartbeat IPC: 0.4399 cumulative IPC: 0.4804 (Simulation time: 00 hr 38 min 01 sec)
Heartbeat CPU 0 instructions: 126000672 cycles: 192616087 heartbeat IPC: 0.8603 cumulative IPC: 0.4818 (Simulation time: 00 hr 38 min 07 sec)
Heartbeat CPU 0 instructions: 126500675 cycles: 193422442 heartbeat IPC: 0.6201 cumulative IPC: 0.4825 (Simulation time: 00 hr 38 min 15 sec)
Heartbeat CPU 0 instructions: 127000675 cycles: 194474659 heartbeat IPC: 0.4752 cumulative IPC: 0.4825 (Simulation time: 00 hr 38 min 25 sec)
Heartbeat CPU 0 instructions: 127500680 cycles: 195562081 heartbeat IPC: 0.4598 cumulative IPC: 0.4823 (Simulation time: 00 hr 38 min 36 sec)
Heartbeat CPU 0 instructions: 128000684 cycles: 196650171 heartbeat IPC: 0.4595 cumulative IPC: 0.4822 (Simulation time: 00 hr 38 min 46 sec)
Heartbeat CPU 0 instructions: 128500686 cycles: 197738828 heartbeat IPC: 0.4593 cumulative IPC: 0.482 (Simulation time: 00 hr 38 min 57 sec)
Heartbeat CPU 0 instructions: 129000689 cycles: 198827921 heartbeat IPC: 0.4591 cumulative IPC: 0.4819 (Simulation time: 00 hr 39 min 07 sec)
Heartbeat CPU 0 instructions: 129500691 cycles: 200012253 heartbeat IPC: 0.4222 cumulative IPC: 0.4815 (Simulation time: 00 hr 39 min 19 sec)
Heartbeat CPU 0 instructions: 130000691 cycles: 201194133 heartbeat IPC: 0.4231 cumulative IPC: 0.481 (Simulation time: 00 hr 39 min 31 sec)
Heartbeat CPU 0 instructions: 130500698 cycles: 202318700 heartbeat IPC: 0.4446 cumulative IPC: 0.4808 (Simulation time: 00 hr 39 min 42 sec)
Heartbeat CPU 0 instructions: 131000704 cycles: 203410558 heartbeat IPC: 0.4579 cumulative IPC: 0.4806 (Simulation time: 00 hr 39 min 53 sec)
Heartbeat CPU 0 instructions: 131500705 cycles: 204151507 heartbeat IPC: 0.6748 cumulative IPC: 0.4815 (Simulation time: 00 hr 40 min 00 sec)
Heartbeat CPU 0 instructions: 132000710 cycles: 205062394 heartbeat IPC: 0.5489 cumulative IPC: 0.4819 (Simulation time: 00 hr 40 min 09 sec)
Heartbeat CPU 0 instructions: 132500713 cycles: 205860475 heartbeat IPC: 0.6265 cumulative IPC: 0.4825 (Simulation time: 00 hr 40 min 17 sec)
Heartbeat CPU 0 instructions: 133000713 cycles: 206945262 heartbeat IPC: 0.4609 cumulative IPC: 0.4824 (Simulation time: 00 hr 40 min 27 sec)
Heartbeat CPU 0 instructions: 133500713 cycles: 208065796 heartbeat IPC: 0.4462 cumulative IPC: 0.4822 (Simulation time: 00 hr 40 min 38 sec)
Heartbeat CPU 0 instructions: 134000719 cycles: 209188218 heartbeat IPC: 0.4455 cumulative IPC: 0.4819 (Simulation time: 00 hr 40 min 48 sec)
Heartbeat CPU 0 instructions: 134500725 cycles: 210304067 heartbeat IPC: 0.4481 cumulative IPC: 0.4817 (Simulation time: 00 hr 40 min 59 sec)
Heartbeat CPU 0 instructions: 135000727 cycles: 211461934 heartbeat IPC: 0.4318 cumulative IPC: 0.4814 (Simulation time: 00 hr 41 min 11 sec)
Heartbeat CPU 0 instructions: 135500727 cycles: 212667435 heartbeat IPC: 0.4148 cumulative IPC: 0.4809 (Simulation time: 00 hr 41 min 23 sec)
Heartbeat CPU 0 instructions: 136000733 cycles: 213872810 heartbeat IPC: 0.4148 cumulative IPC: 0.4805 (Simulation time: 00 hr 41 min 35 sec)
Heartbeat CPU 0 instructions: 136500736 cycles: 214986673 heartbeat IPC: 0.4489 cumulative IPC: 0.4803 (Simulation time: 00 hr 41 min 45 sec)
Heartbeat CPU 0 instructions: 137000740 cycles: 216105892 heartbeat IPC: 0.4467 cumulative IPC: 0.4801 (Simulation time: 00 hr 41 min 56 sec)
Heartbeat CPU 0 instructions: 137500747 cycles: 216691683 heartbeat IPC: 0.8536 cumulative IPC: 0.4813 (Simulation time: 00 hr 42 min 02 sec)
Heartbeat CPU 0 instructions: 138000752 cycles: 217543747 heartbeat IPC: 0.5868 cumulative IPC: 0.4818 (Simulation time: 00 hr 42 min 10 sec)
Heartbeat CPU 0 instructions: 138500756 cycles: 218548191 heartbeat IPC: 0.4978 cumulative IPC: 0.4819 (Simulation time: 00 hr 42 min 20 sec)
Heartbeat CPU 0 instructions: 139000756 cycles: 219639409 heartbeat IPC: 0.4582 cumulative IPC: 0.4817 (Simulation time: 00 hr 42 min 30 sec)
Heartbeat CPU 0 instructions: 139500756 cycles: 220727857 heartbeat IPC: 0.4594 cumulative IPC: 0.4816 (Simulation time: 00 hr 42 min 41 sec)
Heartbeat CPU 0 instructions: 140000757 cycles: 221815875 heartbeat IPC: 0.4596 cumulative IPC: 0.4815 (Simulation time: 00 hr 42 min 51 sec)
Heartbeat CPU 0 instructions: 140500757 cycles: 222892340 heartbeat IPC: 0.4645 cumulative IPC: 0.4814 (Simulation time: 00 hr 43 min 02 sec)
Heartbeat CPU 0 instructions: 141000757 cycles: 224072422 heartbeat IPC: 0.4237 cumulative IPC: 0.481 (Simulation time: 00 hr 43 min 13 sec)
Heartbeat CPU 0 instructions: 141500762 cycles: 225261057 heartbeat IPC: 0.4207 cumulative IPC: 0.4806 (Simulation time: 00 hr 43 min 25 sec)
Heartbeat CPU 0 instructions: 142000763 cycles: 226404691 heartbeat IPC: 0.4372 cumulative IPC: 0.4804 (Simulation time: 00 hr 43 min 37 sec)
Heartbeat CPU 0 instructions: 142500767 cycles: 227510749 heartbeat IPC: 0.4521 cumulative IPC: 0.4802 (Simulation time: 00 hr 43 min 47 sec)
Heartbeat CPU 0 instructions: 143000769 cycles: 228353917 heartbeat IPC: 0.593 cumulative IPC: 0.4807 (Simulation time: 00 hr 43 min 55 sec)
Heartbeat CPU 0 instructions: 143500774 cycles: 229193123 heartbeat IPC: 0.5958 cumulative IPC: 0.4812 (Simulation time: 00 hr 44 min 04 sec)
Heartbeat CPU 0 instructions: 144000777 cycles: 229987999 heartbeat IPC: 0.629 cumulative IPC: 0.4818 (Simulation time: 00 hr 44 min 11 sec)
Heartbeat CPU 0 instructions: 144500783 cycles: 231038684 heartbeat IPC: 0.4759 cumulative IPC: 0.4818 (Simulation time: 00 hr 44 min 21 sec)
Heartbeat CPU 0 instructions: 145000784 cycles: 232126252 heartbeat IPC: 0.4597 cumulative IPC: 0.4817 (Simulation time: 00 hr 44 min 32 sec)
Heartbeat CPU 0 instructions: 145500784 cycles: 233214376 heartbeat IPC: 0.4595 cumulative IPC: 0.4815 (Simulation time: 00 hr 44 min 42 sec)
Heartbeat CPU 0 instructions: 146000790 cycles: 234300671 heartbeat IPC: 0.4603 cumulative IPC: 0.4814 (Simulation time: 00 hr 44 min 52 sec)
Heartbeat CPU 0 instructions: 146500795 cycles: 235418767 heartbeat IPC: 0.4472 cumulative IPC: 0.4812 (Simulation time: 00 hr 45 min 04 sec)
Heartbeat CPU 0 instructions: 147000795 cycles: 236597257 heartbeat IPC: 0.4243 cumulative IPC: 0.4809 (Simulation time: 00 hr 45 min 15 sec)
Heartbeat CPU 0 instructions: 147500798 cycles: 237778542 heartbeat IPC: 0.4233 cumulative IPC: 0.4806 (Simulation time: 00 hr 45 min 27 sec)
Heartbeat CPU 0 instructions: 148000798 cycles: 238866935 heartbeat IPC: 0.4594 cumulative IPC: 0.4804 (Simulation time: 00 hr 45 min 37 sec)
Heartbeat CPU 0 instructions: 148500800 cycles: 239955372 heartbeat IPC: 0.4594 cumulative IPC: 0.4803 (Simulation time: 00 hr 45 min 48 sec)
Heartbeat CPU 0 instructions: 149000801 cycles: 240517506 heartbeat IPC: 0.8895 cumulative IPC: 0.4814 (Simulation time: 00 hr 45 min 54 sec)
Heartbeat CPU 0 instructions: 149500802 cycles: 241434823 heartbeat IPC: 0.5451 cumulative IPC: 0.4817 (Simulation time: 00 hr 46 min 03 sec)
Heartbeat CPU 0 instructions: 150000807 cycles: 242439024 heartbeat IPC: 0.4979 cumulative IPC: 0.4818 (Simulation time: 00 hr 46 min 12 sec)
Heartbeat CPU 0 instructions: 150500809 cycles: 243564648 heartbeat IPC: 0.4442 cumulative IPC: 0.4816 (Simulation time: 00 hr 46 min 22 sec)
Heartbeat CPU 0 instructions: 151000813 cycles: 244730106 heartbeat IPC: 0.429 cumulative IPC: 0.4813 (Simulation time: 00 hr 46 min 33 sec)
Heartbeat CPU 0 instructions: 151500819 cycles: 245895307 heartbeat IPC: 0.4291 cumulative IPC: 0.481 (Simulation time: 00 hr 46 min 44 sec)
Heartbeat CPU 0 instructions: 152000821 cycles: 247034172 heartbeat IPC: 0.439 cumulative IPC: 0.4808 (Simulation time: 00 hr 46 min 55 sec)
Heartbeat CPU 0 instructions: 152500821 cycles: 248289173 heartbeat IPC: 0.3984 cumulative IPC: 0.4803 (Simulation time: 00 hr 47 min 07 sec)
Heartbeat CPU 0 instructions: 153000827 cycles: 249546240 heartbeat IPC: 0.3978 cumulative IPC: 0.4798 (Simulation time: 00 hr 47 min 19 sec)
Heartbeat CPU 0 instructions: 153500831 cycles: 250761770 heartbeat IPC: 0.4113 cumulative IPC: 0.4794 (Simulation time: 00 hr 47 min 31 sec)
Heartbeat CPU 0 instructions: 154000833 cycles: 251926873 heartbeat IPC: 0.4291 cumulative IPC: 0.4792 (Simulation time: 00 hr 47 min 42 sec)
Heartbeat CPU 0 instructions: 154500833 cycles: 252900421 heartbeat IPC: 0.5136 cumulative IPC: 0.4793 (Simulation time: 00 hr 47 min 51 sec)
Heartbeat CPU 0 instructions: 155000837 cycles: 253685579 heartbeat IPC: 0.6368 cumulative IPC: 0.4799 (Simulation time: 00 hr 47 min 59 sec)
Heartbeat CPU 0 instructions: 155500838 cycles: 254497182 heartbeat IPC: 0.6161 cumulative IPC: 0.4804 (Simulation time: 00 hr 48 min 07 sec)
Heartbeat CPU 0 instructions: 156000843 cycles: 255550589 heartbeat IPC: 0.4747 cumulative IPC: 0.4804 (Simulation time: 00 hr 48 min 17 sec)
Heartbeat CPU 0 instructions: 156500844 cycles: 256638881 heartbeat IPC: 0.4594 cumulative IPC: 0.4803 (Simulation time: 00 hr 48 min 27 sec)
Heartbeat CPU 0 instructions: 157000845 cycles: 257730345 heartbeat IPC: 0.4581 cumulative IPC: 0.4802 (Simulation time: 00 hr 48 min 37 sec)
Heartbeat CPU 0 instructions: 157500845 cycles: 258819067 heartbeat IPC: 0.4593 cumulative IPC: 0.4801 (Simulation time: 00 hr 48 min 48 sec)
Heartbeat CPU 0 instructions: 158000849 cycles: 259927499 heartbeat IPC: 0.4511 cumulative IPC: 0.4799 (Simulation time: 00 hr 48 min 59 sec)
Heartbeat CPU 0 instructions: 158500855 cycles: 261106810 heartbeat IPC: 0.424 cumulative IPC: 0.4796 (Simulation time: 00 hr 49 min 10 sec)
Heartbeat CPU 0 instructions: 159000858 cycles: 262282698 heartbeat IPC: 0.4252 cumulative IPC: 0.4793 (Simulation time: 00 hr 49 min 22 sec)
Heartbeat CPU 0 instructions: 159500859 cycles: 263383270 heartbeat IPC: 0.4543 cumulative IPC: 0.4792 (Simulation time: 00 hr 49 min 33 sec)
Heartbeat CPU 0 instructions: 160000865 cycles: 264471869 heartbeat IPC: 0.4593 cumulative IPC: 0.4791 (Simulation time: 00 hr 49 min 43 sec)
Heartbeat CPU 0 instructions: 160500872 cycles: 265031469 heartbeat IPC: 0.8935 cumulative IPC: 0.4801 (Simulation time: 00 hr 49 min 49 sec)
Heartbeat CPU 0 instructions: 161000874 cycles: 266043146 heartbeat IPC: 0.4942 cumulative IPC: 0.4802 (Simulation time: 00 hr 49 min 59 sec)
Heartbeat CPU 0 instructions: 161500875 cycles: 266925965 heartbeat IPC: 0.5664 cumulative IPC: 0.4805 (Simulation time: 00 hr 50 min 07 sec)
Heartbeat CPU 0 instructions: 162000879 cycles: 268025256 heartbeat IPC: 0.4548 cumulative IPC: 0.4804 (Simulation time: 00 hr 50 min 18 sec)
Heartbeat CPU 0 instructions: 162500882 cycles: 269153161 heartbeat IPC: 0.4433 cumulative IPC: 0.4802 (Simulation time: 00 hr 50 min 28 sec)
Heartbeat CPU 0 instructions: 163000882 cycles: 270315752 heartbeat IPC: 0.4301 cumulative IPC: 0.48 (Simulation time: 00 hr 50 min 39 sec)
Heartbeat CPU 0 instructions: 163500883 cycles: 271327387 heartbeat IPC: 0.4943 cumulative IPC: 0.48 (Simulation time: 00 hr 50 min 49 sec)
Heartbeat CPU 0 instructions: 164000885 cycles: 272303749 heartbeat IPC: 0.5121 cumulative IPC: 0.4802 (Simulation time: 00 hr 51 min 00 sec)
Heartbeat CPU 0 instructions: 164500885 cycles: 273250167 heartbeat IPC: 0.5283 cumulative IPC: 0.4804 (Simulation time: 00 hr 51 min 10 sec)
Heartbeat CPU 0 instructions: 165000886 cycles: 274186813 heartbeat IPC: 0.5338 cumulative IPC: 0.4806 (Simulation time: 00 hr 51 min 20 sec)
Heartbeat CPU 0 instructions: 165500888 cycles: 275045165 heartbeat IPC: 0.5825 cumulative IPC: 0.4809 (Simulation time: 00 hr 51 min 28 sec)
Heartbeat CPU 0 instructions: 166000891 cycles: 275869451 heartbeat IPC: 0.6066 cumulative IPC: 0.4814 (Simulation time: 00 hr 51 min 37 sec)
Heartbeat CPU 0 instructions: 166500891 cycles: 276425932 heartbeat IPC: 0.8985 cumulative IPC: 0.4823 (Simulation time: 00 hr 51 min 43 sec)
Heartbeat CPU 0 instructions: 167000896 cycles: 277092019 heartbeat IPC: 0.7507 cumulative IPC: 0.4831 (Simulation time: 00 hr 51 min 50 sec)
Heartbeat CPU 0 instructions: 167500897 cycles: 277955136 heartbeat IPC: 0.5793 cumulative IPC: 0.4834 (Simulation time: 00 hr 51 min 58 sec)
Heartbeat CPU 0 instructions: 168000899 cycles: 278853340 heartbeat IPC: 0.5567 cumulative IPC: 0.4837 (Simulation time: 00 hr 52 min 08 sec)
Heartbeat CPU 0 instructions: 168500899 cycles: 279749706 heartbeat IPC: 0.5578 cumulative IPC: 0.4839 (Simulation time: 00 hr 52 min 17 sec)
Heartbeat CPU 0 instructions: 169000906 cycles: 280644426 heartbeat IPC: 0.5588 cumulative IPC: 0.4842 (Simulation time: 00 hr 52 min 26 sec)
Heartbeat CPU 0 instructions: 169500906 cycles: 281547470 heartbeat IPC: 0.5537 cumulative IPC: 0.4845 (Simulation time: 00 hr 52 min 35 sec)
Heartbeat CPU 0 instructions: 170000911 cycles: 282509507 heartbeat IPC: 0.5197 cumulative IPC: 0.4846 (Simulation time: 00 hr 52 min 45 sec)
Heartbeat CPU 0 instructions: 170500912 cycles: 283460257 heartbeat IPC: 0.5259 cumulative IPC: 0.4848 (Simulation time: 00 hr 52 min 55 sec)
Heartbeat CPU 0 instructions: 171000918 cycles: 284361031 heartbeat IPC: 0.5551 cumulative IPC: 0.485 (Simulation time: 00 hr 53 min 05 sec)
Heartbeat CPU 0 instructions: 171500925 cycles: 285249964 heartbeat IPC: 0.5625 cumulative IPC: 0.4853 (Simulation time: 00 hr 53 min 14 sec)
Heartbeat CPU 0 instructions: 172000928 cycles: 285776779 heartbeat IPC: 0.9491 cumulative IPC: 0.4863 (Simulation time: 00 hr 53 min 19 sec)
Heartbeat CPU 0 instructions: 172500935 cycles: 286616216 heartbeat IPC: 0.5956 cumulative IPC: 0.4866 (Simulation time: 00 hr 53 min 28 sec)
Heartbeat CPU 0 instructions: 173000936 cycles: 287291233 heartbeat IPC: 0.7407 cumulative IPC: 0.4873 (Simulation time: 00 hr 53 min 35 sec)
Heartbeat CPU 0 instructions: 173500936 cycles: 288153610 heartbeat IPC: 0.5798 cumulative IPC: 0.4876 (Simulation time: 00 hr 53 min 43 sec)
Heartbeat CPU 0 instructions: 174000942 cycles: 289048261 heartbeat IPC: 0.5589 cumulative IPC: 0.4879 (Simulation time: 00 hr 53 min 53 sec)
Heartbeat CPU 0 instructions: 174500945 cycles: 289939937 heartbeat IPC: 0.5607 cumulative IPC: 0.4881 (Simulation time: 00 hr 54 min 02 sec)
Heartbeat CPU 0 instructions: 175000947 cycles: 290805475 heartbeat IPC: 0.5777 cumulative IPC: 0.4884 (Simulation time: 00 hr 54 min 10 sec)
Heartbeat CPU 0 instructions: 175500953 cycles: 291750884 heartbeat IPC: 0.5289 cumulative IPC: 0.4886 (Simulation time: 00 hr 54 min 20 sec)
Heartbeat CPU 0 instructions: 176000955 cycles: 292693489 heartbeat IPC: 0.5304 cumulative IPC: 0.4887 (Simulation time: 00 hr 54 min 30 sec)
Heartbeat CPU 0 instructions: 176500962 cycles: 293634840 heartbeat IPC: 0.5312 cumulative IPC: 0.4889 (Simulation time: 00 hr 54 min 40 sec)
Heartbeat CPU 0 instructions: 177000969 cycles: 294495007 heartbeat IPC: 0.5813 cumulative IPC: 0.4892 (Simulation time: 00 hr 54 min 49 sec)
Heartbeat CPU 0 instructions: 177500973 cycles: 295373785 heartbeat IPC: 0.569 cumulative IPC: 0.4895 (Simulation time: 00 hr 54 min 58 sec)
Heartbeat CPU 0 instructions: 178000973 cycles: 295852309 heartbeat IPC: 1.045 cumulative IPC: 0.4905 (Simulation time: 00 hr 55 min 03 sec)
Heartbeat CPU 0 instructions: 178500974 cycles: 296533123 heartbeat IPC: 0.7344 cumulative IPC: 0.4911 (Simulation time: 00 hr 55 min 10 sec)
Heartbeat CPU 0 instructions: 179000979 cycles: 297381812 heartbeat IPC: 0.5891 cumulative IPC: 0.4914 (Simulation time: 00 hr 55 min 19 sec)
Heartbeat CPU 0 instructions: 179500979 cycles: 298260283 heartbeat IPC: 0.5692 cumulative IPC: 0.4917 (Simulation time: 00 hr 55 min 28 sec)
Heartbeat CPU 0 instructions: 180000980 cycles: 299137607 heartbeat IPC: 0.5699 cumulative IPC: 0.492 (Simulation time: 00 hr 55 min 37 sec)
Heartbeat CPU 0 instructions: 180500980 cycles: 300015795 heartbeat IPC: 0.5694 cumulative IPC: 0.4922 (Simulation time: 00 hr 55 min 46 sec)
Heartbeat CPU 0 instructions: 181000981 cycles: 300900627 heartbeat IPC: 0.5651 cumulative IPC: 0.4925 (Simulation time: 00 hr 55 min 55 sec)
Heartbeat CPU 0 instructions: 181500983 cycles: 301847111 heartbeat IPC: 0.5283 cumulative IPC: 0.4926 (Simulation time: 00 hr 56 min 05 sec)
Heartbeat CPU 0 instructions: 182000984 cycles: 302800192 heartbeat IPC: 0.5246 cumulative IPC: 0.4927 (Simulation time: 00 hr 56 min 15 sec)
Heartbeat CPU 0 instructions: 182500984 cycles: 303713335 heartbeat IPC: 0.5476 cumulative IPC: 0.4929 (Simulation time: 00 hr 56 min 25 sec)
Heartbeat CPU 0 instructions: 183000988 cycles: 304611894 heartbeat IPC: 0.5565 cumulative IPC: 0.4931 (Simulation time: 00 hr 56 min 34 sec)
Heartbeat CPU 0 instructions: 183500994 cycles: 305211719 heartbeat IPC: 0.8336 cumulative IPC: 0.4939 (Simulation time: 00 hr 56 min 40 sec)
Heartbeat CPU 0 instructions: 184000994 cycles: 306005996 heartbeat IPC: 0.6295 cumulative IPC: 0.4943 (Simulation time: 00 hr 56 min 49 sec)
Heartbeat CPU 0 instructions: 184500994 cycles: 306658706 heartbeat IPC: 0.766 cumulative IPC: 0.4949 (Simulation time: 00 hr 56 min 55 sec)
Heartbeat CPU 0 instructions: 185000995 cycles: 307518397 heartbeat IPC: 0.5816 cumulative IPC: 0.4952 (Simulation time: 00 hr 57 min 04 sec)
Heartbeat CPU 0 instructions: 185500997 cycles: 308411561 heartbeat IPC: 0.5598 cumulative IPC: 0.4954 (Simulation time: 00 hr 57 min 13 sec)
Heartbeat CPU 0 instructions: 186001001 cycles: 309298597 heartbeat IPC: 0.5637 cumulative IPC: 0.4956 (Simulation time: 00 hr 57 min 22 sec)
Heartbeat CPU 0 instructions: 186501006 cycles: 310168627 heartbeat IPC: 0.5747 cumulative IPC: 0.4959 (Simulation time: 00 hr 57 min 31 sec)
Heartbeat CPU 0 instructions: 187001007 cycles: 311122110 heartbeat IPC: 0.5244 cumulative IPC: 0.496 (Simulation time: 00 hr 57 min 41 sec)
Heartbeat CPU 0 instructions: 187501007 cycles: 312081627 heartbeat IPC: 0.5211 cumulative IPC: 0.496 (Simulation time: 00 hr 57 min 51 sec)
Heartbeat CPU 0 instructions: 188001014 cycles: 313036170 heartbeat IPC: 0.5238 cumulative IPC: 0.4961 (Simulation time: 00 hr 58 min 02 sec)
Heartbeat CPU 0 instructions: 188501017 cycles: 313925026 heartbeat IPC: 0.5625 cumulative IPC: 0.4964 (Simulation time: 00 hr 58 min 11 sec)
Heartbeat CPU 0 instructions: 189001024 cycles: 314819599 heartbeat IPC: 0.5589 cumulative IPC: 0.4966 (Simulation time: 00 hr 58 min 20 sec)
Heartbeat CPU 0 instructions: 189501031 cycles: 315311865 heartbeat IPC: 1.016 cumulative IPC: 0.4975 (Simulation time: 00 hr 58 min 25 sec)
Heartbeat CPU 0 instructions: 190001037 cycles: 315987395 heartbeat IPC: 0.7402 cumulative IPC: 0.498 (Simulation time: 00 hr 58 min 32 sec)
Heartbeat CPU 0 instructions: 190501040 cycles: 316836573 heartbeat IPC: 0.5888 cumulative IPC: 0.4983 (Simulation time: 00 hr 58 min 41 sec)
Heartbeat CPU 0 instructions: 191001040 cycles: 317736147 heartbeat IPC: 0.5558 cumulative IPC: 0.4985 (Simulation time: 00 hr 58 min 50 sec)
Heartbeat CPU 0 instructions: 191501044 cycles: 318637838 heartbeat IPC: 0.5545 cumulative IPC: 0.4987 (Simulation time: 00 hr 58 min 59 sec)
Heartbeat CPU 0 instructions: 192001045 cycles: 319524729 heartbeat IPC: 0.5638 cumulative IPC: 0.4989 (Simulation time: 00 hr 59 min 08 sec)
Heartbeat CPU 0 instructions: 192501049 cycles: 320402346 heartbeat IPC: 0.5697 cumulative IPC: 0.4991 (Simulation time: 00 hr 59 min 17 sec)
Heartbeat CPU 0 instructions: 193001049 cycles: 321350741 heartbeat IPC: 0.5272 cumulative IPC: 0.4992 (Simulation time: 00 hr 59 min 27 sec)
Heartbeat CPU 0 instructions: 193501052 cycles: 322308959 heartbeat IPC: 0.5218 cumulative IPC: 0.4993 (Simulation time: 00 hr 59 min 37 sec)
Heartbeat CPU 0 instructions: 194001053 cycles: 323234702 heartbeat IPC: 0.5401 cumulative IPC: 0.4994 (Simulation time: 00 hr 59 min 47 sec)
Heartbeat CPU 0 instructions: 194501055 cycles: 324133010 heartbeat IPC: 0.5566 cumulative IPC: 0.4996 (Simulation time: 00 hr 59 min 56 sec)
Heartbeat CPU 0 instructions: 195001056 cycles: 324797882 heartbeat IPC: 0.752 cumulative IPC: 0.5002 (Simulation time: 01 hr 00 min 03 sec)
Heartbeat CPU 0 instructions: 195501056 cycles: 325517793 heartbeat IPC: 0.6945 cumulative IPC: 0.5006 (Simulation time: 01 hr 00 min 10 sec)
Heartbeat CPU 0 instructions: 196001059 cycles: 326179623 heartbeat IPC: 0.7555 cumulative IPC: 0.5012 (Simulation time: 01 hr 00 min 17 sec)
Heartbeat CPU 0 instructions: 196501059 cycles: 327042240 heartbeat IPC: 0.5796 cumulative IPC: 0.5014 (Simulation time: 01 hr 00 min 26 sec)
Heartbeat CPU 0 instructions: 197001060 cycles: 327928802 heartbeat IPC: 0.564 cumulative IPC: 0.5016 (Simulation time: 01 hr 00 min 35 sec)
Heartbeat CPU 0 instructions: 197501066 cycles: 328816465 heartbeat IPC: 0.5633 cumulative IPC: 0.5018 (Simulation time: 01 hr 00 min 44 sec)
Heartbeat CPU 0 instructions: 198001069 cycles: 329694515 heartbeat IPC: 0.5694 cumulative IPC: 0.502 (Simulation time: 01 hr 00 min 53 sec)
Heartbeat CPU 0 instructions: 198501075 cycles: 330600484 heartbeat IPC: 0.5519 cumulative IPC: 0.5022 (Simulation time: 01 hr 01 min 02 sec)
Heartbeat CPU 0 instructions: 199001075 cycles: 331548001 heartbeat IPC: 0.5277 cumulative IPC: 0.5023 (Simulation time: 01 hr 01 min 12 sec)
Heartbeat CPU 0 instructions: 199501080 cycles: 332498443 heartbeat IPC: 0.5261 cumulative IPC: 0.5023 (Simulation time: 01 hr 01 min 22 sec)
Heartbeat CPU 0 instructions: 200001083 cycles: 333386357 heartbeat IPC: 0.5631 cumulative IPC: 0.5025 (Simulation time: 01 hr 01 min 32 sec)
Heartbeat CPU 0 instructions: 200501084 cycles: 334276789 heartbeat IPC: 0.5615 cumulative IPC: 0.5027 (Simulation time: 01 hr 01 min 40 sec)
Heartbeat CPU 0 instructions: 201001091 cycles: 334760841 heartbeat IPC: 1.033 cumulative IPC: 0.5035 (Simulation time: 01 hr 01 min 46 sec)
Heartbeat CPU 0 instructions: 201501097 cycles: 335509794 heartbeat IPC: 0.6676 cumulative IPC: 0.504 (Simulation time: 01 hr 01 min 53 sec)
Heartbeat CPU 0 instructions: 202001097 cycles: 336310818 heartbeat IPC: 0.6242 cumulative IPC: 0.5043 (Simulation time: 01 hr 02 min 01 sec)
Heartbeat CPU 0 instructions: 202501101 cycles: 337167660 heartbeat IPC: 0.5835 cumulative IPC: 0.5045 (Simulation time: 01 hr 02 min 10 sec)
Heartbeat CPU 0 instructions: 203001105 cycles: 338054837 heartbeat IPC: 0.5636 cumulative IPC: 0.5047 (Simulation time: 01 hr 02 min 19 sec)
Heartbeat CPU 0 instructions: 203501105 cycles: 338936854 heartbeat IPC: 0.5669 cumulative IPC: 0.5049 (Simulation time: 01 hr 02 min 28 sec)
Heartbeat CPU 0 instructions: 204001107 cycles: 339812064 heartbeat IPC: 0.5713 cumulative IPC: 0.505 (Simulation time: 01 hr 02 min 37 sec)
Heartbeat CPU 0 instructions: 204501112 cycles: 340758464 heartbeat IPC: 0.5283 cumulative IPC: 0.5051 (Simulation time: 01 hr 02 min 47 sec)
Heartbeat CPU 0 instructions: 205001112 cycles: 341714361 heartbeat IPC: 0.5231 cumulative IPC: 0.5052 (Simulation time: 01 hr 02 min 57 sec)
Heartbeat CPU 0 instructions: 205501118 cycles: 342638436 heartbeat IPC: 0.5411 cumulative IPC: 0.5053 (Simulation time: 01 hr 03 min 07 sec)
Heartbeat CPU 0 instructions: 206001119 cycles: 343526842 heartbeat IPC: 0.5628 cumulative IPC: 0.5054 (Simulation time: 01 hr 03 min 16 sec)
Heartbeat CPU 0 instructions: 206501120 cycles: 344258839 heartbeat IPC: 0.6831 cumulative IPC: 0.5059 (Simulation time: 01 hr 03 min 23 sec)
Heartbeat CPU 0 instructions: 207001121 cycles: 344916788 heartbeat IPC: 0.7599 cumulative IPC: 0.5064 (Simulation time: 01 hr 03 min 30 sec)
Heartbeat CPU 0 instructions: 207501124 cycles: 345583080 heartbeat IPC: 0.7504 cumulative IPC: 0.5069 (Simulation time: 01 hr 03 min 37 sec)
Heartbeat CPU 0 instructions: 208001130 cycles: 346441362 heartbeat IPC: 0.5826 cumulative IPC: 0.5071 (Simulation time: 01 hr 03 min 45 sec)
Heartbeat CPU 0 instructions: 208501130 cycles: 347331374 heartbeat IPC: 0.5618 cumulative IPC: 0.5073 (Simulation time: 01 hr 03 min 54 sec)
Heartbeat CPU 0 instructions: 209001133 cycles: 348217861 heartbeat IPC: 0.564 cumulative IPC: 0.5075 (Simulation time: 01 hr 04 min 03 sec)
Heartbeat CPU 0 instructions: 209501137 cycles: 349102239 heartbeat IPC: 0.5654 cumulative IPC: 0.5076 (Simulation time: 01 hr 04 min 12 sec)
Heartbeat CPU 0 instructions: 210001143 cycles: 350011111 heartbeat IPC: 0.5501 cumulative IPC: 0.5077 (Simulation time: 01 hr 04 min 22 sec)
Heartbeat CPU 0 instructions: 210501143 cycles: 350960149 heartbeat IPC: 0.5268 cumulative IPC: 0.5078 (Simulation time: 01 hr 04 min 32 sec)
Heartbeat CPU 0 instructions: 211001148 cycles: 351915593 heartbeat IPC: 0.5233 cumulative IPC: 0.5078 (Simulation time: 01 hr 04 min 42 sec)
Heartbeat CPU 0 instructions: 211501151 cycles: 352818077 heartbeat IPC: 0.554 cumulative IPC: 0.508 (Simulation time: 01 hr 04 min 51 sec)
Heartbeat CPU 0 instructions: 212001151 cycles: 353717436 heartbeat IPC: 0.556 cumulative IPC: 0.5081 (Simulation time: 01 hr 05 min 00 sec)
Heartbeat CPU 0 instructions: 212501156 cycles: 354213175 heartbeat IPC: 1.009 cumulative IPC: 0.5089 (Simulation time: 01 hr 05 min 06 sec)
Heartbeat CPU 0 instructions: 213001161 cycles: 355040154 heartbeat IPC: 0.6046 cumulative IPC: 0.5091 (Simulation time: 01 hr 05 min 14 sec)
Heartbeat CPU 0 instructions: 213501168 cycles: 355771621 heartbeat IPC: 0.6836 cumulative IPC: 0.5095 (Simulation time: 01 hr 05 min 22 sec)
Heartbeat CPU 0 instructions: 214001175 cycles: 356628858 heartbeat IPC: 0.5833 cumulative IPC: 0.5097 (Simulation time: 01 hr 05 min 30 sec)
Heartbeat CPU 0 instructions: 214501178 cycles: 357519398 heartbeat IPC: 0.5615 cumulative IPC: 0.5099 (Simulation time: 01 hr 05 min 39 sec)
Heartbeat CPU 0 instructions: 215001178 cycles: 358402998 heartbeat IPC: 0.5659 cumulative IPC: 0.51 (Simulation time: 01 hr 05 min 48 sec)
Heartbeat CPU 0 instructions: 215501185 cycles: 359268571 heartbeat IPC: 0.5777 cumulative IPC: 0.5102 (Simulation time: 01 hr 05 min 57 sec)
Heartbeat CPU 0 instructions: 216001191 cycles: 360220494 heartbeat IPC: 0.5253 cumulative IPC: 0.5102 (Simulation time: 01 hr 06 min 07 sec)
Heartbeat CPU 0 instructions: 216501192 cycles: 361170810 heartbeat IPC: 0.5261 cumulative IPC: 0.5103 (Simulation time: 01 hr 06 min 17 sec)
Heartbeat CPU 0 instructions: 217001194 cycles: 362127209 heartbeat IPC: 0.5228 cumulative IPC: 0.5103 (Simulation time: 01 hr 06 min 27 sec)
Heartbeat CPU 0 instructions: 217501201 cycles: 362997890 heartbeat IPC: 0.5743 cumulative IPC: 0.5105 (Simulation time: 01 hr 06 min 36 sec)
Heartbeat CPU 0 instructions: 218001205 cycles: 363801007 heartbeat IPC: 0.6226 cumulative IPC: 0.5108 (Simulation time: 01 hr 06 min 44 sec)
Heartbeat CPU 0 instructions: 218501208 cycles: 364382804 heartbeat IPC: 0.8594 cumulative IPC: 0.5114 (Simulation time: 01 hr 06 min 50 sec)
Heartbeat CPU 0 instructions: 219001208 cycles: 365040804 heartbeat IPC: 0.7599 cumulative IPC: 0.5119 (Simulation time: 01 hr 06 min 57 sec)
Heartbeat CPU 0 instructions: 219501209 cycles: 365891345 heartbeat IPC: 0.5879 cumulative IPC: 0.5121 (Simulation time: 01 hr 07 min 05 sec)
Heartbeat CPU 0 instructions: 220001215 cycles: 366774793 heartbeat IPC: 0.566 cumulative IPC: 0.5122 (Simulation time: 01 hr 07 min 14 sec)
Heartbeat CPU 0 instructions: 220501217 cycles: 367669675 heartbeat IPC: 0.5587 cumulative IPC: 0.5123 (Simulation time: 01 hr 07 min 23 sec)
Heartbeat CPU 0 instructions: 221001217 cycles: 368563544 heartbeat IPC: 0.5594 cumulative IPC: 0.5125 (Simulation time: 01 hr 07 min 32 sec)
Heartbeat CPU 0 instructions: 221501217 cycles: 369458442 heartbeat IPC: 0.5587 cumulative IPC: 0.5126 (Simulation time: 01 hr 07 min 42 sec)
Heartbeat CPU 0 instructions: 222001219 cycles: 370407206 heartbeat IPC: 0.527 cumulative IPC: 0.5126 (Simulation time: 01 hr 07 min 52 sec)
Heartbeat CPU 0 instructions: 222501220 cycles: 371354712 heartbeat IPC: 0.5277 cumulative IPC: 0.5127 (Simulation time: 01 hr 08 min 02 sec)
Heartbeat CPU 0 instructions: 223001226 cycles: 372253180 heartbeat IPC: 0.5565 cumulative IPC: 0.5128 (Simulation time: 01 hr 08 min 11 sec)
Heartbeat CPU 0 instructions: 223501227 cycles: 373144148 heartbeat IPC: 0.5612 cumulative IPC: 0.5129 (Simulation time: 01 hr 08 min 20 sec)
Heartbeat CPU 0 instructions: 224001227 cycles: 373640375 heartbeat IPC: 1.008 cumulative IPC: 0.5137 (Simulation time: 01 hr 08 min 26 sec)
Heartbeat CPU 0 instructions: 224501231 cycles: 374498281 heartbeat IPC: 0.5828 cumulative IPC: 0.5138 (Simulation time: 01 hr 08 min 34 sec)
Heartbeat CPU 0 instructions: 225001234 cycles: 375186079 heartbeat IPC: 0.727 cumulative IPC: 0.5143 (Simulation time: 01 hr 08 min 41 sec)
Heartbeat CPU 0 instructions: 225501238 cycles: 376051951 heartbeat IPC: 0.5775 cumulative IPC: 0.5144 (Simulation time: 01 hr 08 min 50 sec)
Heartbeat CPU 0 instructions: 226001240 cycles: 376958305 heartbeat IPC: 0.5517 cumulative IPC: 0.5145 (Simulation time: 01 hr 08 min 59 sec)
Heartbeat CPU 0 instructions: 226501242 cycles: 377853923 heartbeat IPC: 0.5583 cumulative IPC: 0.5146 (Simulation time: 01 hr 09 min 08 sec)
Heartbeat CPU 0 instructions: 227001245 cycles: 378727948 heartbeat IPC: 0.5721 cumulative IPC: 0.5148 (Simulation time: 01 hr 09 min 17 sec)
Heartbeat CPU 0 instructions: 227501247 cycles: 379681870 heartbeat IPC: 0.5242 cumulative IPC: 0.5148 (Simulation time: 01 hr 09 min 27 sec)
Heartbeat CPU 0 instructions: 228001248 cycles: 380632902 heartbeat IPC: 0.5257 cumulative IPC: 0.5148 (Simulation time: 01 hr 09 min 37 sec)
Heartbeat CPU 0 instructions: 228501252 cycles: 381581841 heartbeat IPC: 0.5269 cumulative IPC: 0.5149 (Simulation time: 01 hr 09 min 47 sec)
Heartbeat CPU 0 instructions: 229001253 cycles: 382454564 heartbeat IPC: 0.5729 cumulative IPC: 0.515 (Simulation time: 01 hr 09 min 56 sec)
Heartbeat CPU 0 instructions: 229501254 cycles: 383318524 heartbeat IPC: 0.5787 cumulative IPC: 0.5152 (Simulation time: 01 hr 10 min 04 sec)
Heartbeat CPU 0 instructions: 230001256 cycles: 383837219 heartbeat IPC: 0.964 cumulative IPC: 0.5158 (Simulation time: 01 hr 10 min 10 sec)
Heartbeat CPU 0 instructions: 230501259 cycles: 384507543 heartbeat IPC: 0.7459 cumulative IPC: 0.5163 (Simulation time: 01 hr 10 min 17 sec)
Heartbeat CPU 0 instructions: 231001259 cycles: 385373130 heartbeat IPC: 0.5776 cumulative IPC: 0.5164 (Simulation time: 01 hr 10 min 25 sec)
Heartbeat CPU 0 instructions: 231501259 cycles: 386264698 heartbeat IPC: 0.5608 cumulative IPC: 0.5165 (Simulation time: 01 hr 10 min 34 sec)
Heartbeat CPU 0 instructions: 232001266 cycles: 387154844 heartbeat IPC: 0.5617 cumulative IPC: 0.5167 (Simulation time: 01 hr 10 min 43 sec)
Heartbeat CPU 0 instructions: 232501266 cycles: 388044350 heartbeat IPC: 0.5621 cumulative IPC: 0.5168 (Simulation time: 01 hr 10 min 52 sec)
Heartbeat CPU 0 instructions: 233001267 cycles: 388946324 heartbeat IPC: 0.5543 cumulative IPC: 0.5169 (Simulation time: 01 hr 11 min 01 sec)
Heartbeat CPU 0 instructions: 233501273 cycles: 389895001 heartbeat IPC: 0.5271 cumulative IPC: 0.5169 (Simulation time: 01 hr 11 min 11 sec)
Heartbeat CPU 0 instructions: 234001280 cycles: 390850155 heartbeat IPC: 0.5235 cumulative IPC: 0.5169 (Simulation time: 01 hr 11 min 21 sec)
Heartbeat CPU 0 instructions: 234501282 cycles: 391764171 heartbeat IPC: 0.547 cumulative IPC: 0.517 (Simulation time: 01 hr 11 min 31 sec)
Heartbeat CPU 0 instructions: 235001284 cycles: 392661397 heartbeat IPC: 0.5573 cumulative IPC: 0.5171 (Simulation time: 01 hr 11 min 40 sec)
Heartbeat CPU 0 instructions: 235501285 cycles: 393233221 heartbeat IPC: 0.8744 cumulative IPC: 0.5177 (Simulation time: 01 hr 11 min 46 sec)
Heartbeat CPU 0 instructions: 236001290 cycles: 394051946 heartbeat IPC: 0.6107 cumulative IPC: 0.5179 (Simulation time: 01 hr 11 min 54 sec)
Heartbeat CPU 0 instructions: 236501292 cycles: 394716557 heartbeat IPC: 0.7523 cumulative IPC: 0.5183 (Simulation time: 01 hr 12 min 01 sec)
Heartbeat CPU 0 instructions: 237001293 cycles: 395584675 heartbeat IPC: 0.576 cumulative IPC: 0.5184 (Simulation time: 01 hr 12 min 09 sec)
Heartbeat CPU 0 instructions: 237501299 cycles: 396487995 heartbeat IPC: 0.5535 cumulative IPC: 0.5185 (Simulation time: 01 hr 12 min 18 sec)
Heartbeat CPU 0 instructions: 238001300 cycles: 397378916 heartbeat IPC: 0.5612 cumulative IPC: 0.5186 (Simulation time: 01 hr 12 min 27 sec)
Heartbeat CPU 0 instructions: 238501301 cycles: 398242855 heartbeat IPC: 0.5787 cumulative IPC: 0.5188 (Simulation time: 01 hr 12 min 36 sec)
Heartbeat CPU 0 instructions: 239001305 cycles: 399191334 heartbeat IPC: 0.5272 cumulative IPC: 0.5188 (Simulation time: 01 hr 12 min 46 sec)
Heartbeat CPU 0 instructions: 239501306 cycles: 400138638 heartbeat IPC: 0.5278 cumulative IPC: 0.5188 (Simulation time: 01 hr 12 min 56 sec)
Heartbeat CPU 0 instructions: 240001306 cycles: 401086973 heartbeat IPC: 0.5272 cumulative IPC: 0.5188 (Simulation time: 01 hr 13 min 06 sec)
Heartbeat CPU 0 instructions: 240501308 cycles: 401965979 heartbeat IPC: 0.5688 cumulative IPC: 0.519 (Simulation time: 01 hr 13 min 15 sec)
Heartbeat CPU 0 instructions: 241001311 cycles: 402856951 heartbeat IPC: 0.5612 cumulative IPC: 0.5191 (Simulation time: 01 hr 13 min 24 sec)
Heartbeat CPU 0 instructions: 241501316 cycles: 403344962 heartbeat IPC: 1.025 cumulative IPC: 0.5197 (Simulation time: 01 hr 13 min 29 sec)
Heartbeat CPU 0 instructions: 242001317 cycles: 404014969 heartbeat IPC: 0.7463 cumulative IPC: 0.5201 (Simulation time: 01 hr 13 min 36 sec)
Heartbeat CPU 0 instructions: 242501324 cycles: 404876602 heartbeat IPC: 0.5803 cumulative IPC: 0.5203 (Simulation time: 01 hr 13 min 44 sec)
Heartbeat CPU 0 instructions: 243001325 cycles: 405769361 heartbeat IPC: 0.5601 cumulative IPC: 0.5204 (Simulation time: 01 hr 13 min 53 sec)
Heartbeat CPU 0 instructions: 243501332 cycles: 406663853 heartbeat IPC: 0.559 cumulative IPC: 0.5205 (Simulation time: 01 hr 14 min 02 sec)
Heartbeat CPU 0 instructions: 244001332 cycles: 407554011 heartbeat IPC: 0.5617 cumulative IPC: 0.5206 (Simulation time: 01 hr 14 min 11 sec)
Heartbeat CPU 0 instructions: 244501332 cycles: 408437470 heartbeat IPC: 0.566 cumulative IPC: 0.5207 (Simulation time: 01 hr 14 min 20 sec)
Heartbeat CPU 0 instructions: 245001336 cycles: 409394158 heartbeat IPC: 0.5226 cumulative IPC: 0.5207 (Simulation time: 01 hr 14 min 30 sec)
Heartbeat CPU 0 instructions: 245501337 cycles: 410352938 heartbeat IPC: 0.5215 cumulative IPC: 0.5207 (Simulation time: 01 hr 14 min 40 sec)
Heartbeat CPU 0 instructions: 246001338 cycles: 411272683 heartbeat IPC: 0.5436 cumulative IPC: 0.5207 (Simulation time: 01 hr 14 min 50 sec)
Heartbeat CPU 0 instructions: 246501340 cycles: 412166346 heartbeat IPC: 0.5595 cumulative IPC: 0.5208 (Simulation time: 01 hr 14 min 59 sec)
Heartbeat CPU 0 instructions: 247001347 cycles: 413061970 heartbeat IPC: 0.5583 cumulative IPC: 0.5209 (Simulation time: 01 hr 15 min 08 sec)
Heartbeat CPU 0 instructions: 247501347 cycles: 413948820 heartbeat IPC: 0.5638 cumulative IPC: 0.521 (Simulation time: 01 hr 15 min 16 sec)
Heartbeat CPU 0 instructions: 248001347 cycles: 414837880 heartbeat IPC: 0.5624 cumulative IPC: 0.5211 (Simulation time: 01 hr 15 min 25 sec)
Heartbeat CPU 0 instructions: 248501348 cycles: 415730135 heartbeat IPC: 0.5604 cumulative IPC: 0.5212 (Simulation time: 01 hr 15 min 34 sec)
Heartbeat CPU 0 instructions: 249001348 cycles: 416624288 heartbeat IPC: 0.5592 cumulative IPC: 0.5213 (Simulation time: 01 hr 15 min 43 sec)
Heartbeat CPU 0 instructions: 249501348 cycles: 417515131 heartbeat IPC: 0.5613 cumulative IPC: 0.5214 (Simulation time: 01 hr 15 min 52 sec)
Simulation finished CPU 0 instructions: 200000005 cycles: 383510706 cumulative IPC: 0.5215 (Simulation time: 01 hr 16 min 01 sec)
Simulation complete CPU 0 instructions: 200000005 cycles: 383510706 cumulative IPC: 0.5215 (Simulation time: 01 hr 16 min 01 sec)

ChampSim completed all CPUs

=== Simulation ===
CPU 0 runs /local-ssd/ben/dpc4-traces/ai-ml/biogpt.cpp-ggml-model-tocilizumab.3.champsimtrace.gz

Region of Interest Statistics

CPU 0 cumulative IPC: 0.5215 instructions: 200000005 cycles: 383510706
CPU 0 Branch Prediction Accuracy: 97.81% MPKI: 2.078 Average ROB Occupancy at Mispredict: 351.1
Branch type MPKI
BRANCH_DIRECT_JUMP: 0.00233
BRANCH_INDIRECT: 0.006125
BRANCH_CONDITIONAL: 2.057
BRANCH_DIRECT_CALL: 0.00287
BRANCH_INDIRECT_CALL: 0.00153
BRANCH_RETURN: 0.007845

cpu0->cpu0_STLB TOTAL        ACCESS:     454695 HIT:      27248 MISS:     427447 MSHR_MERGE:          0
cpu0->cpu0_STLB LOAD         ACCESS:     454695 HIT:      27248 MISS:     427447 MSHR_MERGE:          0
cpu0->cpu0_STLB RFO          ACCESS:          0 HIT:          0 MISS:          0 MSHR_MERGE:          0
cpu0->cpu0_STLB PREFETCH     ACCESS:          0 HIT:          0 MISS:          0 MSHR_MERGE:          0
cpu0->cpu0_STLB WRITE        ACCESS:          0 HIT:          0 MISS:          0 MSHR_MERGE:          0
cpu0->cpu0_STLB TRANSLATION  ACCESS:          0 HIT:          0 MISS:          0 MSHR_MERGE:          0
cpu0->cpu0_STLB PREFETCH REQUESTED:          0 ISSUED:          0 USEFUL:          0 USELESS:          0
cpu0->cpu0_STLB AVERAGE MISS LATENCY: 155.4 cycles
cpu0->cpu0_L2C TOTAL        ACCESS:   82943339 HIT:    7708495 MISS:   75234844 MSHR_MERGE:   47852084
cpu0->cpu0_L2C LOAD         ACCESS:   21410344 HIT:    3243694 MISS:   18166650 MSHR_MERGE:   10490434
cpu0->cpu0_L2C RFO          ACCESS:     206556 HIT:      45651 MISS:     160905 MSHR_MERGE:        454
cpu0->cpu0_L2C PREFETCH     ACCESS:   60958183 HIT:    4114153 MISS:   56844030 MSHR_MERGE:   37361196
cpu0->cpu0_L2C WRITE        ACCESS:     311665 HIT:     304157 MISS:       7508 MSHR_MERGE:          0
cpu0->cpu0_L2C TRANSLATION  ACCESS:      56591 HIT:        840 MISS:      55751 MSHR_MERGE:          0
cpu0->cpu0_L2C PREFETCH REQUESTED:   63756815 ISSUED:   53620971 USEFUL:   13144551 USELESS:    4536794
cpu0->cpu0_L2C AVERAGE MISS LATENCY: 182 cycles
cpu0->cpu0_L1I TOTAL        ACCESS:   30607976 HIT:   30606198 MISS:       1778 MSHR_MERGE:        168
cpu0->cpu0_L1I LOAD         ACCESS:   30607976 HIT:   30606198 MISS:       1778 MSHR_MERGE:        168
cpu0->cpu0_L1I RFO          ACCESS:          0 HIT:          0 MISS:          0 MSHR_MERGE:          0
cpu0->cpu0_L1I PREFETCH     ACCESS:          0 HIT:          0 MISS:          0 MSHR_MERGE:          0
cpu0->cpu0_L1I WRITE        ACCESS:          0 HIT:          0 MISS:          0 MSHR_MERGE:          0
cpu0->cpu0_L1I TRANSLATION  ACCESS:          0 HIT:          0 MISS:          0 MSHR_MERGE:          0
cpu0->cpu0_L1I PREFETCH REQUESTED:          0 ISSUED:          0 USEFUL:          0 USELESS:          0
cpu0->cpu0_L1I AVERAGE MISS LATENCY: 232.1 cycles
cpu0->cpu0_L1D TOTAL        ACCESS:   82380860 HIT:   37494429 MISS:   44886431 MSHR_MERGE:   15877279
cpu0->cpu0_L1D LOAD         ACCESS:   62073928 HIT:   32309780 MISS:   29764148 MSHR_MERGE:    8355413
cpu0->cpu0_L1D RFO          ACCESS:          0 HIT:          0 MISS:          0 MSHR_MERGE:          0
cpu0->cpu0_L1D PREFETCH     ACCESS:   14165870 HIT:    2070137 MISS:   12095733 MSHR_MERGE:    4758504
cpu0->cpu0_L1D WRITE        ACCESS:    5287015 HIT:    2318021 MISS:    2968994 MSHR_MERGE:    2762397
cpu0->cpu0_L1D TRANSLATION  ACCESS:     854047 HIT:     796491 MISS:      57556 MSHR_MERGE:        965
cpu0->cpu0_L1D PREFETCH REQUESTED:   27259663 ISSUED:   14165872 USEFUL:    7265044 USELESS:      72181
cpu0->cpu0_L1D AVERAGE MISS LATENCY: 156.9 cycles
cpu0->cpu0_ITLB TOTAL        ACCESS:   20342427 HIT:   20342141 MISS:        286 MSHR_MERGE:         97
cpu0->cpu0_ITLB LOAD         ACCESS:   20342427 HIT:   20342141 MISS:        286 MSHR_MERGE:         97
cpu0->cpu0_ITLB RFO          ACCESS:          0 HIT:          0 MISS:          0 MSHR_MERGE:          0
cpu0->cpu0_ITLB PREFETCH     ACCESS:          0 HIT:          0 MISS:          0 MSHR_MERGE:          0
cpu0->cpu0_ITLB WRITE        ACCESS:          0 HIT:          0 MISS:          0 MSHR_MERGE:          0
cpu0->cpu0_ITLB TRANSLATION  ACCESS:          0 HIT:          0 MISS:          0 MSHR_MERGE:          0
cpu0->cpu0_ITLB PREFETCH REQUESTED:          0 ISSUED:          0 USEFUL:          0 USELESS:          0
cpu0->cpu0_ITLB AVERAGE MISS LATENCY: 241.1 cycles
cpu0->cpu0_DTLB TOTAL        ACCESS:   77569794 HIT:   73038080 MISS:    4531714 MSHR_MERGE:    4077208
cpu0->cpu0_DTLB LOAD         ACCESS:   77569794 HIT:   73038080 MISS:    4531714 MSHR_MERGE:    4077208
cpu0->cpu0_DTLB RFO          ACCESS:          0 HIT:          0 MISS:          0 MSHR_MERGE:          0
cpu0->cpu0_DTLB PREFETCH     ACCESS:          0 HIT:          0 MISS:          0 MSHR_MERGE:          0
cpu0->cpu0_DTLB WRITE        ACCESS:          0 HIT:          0 MISS:          0 MSHR_MERGE:          0
cpu0->cpu0_DTLB TRANSLATION  ACCESS:          0 HIT:          0 MISS:          0 MSHR_MERGE:          0
cpu0->cpu0_DTLB PREFETCH REQUESTED:          0 ISSUED:          0 USEFUL:          0 USELESS:          0
cpu0->cpu0_DTLB AVERAGE MISS LATENCY: 152 cycles
cpu0->LLC TOTAL        ACCESS:   27571334 HIT:     422227 MISS:   27149107 MSHR_MERGE:          0
cpu0->LLC LOAD         ACCESS:    7676215 HIT:      28350 MISS:    7647865 MSHR_MERGE:          0
cpu0->LLC RFO          ACCESS:     160451 HIT:     104783 MISS:      55668 MSHR_MERGE:          0
cpu0->LLC PREFETCH     ACCESS:   19482834 HIT:     135950 MISS:   19346884 MSHR_MERGE:          0
cpu0->LLC WRITE        ACCESS:     196083 HIT:     152397 MISS:      43686 MSHR_MERGE:          0
cpu0->LLC TRANSLATION  ACCESS:      55751 HIT:        747 MISS:      55004 MSHR_MERGE:          0
cpu0->LLC PREFETCH REQUESTED:          0 ISSUED:          0 USEFUL:          0 USELESS:          0
cpu0->LLC AVERAGE MISS LATENCY: 243.3 cycles

DRAM Statistics

Channel 0 RQ ROW_BUFFER_HIT:   12954726
  ROW_BUFFER_MISS:   14150218
  AVG DBUS CONGESTED CYCLE: 4.169
Channel 0 WQ ROW_BUFFER_HIT:       2392
  ROW_BUFFER_MISS:      29490
  FULL:        235
Channel 0 REFRESHES ISSUED:      31957
