[VMEM] WARNING: physical memory size is smaller than virtual memory size.

*** ChampSim Multicore Out-of-Order Simulator ***
Warmup Instructions: 50000000
Simulation Instructions: 200000000
Number of CPUs: 1
Page size: 4096
Core 0: /local-ssd/ben/dpc4-traces/ai-ml/bark.cpp-bark-small.coarse_token_gen.4.champsimtrace.gz
 L1D Berti prefetcher
Off-chip DRAM Size: 64 GiB Channels: 1 Width: 64-bit Data Rate: 4807 MT/s
Heartbeat CPU 0 instructions: 500001 cycles: 129749 heartbeat IPC: 3.854 cumulative IPC: 3.854 (Simulation time: 00 hr 00 min 02 sec)
Heartbeat CPU 0 instructions: 1000006 cycles: 253159 heartbeat IPC: 4.052 cumulative IPC: 3.95 (Simulation time: 00 hr 00 min 05 sec)
Heartbeat CPU 0 instructions: 1500008 cycles: 376691 heartbeat IPC: 4.048 cumulative IPC: 3.982 (Simulation time: 00 hr 00 min 07 sec)
Heartbeat CPU 0 instructions: 2000010 cycles: 500846 heartbeat IPC: 4.027 cumulative IPC: 3.993 (Simulation time: 00 hr 00 min 09 sec)
Heartbeat CPU 0 instructions: 2500010 cycles: 624829 heartbeat IPC: 4.033 cumulative IPC: 4.001 (Simulation time: 00 hr 00 min 11 sec)
Heartbeat CPU 0 instructions: 3000014 cycles: 748305 heartbeat IPC: 4.049 cumulative IPC: 4.009 (Simulation time: 00 hr 00 min 14 sec)
Heartbeat CPU 0 instructions: 3500019 cycles: 872196 heartbeat IPC: 4.036 cumulative IPC: 4.013 (Simulation time: 00 hr 00 min 16 sec)
Heartbeat CPU 0 instructions: 4000020 cycles: 996118 heartbeat IPC: 4.035 cumulative IPC: 4.016 (Simulation time: 00 hr 00 min 18 sec)
Heartbeat CPU 0 instructions: 4500023 cycles: 1120322 heartbeat IPC: 4.026 cumulative IPC: 4.017 (Simulation time: 00 hr 00 min 21 sec)
Heartbeat CPU 0 instructions: 5000028 cycles: 1243664 heartbeat IPC: 4.054 cumulative IPC: 4.02 (Simulation time: 00 hr 00 min 23 sec)
Heartbeat CPU 0 instructions: 5500030 cycles: 1367636 heartbeat IPC: 4.033 cumulative IPC: 4.022 (Simulation time: 00 hr 00 min 25 sec)
Heartbeat CPU 0 instructions: 6000035 cycles: 1491649 heartbeat IPC: 4.032 cumulative IPC: 4.022 (Simulation time: 00 hr 00 min 28 sec)
Heartbeat CPU 0 instructions: 6500037 cycles: 1615808 heartbeat IPC: 4.027 cumulative IPC: 4.023 (Simulation time: 00 hr 00 min 30 sec)
Heartbeat CPU 0 instructions: 7000037 cycles: 1738870 heartbeat IPC: 4.063 cumulative IPC: 4.026 (Simulation time: 00 hr 00 min 32 sec)
Heartbeat CPU 0 instructions: 7500039 cycles: 1863090 heartbeat IPC: 4.025 cumulative IPC: 4.026 (Simulation time: 00 hr 00 min 35 sec)
Heartbeat CPU 0 instructions: 8000044 cycles: 1986939 heartbeat IPC: 4.037 cumulative IPC: 4.026 (Simulation time: 00 hr 00 min 37 sec)
Heartbeat CPU 0 instructions: 8500045 cycles: 2111195 heartbeat IPC: 4.024 cumulative IPC: 4.026 (Simulation time: 00 hr 00 min 39 sec)
Heartbeat CPU 0 instructions: 9000050 cycles: 2234296 heartbeat IPC: 4.062 cumulative IPC: 4.028 (Simulation time: 00 hr 00 min 42 sec)
Heartbeat CPU 0 instructions: 9500053 cycles: 2358309 heartbeat IPC: 4.032 cumulative IPC: 4.028 (Simulation time: 00 hr 00 min 44 sec)
Heartbeat CPU 0 instructions: 10000056 cycles: 2482115 heartbeat IPC: 4.039 cumulative IPC: 4.029 (Simulation time: 00 hr 00 min 46 sec)
Heartbeat CPU 0 instructions: 10500057 cycles: 2606063 heartbeat IPC: 4.034 cumulative IPC: 4.029 (Simulation time: 00 hr 00 min 49 sec)
Heartbeat CPU 0 instructions: 11000061 cycles: 2729264 heartbeat IPC: 4.058 cumulative IPC: 4.03 (Simulation time: 00 hr 00 min 51 sec)
Heartbeat CPU 0 instructions: 11500062 cycles: 2853423 heartbeat IPC: 4.027 cumulative IPC: 4.03 (Simulation time: 00 hr 00 min 53 sec)
Heartbeat CPU 0 instructions: 12000066 cycles: 2977708 heartbeat IPC: 4.023 cumulative IPC: 4.03 (Simulation time: 00 hr 00 min 56 sec)
Heartbeat CPU 0 instructions: 12500069 cycles: 3098959 heartbeat IPC: 4.124 cumulative IPC: 4.034 (Simulation time: 00 hr 00 min 58 sec)
Heartbeat CPU 0 instructions: 13000072 cycles: 3215496 heartbeat IPC: 4.291 cumulative IPC: 4.043 (Simulation time: 00 hr 01 min 00 sec)
Heartbeat CPU 0 instructions: 13500076 cycles: 3331851 heartbeat IPC: 4.297 cumulative IPC: 4.052 (Simulation time: 00 hr 01 min 02 sec)
Heartbeat CPU 0 instructions: 14000083 cycles: 3447969 heartbeat IPC: 4.306 cumulative IPC: 4.06 (Simulation time: 00 hr 01 min 05 sec)
Heartbeat CPU 0 instructions: 14500089 cycles: 3564094 heartbeat IPC: 4.306 cumulative IPC: 4.068 (Simulation time: 00 hr 01 min 07 sec)
Heartbeat CPU 0 instructions: 15000089 cycles: 3680289 heartbeat IPC: 4.303 cumulative IPC: 4.076 (Simulation time: 00 hr 01 min 09 sec)
Heartbeat CPU 0 instructions: 15500093 cycles: 3796173 heartbeat IPC: 4.315 cumulative IPC: 4.083 (Simulation time: 00 hr 01 min 11 sec)
Heartbeat CPU 0 instructions: 16000093 cycles: 3912295 heartbeat IPC: 4.306 cumulative IPC: 4.09 (Simulation time: 00 hr 01 min 14 sec)
Heartbeat CPU 0 instructions: 16500093 cycles: 4028404 heartbeat IPC: 4.306 cumulative IPC: 4.096 (Simulation time: 00 hr 01 min 16 sec)
Heartbeat CPU 0 instructions: 17000098 cycles: 4144742 heartbeat IPC: 4.298 cumulative IPC: 4.102 (Simulation time: 00 hr 01 min 18 sec)
Heartbeat CPU 0 instructions: 17500104 cycles: 4260882 heartbeat IPC: 4.305 cumulative IPC: 4.107 (Simulation time: 00 hr 01 min 20 sec)
Heartbeat CPU 0 instructions: 18000110 cycles: 4377023 heartbeat IPC: 4.305 cumulative IPC: 4.112 (Simulation time: 00 hr 01 min 22 sec)
Heartbeat CPU 0 instructions: 18500112 cycles: 4493080 heartbeat IPC: 4.308 cumulative IPC: 4.117 (Simulation time: 00 hr 01 min 25 sec)
Heartbeat CPU 0 instructions: 19000119 cycles: 4609231 heartbeat IPC: 4.305 cumulative IPC: 4.122 (Simulation time: 00 hr 01 min 27 sec)
Heartbeat CPU 0 instructions: 19500119 cycles: 4725357 heartbeat IPC: 4.306 cumulative IPC: 4.127 (Simulation time: 00 hr 01 min 29 sec)
Heartbeat CPU 0 instructions: 20000120 cycles: 4841518 heartbeat IPC: 4.304 cumulative IPC: 4.131 (Simulation time: 00 hr 01 min 31 sec)
Heartbeat CPU 0 instructions: 20500120 cycles: 4957584 heartbeat IPC: 4.308 cumulative IPC: 4.135 (Simulation time: 00 hr 01 min 34 sec)
Heartbeat CPU 0 instructions: 21000125 cycles: 5073729 heartbeat IPC: 4.305 cumulative IPC: 4.139 (Simulation time: 00 hr 01 min 36 sec)
Heartbeat CPU 0 instructions: 21500127 cycles: 5189811 heartbeat IPC: 4.307 cumulative IPC: 4.143 (Simulation time: 00 hr 01 min 38 sec)
Heartbeat CPU 0 instructions: 22000133 cycles: 5306012 heartbeat IPC: 4.303 cumulative IPC: 4.146 (Simulation time: 00 hr 01 min 40 sec)
Heartbeat CPU 0 instructions: 22500140 cycles: 5422068 heartbeat IPC: 4.308 cumulative IPC: 4.15 (Simulation time: 00 hr 01 min 42 sec)
Heartbeat CPU 0 instructions: 23000144 cycles: 5538110 heartbeat IPC: 4.309 cumulative IPC: 4.153 (Simulation time: 00 hr 01 min 45 sec)
Heartbeat CPU 0 instructions: 23500149 cycles: 5654120 heartbeat IPC: 4.31 cumulative IPC: 4.156 (Simulation time: 00 hr 01 min 47 sec)
Heartbeat CPU 0 instructions: 24000149 cycles: 5770146 heartbeat IPC: 4.309 cumulative IPC: 4.159 (Simulation time: 00 hr 01 min 49 sec)
Heartbeat CPU 0 instructions: 24500155 cycles: 5886378 heartbeat IPC: 4.302 cumulative IPC: 4.162 (Simulation time: 00 hr 01 min 51 sec)
Heartbeat CPU 0 instructions: 25000158 cycles: 6003281 heartbeat IPC: 4.277 cumulative IPC: 4.164 (Simulation time: 00 hr 01 min 54 sec)
Heartbeat CPU 0 instructions: 25500164 cycles: 6119472 heartbeat IPC: 4.303 cumulative IPC: 4.167 (Simulation time: 00 hr 01 min 56 sec)
Heartbeat CPU 0 instructions: 26000164 cycles: 6235654 heartbeat IPC: 4.304 cumulative IPC: 4.17 (Simulation time: 00 hr 01 min 58 sec)
Heartbeat CPU 0 instructions: 26500165 cycles: 6351758 heartbeat IPC: 4.306 cumulative IPC: 4.172 (Simulation time: 00 hr 02 min 00 sec)
Heartbeat CPU 0 instructions: 27000165 cycles: 6467877 heartbeat IPC: 4.306 cumulative IPC: 4.175 (Simulation time: 00 hr 02 min 03 sec)
Heartbeat CPU 0 instructions: 27500165 cycles: 6583906 heartbeat IPC: 4.309 cumulative IPC: 4.177 (Simulation time: 00 hr 02 min 05 sec)
Heartbeat CPU 0 instructions: 28000171 cycles: 6700025 heartbeat IPC: 4.306 cumulative IPC: 4.179 (Simulation time: 00 hr 02 min 07 sec)
Heartbeat CPU 0 instructions: 28500178 cycles: 6816069 heartbeat IPC: 4.309 cumulative IPC: 4.181 (Simulation time: 00 hr 02 min 09 sec)
Heartbeat CPU 0 instructions: 29000183 cycles: 6932387 heartbeat IPC: 4.299 cumulative IPC: 4.183 (Simulation time: 00 hr 02 min 11 sec)
Heartbeat CPU 0 instructions: 29500186 cycles: 7048536 heartbeat IPC: 4.305 cumulative IPC: 4.185 (Simulation time: 00 hr 02 min 14 sec)
Heartbeat CPU 0 instructions: 30000193 cycles: 7164824 heartbeat IPC: 4.3 cumulative IPC: 4.187 (Simulation time: 00 hr 02 min 16 sec)
Heartbeat CPU 0 instructions: 30500196 cycles: 7280742 heartbeat IPC: 4.313 cumulative IPC: 4.189 (Simulation time: 00 hr 02 min 18 sec)
Heartbeat CPU 0 instructions: 31000201 cycles: 7396952 heartbeat IPC: 4.303 cumulative IPC: 4.191 (Simulation time: 00 hr 02 min 20 sec)
Heartbeat CPU 0 instructions: 31500202 cycles: 7513215 heartbeat IPC: 4.301 cumulative IPC: 4.193 (Simulation time: 00 hr 02 min 23 sec)
Heartbeat CPU 0 instructions: 32000208 cycles: 7629207 heartbeat IPC: 4.311 cumulative IPC: 4.194 (Simulation time: 00 hr 02 min 25 sec)
Heartbeat CPU 0 instructions: 32500209 cycles: 7745389 heartbeat IPC: 4.304 cumulative IPC: 4.196 (Simulation time: 00 hr 02 min 27 sec)
Heartbeat CPU 0 instructions: 33000216 cycles: 7861441 heartbeat IPC: 4.308 cumulative IPC: 4.198 (Simulation time: 00 hr 02 min 29 sec)
Heartbeat CPU 0 instructions: 33500220 cycles: 7977627 heartbeat IPC: 4.303 cumulative IPC: 4.199 (Simulation time: 00 hr 02 min 31 sec)
Heartbeat CPU 0 instructions: 34000223 cycles: 8093795 heartbeat IPC: 4.304 cumulative IPC: 4.201 (Simulation time: 00 hr 02 min 34 sec)
Heartbeat CPU 0 instructions: 34500229 cycles: 8209859 heartbeat IPC: 4.308 cumulative IPC: 4.202 (Simulation time: 00 hr 02 min 36 sec)
Heartbeat CPU 0 instructions: 35000229 cycles: 8326009 heartbeat IPC: 4.305 cumulative IPC: 4.204 (Simulation time: 00 hr 02 min 38 sec)
Heartbeat CPU 0 instructions: 35500229 cycles: 8442343 heartbeat IPC: 4.298 cumulative IPC: 4.205 (Simulation time: 00 hr 02 min 40 sec)
Heartbeat CPU 0 instructions: 36000229 cycles: 8558609 heartbeat IPC: 4.3 cumulative IPC: 4.206 (Simulation time: 00 hr 02 min 43 sec)
Heartbeat CPU 0 instructions: 36500233 cycles: 8674939 heartbeat IPC: 4.298 cumulative IPC: 4.208 (Simulation time: 00 hr 02 min 45 sec)
Heartbeat CPU 0 instructions: 37000239 cycles: 8791028 heartbeat IPC: 4.307 cumulative IPC: 4.209 (Simulation time: 00 hr 02 min 47 sec)
Heartbeat CPU 0 instructions: 37500243 cycles: 8907997 heartbeat IPC: 4.275 cumulative IPC: 4.21 (Simulation time: 00 hr 02 min 49 sec)
Heartbeat CPU 0 instructions: 38000246 cycles: 9024174 heartbeat IPC: 4.304 cumulative IPC: 4.211 (Simulation time: 00 hr 02 min 52 sec)
Heartbeat CPU 0 instructions: 38500248 cycles: 9140212 heartbeat IPC: 4.309 cumulative IPC: 4.212 (Simulation time: 00 hr 02 min 54 sec)
Heartbeat CPU 0 instructions: 39000248 cycles: 9256405 heartbeat IPC: 4.303 cumulative IPC: 4.213 (Simulation time: 00 hr 02 min 56 sec)
Heartbeat CPU 0 instructions: 39500248 cycles: 9372490 heartbeat IPC: 4.307 cumulative IPC: 4.214 (Simulation time: 00 hr 02 min 58 sec)
Heartbeat CPU 0 instructions: 40000249 cycles: 9488642 heartbeat IPC: 4.305 cumulative IPC: 4.216 (Simulation time: 00 hr 03 min 00 sec)
Heartbeat CPU 0 instructions: 40500255 cycles: 9604667 heartbeat IPC: 4.309 cumulative IPC: 4.217 (Simulation time: 00 hr 03 min 03 sec)
Heartbeat CPU 0 instructions: 41000258 cycles: 9720854 heartbeat IPC: 4.303 cumulative IPC: 4.218 (Simulation time: 00 hr 03 min 05 sec)
Heartbeat CPU 0 instructions: 41500259 cycles: 9836963 heartbeat IPC: 4.306 cumulative IPC: 4.219 (Simulation time: 00 hr 03 min 07 sec)
Heartbeat CPU 0 instructions: 42000261 cycles: 9953245 heartbeat IPC: 4.3 cumulative IPC: 4.22 (Simulation time: 00 hr 03 min 09 sec)
Heartbeat CPU 0 instructions: 42500267 cycles: 10069533 heartbeat IPC: 4.3 cumulative IPC: 4.221 (Simulation time: 00 hr 03 min 12 sec)
Heartbeat CPU 0 instructions: 43000268 cycles: 10185652 heartbeat IPC: 4.306 cumulative IPC: 4.222 (Simulation time: 00 hr 03 min 14 sec)
Heartbeat CPU 0 instructions: 43500275 cycles: 10301670 heartbeat IPC: 4.31 cumulative IPC: 4.223 (Simulation time: 00 hr 03 min 16 sec)
Heartbeat CPU 0 instructions: 44000275 cycles: 10417739 heartbeat IPC: 4.308 cumulative IPC: 4.224 (Simulation time: 00 hr 03 min 18 sec)
Heartbeat CPU 0 instructions: 44500277 cycles: 10533844 heartbeat IPC: 4.306 cumulative IPC: 4.225 (Simulation time: 00 hr 03 min 21 sec)
Heartbeat CPU 0 instructions: 45000277 cycles: 10649971 heartbeat IPC: 4.306 cumulative IPC: 4.225 (Simulation time: 00 hr 03 min 23 sec)
Heartbeat CPU 0 instructions: 45500279 cycles: 10766377 heartbeat IPC: 4.295 cumulative IPC: 4.226 (Simulation time: 00 hr 03 min 25 sec)
Heartbeat CPU 0 instructions: 46000283 cycles: 10882483 heartbeat IPC: 4.306 cumulative IPC: 4.227 (Simulation time: 00 hr 03 min 27 sec)
Heartbeat CPU 0 instructions: 46500288 cycles: 10998448 heartbeat IPC: 4.312 cumulative IPC: 4.228 (Simulation time: 00 hr 03 min 30 sec)
Heartbeat CPU 0 instructions: 47000288 cycles: 11114622 heartbeat IPC: 4.304 cumulative IPC: 4.229 (Simulation time: 00 hr 03 min 32 sec)
Heartbeat CPU 0 instructions: 47500295 cycles: 11230849 heartbeat IPC: 4.302 cumulative IPC: 4.229 (Simulation time: 00 hr 03 min 34 sec)
Heartbeat CPU 0 instructions: 48000301 cycles: 11346814 heartbeat IPC: 4.312 cumulative IPC: 4.23 (Simulation time: 00 hr 03 min 36 sec)
Heartbeat CPU 0 instructions: 48500304 cycles: 11462947 heartbeat IPC: 4.305 cumulative IPC: 4.231 (Simulation time: 00 hr 03 min 39 sec)
Heartbeat CPU 0 instructions: 49000304 cycles: 11579010 heartbeat IPC: 4.308 cumulative IPC: 4.232 (Simulation time: 00 hr 03 min 41 sec)
Heartbeat CPU 0 instructions: 49500307 cycles: 11695151 heartbeat IPC: 4.305 cumulative IPC: 4.233 (Simulation time: 00 hr 03 min 43 sec)
Warmup halting CPU 0 at instruction 50000001 cycle 11811822 for remainder of phase
Warmup finished CPU 0 instructions: 50000001 cycles: 11811822 cumulative IPC: 4.233 (Simulation time: 00 hr 03 min 45 sec)
Warmup complete CPU 0 instructions: 50000001 cycles: 11811822 cumulative IPC: 4.233 (Simulation time: 00 hr 03 min 45 sec)
Heartbeat CPU 0 instructions: 50000313 cycles: 11811861 heartbeat IPC: 4.284 cumulative IPC: 8 (Simulation time: 00 hr 03 min 45 sec)
Heartbeat CPU 0 instructions: 50500317 cycles: 11969073 heartbeat IPC: 3.18 cumulative IPC: 3.182 (Simulation time: 00 hr 03 min 48 sec)
Heartbeat CPU 0 instructions: 51000321 cycles: 12132816 heartbeat IPC: 3.054 cumulative IPC: 3.116 (Simulation time: 00 hr 03 min 50 sec)
Heartbeat CPU 0 instructions: 51500322 cycles: 12293198 heartbeat IPC: 3.118 cumulative IPC: 3.117 (Simulation time: 00 hr 03 min 53 sec)
Heartbeat CPU 0 instructions: 52000327 cycles: 12452676 heartbeat IPC: 3.135 cumulative IPC: 3.121 (Simulation time: 00 hr 03 min 55 sec)
Heartbeat CPU 0 instructions: 52500332 cycles: 12609485 heartbeat IPC: 3.189 cumulative IPC: 3.135 (Simulation time: 00 hr 03 min 57 sec)
Heartbeat CPU 0 instructions: 53000338 cycles: 12768255 heartbeat IPC: 3.149 cumulative IPC: 3.137 (Simulation time: 00 hr 04 min 00 sec)
Heartbeat CPU 0 instructions: 53500345 cycles: 12926403 heartbeat IPC: 3.162 cumulative IPC: 3.141 (Simulation time: 00 hr 04 min 02 sec)
Heartbeat CPU 0 instructions: 54000348 cycles: 13084851 heartbeat IPC: 3.156 cumulative IPC: 3.142 (Simulation time: 00 hr 04 min 04 sec)
Heartbeat CPU 0 instructions: 54500355 cycles: 13238838 heartbeat IPC: 3.247 cumulative IPC: 3.154 (Simulation time: 00 hr 04 min 07 sec)
Heartbeat CPU 0 instructions: 55000360 cycles: 13395311 heartbeat IPC: 3.195 cumulative IPC: 3.158 (Simulation time: 00 hr 04 min 09 sec)
Heartbeat CPU 0 instructions: 55500364 cycles: 13553093 heartbeat IPC: 3.169 cumulative IPC: 3.159 (Simulation time: 00 hr 04 min 12 sec)
Heartbeat CPU 0 instructions: 56000368 cycles: 13709985 heartbeat IPC: 3.187 cumulative IPC: 3.161 (Simulation time: 00 hr 04 min 14 sec)
Heartbeat CPU 0 instructions: 56500368 cycles: 13862894 heartbeat IPC: 3.27 cumulative IPC: 3.169 (Simulation time: 00 hr 04 min 16 sec)
Heartbeat CPU 0 instructions: 57000375 cycles: 14017870 heartbeat IPC: 3.226 cumulative IPC: 3.173 (Simulation time: 00 hr 04 min 19 sec)
Heartbeat CPU 0 instructions: 57500379 cycles: 14172812 heartbeat IPC: 3.227 cumulative IPC: 3.177 (Simulation time: 00 hr 04 min 21 sec)
Heartbeat CPU 0 instructions: 58000382 cycles: 14329634 heartbeat IPC: 3.188 cumulative IPC: 3.178 (Simulation time: 00 hr 04 min 23 sec)
Heartbeat CPU 0 instructions: 58500383 cycles: 14482330 heartbeat IPC: 3.274 cumulative IPC: 3.183 (Simulation time: 00 hr 04 min 26 sec)
Heartbeat CPU 0 instructions: 59000384 cycles: 14639340 heartbeat IPC: 3.185 cumulative IPC: 3.183 (Simulation time: 00 hr 04 min 28 sec)
Heartbeat CPU 0 instructions: 59500387 cycles: 14794481 heartbeat IPC: 3.223 cumulative IPC: 3.185 (Simulation time: 00 hr 04 min 30 sec)
Heartbeat CPU 0 instructions: 60000390 cycles: 14951069 heartbeat IPC: 3.193 cumulative IPC: 3.186 (Simulation time: 00 hr 04 min 33 sec)
Heartbeat CPU 0 instructions: 60500394 cycles: 15105025 heartbeat IPC: 3.248 cumulative IPC: 3.189 (Simulation time: 00 hr 04 min 35 sec)
Heartbeat CPU 0 instructions: 61000400 cycles: 15261327 heartbeat IPC: 3.199 cumulative IPC: 3.189 (Simulation time: 00 hr 04 min 37 sec)
Heartbeat CPU 0 instructions: 61500405 cycles: 15417782 heartbeat IPC: 3.196 cumulative IPC: 3.189 (Simulation time: 00 hr 04 min 40 sec)
Heartbeat CPU 0 instructions: 62000407 cycles: 15574303 heartbeat IPC: 3.194 cumulative IPC: 3.189 (Simulation time: 00 hr 04 min 42 sec)
Heartbeat CPU 0 instructions: 62500409 cycles: 15744313 heartbeat IPC: 2.941 cumulative IPC: 3.179 (Simulation time: 00 hr 04 min 44 sec)
Heartbeat CPU 0 instructions: 63000414 cycles: 15907286 heartbeat IPC: 3.068 cumulative IPC: 3.174 (Simulation time: 00 hr 04 min 47 sec)
Heartbeat CPU 0 instructions: 63500416 cycles: 16067074 heartbeat IPC: 3.129 cumulative IPC: 3.173 (Simulation time: 00 hr 04 min 49 sec)
Heartbeat CPU 0 instructions: 64000422 cycles: 16228896 heartbeat IPC: 3.09 cumulative IPC: 3.17 (Simulation time: 00 hr 04 min 52 sec)
Heartbeat CPU 0 instructions: 64500422 cycles: 16386708 heartbeat IPC: 3.168 cumulative IPC: 3.17 (Simulation time: 00 hr 04 min 54 sec)
Heartbeat CPU 0 instructions: 65000429 cycles: 16546995 heartbeat IPC: 3.119 cumulative IPC: 3.168 (Simulation time: 00 hr 04 min 57 sec)
Heartbeat CPU 0 instructions: 65500433 cycles: 16705954 heartbeat IPC: 3.145 cumulative IPC: 3.167 (Simulation time: 00 hr 04 min 59 sec)
Heartbeat CPU 0 instructions: 66000436 cycles: 16863857 heartbeat IPC: 3.167 cumulative IPC: 3.167 (Simulation time: 00 hr 05 min 02 sec)
Heartbeat CPU 0 instructions: 66500441 cycles: 17020286 heartbeat IPC: 3.196 cumulative IPC: 3.168 (Simulation time: 00 hr 05 min 04 sec)
Heartbeat CPU 0 instructions: 67000442 cycles: 17176595 heartbeat IPC: 3.199 cumulative IPC: 3.169 (Simulation time: 00 hr 05 min 06 sec)
Heartbeat CPU 0 instructions: 67500443 cycles: 17334521 heartbeat IPC: 3.166 cumulative IPC: 3.169 (Simulation time: 00 hr 05 min 09 sec)
Heartbeat CPU 0 instructions: 68000444 cycles: 17489799 heartbeat IPC: 3.22 cumulative IPC: 3.17 (Simulation time: 00 hr 05 min 11 sec)
Heartbeat CPU 0 instructions: 68500448 cycles: 17647001 heartbeat IPC: 3.181 cumulative IPC: 3.171 (Simulation time: 00 hr 05 min 13 sec)
Heartbeat CPU 0 instructions: 69000454 cycles: 17803632 heartbeat IPC: 3.192 cumulative IPC: 3.171 (Simulation time: 00 hr 05 min 16 sec)
Heartbeat CPU 0 instructions: 69500459 cycles: 17959481 heartbeat IPC: 3.208 cumulative IPC: 3.172 (Simulation time: 00 hr 05 min 18 sec)
Heartbeat CPU 0 instructions: 70000461 cycles: 18112075 heartbeat IPC: 3.277 cumulative IPC: 3.175 (Simulation time: 00 hr 05 min 20 sec)
Heartbeat CPU 0 instructions: 70500463 cycles: 18268082 heartbeat IPC: 3.205 cumulative IPC: 3.175 (Simulation time: 00 hr 05 min 23 sec)
Heartbeat CPU 0 instructions: 71000468 cycles: 18422629 heartbeat IPC: 3.235 cumulative IPC: 3.177 (Simulation time: 00 hr 05 min 25 sec)
Heartbeat CPU 0 instructions: 71500472 cycles: 18578539 heartbeat IPC: 3.207 cumulative IPC: 3.177 (Simulation time: 00 hr 05 min 28 sec)
Heartbeat CPU 0 instructions: 72000475 cycles: 18731531 heartbeat IPC: 3.268 cumulative IPC: 3.179 (Simulation time: 00 hr 05 min 30 sec)
Heartbeat CPU 0 instructions: 72500476 cycles: 18888149 heartbeat IPC: 3.192 cumulative IPC: 3.18 (Simulation time: 00 hr 05 min 32 sec)
Heartbeat CPU 0 instructions: 73000483 cycles: 19044770 heartbeat IPC: 3.192 cumulative IPC: 3.18 (Simulation time: 00 hr 05 min 34 sec)
Heartbeat CPU 0 instructions: 73500487 cycles: 19200139 heartbeat IPC: 3.218 cumulative IPC: 3.181 (Simulation time: 00 hr 05 min 37 sec)
Heartbeat CPU 0 instructions: 74000490 cycles: 19353933 heartbeat IPC: 3.251 cumulative IPC: 3.182 (Simulation time: 00 hr 05 min 39 sec)
Heartbeat CPU 0 instructions: 74500495 cycles: 19515044 heartbeat IPC: 3.103 cumulative IPC: 3.181 (Simulation time: 00 hr 05 min 41 sec)
Heartbeat CPU 0 instructions: 75000496 cycles: 19682411 heartbeat IPC: 2.987 cumulative IPC: 3.176 (Simulation time: 00 hr 05 min 44 sec)
Heartbeat CPU 0 instructions: 75500497 cycles: 19843782 heartbeat IPC: 3.098 cumulative IPC: 3.175 (Simulation time: 00 hr 05 min 46 sec)
Heartbeat CPU 0 instructions: 76000499 cycles: 20000702 heartbeat IPC: 3.186 cumulative IPC: 3.175 (Simulation time: 00 hr 05 min 49 sec)
Heartbeat CPU 0 instructions: 76500502 cycles: 20162276 heartbeat IPC: 3.095 cumulative IPC: 3.174 (Simulation time: 00 hr 05 min 51 sec)
Heartbeat CPU 0 instructions: 77000508 cycles: 20322662 heartbeat IPC: 3.118 cumulative IPC: 3.172 (Simulation time: 00 hr 05 min 54 sec)
Heartbeat CPU 0 instructions: 77500512 cycles: 20481860 heartbeat IPC: 3.141 cumulative IPC: 3.172 (Simulation time: 00 hr 05 min 56 sec)
Heartbeat CPU 0 instructions: 78000512 cycles: 20638333 heartbeat IPC: 3.195 cumulative IPC: 3.172 (Simulation time: 00 hr 05 min 59 sec)
Heartbeat CPU 0 instructions: 78500517 cycles: 20797814 heartbeat IPC: 3.135 cumulative IPC: 3.172 (Simulation time: 00 hr 06 min 01 sec)
Heartbeat CPU 0 instructions: 79000522 cycles: 20954597 heartbeat IPC: 3.189 cumulative IPC: 3.172 (Simulation time: 00 hr 06 min 03 sec)
Heartbeat CPU 0 instructions: 79500526 cycles: 21110765 heartbeat IPC: 3.202 cumulative IPC: 3.172 (Simulation time: 00 hr 06 min 06 sec)
Heartbeat CPU 0 instructions: 80000529 cycles: 21265951 heartbeat IPC: 3.222 cumulative IPC: 3.173 (Simulation time: 00 hr 06 min 08 sec)
Heartbeat CPU 0 instructions: 80500532 cycles: 21423928 heartbeat IPC: 3.165 cumulative IPC: 3.173 (Simulation time: 00 hr 06 min 11 sec)
Heartbeat CPU 0 instructions: 81000537 cycles: 21581090 heartbeat IPC: 3.181 cumulative IPC: 3.173 (Simulation time: 00 hr 06 min 13 sec)
Heartbeat CPU 0 instructions: 81500541 cycles: 21738168 heartbeat IPC: 3.183 cumulative IPC: 3.173 (Simulation time: 00 hr 06 min 15 sec)
Heartbeat CPU 0 instructions: 82000544 cycles: 21889923 heartbeat IPC: 3.295 cumulative IPC: 3.175 (Simulation time: 00 hr 06 min 18 sec)
Heartbeat CPU 0 instructions: 82500549 cycles: 22043827 heartbeat IPC: 3.249 cumulative IPC: 3.176 (Simulation time: 00 hr 06 min 20 sec)
Heartbeat CPU 0 instructions: 83000550 cycles: 22199282 heartbeat IPC: 3.216 cumulative IPC: 3.177 (Simulation time: 00 hr 06 min 23 sec)
Heartbeat CPU 0 instructions: 83500551 cycles: 22354455 heartbeat IPC: 3.222 cumulative IPC: 3.178 (Simulation time: 00 hr 06 min 25 sec)
Heartbeat CPU 0 instructions: 84000553 cycles: 22507796 heartbeat IPC: 3.261 cumulative IPC: 3.179 (Simulation time: 00 hr 06 min 27 sec)
Heartbeat CPU 0 instructions: 84500556 cycles: 22663330 heartbeat IPC: 3.215 cumulative IPC: 3.179 (Simulation time: 00 hr 06 min 30 sec)
Heartbeat CPU 0 instructions: 85000562 cycles: 22821173 heartbeat IPC: 3.168 cumulative IPC: 3.179 (Simulation time: 00 hr 06 min 32 sec)
Heartbeat CPU 0 instructions: 85500566 cycles: 22976617 heartbeat IPC: 3.217 cumulative IPC: 3.18 (Simulation time: 00 hr 06 min 35 sec)
Heartbeat CPU 0 instructions: 86000566 cycles: 23130984 heartbeat IPC: 3.239 cumulative IPC: 3.18 (Simulation time: 00 hr 06 min 37 sec)
Heartbeat CPU 0 instructions: 86500571 cycles: 23286622 heartbeat IPC: 3.213 cumulative IPC: 3.181 (Simulation time: 00 hr 06 min 39 sec)
Heartbeat CPU 0 instructions: 87000576 cycles: 23449622 heartbeat IPC: 3.068 cumulative IPC: 3.179 (Simulation time: 00 hr 06 min 42 sec)
Heartbeat CPU 0 instructions: 87500580 cycles: 23616568 heartbeat IPC: 2.995 cumulative IPC: 3.177 (Simulation time: 00 hr 06 min 44 sec)
Heartbeat CPU 0 instructions: 88000583 cycles: 23773776 heartbeat IPC: 3.181 cumulative IPC: 3.177 (Simulation time: 00 hr 06 min 47 sec)
Heartbeat CPU 0 instructions: 88500584 cycles: 23932373 heartbeat IPC: 3.153 cumulative IPC: 3.176 (Simulation time: 00 hr 06 min 49 sec)
Heartbeat CPU 0 instructions: 89000591 cycles: 24094139 heartbeat IPC: 3.091 cumulative IPC: 3.175 (Simulation time: 00 hr 06 min 52 sec)
Heartbeat CPU 0 instructions: 89500595 cycles: 24253530 heartbeat IPC: 3.137 cumulative IPC: 3.175 (Simulation time: 00 hr 06 min 54 sec)
Heartbeat CPU 0 instructions: 90000598 cycles: 24409496 heartbeat IPC: 3.206 cumulative IPC: 3.175 (Simulation time: 00 hr 06 min 57 sec)
Heartbeat CPU 0 instructions: 90500599 cycles: 24567589 heartbeat IPC: 3.163 cumulative IPC: 3.175 (Simulation time: 00 hr 06 min 59 sec)
Heartbeat CPU 0 instructions: 91000600 cycles: 24726149 heartbeat IPC: 3.153 cumulative IPC: 3.175 (Simulation time: 00 hr 07 min 01 sec)
Heartbeat CPU 0 instructions: 91500600 cycles: 24884016 heartbeat IPC: 3.167 cumulative IPC: 3.175 (Simulation time: 00 hr 07 min 04 sec)
Heartbeat CPU 0 instructions: 92000607 cycles: 25038670 heartbeat IPC: 3.233 cumulative IPC: 3.175 (Simulation time: 00 hr 07 min 06 sec)
Heartbeat CPU 0 instructions: 92500610 cycles: 25196184 heartbeat IPC: 3.174 cumulative IPC: 3.175 (Simulation time: 00 hr 07 min 09 sec)
Heartbeat CPU 0 instructions: 93000616 cycles: 25354555 heartbeat IPC: 3.157 cumulative IPC: 3.175 (Simulation time: 00 hr 07 min 11 sec)
Heartbeat CPU 0 instructions: 93500617 cycles: 25511066 heartbeat IPC: 3.195 cumulative IPC: 3.175 (Simulation time: 00 hr 07 min 14 sec)
Heartbeat CPU 0 instructions: 94000618 cycles: 25665667 heartbeat IPC: 3.234 cumulative IPC: 3.176 (Simulation time: 00 hr 07 min 16 sec)
Heartbeat CPU 0 instructions: 94500625 cycles: 25821108 heartbeat IPC: 3.217 cumulative IPC: 3.177 (Simulation time: 00 hr 07 min 18 sec)
Heartbeat CPU 0 instructions: 95000630 cycles: 25976816 heartbeat IPC: 3.211 cumulative IPC: 3.177 (Simulation time: 00 hr 07 min 21 sec)
Heartbeat CPU 0 instructions: 95500635 cycles: 26131510 heartbeat IPC: 3.232 cumulative IPC: 3.177 (Simulation time: 00 hr 07 min 23 sec)
Heartbeat CPU 0 instructions: 96000637 cycles: 26286611 heartbeat IPC: 3.224 cumulative IPC: 3.178 (Simulation time: 00 hr 07 min 25 sec)
Heartbeat CPU 0 instructions: 96500638 cycles: 26441895 heartbeat IPC: 3.22 cumulative IPC: 3.178 (Simulation time: 00 hr 07 min 28 sec)
Heartbeat CPU 0 instructions: 97000645 cycles: 26598918 heartbeat IPC: 3.184 cumulative IPC: 3.178 (Simulation time: 00 hr 07 min 30 sec)
Heartbeat CPU 0 instructions: 97500650 cycles: 26754207 heartbeat IPC: 3.22 cumulative IPC: 3.179 (Simulation time: 00 hr 07 min 33 sec)
Heartbeat CPU 0 instructions: 98000652 cycles: 26908910 heartbeat IPC: 3.232 cumulative IPC: 3.179 (Simulation time: 00 hr 07 min 35 sec)
Heartbeat CPU 0 instructions: 98500653 cycles: 27064674 heartbeat IPC: 3.21 cumulative IPC: 3.18 (Simulation time: 00 hr 07 min 37 sec)
Heartbeat CPU 0 instructions: 99000654 cycles: 27221371 heartbeat IPC: 3.191 cumulative IPC: 3.18 (Simulation time: 00 hr 07 min 40 sec)
Heartbeat CPU 0 instructions: 99500656 cycles: 27387897 heartbeat IPC: 3.003 cumulative IPC: 3.178 (Simulation time: 00 hr 07 min 42 sec)
Heartbeat CPU 0 instructions: 100000661 cycles: 27549573 heartbeat IPC: 3.093 cumulative IPC: 3.177 (Simulation time: 00 hr 07 min 45 sec)
Heartbeat CPU 0 instructions: 100500664 cycles: 27710175 heartbeat IPC: 3.113 cumulative IPC: 3.176 (Simulation time: 00 hr 07 min 47 sec)
Heartbeat CPU 0 instructions: 101000670 cycles: 27871256 heartbeat IPC: 3.104 cumulative IPC: 3.176 (Simulation time: 00 hr 07 min 50 sec)
Heartbeat CPU 0 instructions: 101500671 cycles: 28028562 heartbeat IPC: 3.179 cumulative IPC: 3.176 (Simulation time: 00 hr 07 min 52 sec)
Heartbeat CPU 0 instructions: 102000672 cycles: 28188158 heartbeat IPC: 3.133 cumulative IPC: 3.175 (Simulation time: 00 hr 07 min 55 sec)
Heartbeat CPU 0 instructions: 102500679 cycles: 28346984 heartbeat IPC: 3.148 cumulative IPC: 3.175 (Simulation time: 00 hr 07 min 57 sec)
Heartbeat CPU 0 instructions: 103000684 cycles: 28506353 heartbeat IPC: 3.137 cumulative IPC: 3.175 (Simulation time: 00 hr 08 min 00 sec)
Heartbeat CPU 0 instructions: 103500684 cycles: 28661175 heartbeat IPC: 3.23 cumulative IPC: 3.175 (Simulation time: 00 hr 08 min 02 sec)
Heartbeat CPU 0 instructions: 104000691 cycles: 28819545 heartbeat IPC: 3.157 cumulative IPC: 3.175 (Simulation time: 00 hr 08 min 05 sec)
Heartbeat CPU 0 instructions: 104500692 cycles: 28976666 heartbeat IPC: 3.182 cumulative IPC: 3.175 (Simulation time: 00 hr 08 min 07 sec)
Heartbeat CPU 0 instructions: 105000699 cycles: 29133956 heartbeat IPC: 3.179 cumulative IPC: 3.175 (Simulation time: 00 hr 08 min 09 sec)
Heartbeat CPU 0 instructions: 105500703 cycles: 29290101 heartbeat IPC: 3.202 cumulative IPC: 3.175 (Simulation time: 00 hr 08 min 12 sec)
Heartbeat CPU 0 instructions: 106000706 cycles: 29446911 heartbeat IPC: 3.189 cumulative IPC: 3.176 (Simulation time: 00 hr 08 min 14 sec)
Heartbeat CPU 0 instructions: 106500707 cycles: 29602655 heartbeat IPC: 3.21 cumulative IPC: 3.176 (Simulation time: 00 hr 08 min 16 sec)
Heartbeat CPU 0 instructions: 107000708 cycles: 29757746 heartbeat IPC: 3.224 cumulative IPC: 3.176 (Simulation time: 00 hr 08 min 19 sec)
Heartbeat CPU 0 instructions: 107500711 cycles: 29911241 heartbeat IPC: 3.257 cumulative IPC: 3.177 (Simulation time: 00 hr 08 min 21 sec)
Heartbeat CPU 0 instructions: 108000715 cycles: 30066315 heartbeat IPC: 3.224 cumulative IPC: 3.177 (Simulation time: 00 hr 08 min 23 sec)
Heartbeat CPU 0 instructions: 108500718 cycles: 30222399 heartbeat IPC: 3.203 cumulative IPC: 3.178 (Simulation time: 00 hr 08 min 26 sec)
Heartbeat CPU 0 instructions: 109000724 cycles: 30377949 heartbeat IPC: 3.214 cumulative IPC: 3.178 (Simulation time: 00 hr 08 min 28 sec)
Heartbeat CPU 0 instructions: 109500727 cycles: 30530455 heartbeat IPC: 3.279 cumulative IPC: 3.179 (Simulation time: 00 hr 08 min 30 sec)
Heartbeat CPU 0 instructions: 110000728 cycles: 30687174 heartbeat IPC: 3.19 cumulative IPC: 3.179 (Simulation time: 00 hr 08 min 33 sec)
Heartbeat CPU 0 instructions: 110500733 cycles: 30842737 heartbeat IPC: 3.214 cumulative IPC: 3.179 (Simulation time: 00 hr 08 min 35 sec)
Heartbeat CPU 0 instructions: 111000738 cycles: 30999129 heartbeat IPC: 3.197 cumulative IPC: 3.179 (Simulation time: 00 hr 08 min 37 sec)
Heartbeat CPU 0 instructions: 111500738 cycles: 31151492 heartbeat IPC: 3.282 cumulative IPC: 3.18 (Simulation time: 00 hr 08 min 40 sec)
Heartbeat CPU 0 instructions: 112000745 cycles: 31322579 heartbeat IPC: 2.923 cumulative IPC: 3.178 (Simulation time: 00 hr 08 min 42 sec)
Heartbeat CPU 0 instructions: 112500746 cycles: 31483326 heartbeat IPC: 3.11 cumulative IPC: 3.177 (Simulation time: 00 hr 08 min 45 sec)
Heartbeat CPU 0 instructions: 113000753 cycles: 31645449 heartbeat IPC: 3.084 cumulative IPC: 3.176 (Simulation time: 00 hr 08 min 47 sec)
Heartbeat CPU 0 instructions: 113500757 cycles: 31802237 heartbeat IPC: 3.189 cumulative IPC: 3.177 (Simulation time: 00 hr 08 min 49 sec)
Heartbeat CPU 0 instructions: 114000760 cycles: 31962656 heartbeat IPC: 3.117 cumulative IPC: 3.176 (Simulation time: 00 hr 08 min 52 sec)
Heartbeat CPU 0 instructions: 114500761 cycles: 32123703 heartbeat IPC: 3.105 cumulative IPC: 3.176 (Simulation time: 00 hr 08 min 54 sec)
Heartbeat CPU 0 instructions: 115000762 cycles: 32282488 heartbeat IPC: 3.149 cumulative IPC: 3.175 (Simulation time: 00 hr 08 min 57 sec)
Heartbeat CPU 0 instructions: 115500765 cycles: 32438885 heartbeat IPC: 3.197 cumulative IPC: 3.175 (Simulation time: 00 hr 08 min 59 sec)
Heartbeat CPU 0 instructions: 116000769 cycles: 32597648 heartbeat IPC: 3.149 cumulative IPC: 3.175 (Simulation time: 00 hr 09 min 01 sec)
Heartbeat CPU 0 instructions: 116500772 cycles: 32754788 heartbeat IPC: 3.182 cumulative IPC: 3.175 (Simulation time: 00 hr 09 min 04 sec)
Heartbeat CPU 0 instructions: 117000778 cycles: 32912309 heartbeat IPC: 3.174 cumulative IPC: 3.175 (Simulation time: 00 hr 09 min 06 sec)
Heartbeat CPU 0 instructions: 117500781 cycles: 33067606 heartbeat IPC: 3.22 cumulative IPC: 3.176 (Simulation time: 00 hr 09 min 08 sec)
Heartbeat CPU 0 instructions: 118000782 cycles: 33225428 heartbeat IPC: 3.168 cumulative IPC: 3.176 (Simulation time: 00 hr 09 min 11 sec)
Heartbeat CPU 0 instructions: 118500787 cycles: 33382407 heartbeat IPC: 3.185 cumulative IPC: 3.176 (Simulation time: 00 hr 09 min 13 sec)
Heartbeat CPU 0 instructions: 119000792 cycles: 33536858 heartbeat IPC: 3.237 cumulative IPC: 3.176 (Simulation time: 00 hr 09 min 15 sec)
Heartbeat CPU 0 instructions: 119500792 cycles: 33690182 heartbeat IPC: 3.261 cumulative IPC: 3.177 (Simulation time: 00 hr 09 min 18 sec)
Heartbeat CPU 0 instructions: 120000799 cycles: 33845661 heartbeat IPC: 3.216 cumulative IPC: 3.177 (Simulation time: 00 hr 09 min 20 sec)
Heartbeat CPU 0 instructions: 120500800 cycles: 34000880 heartbeat IPC: 3.221 cumulative IPC: 3.177 (Simulation time: 00 hr 09 min 22 sec)
Heartbeat CPU 0 instructions: 121000807 cycles: 34156687 heartbeat IPC: 3.209 cumulative IPC: 3.177 (Simulation time: 00 hr 09 min 25 sec)
Heartbeat CPU 0 instructions: 121500811 cycles: 34310220 heartbeat IPC: 3.257 cumulative IPC: 3.178 (Simulation time: 00 hr 09 min 27 sec)
Heartbeat CPU 0 instructions: 122000814 cycles: 34466710 heartbeat IPC: 3.195 cumulative IPC: 3.178 (Simulation time: 00 hr 09 min 29 sec)
Heartbeat CPU 0 instructions: 122500815 cycles: 34622633 heartbeat IPC: 3.207 cumulative IPC: 3.178 (Simulation time: 00 hr 09 min 32 sec)
Heartbeat CPU 0 instructions: 123000816 cycles: 34780894 heartbeat IPC: 3.159 cumulative IPC: 3.178 (Simulation time: 00 hr 09 min 34 sec)
Heartbeat CPU 0 instructions: 123500819 cycles: 34934451 heartbeat IPC: 3.256 cumulative IPC: 3.179 (Simulation time: 00 hr 09 min 36 sec)
Heartbeat CPU 0 instructions: 124000823 cycles: 35090632 heartbeat IPC: 3.201 cumulative IPC: 3.179 (Simulation time: 00 hr 09 min 38 sec)
Heartbeat CPU 0 instructions: 124500824 cycles: 35308287 heartbeat IPC: 2.297 cumulative IPC: 3.171 (Simulation time: 00 hr 09 min 41 sec)
Heartbeat CPU 0 instructions: 125000827 cycles: 35518821 heartbeat IPC: 2.375 cumulative IPC: 3.164 (Simulation time: 00 hr 09 min 44 sec)
Heartbeat CPU 0 instructions: 125500833 cycles: 35729478 heartbeat IPC: 2.374 cumulative IPC: 3.157 (Simulation time: 00 hr 09 min 47 sec)
Heartbeat CPU 0 instructions: 126000838 cycles: 35936150 heartbeat IPC: 2.419 cumulative IPC: 3.15 (Simulation time: 00 hr 09 min 50 sec)
Heartbeat CPU 0 instructions: 126500840 cycles: 36136469 heartbeat IPC: 2.496 cumulative IPC: 3.145 (Simulation time: 00 hr 09 min 53 sec)
Heartbeat CPU 0 instructions: 127000846 cycles: 36338976 heartbeat IPC: 2.469 cumulative IPC: 3.139 (Simulation time: 00 hr 09 min 56 sec)
Heartbeat CPU 0 instructions: 127500849 cycles: 36540350 heartbeat IPC: 2.483 cumulative IPC: 3.134 (Simulation time: 00 hr 09 min 59 sec)
Heartbeat CPU 0 instructions: 128000852 cycles: 36787189 heartbeat IPC: 2.026 cumulative IPC: 3.123 (Simulation time: 00 hr 10 min 02 sec)
Heartbeat CPU 0 instructions: 128500853 cycles: 37110751 heartbeat IPC: 1.545 cumulative IPC: 3.103 (Simulation time: 00 hr 10 min 06 sec)
Heartbeat CPU 0 instructions: 129000854 cycles: 37427005 heartbeat IPC: 1.581 cumulative IPC: 3.084 (Simulation time: 00 hr 10 min 11 sec)
Heartbeat CPU 0 instructions: 129500855 cycles: 37744917 heartbeat IPC: 1.573 cumulative IPC: 3.066 (Simulation time: 00 hr 10 min 15 sec)
Heartbeat CPU 0 instructions: 130000855 cycles: 38061530 heartbeat IPC: 1.579 cumulative IPC: 3.048 (Simulation time: 00 hr 10 min 19 sec)
Heartbeat CPU 0 instructions: 130500856 cycles: 38380090 heartbeat IPC: 1.57 cumulative IPC: 3.03 (Simulation time: 00 hr 10 min 24 sec)
Heartbeat CPU 0 instructions: 131000857 cycles: 38698053 heartbeat IPC: 1.573 cumulative IPC: 3.013 (Simulation time: 00 hr 10 min 28 sec)
Heartbeat CPU 0 instructions: 131500858 cycles: 39012714 heartbeat IPC: 1.589 cumulative IPC: 2.996 (Simulation time: 00 hr 10 min 32 sec)
Heartbeat CPU 0 instructions: 132000859 cycles: 39329347 heartbeat IPC: 1.579 cumulative IPC: 2.98 (Simulation time: 00 hr 10 min 37 sec)
Heartbeat CPU 0 instructions: 132500860 cycles: 39645510 heartbeat IPC: 1.581 cumulative IPC: 2.964 (Simulation time: 00 hr 10 min 41 sec)
Heartbeat CPU 0 instructions: 133000861 cycles: 39961947 heartbeat IPC: 1.58 cumulative IPC: 2.949 (Simulation time: 00 hr 10 min 45 sec)
Heartbeat CPU 0 instructions: 133500866 cycles: 40279266 heartbeat IPC: 1.576 cumulative IPC: 2.933 (Simulation time: 00 hr 10 min 50 sec)
Heartbeat CPU 0 instructions: 134000867 cycles: 40596590 heartbeat IPC: 1.576 cumulative IPC: 2.918 (Simulation time: 00 hr 10 min 54 sec)
Heartbeat CPU 0 instructions: 134500868 cycles: 40911669 heartbeat IPC: 1.587 cumulative IPC: 2.904 (Simulation time: 00 hr 10 min 58 sec)
Heartbeat CPU 0 instructions: 135000869 cycles: 41228871 heartbeat IPC: 1.576 cumulative IPC: 2.89 (Simulation time: 00 hr 11 min 03 sec)
Heartbeat CPU 0 instructions: 135500870 cycles: 41545514 heartbeat IPC: 1.579 cumulative IPC: 2.876 (Simulation time: 00 hr 11 min 07 sec)
Heartbeat CPU 0 instructions: 136000871 cycles: 41859192 heartbeat IPC: 1.594 cumulative IPC: 2.862 (Simulation time: 00 hr 11 min 11 sec)
Heartbeat CPU 0 instructions: 136500872 cycles: 42175106 heartbeat IPC: 1.583 cumulative IPC: 2.849 (Simulation time: 00 hr 11 min 16 sec)
Heartbeat CPU 0 instructions: 137000872 cycles: 42490543 heartbeat IPC: 1.585 cumulative IPC: 2.836 (Simulation time: 00 hr 11 min 20 sec)
Heartbeat CPU 0 instructions: 137500873 cycles: 42806988 heartbeat IPC: 1.58 cumulative IPC: 2.823 (Simulation time: 00 hr 11 min 24 sec)
Heartbeat CPU 0 instructions: 138000874 cycles: 43122368 heartbeat IPC: 1.585 cumulative IPC: 2.811 (Simulation time: 00 hr 11 min 29 sec)
Heartbeat CPU 0 instructions: 138500875 cycles: 43439330 heartbeat IPC: 1.577 cumulative IPC: 2.798 (Simulation time: 00 hr 11 min 33 sec)
Heartbeat CPU 0 instructions: 139000876 cycles: 43755142 heartbeat IPC: 1.583 cumulative IPC: 2.786 (Simulation time: 00 hr 11 min 37 sec)
Heartbeat CPU 0 instructions: 139500877 cycles: 44072825 heartbeat IPC: 1.574 cumulative IPC: 2.774 (Simulation time: 00 hr 11 min 42 sec)
Heartbeat CPU 0 instructions: 140000882 cycles: 44388591 heartbeat IPC: 1.583 cumulative IPC: 2.763 (Simulation time: 00 hr 11 min 46 sec)
Heartbeat CPU 0 instructions: 140500883 cycles: 44701594 heartbeat IPC: 1.597 cumulative IPC: 2.752 (Simulation time: 00 hr 11 min 50 sec)
Heartbeat CPU 0 instructions: 141000884 cycles: 45013805 heartbeat IPC: 1.601 cumulative IPC: 2.741 (Simulation time: 00 hr 11 min 55 sec)
Heartbeat CPU 0 instructions: 141500885 cycles: 45325835 heartbeat IPC: 1.602 cumulative IPC: 2.73 (Simulation time: 00 hr 11 min 59 sec)
Heartbeat CPU 0 instructions: 142000886 cycles: 45638773 heartbeat IPC: 1.598 cumulative IPC: 2.72 (Simulation time: 00 hr 12 min 04 sec)
Heartbeat CPU 0 instructions: 142500887 cycles: 45951303 heartbeat IPC: 1.6 cumulative IPC: 2.709 (Simulation time: 00 hr 12 min 08 sec)
Heartbeat CPU 0 instructions: 143000888 cycles: 46264395 heartbeat IPC: 1.597 cumulative IPC: 2.699 (Simulation time: 00 hr 12 min 12 sec)
Heartbeat CPU 0 instructions: 143500888 cycles: 46575899 heartbeat IPC: 1.605 cumulative IPC: 2.69 (Simulation time: 00 hr 12 min 17 sec)
Heartbeat CPU 0 instructions: 144000889 cycles: 46889050 heartbeat IPC: 1.597 cumulative IPC: 2.68 (Simulation time: 00 hr 12 min 21 sec)
Heartbeat CPU 0 instructions: 144500890 cycles: 47201312 heartbeat IPC: 1.601 cumulative IPC: 2.67 (Simulation time: 00 hr 12 min 26 sec)
Heartbeat CPU 0 instructions: 145000891 cycles: 47513983 heartbeat IPC: 1.599 cumulative IPC: 2.661 (Simulation time: 00 hr 12 min 30 sec)
Heartbeat CPU 0 instructions: 145500892 cycles: 47826206 heartbeat IPC: 1.601 cumulative IPC: 2.652 (Simulation time: 00 hr 12 min 35 sec)
Heartbeat CPU 0 instructions: 146000893 cycles: 48138935 heartbeat IPC: 1.599 cumulative IPC: 2.643 (Simulation time: 00 hr 12 min 39 sec)
Heartbeat CPU 0 instructions: 146500894 cycles: 48451399 heartbeat IPC: 1.6 cumulative IPC: 2.634 (Simulation time: 00 hr 12 min 43 sec)
Heartbeat CPU 0 instructions: 147000899 cycles: 48763870 heartbeat IPC: 1.6 cumulative IPC: 2.625 (Simulation time: 00 hr 12 min 48 sec)
Heartbeat CPU 0 instructions: 147500900 cycles: 49076268 heartbeat IPC: 1.601 cumulative IPC: 2.616 (Simulation time: 00 hr 12 min 52 sec)
Heartbeat CPU 0 instructions: 148000901 cycles: 49388938 heartbeat IPC: 1.599 cumulative IPC: 2.608 (Simulation time: 00 hr 12 min 57 sec)
Heartbeat CPU 0 instructions: 148500907 cycles: 50805519 heartbeat IPC: 0.353 cumulative IPC: 2.526 (Simulation time: 00 hr 13 min 15 sec)
Heartbeat CPU 0 instructions: 149000909 cycles: 52020102 heartbeat IPC: 0.4117 cumulative IPC: 2.462 (Simulation time: 00 hr 13 min 31 sec)
Heartbeat CPU 0 instructions: 149500910 cycles: 52433757 heartbeat IPC: 1.209 cumulative IPC: 2.449 (Simulation time: 00 hr 13 min 37 sec)
Heartbeat CPU 0 instructions: 150000915 cycles: 52668620 heartbeat IPC: 2.129 cumulative IPC: 2.448 (Simulation time: 00 hr 13 min 41 sec)
Heartbeat CPU 0 instructions: 150500921 cycles: 52873821 heartbeat IPC: 2.437 cumulative IPC: 2.448 (Simulation time: 00 hr 13 min 45 sec)
Heartbeat CPU 0 instructions: 151000923 cycles: 53086438 heartbeat IPC: 2.352 cumulative IPC: 2.447 (Simulation time: 00 hr 13 min 49 sec)
Heartbeat CPU 0 instructions: 151500929 cycles: 53317002 heartbeat IPC: 2.169 cumulative IPC: 2.446 (Simulation time: 00 hr 13 min 52 sec)
Heartbeat CPU 0 instructions: 152000930 cycles: 53520117 heartbeat IPC: 2.462 cumulative IPC: 2.446 (Simulation time: 00 hr 13 min 56 sec)
Heartbeat CPU 0 instructions: 152500936 cycles: 53739875 heartbeat IPC: 2.275 cumulative IPC: 2.445 (Simulation time: 00 hr 14 min 00 sec)
Heartbeat CPU 0 instructions: 153000939 cycles: 53937067 heartbeat IPC: 2.536 cumulative IPC: 2.445 (Simulation time: 00 hr 14 min 03 sec)
Heartbeat CPU 0 instructions: 153500941 cycles: 54139545 heartbeat IPC: 2.469 cumulative IPC: 2.445 (Simulation time: 00 hr 14 min 07 sec)
Heartbeat CPU 0 instructions: 154000948 cycles: 54350948 heartbeat IPC: 2.365 cumulative IPC: 2.445 (Simulation time: 00 hr 14 min 10 sec)
Heartbeat CPU 0 instructions: 154500953 cycles: 54542041 heartbeat IPC: 2.617 cumulative IPC: 2.446 (Simulation time: 00 hr 14 min 14 sec)
Heartbeat CPU 0 instructions: 155000957 cycles: 54730184 heartbeat IPC: 2.658 cumulative IPC: 2.447 (Simulation time: 00 hr 14 min 17 sec)
Heartbeat CPU 0 instructions: 155500961 cycles: 54937138 heartbeat IPC: 2.416 cumulative IPC: 2.446 (Simulation time: 00 hr 14 min 21 sec)
Heartbeat CPU 0 instructions: 156000962 cycles: 55122090 heartbeat IPC: 2.703 cumulative IPC: 2.447 (Simulation time: 00 hr 14 min 24 sec)
Heartbeat CPU 0 instructions: 156500968 cycles: 55306952 heartbeat IPC: 2.705 cumulative IPC: 2.449 (Simulation time: 00 hr 14 min 27 sec)
Heartbeat CPU 0 instructions: 157000970 cycles: 55509834 heartbeat IPC: 2.464 cumulative IPC: 2.449 (Simulation time: 00 hr 14 min 31 sec)
Heartbeat CPU 0 instructions: 157500975 cycles: 55694919 heartbeat IPC: 2.701 cumulative IPC: 2.45 (Simulation time: 00 hr 14 min 34 sec)
Heartbeat CPU 0 instructions: 158000975 cycles: 55892104 heartbeat IPC: 2.536 cumulative IPC: 2.45 (Simulation time: 00 hr 14 min 38 sec)
Heartbeat CPU 0 instructions: 158500980 cycles: 56083374 heartbeat IPC: 2.614 cumulative IPC: 2.451 (Simulation time: 00 hr 14 min 41 sec)
Heartbeat CPU 0 instructions: 159000982 cycles: 56268740 heartbeat IPC: 2.697 cumulative IPC: 2.452 (Simulation time: 00 hr 14 min 44 sec)
Heartbeat CPU 0 instructions: 159500984 cycles: 56478242 heartbeat IPC: 2.387 cumulative IPC: 2.452 (Simulation time: 00 hr 14 min 48 sec)
Heartbeat CPU 0 instructions: 160000987 cycles: 56653158 heartbeat IPC: 2.859 cumulative IPC: 2.453 (Simulation time: 00 hr 14 min 51 sec)
Heartbeat CPU 0 instructions: 160500989 cycles: 56828279 heartbeat IPC: 2.855 cumulative IPC: 2.455 (Simulation time: 00 hr 14 min 55 sec)
Heartbeat CPU 0 instructions: 161000996 cycles: 57015646 heartbeat IPC: 2.669 cumulative IPC: 2.456 (Simulation time: 00 hr 14 min 58 sec)
Heartbeat CPU 0 instructions: 161500998 cycles: 57189568 heartbeat IPC: 2.875 cumulative IPC: 2.457 (Simulation time: 00 hr 15 min 01 sec)
Heartbeat CPU 0 instructions: 162001004 cycles: 57364347 heartbeat IPC: 2.861 cumulative IPC: 2.459 (Simulation time: 00 hr 15 min 04 sec)
Heartbeat CPU 0 instructions: 162501004 cycles: 57552169 heartbeat IPC: 2.662 cumulative IPC: 2.46 (Simulation time: 00 hr 15 min 08 sec)
Heartbeat CPU 0 instructions: 163001007 cycles: 57726746 heartbeat IPC: 2.864 cumulative IPC: 2.461 (Simulation time: 00 hr 15 min 11 sec)
Heartbeat CPU 0 instructions: 163501011 cycles: 57900110 heartbeat IPC: 2.884 cumulative IPC: 2.463 (Simulation time: 00 hr 15 min 14 sec)
Heartbeat CPU 0 instructions: 164001012 cycles: 58087206 heartbeat IPC: 2.672 cumulative IPC: 2.464 (Simulation time: 00 hr 15 min 17 sec)
Heartbeat CPU 0 instructions: 164501014 cycles: 58261596 heartbeat IPC: 2.867 cumulative IPC: 2.465 (Simulation time: 00 hr 15 min 21 sec)
Heartbeat CPU 0 instructions: 165001015 cycles: 58448944 heartbeat IPC: 2.669 cumulative IPC: 2.466 (Simulation time: 00 hr 15 min 24 sec)
Heartbeat CPU 0 instructions: 165501018 cycles: 58623677 heartbeat IPC: 2.862 cumulative IPC: 2.467 (Simulation time: 00 hr 15 min 27 sec)
Heartbeat CPU 0 instructions: 166001021 cycles: 58798196 heartbeat IPC: 2.865 cumulative IPC: 2.469 (Simulation time: 00 hr 15 min 30 sec)
Heartbeat CPU 0 instructions: 166501022 cycles: 58985177 heartbeat IPC: 2.674 cumulative IPC: 2.47 (Simulation time: 00 hr 15 min 34 sec)
Heartbeat CPU 0 instructions: 167001029 cycles: 59160143 heartbeat IPC: 2.858 cumulative IPC: 2.471 (Simulation time: 00 hr 15 min 37 sec)
Heartbeat CPU 0 instructions: 167501033 cycles: 59334431 heartbeat IPC: 2.869 cumulative IPC: 2.473 (Simulation time: 00 hr 15 min 40 sec)
Heartbeat CPU 0 instructions: 168001038 cycles: 59521002 heartbeat IPC: 2.68 cumulative IPC: 2.473 (Simulation time: 00 hr 15 min 44 sec)
Heartbeat CPU 0 instructions: 168501043 cycles: 59695774 heartbeat IPC: 2.861 cumulative IPC: 2.475 (Simulation time: 00 hr 15 min 47 sec)
Heartbeat CPU 0 instructions: 169001043 cycles: 59869788 heartbeat IPC: 2.873 cumulative IPC: 2.476 (Simulation time: 00 hr 15 min 50 sec)
Heartbeat CPU 0 instructions: 169501043 cycles: 60061734 heartbeat IPC: 2.605 cumulative IPC: 2.477 (Simulation time: 00 hr 15 min 53 sec)
Heartbeat CPU 0 instructions: 170001050 cycles: 60247333 heartbeat IPC: 2.694 cumulative IPC: 2.478 (Simulation time: 00 hr 15 min 57 sec)
Heartbeat CPU 0 instructions: 170501054 cycles: 60421507 heartbeat IPC: 2.871 cumulative IPC: 2.479 (Simulation time: 00 hr 16 min 00 sec)
Heartbeat CPU 0 instructions: 171001058 cycles: 60608063 heartbeat IPC: 2.68 cumulative IPC: 2.48 (Simulation time: 00 hr 16 min 03 sec)
Heartbeat CPU 0 instructions: 171501060 cycles: 60782966 heartbeat IPC: 2.859 cumulative IPC: 2.481 (Simulation time: 00 hr 16 min 06 sec)
Heartbeat CPU 0 instructions: 172001061 cycles: 60971036 heartbeat IPC: 2.659 cumulative IPC: 2.482 (Simulation time: 00 hr 16 min 10 sec)
Heartbeat CPU 0 instructions: 172501062 cycles: 61146539 heartbeat IPC: 2.849 cumulative IPC: 2.483 (Simulation time: 00 hr 16 min 13 sec)
Heartbeat CPU 0 instructions: 173001069 cycles: 61320561 heartbeat IPC: 2.873 cumulative IPC: 2.484 (Simulation time: 00 hr 16 min 16 sec)
Heartbeat CPU 0 instructions: 173501076 cycles: 61507817 heartbeat IPC: 2.67 cumulative IPC: 2.485 (Simulation time: 00 hr 16 min 20 sec)
Heartbeat CPU 0 instructions: 174001078 cycles: 61682005 heartbeat IPC: 2.87 cumulative IPC: 2.486 (Simulation time: 00 hr 16 min 23 sec)
Heartbeat CPU 0 instructions: 174501082 cycles: 61856009 heartbeat IPC: 2.874 cumulative IPC: 2.488 (Simulation time: 00 hr 16 min 26 sec)
Heartbeat CPU 0 instructions: 175001083 cycles: 62043975 heartbeat IPC: 2.66 cumulative IPC: 2.488 (Simulation time: 00 hr 16 min 30 sec)
Heartbeat CPU 0 instructions: 175501086 cycles: 62217620 heartbeat IPC: 2.879 cumulative IPC: 2.49 (Simulation time: 00 hr 16 min 33 sec)
Heartbeat CPU 0 instructions: 176001087 cycles: 62392934 heartbeat IPC: 2.852 cumulative IPC: 2.491 (Simulation time: 00 hr 16 min 36 sec)
Heartbeat CPU 0 instructions: 176501090 cycles: 62580271 heartbeat IPC: 2.669 cumulative IPC: 2.492 (Simulation time: 00 hr 16 min 39 sec)
Heartbeat CPU 0 instructions: 177001091 cycles: 62762439 heartbeat IPC: 2.745 cumulative IPC: 2.493 (Simulation time: 00 hr 16 min 43 sec)
Heartbeat CPU 0 instructions: 177501092 cycles: 62973063 heartbeat IPC: 2.374 cumulative IPC: 2.492 (Simulation time: 00 hr 16 min 46 sec)
Heartbeat CPU 0 instructions: 178001094 cycles: 63230506 heartbeat IPC: 1.942 cumulative IPC: 2.489 (Simulation time: 00 hr 16 min 51 sec)
Heartbeat CPU 0 instructions: 178501098 cycles: 63469018 heartbeat IPC: 2.096 cumulative IPC: 2.488 (Simulation time: 00 hr 16 min 55 sec)
Heartbeat CPU 0 instructions: 179001101 cycles: 63741914 heartbeat IPC: 1.832 cumulative IPC: 2.484 (Simulation time: 00 hr 16 min 59 sec)
Heartbeat CPU 0 instructions: 179501102 cycles: 63971846 heartbeat IPC: 2.175 cumulative IPC: 2.483 (Simulation time: 00 hr 17 min 03 sec)
Heartbeat CPU 0 instructions: 180001104 cycles: 64237369 heartbeat IPC: 1.883 cumulative IPC: 2.48 (Simulation time: 00 hr 17 min 07 sec)
Heartbeat CPU 0 instructions: 180501105 cycles: 64497179 heartbeat IPC: 1.924 cumulative IPC: 2.477 (Simulation time: 00 hr 17 min 11 sec)
Heartbeat CPU 0 instructions: 181001108 cycles: 64712654 heartbeat IPC: 2.32 cumulative IPC: 2.476 (Simulation time: 00 hr 17 min 15 sec)
Heartbeat CPU 0 instructions: 181501113 cycles: 64927785 heartbeat IPC: 2.324 cumulative IPC: 2.476 (Simulation time: 00 hr 17 min 19 sec)
Heartbeat CPU 0 instructions: 182001113 cycles: 65179961 heartbeat IPC: 1.983 cumulative IPC: 2.473 (Simulation time: 00 hr 17 min 23 sec)
Heartbeat CPU 0 instructions: 182501115 cycles: 65384590 heartbeat IPC: 2.443 cumulative IPC: 2.473 (Simulation time: 00 hr 17 min 27 sec)
Heartbeat CPU 0 instructions: 183001119 cycles: 65582078 heartbeat IPC: 2.532 cumulative IPC: 2.474 (Simulation time: 00 hr 17 min 30 sec)
Heartbeat CPU 0 instructions: 183501120 cycles: 65792326 heartbeat IPC: 2.378 cumulative IPC: 2.473 (Simulation time: 00 hr 17 min 34 sec)
Heartbeat CPU 0 instructions: 184001124 cycles: 65994525 heartbeat IPC: 2.473 cumulative IPC: 2.473 (Simulation time: 00 hr 17 min 38 sec)
Heartbeat CPU 0 instructions: 184501124 cycles: 66202268 heartbeat IPC: 2.407 cumulative IPC: 2.473 (Simulation time: 00 hr 17 min 41 sec)
Heartbeat CPU 0 instructions: 185001128 cycles: 66394842 heartbeat IPC: 2.596 cumulative IPC: 2.473 (Simulation time: 00 hr 17 min 45 sec)
Heartbeat CPU 0 instructions: 185501130 cycles: 66582811 heartbeat IPC: 2.66 cumulative IPC: 2.474 (Simulation time: 00 hr 17 min 48 sec)
Heartbeat CPU 0 instructions: 186001131 cycles: 66794720 heartbeat IPC: 2.36 cumulative IPC: 2.474 (Simulation time: 00 hr 17 min 52 sec)
Heartbeat CPU 0 instructions: 186501132 cycles: 66981374 heartbeat IPC: 2.679 cumulative IPC: 2.474 (Simulation time: 00 hr 17 min 55 sec)
Heartbeat CPU 0 instructions: 187001134 cycles: 67165326 heartbeat IPC: 2.718 cumulative IPC: 2.475 (Simulation time: 00 hr 17 min 58 sec)
Heartbeat CPU 0 instructions: 187501134 cycles: 67375382 heartbeat IPC: 2.38 cumulative IPC: 2.475 (Simulation time: 00 hr 18 min 02 sec)
Heartbeat CPU 0 instructions: 188001141 cycles: 67561485 heartbeat IPC: 2.687 cumulative IPC: 2.475 (Simulation time: 00 hr 18 min 05 sec)
Heartbeat CPU 0 instructions: 188501143 cycles: 67743692 heartbeat IPC: 2.744 cumulative IPC: 2.476 (Simulation time: 00 hr 18 min 09 sec)
Heartbeat CPU 0 instructions: 189001144 cycles: 67936461 heartbeat IPC: 2.594 cumulative IPC: 2.477 (Simulation time: 00 hr 18 min 12 sec)
Heartbeat CPU 0 instructions: 189501149 cycles: 68117673 heartbeat IPC: 2.759 cumulative IPC: 2.478 (Simulation time: 00 hr 18 min 16 sec)
Heartbeat CPU 0 instructions: 190001151 cycles: 68316823 heartbeat IPC: 2.511 cumulative IPC: 2.478 (Simulation time: 00 hr 18 min 19 sec)
Heartbeat CPU 0 instructions: 190501153 cycles: 68511537 heartbeat IPC: 2.568 cumulative IPC: 2.478 (Simulation time: 00 hr 18 min 23 sec)
Heartbeat CPU 0 instructions: 191001157 cycles: 68690120 heartbeat IPC: 2.8 cumulative IPC: 2.479 (Simulation time: 00 hr 18 min 26 sec)
Heartbeat CPU 0 instructions: 191501161 cycles: 68877480 heartbeat IPC: 2.669 cumulative IPC: 2.48 (Simulation time: 00 hr 18 min 29 sec)
Heartbeat CPU 0 instructions: 192001165 cycles: 69053435 heartbeat IPC: 2.842 cumulative IPC: 2.481 (Simulation time: 00 hr 18 min 32 sec)
Heartbeat CPU 0 instructions: 192501168 cycles: 69228416 heartbeat IPC: 2.857 cumulative IPC: 2.482 (Simulation time: 00 hr 18 min 36 sec)
Heartbeat CPU 0 instructions: 193001168 cycles: 69420689 heartbeat IPC: 2.6 cumulative IPC: 2.482 (Simulation time: 00 hr 18 min 39 sec)
Heartbeat CPU 0 instructions: 193501169 cycles: 69593859 heartbeat IPC: 2.887 cumulative IPC: 2.483 (Simulation time: 00 hr 18 min 42 sec)
Heartbeat CPU 0 instructions: 194001176 cycles: 69768018 heartbeat IPC: 2.871 cumulative IPC: 2.485 (Simulation time: 00 hr 18 min 46 sec)
Heartbeat CPU 0 instructions: 194501183 cycles: 69955044 heartbeat IPC: 2.673 cumulative IPC: 2.485 (Simulation time: 00 hr 18 min 49 sec)
Heartbeat CPU 0 instructions: 195001185 cycles: 70130247 heartbeat IPC: 2.854 cumulative IPC: 2.486 (Simulation time: 00 hr 18 min 52 sec)
Heartbeat CPU 0 instructions: 195501192 cycles: 70303256 heartbeat IPC: 2.89 cumulative IPC: 2.488 (Simulation time: 00 hr 18 min 56 sec)
Heartbeat CPU 0 instructions: 196001199 cycles: 70491226 heartbeat IPC: 2.66 cumulative IPC: 2.488 (Simulation time: 00 hr 18 min 59 sec)
Heartbeat CPU 0 instructions: 196501200 cycles: 70666401 heartbeat IPC: 2.854 cumulative IPC: 2.489 (Simulation time: 00 hr 19 min 02 sec)
Heartbeat CPU 0 instructions: 197001205 cycles: 70838776 heartbeat IPC: 2.901 cumulative IPC: 2.49 (Simulation time: 00 hr 19 min 06 sec)
Heartbeat CPU 0 instructions: 197501205 cycles: 71024805 heartbeat IPC: 2.688 cumulative IPC: 2.491 (Simulation time: 00 hr 19 min 09 sec)
Heartbeat CPU 0 instructions: 198001209 cycles: 71199156 heartbeat IPC: 2.868 cumulative IPC: 2.492 (Simulation time: 00 hr 19 min 12 sec)
Heartbeat CPU 0 instructions: 198501215 cycles: 71385220 heartbeat IPC: 2.687 cumulative IPC: 2.493 (Simulation time: 00 hr 19 min 16 sec)
Heartbeat CPU 0 instructions: 199001220 cycles: 71559088 heartbeat IPC: 2.876 cumulative IPC: 2.494 (Simulation time: 00 hr 19 min 19 sec)
Heartbeat CPU 0 instructions: 199501220 cycles: 71732929 heartbeat IPC: 2.876 cumulative IPC: 2.495 (Simulation time: 00 hr 19 min 22 sec)
Heartbeat CPU 0 instructions: 200001221 cycles: 71923730 heartbeat IPC: 2.621 cumulative IPC: 2.495 (Simulation time: 00 hr 19 min 26 sec)
Heartbeat CPU 0 instructions: 200501225 cycles: 72109730 heartbeat IPC: 2.688 cumulative IPC: 2.496 (Simulation time: 00 hr 19 min 29 sec)
Heartbeat CPU 0 instructions: 201001229 cycles: 72282601 heartbeat IPC: 2.892 cumulative IPC: 2.497 (Simulation time: 00 hr 19 min 32 sec)
Heartbeat CPU 0 instructions: 201501230 cycles: 72468502 heartbeat IPC: 2.69 cumulative IPC: 2.498 (Simulation time: 00 hr 19 min 35 sec)
Heartbeat CPU 0 instructions: 202001233 cycles: 72642895 heartbeat IPC: 2.867 cumulative IPC: 2.499 (Simulation time: 00 hr 19 min 39 sec)
Heartbeat CPU 0 instructions: 202501239 cycles: 72815107 heartbeat IPC: 2.903 cumulative IPC: 2.5 (Simulation time: 00 hr 19 min 42 sec)
Heartbeat CPU 0 instructions: 203001244 cycles: 73002542 heartbeat IPC: 2.668 cumulative IPC: 2.5 (Simulation time: 00 hr 19 min 45 sec)
Heartbeat CPU 0 instructions: 203501246 cycles: 73176386 heartbeat IPC: 2.876 cumulative IPC: 2.501 (Simulation time: 00 hr 19 min 48 sec)
Heartbeat CPU 0 instructions: 204001248 cycles: 73354255 heartbeat IPC: 2.811 cumulative IPC: 2.502 (Simulation time: 00 hr 19 min 52 sec)
Heartbeat CPU 0 instructions: 204501254 cycles: 73536339 heartbeat IPC: 2.746 cumulative IPC: 2.503 (Simulation time: 00 hr 19 min 55 sec)
Heartbeat CPU 0 instructions: 205001258 cycles: 73709815 heartbeat IPC: 2.882 cumulative IPC: 2.504 (Simulation time: 00 hr 19 min 58 sec)
Heartbeat CPU 0 instructions: 205501261 cycles: 73895790 heartbeat IPC: 2.689 cumulative IPC: 2.505 (Simulation time: 00 hr 20 min 02 sec)
Heartbeat CPU 0 instructions: 206001261 cycles: 74069094 heartbeat IPC: 2.885 cumulative IPC: 2.506 (Simulation time: 00 hr 20 min 05 sec)
Heartbeat CPU 0 instructions: 206501262 cycles: 74243167 heartbeat IPC: 2.872 cumulative IPC: 2.507 (Simulation time: 00 hr 20 min 08 sec)
Heartbeat CPU 0 instructions: 207001265 cycles: 74429478 heartbeat IPC: 2.684 cumulative IPC: 2.507 (Simulation time: 00 hr 20 min 12 sec)
Heartbeat CPU 0 instructions: 207501272 cycles: 74603423 heartbeat IPC: 2.875 cumulative IPC: 2.508 (Simulation time: 00 hr 20 min 15 sec)
Heartbeat CPU 0 instructions: 208001274 cycles: 74777967 heartbeat IPC: 2.865 cumulative IPC: 2.509 (Simulation time: 00 hr 20 min 18 sec)
Heartbeat CPU 0 instructions: 208501278 cycles: 74964655 heartbeat IPC: 2.678 cumulative IPC: 2.51 (Simulation time: 00 hr 20 min 21 sec)
Heartbeat CPU 0 instructions: 209001280 cycles: 75139018 heartbeat IPC: 2.868 cumulative IPC: 2.511 (Simulation time: 00 hr 20 min 25 sec)
Heartbeat CPU 0 instructions: 209501285 cycles: 75311980 heartbeat IPC: 2.891 cumulative IPC: 2.512 (Simulation time: 00 hr 20 min 28 sec)
Heartbeat CPU 0 instructions: 210001288 cycles: 75498630 heartbeat IPC: 2.679 cumulative IPC: 2.512 (Simulation time: 00 hr 20 min 31 sec)
Heartbeat CPU 0 instructions: 210501290 cycles: 75687094 heartbeat IPC: 2.653 cumulative IPC: 2.513 (Simulation time: 00 hr 20 min 35 sec)
Heartbeat CPU 0 instructions: 211001295 cycles: 75867923 heartbeat IPC: 2.765 cumulative IPC: 2.513 (Simulation time: 00 hr 20 min 38 sec)
Heartbeat CPU 0 instructions: 211501296 cycles: 76047289 heartbeat IPC: 2.788 cumulative IPC: 2.514 (Simulation time: 00 hr 20 min 41 sec)
Heartbeat CPU 0 instructions: 212001299 cycles: 76221208 heartbeat IPC: 2.875 cumulative IPC: 2.515 (Simulation time: 00 hr 20 min 44 sec)
Heartbeat CPU 0 instructions: 212501303 cycles: 76408205 heartbeat IPC: 2.674 cumulative IPC: 2.516 (Simulation time: 00 hr 20 min 48 sec)
Heartbeat CPU 0 instructions: 213001308 cycles: 76582169 heartbeat IPC: 2.874 cumulative IPC: 2.517 (Simulation time: 00 hr 20 min 51 sec)
Heartbeat CPU 0 instructions: 213501315 cycles: 76755745 heartbeat IPC: 2.881 cumulative IPC: 2.518 (Simulation time: 00 hr 20 min 54 sec)
Heartbeat CPU 0 instructions: 214001322 cycles: 76942402 heartbeat IPC: 2.679 cumulative IPC: 2.518 (Simulation time: 00 hr 20 min 58 sec)
Heartbeat CPU 0 instructions: 214501326 cycles: 77116615 heartbeat IPC: 2.87 cumulative IPC: 2.519 (Simulation time: 00 hr 21 min 01 sec)
Heartbeat CPU 0 instructions: 215001330 cycles: 77291825 heartbeat IPC: 2.854 cumulative IPC: 2.52 (Simulation time: 00 hr 21 min 04 sec)
Heartbeat CPU 0 instructions: 215501333 cycles: 77479075 heartbeat IPC: 2.67 cumulative IPC: 2.52 (Simulation time: 00 hr 21 min 07 sec)
Heartbeat CPU 0 instructions: 216001334 cycles: 77652572 heartbeat IPC: 2.882 cumulative IPC: 2.521 (Simulation time: 00 hr 21 min 11 sec)
Heartbeat CPU 0 instructions: 216501335 cycles: 77826644 heartbeat IPC: 2.872 cumulative IPC: 2.522 (Simulation time: 00 hr 21 min 14 sec)
Heartbeat CPU 0 instructions: 217001338 cycles: 78012383 heartbeat IPC: 2.692 cumulative IPC: 2.523 (Simulation time: 00 hr 21 min 17 sec)
Heartbeat CPU 0 instructions: 217501343 cycles: 78185339 heartbeat IPC: 2.891 cumulative IPC: 2.524 (Simulation time: 00 hr 21 min 21 sec)
Heartbeat CPU 0 instructions: 218001349 cycles: 78370849 heartbeat IPC: 2.695 cumulative IPC: 2.524 (Simulation time: 00 hr 21 min 24 sec)
Heartbeat CPU 0 instructions: 218501350 cycles: 78546966 heartbeat IPC: 2.839 cumulative IPC: 2.525 (Simulation time: 00 hr 21 min 27 sec)
Heartbeat CPU 0 instructions: 219001353 cycles: 78720182 heartbeat IPC: 2.887 cumulative IPC: 2.526 (Simulation time: 00 hr 21 min 30 sec)
Heartbeat CPU 0 instructions: 219501357 cycles: 78907379 heartbeat IPC: 2.671 cumulative IPC: 2.526 (Simulation time: 00 hr 21 min 34 sec)
Heartbeat CPU 0 instructions: 220001358 cycles: 79081059 heartbeat IPC: 2.879 cumulative IPC: 2.527 (Simulation time: 00 hr 21 min 37 sec)
Heartbeat CPU 0 instructions: 220501360 cycles: 79269332 heartbeat IPC: 2.656 cumulative IPC: 2.528 (Simulation time: 00 hr 21 min 40 sec)
Heartbeat CPU 0 instructions: 221001360 cycles: 79456492 heartbeat IPC: 2.672 cumulative IPC: 2.528 (Simulation time: 00 hr 21 min 44 sec)
Heartbeat CPU 0 instructions: 221501363 cycles: 79629337 heartbeat IPC: 2.893 cumulative IPC: 2.529 (Simulation time: 00 hr 21 min 47 sec)
Heartbeat CPU 0 instructions: 222001369 cycles: 79803486 heartbeat IPC: 2.871 cumulative IPC: 2.53 (Simulation time: 00 hr 21 min 50 sec)
Heartbeat CPU 0 instructions: 222501374 cycles: 79990503 heartbeat IPC: 2.674 cumulative IPC: 2.53 (Simulation time: 00 hr 21 min 53 sec)
Heartbeat CPU 0 instructions: 223001376 cycles: 80163502 heartbeat IPC: 2.89 cumulative IPC: 2.531 (Simulation time: 00 hr 21 min 57 sec)
Heartbeat CPU 0 instructions: 223501376 cycles: 80337833 heartbeat IPC: 2.868 cumulative IPC: 2.532 (Simulation time: 00 hr 22 min 00 sec)
Heartbeat CPU 0 instructions: 224001376 cycles: 80525182 heartbeat IPC: 2.669 cumulative IPC: 2.532 (Simulation time: 00 hr 22 min 03 sec)
Heartbeat CPU 0 instructions: 224501377 cycles: 80699606 heartbeat IPC: 2.867 cumulative IPC: 2.533 (Simulation time: 00 hr 22 min 06 sec)
Heartbeat CPU 0 instructions: 225001380 cycles: 80888336 heartbeat IPC: 2.649 cumulative IPC: 2.533 (Simulation time: 00 hr 22 min 10 sec)
Heartbeat CPU 0 instructions: 225501381 cycles: 81061013 heartbeat IPC: 2.896 cumulative IPC: 2.534 (Simulation time: 00 hr 22 min 13 sec)
Heartbeat CPU 0 instructions: 226001386 cycles: 81235346 heartbeat IPC: 2.868 cumulative IPC: 2.535 (Simulation time: 00 hr 22 min 16 sec)
Heartbeat CPU 0 instructions: 226501388 cycles: 81421498 heartbeat IPC: 2.686 cumulative IPC: 2.536 (Simulation time: 00 hr 22 min 19 sec)
Heartbeat CPU 0 instructions: 227001388 cycles: 81593394 heartbeat IPC: 2.909 cumulative IPC: 2.537 (Simulation time: 00 hr 22 min 22 sec)
Heartbeat CPU 0 instructions: 227501389 cycles: 81766233 heartbeat IPC: 2.893 cumulative IPC: 2.537 (Simulation time: 00 hr 22 min 26 sec)
Heartbeat CPU 0 instructions: 228001393 cycles: 81951188 heartbeat IPC: 2.703 cumulative IPC: 2.538 (Simulation time: 00 hr 22 min 29 sec)
Heartbeat CPU 0 instructions: 228501395 cycles: 82124909 heartbeat IPC: 2.878 cumulative IPC: 2.539 (Simulation time: 00 hr 22 min 32 sec)
Heartbeat CPU 0 instructions: 229001396 cycles: 82298986 heartbeat IPC: 2.872 cumulative IPC: 2.539 (Simulation time: 00 hr 22 min 35 sec)
Heartbeat CPU 0 instructions: 229501400 cycles: 82485386 heartbeat IPC: 2.682 cumulative IPC: 2.54 (Simulation time: 00 hr 22 min 39 sec)
Heartbeat CPU 0 instructions: 230001400 cycles: 82659515 heartbeat IPC: 2.871 cumulative IPC: 2.541 (Simulation time: 00 hr 22 min 42 sec)
Heartbeat CPU 0 instructions: 230501401 cycles: 82839004 heartbeat IPC: 2.786 cumulative IPC: 2.541 (Simulation time: 00 hr 22 min 45 sec)
Heartbeat CPU 0 instructions: 231001403 cycles: 83037039 heartbeat IPC: 2.525 cumulative IPC: 2.541 (Simulation time: 00 hr 22 min 48 sec)
Heartbeat CPU 0 instructions: 231501409 cycles: 83211027 heartbeat IPC: 2.874 cumulative IPC: 2.542 (Simulation time: 00 hr 22 min 52 sec)
Heartbeat CPU 0 instructions: 232001409 cycles: 83397926 heartbeat IPC: 2.675 cumulative IPC: 2.542 (Simulation time: 00 hr 22 min 55 sec)
Heartbeat CPU 0 instructions: 232501412 cycles: 83571333 heartbeat IPC: 2.883 cumulative IPC: 2.543 (Simulation time: 00 hr 22 min 58 sec)
Heartbeat CPU 0 instructions: 233001416 cycles: 83745310 heartbeat IPC: 2.874 cumulative IPC: 2.544 (Simulation time: 00 hr 23 min 01 sec)
Heartbeat CPU 0 instructions: 233501418 cycles: 83931785 heartbeat IPC: 2.681 cumulative IPC: 2.544 (Simulation time: 00 hr 23 min 04 sec)
Heartbeat CPU 0 instructions: 234001419 cycles: 84104942 heartbeat IPC: 2.888 cumulative IPC: 2.545 (Simulation time: 00 hr 23 min 08 sec)
Heartbeat CPU 0 instructions: 234501421 cycles: 84279777 heartbeat IPC: 2.86 cumulative IPC: 2.546 (Simulation time: 00 hr 23 min 11 sec)
Heartbeat CPU 0 instructions: 235001423 cycles: 84466344 heartbeat IPC: 2.68 cumulative IPC: 2.546 (Simulation time: 00 hr 23 min 14 sec)
Heartbeat CPU 0 instructions: 235501424 cycles: 84640323 heartbeat IPC: 2.874 cumulative IPC: 2.547 (Simulation time: 00 hr 23 min 17 sec)
Heartbeat CPU 0 instructions: 236001430 cycles: 84813986 heartbeat IPC: 2.879 cumulative IPC: 2.548 (Simulation time: 00 hr 23 min 20 sec)
Heartbeat CPU 0 instructions: 236501437 cycles: 85000776 heartbeat IPC: 2.677 cumulative IPC: 2.548 (Simulation time: 00 hr 23 min 24 sec)
Heartbeat CPU 0 instructions: 237001444 cycles: 85174205 heartbeat IPC: 2.883 cumulative IPC: 2.549 (Simulation time: 00 hr 23 min 27 sec)
Heartbeat CPU 0 instructions: 237501444 cycles: 85354080 heartbeat IPC: 2.78 cumulative IPC: 2.55 (Simulation time: 00 hr 23 min 30 sec)
Heartbeat CPU 0 instructions: 238001448 cycles: 85531927 heartbeat IPC: 2.811 cumulative IPC: 2.55 (Simulation time: 00 hr 23 min 33 sec)
Heartbeat CPU 0 instructions: 238501453 cycles: 85706467 heartbeat IPC: 2.865 cumulative IPC: 2.551 (Simulation time: 00 hr 23 min 36 sec)
Heartbeat CPU 0 instructions: 239001456 cycles: 85892647 heartbeat IPC: 2.686 cumulative IPC: 2.551 (Simulation time: 00 hr 23 min 40 sec)
Heartbeat CPU 0 instructions: 239501457 cycles: 86066939 heartbeat IPC: 2.869 cumulative IPC: 2.552 (Simulation time: 00 hr 23 min 43 sec)
Heartbeat CPU 0 instructions: 240001462 cycles: 86241387 heartbeat IPC: 2.866 cumulative IPC: 2.553 (Simulation time: 00 hr 23 min 46 sec)
Heartbeat CPU 0 instructions: 240501464 cycles: 86427997 heartbeat IPC: 2.679 cumulative IPC: 2.553 (Simulation time: 00 hr 23 min 49 sec)
Heartbeat CPU 0 instructions: 241001466 cycles: 86619146 heartbeat IPC: 2.616 cumulative IPC: 2.553 (Simulation time: 00 hr 23 min 52 sec)
Heartbeat CPU 0 instructions: 241501467 cycles: 86792650 heartbeat IPC: 2.882 cumulative IPC: 2.554 (Simulation time: 00 hr 23 min 56 sec)
Heartbeat CPU 0 instructions: 242001467 cycles: 86979433 heartbeat IPC: 2.677 cumulative IPC: 2.554 (Simulation time: 00 hr 23 min 59 sec)
Heartbeat CPU 0 instructions: 242501471 cycles: 87153777 heartbeat IPC: 2.868 cumulative IPC: 2.555 (Simulation time: 00 hr 24 min 02 sec)
Heartbeat CPU 0 instructions: 243001471 cycles: 87326954 heartbeat IPC: 2.887 cumulative IPC: 2.556 (Simulation time: 00 hr 24 min 05 sec)
Heartbeat CPU 0 instructions: 243501475 cycles: 87514091 heartbeat IPC: 2.672 cumulative IPC: 2.556 (Simulation time: 00 hr 24 min 08 sec)
Heartbeat CPU 0 instructions: 244001478 cycles: 87689029 heartbeat IPC: 2.858 cumulative IPC: 2.557 (Simulation time: 00 hr 24 min 12 sec)
Heartbeat CPU 0 instructions: 244501478 cycles: 87874596 heartbeat IPC: 2.694 cumulative IPC: 2.557 (Simulation time: 00 hr 24 min 15 sec)
Heartbeat CPU 0 instructions: 245001483 cycles: 88050257 heartbeat IPC: 2.846 cumulative IPC: 2.558 (Simulation time: 00 hr 24 min 18 sec)
Heartbeat CPU 0 instructions: 245501485 cycles: 88224197 heartbeat IPC: 2.875 cumulative IPC: 2.559 (Simulation time: 00 hr 24 min 21 sec)
Heartbeat CPU 0 instructions: 246001487 cycles: 88411242 heartbeat IPC: 2.673 cumulative IPC: 2.559 (Simulation time: 00 hr 24 min 24 sec)
Heartbeat CPU 0 instructions: 246501490 cycles: 88586001 heartbeat IPC: 2.861 cumulative IPC: 2.559 (Simulation time: 00 hr 24 min 28 sec)
Heartbeat CPU 0 instructions: 247001492 cycles: 88761171 heartbeat IPC: 2.854 cumulative IPC: 2.56 (Simulation time: 00 hr 24 min 31 sec)
Heartbeat CPU 0 instructions: 247501495 cycles: 88946561 heartbeat IPC: 2.697 cumulative IPC: 2.56 (Simulation time: 00 hr 24 min 34 sec)
Heartbeat CPU 0 instructions: 248001501 cycles: 89120215 heartbeat IPC: 2.879 cumulative IPC: 2.561 (Simulation time: 00 hr 24 min 37 sec)
Heartbeat CPU 0 instructions: 248501507 cycles: 89294511 heartbeat IPC: 2.869 cumulative IPC: 2.562 (Simulation time: 00 hr 24 min 40 sec)
Heartbeat CPU 0 instructions: 249001513 cycles: 89480870 heartbeat IPC: 2.683 cumulative IPC: 2.562 (Simulation time: 00 hr 24 min 44 sec)
Heartbeat CPU 0 instructions: 249501518 cycles: 89654671 heartbeat IPC: 2.877 cumulative IPC: 2.563 (Simulation time: 00 hr 24 min 47 sec)
Simulation finished CPU 0 instructions: 200000006 cycles: 78017813 cumulative IPC: 2.564 (Simulation time: 00 hr 24 min 50 sec)
Simulation complete CPU 0 instructions: 200000006 cycles: 78017813 cumulative IPC: 2.564 (Simulation time: 00 hr 24 min 50 sec)

ChampSim completed all CPUs

=== Simulation ===
CPU 0 runs /local-ssd/ben/dpc4-traces/ai-ml/bark.cpp-bark-small.coarse_token_gen.4.champsimtrace.gz

Region of Interest Statistics

CPU 0 cumulative IPC: 2.564 instructions: 200000006 cycles: 78017813
CPU 0 Branch Prediction Accuracy: 97.24% MPKI: 2.302 Average ROB Occupancy at Mispredict: 246.3
Branch type MPKI
BRANCH_DIRECT_JUMP: 3e-05
BRANCH_INDIRECT: 1.5e-05
BRANCH_CONDITIONAL: 2.302
BRANCH_DIRECT_CALL: 5e-06
BRANCH_INDIRECT_CALL: 1.5e-05
BRANCH_RETURN: 1.5e-05

cpu0->cpu0_STLB TOTAL        ACCESS:      71821 HIT:      67084 MISS:       4737 MSHR_MERGE:          0
cpu0->cpu0_STLB LOAD         ACCESS:      71821 HIT:      67084 MISS:       4737 MSHR_MERGE:          0
cpu0->cpu0_STLB RFO          ACCESS:          0 HIT:          0 MISS:          0 MSHR_MERGE:          0
cpu0->cpu0_STLB PREFETCH     ACCESS:          0 HIT:          0 MISS:          0 MSHR_MERGE:          0
cpu0->cpu0_STLB WRITE        ACCESS:          0 HIT:          0 MISS:          0 MSHR_MERGE:          0
cpu0->cpu0_STLB TRANSLATION  ACCESS:          0 HIT:          0 MISS:          0 MSHR_MERGE:          0
cpu0->cpu0_STLB PREFETCH REQUESTED:          0 ISSUED:          0 USEFUL:          0 USELESS:          0
cpu0->cpu0_STLB AVERAGE MISS LATENCY: 202.4 cycles
cpu0->cpu0_L2C TOTAL        ACCESS:   34561083 HIT:   28788901 MISS:    5772182 MSHR_MERGE:    4267915
cpu0->cpu0_L2C LOAD         ACCESS:   10690867 HIT:    9864056 MISS:     826811 MSHR_MERGE:     565619
cpu0->cpu0_L2C RFO          ACCESS:     114071 HIT:      44952 MISS:      69119 MSHR_MERGE:          0
cpu0->cpu0_L2C PREFETCH     ACCESS:   23535714 HIT:   18660177 MISS:    4875537 MSHR_MERGE:    3702296
cpu0->cpu0_L2C WRITE        ACCESS:     218604 HIT:     218594 MISS:         10 MSHR_MERGE:          0
cpu0->cpu0_L2C TRANSLATION  ACCESS:       1827 HIT:       1122 MISS:        705 MSHR_MERGE:          0
cpu0->cpu0_L2C PREFETCH REQUESTED:   68007091 ISSUED:   20002771 USEFUL:     845056 USELESS:     104412
cpu0->cpu0_L2C AVERAGE MISS LATENCY: 190.4 cycles
cpu0->cpu0_L1I TOTAL        ACCESS:   31461563 HIT:   31461505 MISS:         58 MSHR_MERGE:          8
cpu0->cpu0_L1I LOAD         ACCESS:   31461563 HIT:   31461505 MISS:         58 MSHR_MERGE:          8
cpu0->cpu0_L1I RFO          ACCESS:          0 HIT:          0 MISS:          0 MSHR_MERGE:          0
cpu0->cpu0_L1I PREFETCH     ACCESS:          0 HIT:          0 MISS:          0 MSHR_MERGE:          0
cpu0->cpu0_L1I WRITE        ACCESS:          0 HIT:          0 MISS:          0 MSHR_MERGE:          0
cpu0->cpu0_L1I TRANSLATION  ACCESS:          0 HIT:          0 MISS:          0 MSHR_MERGE:          0
cpu0->cpu0_L1I PREFETCH REQUESTED:          0 ISSUED:          0 USEFUL:          0 USELESS:          0
cpu0->cpu0_L1I AVERAGE MISS LATENCY: 261.8 cycles
cpu0->cpu0_L1D TOTAL        ACCESS:   64903608 HIT:   47060894 MISS:   17842714 MSHR_MERGE:    3502877
cpu0->cpu0_L1D LOAD         ACCESS:   52340487 HIT:   40020828 MISS:   12319659 MSHR_MERGE:    1628839
cpu0->cpu0_L1D RFO          ACCESS:          0 HIT:          0 MISS:          0 MSHR_MERGE:          0
cpu0->cpu0_L1D PREFETCH     ACCESS:    9019102 HIT:    3738818 MISS:    5280284 MSHR_MERGE:    1747326
cpu0->cpu0_L1D WRITE        ACCESS:    3534538 HIT:    3293598 MISS:     240940 MSHR_MERGE:     126708
cpu0->cpu0_L1D TRANSLATION  ACCESS:       9481 HIT:       7650 MISS:       1831 MSHR_MERGE:          4
cpu0->cpu0_L1D PREFETCH REQUESTED:   13649448 ISSUED:    9019103 USEFUL:    3373089 USELESS:     159869
cpu0->cpu0_L1D AVERAGE MISS LATENCY: 25.03 cycles
cpu0->cpu0_ITLB TOTAL        ACCESS:   22426680 HIT:   22426666 MISS:         14 MSHR_MERGE:          7
cpu0->cpu0_ITLB LOAD         ACCESS:   22426680 HIT:   22426666 MISS:         14 MSHR_MERGE:          7
cpu0->cpu0_ITLB RFO          ACCESS:          0 HIT:          0 MISS:          0 MSHR_MERGE:          0
cpu0->cpu0_ITLB PREFETCH     ACCESS:          0 HIT:          0 MISS:          0 MSHR_MERGE:          0
cpu0->cpu0_ITLB WRITE        ACCESS:          0 HIT:          0 MISS:          0 MSHR_MERGE:          0
cpu0->cpu0_ITLB TRANSLATION  ACCESS:          0 HIT:          0 MISS:          0 MSHR_MERGE:          0
cpu0->cpu0_ITLB PREFETCH REQUESTED:          0 ISSUED:          0 USEFUL:          0 USELESS:          0
cpu0->cpu0_ITLB AVERAGE MISS LATENCY: 397.6 cycles
cpu0->cpu0_DTLB TOTAL        ACCESS:   56961962 HIT:   56799709 MISS:     162253 MSHR_MERGE:      90439
cpu0->cpu0_DTLB LOAD         ACCESS:   56961962 HIT:   56799709 MISS:     162253 MSHR_MERGE:      90439
cpu0->cpu0_DTLB RFO          ACCESS:          0 HIT:          0 MISS:          0 MSHR_MERGE:          0
cpu0->cpu0_DTLB PREFETCH     ACCESS:          0 HIT:          0 MISS:          0 MSHR_MERGE:          0
cpu0->cpu0_DTLB WRITE        ACCESS:          0 HIT:          0 MISS:          0 MSHR_MERGE:          0
cpu0->cpu0_DTLB TRANSLATION  ACCESS:          0 HIT:          0 MISS:          0 MSHR_MERGE:          0
cpu0->cpu0_DTLB PREFETCH REQUESTED:          0 ISSUED:          0 USEFUL:          0 USELESS:          0
cpu0->cpu0_DTLB AVERAGE MISS LATENCY: 18.38 cycles
cpu0->LLC TOTAL        ACCESS:    1658237 HIT:     308986 MISS:    1349251 MSHR_MERGE:          0
cpu0->LLC LOAD         ACCESS:     261192 HIT:      72889 MISS:     188303 MSHR_MERGE:          0
cpu0->LLC RFO          ACCESS:      69119 HIT:        155 MISS:      68964 MSHR_MERGE:          0
cpu0->LLC PREFETCH     ACCESS:    1173241 HIT:     220128 MISS:     953113 MSHR_MERGE:          0
cpu0->LLC WRITE        ACCESS:     153980 HIT:      15811 MISS:     138169 MSHR_MERGE:          0
cpu0->LLC TRANSLATION  ACCESS:        705 HIT:          3 MISS:        702 MSHR_MERGE:          0
cpu0->LLC PREFETCH REQUESTED:          0 ISSUED:          0 USEFUL:          0 USELESS:          0
cpu0->LLC AVERAGE MISS LATENCY: 182 cycles

DRAM Statistics

Channel 0 RQ ROW_BUFFER_HIT:     434691
  ROW_BUFFER_MISS:     776201
  AVG DBUS CONGESTED CYCLE: 9.711
Channel 0 WQ ROW_BUFFER_HIT:      23493
  ROW_BUFFER_MISS:     128057
  FULL:      17147
Channel 0 REFRESHES ISSUED:       6501
