[VMEM] WARNING: physical memory size is smaller than virtual memory size.

*** ChampSim Multicore Out-of-Order Simulator ***
Warmup Instructions: 50000000
Simulation Instructions: 200000000
Number of CPUs: 1
Page size: 4096
Core 0: /local-ssd/ben/dpc4-traces/ai-ml/stable-diffusion.cpp-sd-v1-4.ckpt.2.champsimtrace.gz
 L1D Berti prefetcher
Off-chip DRAM Size: 64 GiB Channels: 1 Width: 64-bit Data Rate: 4807 MT/s
Heartbeat CPU 0 instructions: 500005 cycles: 181612 heartbeat IPC: 2.753 cumulative IPC: 2.753 (Simulation time: 00 hr 00 min 04 sec)
Heartbeat CPU 0 instructions: 1000007 cycles: 345022 heartbeat IPC: 3.06 cumulative IPC: 2.898 (Simulation time: 00 hr 00 min 07 sec)
Heartbeat CPU 0 instructions: 1500014 cycles: 508398 heartbeat IPC: 3.06 cumulative IPC: 2.95 (Simulation time: 00 hr 00 min 10 sec)
Heartbeat CPU 0 instructions: 2000017 cycles: 679473 heartbeat IPC: 2.923 cumulative IPC: 2.943 (Simulation time: 00 hr 00 min 13 sec)
Heartbeat CPU 0 instructions: 2500023 cycles: 842879 heartbeat IPC: 3.06 cumulative IPC: 2.966 (Simulation time: 00 hr 00 min 17 sec)
Heartbeat CPU 0 instructions: 3000024 cycles: 1006222 heartbeat IPC: 3.061 cumulative IPC: 2.981 (Simulation time: 00 hr 00 min 20 sec)
Heartbeat CPU 0 instructions: 3500027 cycles: 1177316 heartbeat IPC: 2.922 cumulative IPC: 2.973 (Simulation time: 00 hr 00 min 24 sec)
Heartbeat CPU 0 instructions: 4000031 cycles: 1340587 heartbeat IPC: 3.062 cumulative IPC: 2.984 (Simulation time: 00 hr 00 min 27 sec)
Heartbeat CPU 0 instructions: 4500036 cycles: 1503977 heartbeat IPC: 3.06 cumulative IPC: 2.992 (Simulation time: 00 hr 00 min 30 sec)
Heartbeat CPU 0 instructions: 5000043 cycles: 1673021 heartbeat IPC: 2.958 cumulative IPC: 2.989 (Simulation time: 00 hr 00 min 34 sec)
Heartbeat CPU 0 instructions: 5500044 cycles: 1838554 heartbeat IPC: 3.021 cumulative IPC: 2.992 (Simulation time: 00 hr 00 min 37 sec)
Heartbeat CPU 0 instructions: 6000049 cycles: 2001796 heartbeat IPC: 3.063 cumulative IPC: 2.997 (Simulation time: 00 hr 00 min 40 sec)
Heartbeat CPU 0 instructions: 6500051 cycles: 2165088 heartbeat IPC: 3.062 cumulative IPC: 3.002 (Simulation time: 00 hr 00 min 44 sec)
Heartbeat CPU 0 instructions: 7000054 cycles: 2335950 heartbeat IPC: 2.926 cumulative IPC: 2.997 (Simulation time: 00 hr 00 min 47 sec)
Heartbeat CPU 0 instructions: 7500058 cycles: 2499195 heartbeat IPC: 3.063 cumulative IPC: 3.001 (Simulation time: 00 hr 00 min 51 sec)
Heartbeat CPU 0 instructions: 8000063 cycles: 2662988 heartbeat IPC: 3.053 cumulative IPC: 3.004 (Simulation time: 00 hr 00 min 54 sec)
Heartbeat CPU 0 instructions: 8500066 cycles: 2833898 heartbeat IPC: 2.926 cumulative IPC: 2.999 (Simulation time: 00 hr 00 min 57 sec)
Heartbeat CPU 0 instructions: 9000071 cycles: 2997656 heartbeat IPC: 3.053 cumulative IPC: 3.002 (Simulation time: 00 hr 01 min 01 sec)
Heartbeat CPU 0 instructions: 9500076 cycles: 3160871 heartbeat IPC: 3.063 cumulative IPC: 3.006 (Simulation time: 00 hr 01 min 04 sec)
Heartbeat CPU 0 instructions: 10000081 cycles: 3331809 heartbeat IPC: 2.925 cumulative IPC: 3.001 (Simulation time: 00 hr 01 min 07 sec)
Heartbeat CPU 0 instructions: 10500083 cycles: 3495175 heartbeat IPC: 3.061 cumulative IPC: 3.004 (Simulation time: 00 hr 01 min 11 sec)
Heartbeat CPU 0 instructions: 11000084 cycles: 3658758 heartbeat IPC: 3.057 cumulative IPC: 3.007 (Simulation time: 00 hr 01 min 14 sec)
Heartbeat CPU 0 instructions: 11500091 cycles: 3822213 heartbeat IPC: 3.059 cumulative IPC: 3.009 (Simulation time: 00 hr 01 min 17 sec)
Heartbeat CPU 0 instructions: 12000097 cycles: 3993070 heartbeat IPC: 2.926 cumulative IPC: 3.005 (Simulation time: 00 hr 01 min 21 sec)
Heartbeat CPU 0 instructions: 12500098 cycles: 4156649 heartbeat IPC: 3.057 cumulative IPC: 3.007 (Simulation time: 00 hr 01 min 24 sec)
Heartbeat CPU 0 instructions: 13000105 cycles: 4320188 heartbeat IPC: 3.057 cumulative IPC: 3.009 (Simulation time: 00 hr 01 min 28 sec)
Heartbeat CPU 0 instructions: 13500105 cycles: 4491246 heartbeat IPC: 2.923 cumulative IPC: 3.006 (Simulation time: 00 hr 01 min 31 sec)
Heartbeat CPU 0 instructions: 14000110 cycles: 4654903 heartbeat IPC: 3.055 cumulative IPC: 3.008 (Simulation time: 00 hr 01 min 34 sec)
Heartbeat CPU 0 instructions: 14500115 cycles: 4818108 heartbeat IPC: 3.064 cumulative IPC: 3.01 (Simulation time: 00 hr 01 min 38 sec)
Heartbeat CPU 0 instructions: 15000119 cycles: 4989250 heartbeat IPC: 2.922 cumulative IPC: 3.006 (Simulation time: 00 hr 01 min 41 sec)
Heartbeat CPU 0 instructions: 15500120 cycles: 5152668 heartbeat IPC: 3.06 cumulative IPC: 3.008 (Simulation time: 00 hr 01 min 45 sec)
Heartbeat CPU 0 instructions: 16000127 cycles: 5316118 heartbeat IPC: 3.059 cumulative IPC: 3.01 (Simulation time: 00 hr 01 min 48 sec)
Heartbeat CPU 0 instructions: 16500129 cycles: 5479947 heartbeat IPC: 3.052 cumulative IPC: 3.011 (Simulation time: 00 hr 01 min 51 sec)
Heartbeat CPU 0 instructions: 17000132 cycles: 5650840 heartbeat IPC: 2.926 cumulative IPC: 3.008 (Simulation time: 00 hr 01 min 55 sec)
Heartbeat CPU 0 instructions: 17500133 cycles: 5814279 heartbeat IPC: 3.059 cumulative IPC: 3.01 (Simulation time: 00 hr 01 min 58 sec)
Heartbeat CPU 0 instructions: 18000139 cycles: 5977855 heartbeat IPC: 3.057 cumulative IPC: 3.011 (Simulation time: 00 hr 02 min 01 sec)
Heartbeat CPU 0 instructions: 18500145 cycles: 6148861 heartbeat IPC: 2.924 cumulative IPC: 3.009 (Simulation time: 00 hr 02 min 05 sec)
Heartbeat CPU 0 instructions: 19000149 cycles: 6312538 heartbeat IPC: 3.055 cumulative IPC: 3.01 (Simulation time: 00 hr 02 min 08 sec)
Heartbeat CPU 0 instructions: 19500155 cycles: 6476249 heartbeat IPC: 3.054 cumulative IPC: 3.011 (Simulation time: 00 hr 02 min 12 sec)
Heartbeat CPU 0 instructions: 20000161 cycles: 6647145 heartbeat IPC: 2.926 cumulative IPC: 3.009 (Simulation time: 00 hr 02 min 15 sec)
Heartbeat CPU 0 instructions: 20500164 cycles: 6810648 heartbeat IPC: 3.058 cumulative IPC: 3.01 (Simulation time: 00 hr 02 min 18 sec)
Heartbeat CPU 0 instructions: 21000164 cycles: 6974199 heartbeat IPC: 3.057 cumulative IPC: 3.011 (Simulation time: 00 hr 02 min 22 sec)
Heartbeat CPU 0 instructions: 21500167 cycles: 7138546 heartbeat IPC: 3.042 cumulative IPC: 3.012 (Simulation time: 00 hr 02 min 25 sec)
Heartbeat CPU 0 instructions: 22000171 cycles: 7308453 heartbeat IPC: 2.943 cumulative IPC: 3.01 (Simulation time: 00 hr 02 min 29 sec)
Heartbeat CPU 0 instructions: 22500176 cycles: 7472391 heartbeat IPC: 3.05 cumulative IPC: 3.011 (Simulation time: 00 hr 02 min 32 sec)
Heartbeat CPU 0 instructions: 23000181 cycles: 7635904 heartbeat IPC: 3.058 cumulative IPC: 3.012 (Simulation time: 00 hr 02 min 35 sec)
Heartbeat CPU 0 instructions: 23500188 cycles: 7806978 heartbeat IPC: 2.923 cumulative IPC: 3.01 (Simulation time: 00 hr 02 min 39 sec)
Heartbeat CPU 0 instructions: 24000190 cycles: 7970394 heartbeat IPC: 3.06 cumulative IPC: 3.011 (Simulation time: 00 hr 02 min 42 sec)
Heartbeat CPU 0 instructions: 24500191 cycles: 8133846 heartbeat IPC: 3.059 cumulative IPC: 3.012 (Simulation time: 00 hr 02 min 45 sec)
Heartbeat CPU 0 instructions: 25000192 cycles: 8305153 heartbeat IPC: 2.919 cumulative IPC: 3.01 (Simulation time: 00 hr 02 min 49 sec)
Heartbeat CPU 0 instructions: 25500197 cycles: 8468531 heartbeat IPC: 3.06 cumulative IPC: 3.011 (Simulation time: 00 hr 02 min 52 sec)
Heartbeat CPU 0 instructions: 26000203 cycles: 8631882 heartbeat IPC: 3.061 cumulative IPC: 3.012 (Simulation time: 00 hr 02 min 56 sec)
Heartbeat CPU 0 instructions: 26500203 cycles: 8798861 heartbeat IPC: 2.994 cumulative IPC: 3.012 (Simulation time: 00 hr 02 min 59 sec)
Heartbeat CPU 0 instructions: 27000203 cycles: 8966037 heartbeat IPC: 2.991 cumulative IPC: 3.011 (Simulation time: 00 hr 03 min 02 sec)
Heartbeat CPU 0 instructions: 27500205 cycles: 9129409 heartbeat IPC: 3.061 cumulative IPC: 3.012 (Simulation time: 00 hr 03 min 06 sec)
Heartbeat CPU 0 instructions: 28000211 cycles: 9292645 heartbeat IPC: 3.063 cumulative IPC: 3.013 (Simulation time: 00 hr 03 min 09 sec)
Heartbeat CPU 0 instructions: 28500215 cycles: 9463451 heartbeat IPC: 2.927 cumulative IPC: 3.012 (Simulation time: 00 hr 03 min 13 sec)
Heartbeat CPU 0 instructions: 29000220 cycles: 9626935 heartbeat IPC: 3.058 cumulative IPC: 3.012 (Simulation time: 00 hr 03 min 16 sec)
Heartbeat CPU 0 instructions: 29500222 cycles: 9790945 heartbeat IPC: 3.049 cumulative IPC: 3.013 (Simulation time: 00 hr 03 min 19 sec)
Heartbeat CPU 0 instructions: 30000225 cycles: 9961951 heartbeat IPC: 2.924 cumulative IPC: 3.011 (Simulation time: 00 hr 03 min 23 sec)
Heartbeat CPU 0 instructions: 30500230 cycles: 10125320 heartbeat IPC: 3.061 cumulative IPC: 3.012 (Simulation time: 00 hr 03 min 26 sec)
Heartbeat CPU 0 instructions: 31000234 cycles: 10288922 heartbeat IPC: 3.056 cumulative IPC: 3.013 (Simulation time: 00 hr 03 min 30 sec)
Heartbeat CPU 0 instructions: 31500237 cycles: 10458227 heartbeat IPC: 2.953 cumulative IPC: 3.012 (Simulation time: 00 hr 03 min 33 sec)
Heartbeat CPU 0 instructions: 32000243 cycles: 10623793 heartbeat IPC: 3.02 cumulative IPC: 3.012 (Simulation time: 00 hr 03 min 36 sec)
Heartbeat CPU 0 instructions: 32500244 cycles: 10787293 heartbeat IPC: 3.058 cumulative IPC: 3.013 (Simulation time: 00 hr 03 min 40 sec)
Heartbeat CPU 0 instructions: 33000245 cycles: 10950597 heartbeat IPC: 3.062 cumulative IPC: 3.014 (Simulation time: 00 hr 03 min 43 sec)
Heartbeat CPU 0 instructions: 33500252 cycles: 11121866 heartbeat IPC: 2.919 cumulative IPC: 3.012 (Simulation time: 00 hr 03 min 47 sec)
Heartbeat CPU 0 instructions: 34000259 cycles: 11285661 heartbeat IPC: 3.053 cumulative IPC: 3.013 (Simulation time: 00 hr 03 min 50 sec)
Heartbeat CPU 0 instructions: 34500265 cycles: 11449223 heartbeat IPC: 3.057 cumulative IPC: 3.013 (Simulation time: 00 hr 03 min 53 sec)
Heartbeat CPU 0 instructions: 35000272 cycles: 11620286 heartbeat IPC: 2.923 cumulative IPC: 3.012 (Simulation time: 00 hr 03 min 57 sec)
Heartbeat CPU 0 instructions: 35500278 cycles: 11783794 heartbeat IPC: 3.058 cumulative IPC: 3.013 (Simulation time: 00 hr 04 min 00 sec)
Heartbeat CPU 0 instructions: 36000282 cycles: 11947339 heartbeat IPC: 3.057 cumulative IPC: 3.013 (Simulation time: 00 hr 04 min 04 sec)
Heartbeat CPU 0 instructions: 36500285 cycles: 12118339 heartbeat IPC: 2.924 cumulative IPC: 3.012 (Simulation time: 00 hr 04 min 07 sec)
Heartbeat CPU 0 instructions: 37000289 cycles: 12281967 heartbeat IPC: 3.056 cumulative IPC: 3.013 (Simulation time: 00 hr 04 min 11 sec)
Heartbeat CPU 0 instructions: 37500290 cycles: 12445551 heartbeat IPC: 3.057 cumulative IPC: 3.013 (Simulation time: 00 hr 04 min 14 sec)
Heartbeat CPU 0 instructions: 38000296 cycles: 12608916 heartbeat IPC: 3.061 cumulative IPC: 3.014 (Simulation time: 00 hr 04 min 17 sec)
Heartbeat CPU 0 instructions: 38500299 cycles: 12780070 heartbeat IPC: 2.921 cumulative IPC: 3.013 (Simulation time: 00 hr 04 min 21 sec)
Heartbeat CPU 0 instructions: 39000303 cycles: 12943563 heartbeat IPC: 3.058 cumulative IPC: 3.013 (Simulation time: 00 hr 04 min 24 sec)
Heartbeat CPU 0 instructions: 39500306 cycles: 13107099 heartbeat IPC: 3.057 cumulative IPC: 3.014 (Simulation time: 00 hr 04 min 28 sec)
Heartbeat CPU 0 instructions: 40000307 cycles: 13278055 heartbeat IPC: 2.925 cumulative IPC: 3.013 (Simulation time: 00 hr 04 min 31 sec)
Heartbeat CPU 0 instructions: 40500308 cycles: 13441786 heartbeat IPC: 3.054 cumulative IPC: 3.013 (Simulation time: 00 hr 04 min 34 sec)
Heartbeat CPU 0 instructions: 41000313 cycles: 13605137 heartbeat IPC: 3.061 cumulative IPC: 3.014 (Simulation time: 00 hr 04 min 38 sec)
Heartbeat CPU 0 instructions: 41500316 cycles: 13776125 heartbeat IPC: 2.924 cumulative IPC: 3.012 (Simulation time: 00 hr 04 min 41 sec)
Heartbeat CPU 0 instructions: 42000321 cycles: 13939690 heartbeat IPC: 3.057 cumulative IPC: 3.013 (Simulation time: 00 hr 04 min 45 sec)
Heartbeat CPU 0 instructions: 42500325 cycles: 14103062 heartbeat IPC: 3.061 cumulative IPC: 3.014 (Simulation time: 00 hr 04 min 48 sec)
Heartbeat CPU 0 instructions: 43000331 cycles: 14266564 heartbeat IPC: 3.058 cumulative IPC: 3.014 (Simulation time: 00 hr 04 min 52 sec)
Heartbeat CPU 0 instructions: 43500337 cycles: 14437590 heartbeat IPC: 2.924 cumulative IPC: 3.013 (Simulation time: 00 hr 04 min 55 sec)
Heartbeat CPU 0 instructions: 44000339 cycles: 14600762 heartbeat IPC: 3.064 cumulative IPC: 3.014 (Simulation time: 00 hr 04 min 58 sec)
Heartbeat CPU 0 instructions: 44500340 cycles: 14764215 heartbeat IPC: 3.059 cumulative IPC: 3.014 (Simulation time: 00 hr 05 min 02 sec)
Heartbeat CPU 0 instructions: 45000344 cycles: 14935270 heartbeat IPC: 2.923 cumulative IPC: 3.013 (Simulation time: 00 hr 05 min 05 sec)
Heartbeat CPU 0 instructions: 45500351 cycles: 15098766 heartbeat IPC: 3.058 cumulative IPC: 3.014 (Simulation time: 00 hr 05 min 09 sec)
Heartbeat CPU 0 instructions: 46000356 cycles: 15262221 heartbeat IPC: 3.059 cumulative IPC: 3.014 (Simulation time: 00 hr 05 min 12 sec)
Heartbeat CPU 0 instructions: 46500363 cycles: 15433218 heartbeat IPC: 2.924 cumulative IPC: 3.013 (Simulation time: 00 hr 05 min 16 sec)
Heartbeat CPU 0 instructions: 47000364 cycles: 15596792 heartbeat IPC: 3.057 cumulative IPC: 3.013 (Simulation time: 00 hr 05 min 19 sec)
Heartbeat CPU 0 instructions: 47500370 cycles: 15760256 heartbeat IPC: 3.059 cumulative IPC: 3.014 (Simulation time: 00 hr 05 min 22 sec)
Heartbeat CPU 0 instructions: 48000373 cycles: 15925026 heartbeat IPC: 3.035 cumulative IPC: 3.014 (Simulation time: 00 hr 05 min 26 sec)
Heartbeat CPU 0 instructions: 48500380 cycles: 16095104 heartbeat IPC: 2.94 cumulative IPC: 3.013 (Simulation time: 00 hr 05 min 29 sec)
Heartbeat CPU 0 instructions: 49000382 cycles: 16258664 heartbeat IPC: 3.057 cumulative IPC: 3.014 (Simulation time: 00 hr 05 min 33 sec)
Heartbeat CPU 0 instructions: 49500383 cycles: 16421987 heartbeat IPC: 3.061 cumulative IPC: 3.014 (Simulation time: 00 hr 05 min 36 sec)
Warmup halting CPU 0 at instruction 50000003 cycle 16593005 for remainder of phase
Warmup finished CPU 0 instructions: 50000003 cycles: 16593005 cumulative IPC: 3.013 (Simulation time: 00 hr 05 min 40 sec)
Warmup complete CPU 0 instructions: 50000003 cycles: 16593005 cumulative IPC: 3.013 (Simulation time: 00 hr 05 min 40 sec)
Heartbeat CPU 0 instructions: 50000390 cycles: 16593080 heartbeat IPC: 2.922 cumulative IPC: 5.16 (Simulation time: 00 hr 05 min 40 sec)
Heartbeat CPU 0 instructions: 50500393 cycles: 16785155 heartbeat IPC: 2.603 cumulative IPC: 2.604 (Simulation time: 00 hr 05 min 43 sec)
Heartbeat CPU 0 instructions: 51000395 cycles: 16975244 heartbeat IPC: 2.63 cumulative IPC: 2.617 (Simulation time: 00 hr 05 min 47 sec)
Heartbeat CPU 0 instructions: 51500395 cycles: 17200659 heartbeat IPC: 2.218 cumulative IPC: 2.469 (Simulation time: 00 hr 05 min 50 sec)
Heartbeat CPU 0 instructions: 52000402 cycles: 17391888 heartbeat IPC: 2.615 cumulative IPC: 2.504 (Simulation time: 00 hr 05 min 54 sec)
Heartbeat CPU 0 instructions: 52500404 cycles: 17583349 heartbeat IPC: 2.612 cumulative IPC: 2.525 (Simulation time: 00 hr 05 min 58 sec)
Heartbeat CPU 0 instructions: 53000405 cycles: 17789467 heartbeat IPC: 2.426 cumulative IPC: 2.508 (Simulation time: 00 hr 06 min 01 sec)
Heartbeat CPU 0 instructions: 53500405 cycles: 18001953 heartbeat IPC: 2.353 cumulative IPC: 2.484 (Simulation time: 00 hr 06 min 05 sec)
Heartbeat CPU 0 instructions: 54000412 cycles: 18192722 heartbeat IPC: 2.621 cumulative IPC: 2.501 (Simulation time: 00 hr 06 min 09 sec)
Heartbeat CPU 0 instructions: 54500419 cycles: 18384697 heartbeat IPC: 2.605 cumulative IPC: 2.512 (Simulation time: 00 hr 06 min 12 sec)
Heartbeat CPU 0 instructions: 55000424 cycles: 18613274 heartbeat IPC: 2.187 cumulative IPC: 2.475 (Simulation time: 00 hr 06 min 16 sec)
Heartbeat CPU 0 instructions: 55500424 cycles: 18805275 heartbeat IPC: 2.604 cumulative IPC: 2.486 (Simulation time: 00 hr 06 min 20 sec)
Heartbeat CPU 0 instructions: 56000428 cycles: 18996669 heartbeat IPC: 2.612 cumulative IPC: 2.496 (Simulation time: 00 hr 06 min 23 sec)
Heartbeat CPU 0 instructions: 56500432 cycles: 19225150 heartbeat IPC: 2.188 cumulative IPC: 2.47 (Simulation time: 00 hr 06 min 27 sec)
Heartbeat CPU 0 instructions: 57000439 cycles: 19418368 heartbeat IPC: 2.588 cumulative IPC: 2.478 (Simulation time: 00 hr 06 min 31 sec)
Heartbeat CPU 0 instructions: 57500441 cycles: 19609213 heartbeat IPC: 2.62 cumulative IPC: 2.487 (Simulation time: 00 hr 06 min 34 sec)
Heartbeat CPU 0 instructions: 58000446 cycles: 19828522 heartbeat IPC: 2.28 cumulative IPC: 2.473 (Simulation time: 00 hr 06 min 38 sec)
Heartbeat CPU 0 instructions: 58500446 cycles: 20029726 heartbeat IPC: 2.485 cumulative IPC: 2.473 (Simulation time: 00 hr 06 min 42 sec)
Heartbeat CPU 0 instructions: 59000451 cycles: 20221844 heartbeat IPC: 2.603 cumulative IPC: 2.48 (Simulation time: 00 hr 06 min 46 sec)
Heartbeat CPU 0 instructions: 59500456 cycles: 20412888 heartbeat IPC: 2.617 cumulative IPC: 2.487 (Simulation time: 00 hr 06 min 49 sec)
Heartbeat CPU 0 instructions: 60000461 cycles: 20641596 heartbeat IPC: 2.186 cumulative IPC: 2.47 (Simulation time: 00 hr 06 min 53 sec)
Heartbeat CPU 0 instructions: 60500462 cycles: 20853525 heartbeat IPC: 2.359 cumulative IPC: 2.465 (Simulation time: 00 hr 06 min 57 sec)
Heartbeat CPU 0 instructions: 61000464 cycles: 21059651 heartbeat IPC: 2.426 cumulative IPC: 2.463 (Simulation time: 00 hr 07 min 01 sec)
Heartbeat CPU 0 instructions: 61500471 cycles: 21285527 heartbeat IPC: 2.214 cumulative IPC: 2.451 (Simulation time: 00 hr 07 min 05 sec)
Heartbeat CPU 0 instructions: 62000476 cycles: 21476547 heartbeat IPC: 2.618 cumulative IPC: 2.457 (Simulation time: 00 hr 07 min 08 sec)
Heartbeat CPU 0 instructions: 62500478 cycles: 21668091 heartbeat IPC: 2.61 cumulative IPC: 2.463 (Simulation time: 00 hr 07 min 12 sec)
Heartbeat CPU 0 instructions: 63000481 cycles: 21897336 heartbeat IPC: 2.181 cumulative IPC: 2.451 (Simulation time: 00 hr 07 min 16 sec)
Heartbeat CPU 0 instructions: 63500488 cycles: 22088491 heartbeat IPC: 2.616 cumulative IPC: 2.457 (Simulation time: 00 hr 07 min 20 sec)
Heartbeat CPU 0 instructions: 64000489 cycles: 22280233 heartbeat IPC: 2.608 cumulative IPC: 2.462 (Simulation time: 00 hr 07 min 23 sec)
Heartbeat CPU 0 instructions: 64500495 cycles: 22472107 heartbeat IPC: 2.606 cumulative IPC: 2.466 (Simulation time: 00 hr 07 min 27 sec)
Heartbeat CPU 0 instructions: 65000498 cycles: 22698627 heartbeat IPC: 2.207 cumulative IPC: 2.457 (Simulation time: 00 hr 07 min 31 sec)
Heartbeat CPU 0 instructions: 65500503 cycles: 22890099 heartbeat IPC: 2.611 cumulative IPC: 2.462 (Simulation time: 00 hr 07 min 34 sec)
Heartbeat CPU 0 instructions: 66000505 cycles: 23082147 heartbeat IPC: 2.604 cumulative IPC: 2.466 (Simulation time: 00 hr 07 min 38 sec)
Heartbeat CPU 0 instructions: 66500512 cycles: 23308999 heartbeat IPC: 2.204 cumulative IPC: 2.457 (Simulation time: 00 hr 07 min 42 sec)
Heartbeat CPU 0 instructions: 67000515 cycles: 23499143 heartbeat IPC: 2.63 cumulative IPC: 2.462 (Simulation time: 00 hr 07 min 45 sec)
Heartbeat CPU 0 instructions: 67500520 cycles: 23690063 heartbeat IPC: 2.619 cumulative IPC: 2.466 (Simulation time: 00 hr 07 min 49 sec)
Heartbeat CPU 0 instructions: 68000520 cycles: 23915000 heartbeat IPC: 2.223 cumulative IPC: 2.458 (Simulation time: 00 hr 07 min 53 sec)
Heartbeat CPU 0 instructions: 68500525 cycles: 24105967 heartbeat IPC: 2.618 cumulative IPC: 2.462 (Simulation time: 00 hr 07 min 57 sec)
Heartbeat CPU 0 instructions: 69000532 cycles: 24296481 heartbeat IPC: 2.625 cumulative IPC: 2.466 (Simulation time: 00 hr 08 min 00 sec)
Heartbeat CPU 0 instructions: 69500534 cycles: 24487335 heartbeat IPC: 2.62 cumulative IPC: 2.47 (Simulation time: 00 hr 08 min 04 sec)
Heartbeat CPU 0 instructions: 70000537 cycles: 24714931 heartbeat IPC: 2.197 cumulative IPC: 2.463 (Simulation time: 00 hr 08 min 08 sec)
Heartbeat CPU 0 instructions: 70500542 cycles: 24906270 heartbeat IPC: 2.613 cumulative IPC: 2.466 (Simulation time: 00 hr 08 min 11 sec)
Heartbeat CPU 0 instructions: 71000544 cycles: 25096610 heartbeat IPC: 2.627 cumulative IPC: 2.47 (Simulation time: 00 hr 08 min 15 sec)
Heartbeat CPU 0 instructions: 71500545 cycles: 25323667 heartbeat IPC: 2.202 cumulative IPC: 2.463 (Simulation time: 00 hr 08 min 19 sec)
Heartbeat CPU 0 instructions: 72000546 cycles: 25513641 heartbeat IPC: 2.632 cumulative IPC: 2.466 (Simulation time: 00 hr 08 min 22 sec)
Heartbeat CPU 0 instructions: 72500548 cycles: 25705201 heartbeat IPC: 2.61 cumulative IPC: 2.469 (Simulation time: 00 hr 08 min 26 sec)
Heartbeat CPU 0 instructions: 73000553 cycles: 25931903 heartbeat IPC: 2.206 cumulative IPC: 2.463 (Simulation time: 00 hr 08 min 30 sec)
Heartbeat CPU 0 instructions: 73500560 cycles: 26122791 heartbeat IPC: 2.619 cumulative IPC: 2.466 (Simulation time: 00 hr 08 min 34 sec)
Heartbeat CPU 0 instructions: 74000565 cycles: 26314838 heartbeat IPC: 2.604 cumulative IPC: 2.469 (Simulation time: 00 hr 08 min 37 sec)
Heartbeat CPU 0 instructions: 74500571 cycles: 26511303 heartbeat IPC: 2.545 cumulative IPC: 2.47 (Simulation time: 00 hr 08 min 41 sec)
Heartbeat CPU 0 instructions: 75000575 cycles: 26733831 heartbeat IPC: 2.247 cumulative IPC: 2.465 (Simulation time: 00 hr 08 min 45 sec)
Heartbeat CPU 0 instructions: 75500581 cycles: 26925765 heartbeat IPC: 2.605 cumulative IPC: 2.468 (Simulation time: 00 hr 08 min 48 sec)
Heartbeat CPU 0 instructions: 76000588 cycles: 27117044 heartbeat IPC: 2.614 cumulative IPC: 2.471 (Simulation time: 00 hr 08 min 52 sec)
Heartbeat CPU 0 instructions: 76500589 cycles: 27345701 heartbeat IPC: 2.187 cumulative IPC: 2.465 (Simulation time: 00 hr 08 min 56 sec)
Heartbeat CPU 0 instructions: 77000590 cycles: 27537677 heartbeat IPC: 2.604 cumulative IPC: 2.467 (Simulation time: 00 hr 08 min 59 sec)
Heartbeat CPU 0 instructions: 77500596 cycles: 27729807 heartbeat IPC: 2.602 cumulative IPC: 2.469 (Simulation time: 00 hr 09 min 03 sec)
Heartbeat CPU 0 instructions: 78000601 cycles: 27956032 heartbeat IPC: 2.21 cumulative IPC: 2.464 (Simulation time: 00 hr 09 min 07 sec)
Heartbeat CPU 0 instructions: 78500603 cycles: 28146368 heartbeat IPC: 2.627 cumulative IPC: 2.467 (Simulation time: 00 hr 09 min 11 sec)
Heartbeat CPU 0 instructions: 79000604 cycles: 28336187 heartbeat IPC: 2.634 cumulative IPC: 2.47 (Simulation time: 00 hr 09 min 14 sec)
Heartbeat CPU 0 instructions: 79500611 cycles: 28543683 heartbeat IPC: 2.41 cumulative IPC: 2.469 (Simulation time: 00 hr 09 min 18 sec)
Heartbeat CPU 0 instructions: 80000615 cycles: 28756321 heartbeat IPC: 2.351 cumulative IPC: 2.466 (Simulation time: 00 hr 09 min 22 sec)
Heartbeat CPU 0 instructions: 80500617 cycles: 28948329 heartbeat IPC: 2.604 cumulative IPC: 2.469 (Simulation time: 00 hr 09 min 25 sec)
Heartbeat CPU 0 instructions: 81000621 cycles: 29140230 heartbeat IPC: 2.606 cumulative IPC: 2.471 (Simulation time: 00 hr 09 min 29 sec)
Heartbeat CPU 0 instructions: 81500628 cycles: 29366928 heartbeat IPC: 2.206 cumulative IPC: 2.466 (Simulation time: 00 hr 09 min 33 sec)
Heartbeat CPU 0 instructions: 82000634 cycles: 29557761 heartbeat IPC: 2.62 cumulative IPC: 2.468 (Simulation time: 00 hr 09 min 37 sec)
Heartbeat CPU 0 instructions: 82500635 cycles: 29748738 heartbeat IPC: 2.618 cumulative IPC: 2.47 (Simulation time: 00 hr 09 min 40 sec)
Heartbeat CPU 0 instructions: 83000638 cycles: 29974539 heartbeat IPC: 2.214 cumulative IPC: 2.466 (Simulation time: 00 hr 09 min 44 sec)
Heartbeat CPU 0 instructions: 83500639 cycles: 30165794 heartbeat IPC: 2.614 cumulative IPC: 2.468 (Simulation time: 00 hr 09 min 48 sec)
Heartbeat CPU 0 instructions: 84000639 cycles: 30356710 heartbeat IPC: 2.619 cumulative IPC: 2.47 (Simulation time: 00 hr 09 min 51 sec)
Heartbeat CPU 0 instructions: 84500641 cycles: 30573903 heartbeat IPC: 2.302 cumulative IPC: 2.468 (Simulation time: 00 hr 09 min 55 sec)
Heartbeat CPU 0 instructions: 85000643 cycles: 30774264 heartbeat IPC: 2.496 cumulative IPC: 2.468 (Simulation time: 00 hr 09 min 59 sec)
Heartbeat CPU 0 instructions: 85500647 cycles: 30966079 heartbeat IPC: 2.607 cumulative IPC: 2.47 (Simulation time: 00 hr 10 min 03 sec)
Heartbeat CPU 0 instructions: 86000654 cycles: 31158125 heartbeat IPC: 2.604 cumulative IPC: 2.472 (Simulation time: 00 hr 10 min 06 sec)
Heartbeat CPU 0 instructions: 86500657 cycles: 31386268 heartbeat IPC: 2.192 cumulative IPC: 2.467 (Simulation time: 00 hr 10 min 10 sec)
Heartbeat CPU 0 instructions: 87000661 cycles: 31577314 heartbeat IPC: 2.617 cumulative IPC: 2.469 (Simulation time: 00 hr 10 min 14 sec)
Heartbeat CPU 0 instructions: 87500668 cycles: 31767942 heartbeat IPC: 2.623 cumulative IPC: 2.471 (Simulation time: 00 hr 10 min 17 sec)
Heartbeat CPU 0 instructions: 88000671 cycles: 31994986 heartbeat IPC: 2.202 cumulative IPC: 2.467 (Simulation time: 00 hr 10 min 21 sec)
Heartbeat CPU 0 instructions: 88500674 cycles: 32185670 heartbeat IPC: 2.622 cumulative IPC: 2.469 (Simulation time: 00 hr 10 min 25 sec)
Heartbeat CPU 0 instructions: 89000674 cycles: 32376372 heartbeat IPC: 2.622 cumulative IPC: 2.471 (Simulation time: 00 hr 10 min 28 sec)
Heartbeat CPU 0 instructions: 89500675 cycles: 32603255 heartbeat IPC: 2.204 cumulative IPC: 2.467 (Simulation time: 00 hr 10 min 32 sec)
Heartbeat CPU 0 instructions: 90000678 cycles: 32793870 heartbeat IPC: 2.623 cumulative IPC: 2.469 (Simulation time: 00 hr 10 min 36 sec)
Heartbeat CPU 0 instructions: 90500683 cycles: 32985179 heartbeat IPC: 2.614 cumulative IPC: 2.471 (Simulation time: 00 hr 10 min 40 sec)
Heartbeat CPU 0 instructions: 91000685 cycles: 33176346 heartbeat IPC: 2.616 cumulative IPC: 2.472 (Simulation time: 00 hr 10 min 43 sec)
Heartbeat CPU 0 instructions: 91500692 cycles: 33404419 heartbeat IPC: 2.192 cumulative IPC: 2.469 (Simulation time: 00 hr 10 min 47 sec)
Heartbeat CPU 0 instructions: 92000692 cycles: 33595598 heartbeat IPC: 2.615 cumulative IPC: 2.47 (Simulation time: 00 hr 10 min 51 sec)
Heartbeat CPU 0 instructions: 92500698 cycles: 33787136 heartbeat IPC: 2.61 cumulative IPC: 2.472 (Simulation time: 00 hr 10 min 54 sec)
Heartbeat CPU 0 instructions: 93000700 cycles: 34015563 heartbeat IPC: 2.189 cumulative IPC: 2.468 (Simulation time: 00 hr 10 min 58 sec)
Heartbeat CPU 0 instructions: 93500707 cycles: 34206948 heartbeat IPC: 2.613 cumulative IPC: 2.47 (Simulation time: 00 hr 11 min 02 sec)
Heartbeat CPU 0 instructions: 94000710 cycles: 34397782 heartbeat IPC: 2.62 cumulative IPC: 2.471 (Simulation time: 00 hr 11 min 06 sec)
Heartbeat CPU 0 instructions: 94500712 cycles: 34623113 heartbeat IPC: 2.219 cumulative IPC: 2.468 (Simulation time: 00 hr 11 min 10 sec)
Heartbeat CPU 0 instructions: 95000717 cycles: 34814420 heartbeat IPC: 2.614 cumulative IPC: 2.47 (Simulation time: 00 hr 11 min 13 sec)
Heartbeat CPU 0 instructions: 95500719 cycles: 35005484 heartbeat IPC: 2.617 cumulative IPC: 2.471 (Simulation time: 00 hr 11 min 17 sec)
Heartbeat CPU 0 instructions: 96000722 cycles: 35196202 heartbeat IPC: 2.622 cumulative IPC: 2.473 (Simulation time: 00 hr 11 min 20 sec)
Heartbeat CPU 0 instructions: 96500723 cycles: 35424074 heartbeat IPC: 2.194 cumulative IPC: 2.469 (Simulation time: 00 hr 11 min 24 sec)
Heartbeat CPU 0 instructions: 97000723 cycles: 35615473 heartbeat IPC: 2.612 cumulative IPC: 2.471 (Simulation time: 00 hr 11 min 28 sec)
Heartbeat CPU 0 instructions: 97500726 cycles: 35807026 heartbeat IPC: 2.61 cumulative IPC: 2.472 (Simulation time: 00 hr 11 min 32 sec)
Heartbeat CPU 0 instructions: 98000726 cycles: 36033497 heartbeat IPC: 2.208 cumulative IPC: 2.469 (Simulation time: 00 hr 11 min 35 sec)
Heartbeat CPU 0 instructions: 98500732 cycles: 36214992 heartbeat IPC: 2.755 cumulative IPC: 2.472 (Simulation time: 00 hr 11 min 39 sec)
Heartbeat CPU 0 instructions: 99000733 cycles: 36395787 heartbeat IPC: 2.766 cumulative IPC: 2.474 (Simulation time: 00 hr 11 min 43 sec)
Heartbeat CPU 0 instructions: 99500736 cycles: 36602439 heartbeat IPC: 2.42 cumulative IPC: 2.474 (Simulation time: 00 hr 11 min 46 sec)
Heartbeat CPU 0 instructions: 100000740 cycles: 36783373 heartbeat IPC: 2.763 cumulative IPC: 2.476 (Simulation time: 00 hr 11 min 50 sec)
Heartbeat CPU 0 instructions: 100500742 cycles: 36963960 heartbeat IPC: 2.769 cumulative IPC: 2.479 (Simulation time: 00 hr 11 min 53 sec)
Heartbeat CPU 0 instructions: 101000746 cycles: 37146935 heartbeat IPC: 2.733 cumulative IPC: 2.481 (Simulation time: 00 hr 11 min 57 sec)
Heartbeat CPU 0 instructions: 101500752 cycles: 37347897 heartbeat IPC: 2.488 cumulative IPC: 2.481 (Simulation time: 00 hr 12 min 01 sec)
Heartbeat CPU 0 instructions: 102000759 cycles: 37528149 heartbeat IPC: 2.774 cumulative IPC: 2.484 (Simulation time: 00 hr 12 min 04 sec)
Heartbeat CPU 0 instructions: 102500760 cycles: 37708937 heartbeat IPC: 2.766 cumulative IPC: 2.486 (Simulation time: 00 hr 12 min 07 sec)
Heartbeat CPU 0 instructions: 103000763 cycles: 37914237 heartbeat IPC: 2.435 cumulative IPC: 2.486 (Simulation time: 00 hr 12 min 11 sec)
Heartbeat CPU 0 instructions: 103500767 cycles: 38094159 heartbeat IPC: 2.779 cumulative IPC: 2.488 (Simulation time: 00 hr 12 min 15 sec)
Heartbeat CPU 0 instructions: 104000770 cycles: 38274501 heartbeat IPC: 2.773 cumulative IPC: 2.491 (Simulation time: 00 hr 12 min 18 sec)
Heartbeat CPU 0 instructions: 104500777 cycles: 38479938 heartbeat IPC: 2.434 cumulative IPC: 2.49 (Simulation time: 00 hr 12 min 22 sec)
Heartbeat CPU 0 instructions: 105000783 cycles: 38661206 heartbeat IPC: 2.758 cumulative IPC: 2.492 (Simulation time: 00 hr 12 min 26 sec)
Heartbeat CPU 0 instructions: 105500790 cycles: 38842652 heartbeat IPC: 2.756 cumulative IPC: 2.494 (Simulation time: 00 hr 12 min 29 sec)
Heartbeat CPU 0 instructions: 106000793 cycles: 39036154 heartbeat IPC: 2.584 cumulative IPC: 2.495 (Simulation time: 00 hr 12 min 33 sec)
Heartbeat CPU 0 instructions: 106500800 cycles: 39233991 heartbeat IPC: 2.527 cumulative IPC: 2.496 (Simulation time: 00 hr 12 min 36 sec)
Heartbeat CPU 0 instructions: 107000804 cycles: 39415451 heartbeat IPC: 2.755 cumulative IPC: 2.498 (Simulation time: 00 hr 12 min 40 sec)
Heartbeat CPU 0 instructions: 107500806 cycles: 39597542 heartbeat IPC: 2.746 cumulative IPC: 2.5 (Simulation time: 00 hr 12 min 43 sec)
Heartbeat CPU 0 instructions: 108000810 cycles: 39806866 heartbeat IPC: 2.389 cumulative IPC: 2.499 (Simulation time: 00 hr 12 min 47 sec)
Heartbeat CPU 0 instructions: 108500810 cycles: 39989501 heartbeat IPC: 2.738 cumulative IPC: 2.5 (Simulation time: 00 hr 12 min 51 sec)
Heartbeat CPU 0 instructions: 109000811 cycles: 40171415 heartbeat IPC: 2.749 cumulative IPC: 2.502 (Simulation time: 00 hr 12 min 54 sec)
Heartbeat CPU 0 instructions: 109500817 cycles: 40379347 heartbeat IPC: 2.405 cumulative IPC: 2.501 (Simulation time: 00 hr 12 min 58 sec)
Heartbeat CPU 0 instructions: 110000817 cycles: 40561227 heartbeat IPC: 2.749 cumulative IPC: 2.503 (Simulation time: 00 hr 13 min 01 sec)
Heartbeat CPU 0 instructions: 110500820 cycles: 40743460 heartbeat IPC: 2.744 cumulative IPC: 2.505 (Simulation time: 00 hr 13 min 05 sec)
Heartbeat CPU 0 instructions: 111000824 cycles: 40944849 heartbeat IPC: 2.483 cumulative IPC: 2.505 (Simulation time: 00 hr 13 min 09 sec)
Heartbeat CPU 0 instructions: 111500828 cycles: 41135001 heartbeat IPC: 2.629 cumulative IPC: 2.506 (Simulation time: 00 hr 13 min 12 sec)
Heartbeat CPU 0 instructions: 112000834 cycles: 41316452 heartbeat IPC: 2.756 cumulative IPC: 2.508 (Simulation time: 00 hr 13 min 16 sec)
Heartbeat CPU 0 instructions: 112500836 cycles: 41499080 heartbeat IPC: 2.738 cumulative IPC: 2.509 (Simulation time: 00 hr 13 min 19 sec)
Heartbeat CPU 0 instructions: 113000839 cycles: 41709444 heartbeat IPC: 2.377 cumulative IPC: 2.508 (Simulation time: 00 hr 13 min 23 sec)
Heartbeat CPU 0 instructions: 113500842 cycles: 41892000 heartbeat IPC: 2.739 cumulative IPC: 2.51 (Simulation time: 00 hr 13 min 27 sec)
Heartbeat CPU 0 instructions: 114000844 cycles: 42073074 heartbeat IPC: 2.761 cumulative IPC: 2.512 (Simulation time: 00 hr 13 min 30 sec)
Heartbeat CPU 0 instructions: 114500851 cycles: 42283148 heartbeat IPC: 2.38 cumulative IPC: 2.511 (Simulation time: 00 hr 13 min 34 sec)
Heartbeat CPU 0 instructions: 115000856 cycles: 42466516 heartbeat IPC: 2.727 cumulative IPC: 2.512 (Simulation time: 00 hr 13 min 38 sec)
Heartbeat CPU 0 instructions: 115500858 cycles: 42648524 heartbeat IPC: 2.747 cumulative IPC: 2.514 (Simulation time: 00 hr 13 min 41 sec)
Heartbeat CPU 0 instructions: 116000861 cycles: 42857443 heartbeat IPC: 2.393 cumulative IPC: 2.513 (Simulation time: 00 hr 13 min 45 sec)
Heartbeat CPU 0 instructions: 116500862 cycles: 43039633 heartbeat IPC: 2.744 cumulative IPC: 2.515 (Simulation time: 00 hr 13 min 49 sec)
Heartbeat CPU 0 instructions: 117000869 cycles: 43222018 heartbeat IPC: 2.741 cumulative IPC: 2.516 (Simulation time: 00 hr 13 min 52 sec)
Heartbeat CPU 0 instructions: 117500871 cycles: 43404099 heartbeat IPC: 2.746 cumulative IPC: 2.518 (Simulation time: 00 hr 13 min 56 sec)
Heartbeat CPU 0 instructions: 118000873 cycles: 43611181 heartbeat IPC: 2.415 cumulative IPC: 2.517 (Simulation time: 00 hr 14 min 00 sec)
Heartbeat CPU 0 instructions: 118500875 cycles: 43794213 heartbeat IPC: 2.732 cumulative IPC: 2.518 (Simulation time: 00 hr 14 min 03 sec)
Heartbeat CPU 0 instructions: 119000876 cycles: 43975995 heartbeat IPC: 2.751 cumulative IPC: 2.52 (Simulation time: 00 hr 14 min 07 sec)
Heartbeat CPU 0 instructions: 119500876 cycles: 44187371 heartbeat IPC: 2.365 cumulative IPC: 2.519 (Simulation time: 00 hr 14 min 11 sec)
Heartbeat CPU 0 instructions: 120000876 cycles: 44370531 heartbeat IPC: 2.73 cumulative IPC: 2.52 (Simulation time: 00 hr 14 min 14 sec)
Heartbeat CPU 0 instructions: 120500876 cycles: 44552801 heartbeat IPC: 2.743 cumulative IPC: 2.522 (Simulation time: 00 hr 14 min 18 sec)
Heartbeat CPU 0 instructions: 121000879 cycles: 44761824 heartbeat IPC: 2.392 cumulative IPC: 2.521 (Simulation time: 00 hr 14 min 21 sec)
Heartbeat CPU 0 instructions: 121500881 cycles: 44943502 heartbeat IPC: 2.752 cumulative IPC: 2.522 (Simulation time: 00 hr 14 min 25 sec)
Heartbeat CPU 0 instructions: 122000884 cycles: 45125109 heartbeat IPC: 2.753 cumulative IPC: 2.524 (Simulation time: 00 hr 14 min 29 sec)
Heartbeat CPU 0 instructions: 122500887 cycles: 45306924 heartbeat IPC: 2.75 cumulative IPC: 2.525 (Simulation time: 00 hr 14 min 32 sec)
Heartbeat CPU 0 instructions: 123000887 cycles: 45516425 heartbeat IPC: 2.387 cumulative IPC: 2.524 (Simulation time: 00 hr 14 min 36 sec)
Heartbeat CPU 0 instructions: 123500890 cycles: 45699253 heartbeat IPC: 2.735 cumulative IPC: 2.525 (Simulation time: 00 hr 14 min 39 sec)
Heartbeat CPU 0 instructions: 124000891 cycles: 45880734 heartbeat IPC: 2.755 cumulative IPC: 2.527 (Simulation time: 00 hr 14 min 43 sec)
Heartbeat CPU 0 instructions: 124500898 cycles: 46089158 heartbeat IPC: 2.399 cumulative IPC: 2.526 (Simulation time: 00 hr 14 min 47 sec)
Heartbeat CPU 0 instructions: 125000898 cycles: 46271741 heartbeat IPC: 2.738 cumulative IPC: 2.527 (Simulation time: 00 hr 14 min 50 sec)
Heartbeat CPU 0 instructions: 125500899 cycles: 46453762 heartbeat IPC: 2.747 cumulative IPC: 2.528 (Simulation time: 00 hr 14 min 54 sec)
Heartbeat CPU 0 instructions: 126000902 cycles: 46661826 heartbeat IPC: 2.403 cumulative IPC: 2.528 (Simulation time: 00 hr 14 min 58 sec)
Heartbeat CPU 0 instructions: 126500904 cycles: 46843062 heartbeat IPC: 2.759 cumulative IPC: 2.529 (Simulation time: 00 hr 15 min 01 sec)
Heartbeat CPU 0 instructions: 127000909 cycles: 47025755 heartbeat IPC: 2.737 cumulative IPC: 2.53 (Simulation time: 00 hr 15 min 05 sec)
Heartbeat CPU 0 instructions: 127500912 cycles: 47210067 heartbeat IPC: 2.713 cumulative IPC: 2.531 (Simulation time: 00 hr 15 min 08 sec)
Heartbeat CPU 0 instructions: 128000916 cycles: 47415989 heartbeat IPC: 2.428 cumulative IPC: 2.531 (Simulation time: 00 hr 15 min 12 sec)
Heartbeat CPU 0 instructions: 128500921 cycles: 47598046 heartbeat IPC: 2.746 cumulative IPC: 2.532 (Simulation time: 00 hr 15 min 16 sec)
Heartbeat CPU 0 instructions: 129000926 cycles: 47780330 heartbeat IPC: 2.743 cumulative IPC: 2.533 (Simulation time: 00 hr 15 min 19 sec)
Heartbeat CPU 0 instructions: 129500929 cycles: 47989637 heartbeat IPC: 2.389 cumulative IPC: 2.532 (Simulation time: 00 hr 15 min 23 sec)
Heartbeat CPU 0 instructions: 130000933 cycles: 48171556 heartbeat IPC: 2.748 cumulative IPC: 2.533 (Simulation time: 00 hr 15 min 27 sec)
Heartbeat CPU 0 instructions: 130500935 cycles: 48353884 heartbeat IPC: 2.742 cumulative IPC: 2.535 (Simulation time: 00 hr 15 min 30 sec)
Heartbeat CPU 0 instructions: 131000941 cycles: 48563302 heartbeat IPC: 2.388 cumulative IPC: 2.534 (Simulation time: 00 hr 15 min 34 sec)
Heartbeat CPU 0 instructions: 131500948 cycles: 48745649 heartbeat IPC: 2.742 cumulative IPC: 2.535 (Simulation time: 00 hr 15 min 37 sec)
Heartbeat CPU 0 instructions: 132000948 cycles: 48927269 heartbeat IPC: 2.753 cumulative IPC: 2.536 (Simulation time: 00 hr 15 min 41 sec)
Heartbeat CPU 0 instructions: 132500950 cycles: 49121318 heartbeat IPC: 2.577 cumulative IPC: 2.536 (Simulation time: 00 hr 15 min 45 sec)
Heartbeat CPU 0 instructions: 133000952 cycles: 49319224 heartbeat IPC: 2.526 cumulative IPC: 2.536 (Simulation time: 00 hr 15 min 48 sec)
Heartbeat CPU 0 instructions: 133500958 cycles: 49500814 heartbeat IPC: 2.753 cumulative IPC: 2.537 (Simulation time: 00 hr 15 min 52 sec)
Heartbeat CPU 0 instructions: 134000965 cycles: 49683230 heartbeat IPC: 2.741 cumulative IPC: 2.539 (Simulation time: 00 hr 15 min 56 sec)
Heartbeat CPU 0 instructions: 134500968 cycles: 49891880 heartbeat IPC: 2.396 cumulative IPC: 2.538 (Simulation time: 00 hr 15 min 59 sec)
Heartbeat CPU 0 instructions: 135000973 cycles: 50073793 heartbeat IPC: 2.749 cumulative IPC: 2.539 (Simulation time: 00 hr 16 min 03 sec)
Heartbeat CPU 0 instructions: 135500975 cycles: 50254743 heartbeat IPC: 2.763 cumulative IPC: 2.54 (Simulation time: 00 hr 16 min 06 sec)
Heartbeat CPU 0 instructions: 136000978 cycles: 50464191 heartbeat IPC: 2.387 cumulative IPC: 2.539 (Simulation time: 00 hr 16 min 10 sec)
Heartbeat CPU 0 instructions: 136500985 cycles: 50646572 heartbeat IPC: 2.742 cumulative IPC: 2.54 (Simulation time: 00 hr 16 min 14 sec)
Heartbeat CPU 0 instructions: 137000986 cycles: 50829418 heartbeat IPC: 2.735 cumulative IPC: 2.541 (Simulation time: 00 hr 16 min 17 sec)
Heartbeat CPU 0 instructions: 137500990 cycles: 51030025 heartbeat IPC: 2.492 cumulative IPC: 2.541 (Simulation time: 00 hr 16 min 21 sec)
Heartbeat CPU 0 instructions: 138000997 cycles: 51219285 heartbeat IPC: 2.642 cumulative IPC: 2.541 (Simulation time: 00 hr 16 min 25 sec)
Heartbeat CPU 0 instructions: 138500997 cycles: 51401175 heartbeat IPC: 2.749 cumulative IPC: 2.543 (Simulation time: 00 hr 16 min 28 sec)
Heartbeat CPU 0 instructions: 139000997 cycles: 51584596 heartbeat IPC: 2.726 cumulative IPC: 2.543 (Simulation time: 00 hr 16 min 32 sec)
Heartbeat CPU 0 instructions: 139501001 cycles: 51793607 heartbeat IPC: 2.392 cumulative IPC: 2.543 (Simulation time: 00 hr 16 min 36 sec)
Heartbeat CPU 0 instructions: 140001004 cycles: 51976214 heartbeat IPC: 2.738 cumulative IPC: 2.544 (Simulation time: 00 hr 16 min 39 sec)
Heartbeat CPU 0 instructions: 140501006 cycles: 52158096 heartbeat IPC: 2.749 cumulative IPC: 2.545 (Simulation time: 00 hr 16 min 43 sec)
Heartbeat CPU 0 instructions: 141001009 cycles: 52367808 heartbeat IPC: 2.384 cumulative IPC: 2.544 (Simulation time: 00 hr 16 min 47 sec)
Heartbeat CPU 0 instructions: 141501010 cycles: 52549305 heartbeat IPC: 2.755 cumulative IPC: 2.545 (Simulation time: 00 hr 16 min 50 sec)
Heartbeat CPU 0 instructions: 142001015 cycles: 52732586 heartbeat IPC: 2.728 cumulative IPC: 2.546 (Simulation time: 00 hr 16 min 54 sec)
Heartbeat CPU 0 instructions: 142501019 cycles: 52941964 heartbeat IPC: 2.388 cumulative IPC: 2.545 (Simulation time: 00 hr 16 min 58 sec)
Heartbeat CPU 0 instructions: 143001020 cycles: 53124075 heartbeat IPC: 2.746 cumulative IPC: 2.546 (Simulation time: 00 hr 17 min 01 sec)
Heartbeat CPU 0 instructions: 143501023 cycles: 53305455 heartbeat IPC: 2.757 cumulative IPC: 2.547 (Simulation time: 00 hr 17 min 05 sec)
Heartbeat CPU 0 instructions: 144001025 cycles: 53486267 heartbeat IPC: 2.765 cumulative IPC: 2.548 (Simulation time: 00 hr 17 min 08 sec)
Heartbeat CPU 0 instructions: 144501028 cycles: 53695689 heartbeat IPC: 2.388 cumulative IPC: 2.547 (Simulation time: 00 hr 17 min 12 sec)
Heartbeat CPU 0 instructions: 145001033 cycles: 53878062 heartbeat IPC: 2.742 cumulative IPC: 2.548 (Simulation time: 00 hr 17 min 16 sec)
Heartbeat CPU 0 instructions: 145501040 cycles: 54060250 heartbeat IPC: 2.744 cumulative IPC: 2.549 (Simulation time: 00 hr 17 min 19 sec)
Heartbeat CPU 0 instructions: 146001040 cycles: 54269073 heartbeat IPC: 2.394 cumulative IPC: 2.548 (Simulation time: 00 hr 17 min 23 sec)
Heartbeat CPU 0 instructions: 146501045 cycles: 54451685 heartbeat IPC: 2.738 cumulative IPC: 2.549 (Simulation time: 00 hr 17 min 26 sec)
Heartbeat CPU 0 instructions: 147001050 cycles: 54632986 heartbeat IPC: 2.758 cumulative IPC: 2.55 (Simulation time: 00 hr 17 min 30 sec)
Heartbeat CPU 0 instructions: 147501057 cycles: 54842277 heartbeat IPC: 2.389 cumulative IPC: 2.549 (Simulation time: 00 hr 17 min 33 sec)
Heartbeat CPU 0 instructions: 148001063 cycles: 55024005 heartbeat IPC: 2.751 cumulative IPC: 2.55 (Simulation time: 00 hr 17 min 37 sec)
Heartbeat CPU 0 instructions: 148501064 cycles: 55207690 heartbeat IPC: 2.722 cumulative IPC: 2.551 (Simulation time: 00 hr 17 min 40 sec)
Heartbeat CPU 0 instructions: 149001069 cycles: 55390325 heartbeat IPC: 2.738 cumulative IPC: 2.552 (Simulation time: 00 hr 17 min 44 sec)
Heartbeat CPU 0 instructions: 149501074 cycles: 55599645 heartbeat IPC: 2.389 cumulative IPC: 2.551 (Simulation time: 00 hr 17 min 48 sec)
Heartbeat CPU 0 instructions: 150001077 cycles: 55781004 heartbeat IPC: 2.757 cumulative IPC: 2.552 (Simulation time: 00 hr 17 min 51 sec)
Heartbeat CPU 0 instructions: 150501081 cycles: 55962595 heartbeat IPC: 2.753 cumulative IPC: 2.553 (Simulation time: 00 hr 17 min 54 sec)
Heartbeat CPU 0 instructions: 151001085 cycles: 56171279 heartbeat IPC: 2.396 cumulative IPC: 2.552 (Simulation time: 00 hr 17 min 58 sec)
Heartbeat CPU 0 instructions: 151501092 cycles: 56354691 heartbeat IPC: 2.726 cumulative IPC: 2.553 (Simulation time: 00 hr 18 min 02 sec)
Heartbeat CPU 0 instructions: 152001097 cycles: 56536329 heartbeat IPC: 2.753 cumulative IPC: 2.554 (Simulation time: 00 hr 18 min 05 sec)
Heartbeat CPU 0 instructions: 152501104 cycles: 56744131 heartbeat IPC: 2.406 cumulative IPC: 2.553 (Simulation time: 00 hr 18 min 09 sec)
Heartbeat CPU 0 instructions: 153001110 cycles: 56926069 heartbeat IPC: 2.748 cumulative IPC: 2.554 (Simulation time: 00 hr 18 min 12 sec)
Heartbeat CPU 0 instructions: 153501117 cycles: 57108668 heartbeat IPC: 2.738 cumulative IPC: 2.555 (Simulation time: 00 hr 18 min 15 sec)
Heartbeat CPU 0 instructions: 154001118 cycles: 57294692 heartbeat IPC: 2.688 cumulative IPC: 2.555 (Simulation time: 00 hr 18 min 19 sec)
Heartbeat CPU 0 instructions: 154501121 cycles: 57500085 heartbeat IPC: 2.434 cumulative IPC: 2.555 (Simulation time: 00 hr 18 min 22 sec)
Heartbeat CPU 0 instructions: 155001127 cycles: 57681142 heartbeat IPC: 2.762 cumulative IPC: 2.556 (Simulation time: 00 hr 18 min 26 sec)
Heartbeat CPU 0 instructions: 155501127 cycles: 57863622 heartbeat IPC: 2.74 cumulative IPC: 2.556 (Simulation time: 00 hr 18 min 29 sec)
Heartbeat CPU 0 instructions: 156001131 cycles: 58071978 heartbeat IPC: 2.4 cumulative IPC: 2.556 (Simulation time: 00 hr 18 min 33 sec)
Heartbeat CPU 0 instructions: 156501131 cycles: 58253811 heartbeat IPC: 2.75 cumulative IPC: 2.556 (Simulation time: 00 hr 18 min 36 sec)
Heartbeat CPU 0 instructions: 157001131 cycles: 58435825 heartbeat IPC: 2.747 cumulative IPC: 2.557 (Simulation time: 00 hr 18 min 40 sec)
Heartbeat CPU 0 instructions: 157501131 cycles: 58644045 heartbeat IPC: 2.401 cumulative IPC: 2.556 (Simulation time: 00 hr 18 min 43 sec)
Heartbeat CPU 0 instructions: 158001136 cycles: 58826580 heartbeat IPC: 2.739 cumulative IPC: 2.557 (Simulation time: 00 hr 18 min 47 sec)
Heartbeat CPU 0 instructions: 158501140 cycles: 59008993 heartbeat IPC: 2.741 cumulative IPC: 2.558 (Simulation time: 00 hr 18 min 50 sec)
Heartbeat CPU 0 instructions: 159001141 cycles: 59238336 heartbeat IPC: 2.18 cumulative IPC: 2.556 (Simulation time: 00 hr 18 min 54 sec)
Heartbeat CPU 0 instructions: 159501146 cycles: 59435083 heartbeat IPC: 2.541 cumulative IPC: 2.556 (Simulation time: 00 hr 18 min 58 sec)
Heartbeat CPU 0 instructions: 160001146 cycles: 59617157 heartbeat IPC: 2.746 cumulative IPC: 2.557 (Simulation time: 00 hr 19 min 01 sec)
Heartbeat CPU 0 instructions: 160501149 cycles: 59800304 heartbeat IPC: 2.73 cumulative IPC: 2.557 (Simulation time: 00 hr 19 min 05 sec)
Heartbeat CPU 0 instructions: 161001149 cycles: 60009228 heartbeat IPC: 2.393 cumulative IPC: 2.557 (Simulation time: 00 hr 19 min 09 sec)
Heartbeat CPU 0 instructions: 161501152 cycles: 60190803 heartbeat IPC: 2.754 cumulative IPC: 2.557 (Simulation time: 00 hr 19 min 12 sec)
Heartbeat CPU 0 instructions: 162001157 cycles: 60372336 heartbeat IPC: 2.754 cumulative IPC: 2.558 (Simulation time: 00 hr 19 min 16 sec)
Heartbeat CPU 0 instructions: 162501162 cycles: 60582129 heartbeat IPC: 2.383 cumulative IPC: 2.557 (Simulation time: 00 hr 19 min 19 sec)
Heartbeat CPU 0 instructions: 163001165 cycles: 60764855 heartbeat IPC: 2.736 cumulative IPC: 2.558 (Simulation time: 00 hr 19 min 23 sec)
Heartbeat CPU 0 instructions: 163501165 cycles: 60947372 heartbeat IPC: 2.739 cumulative IPC: 2.559 (Simulation time: 00 hr 19 min 26 sec)
Heartbeat CPU 0 instructions: 164001172 cycles: 61148077 heartbeat IPC: 2.491 cumulative IPC: 2.559 (Simulation time: 00 hr 19 min 30 sec)
Heartbeat CPU 0 instructions: 164501179 cycles: 61338929 heartbeat IPC: 2.62 cumulative IPC: 2.559 (Simulation time: 00 hr 19 min 33 sec)
Heartbeat CPU 0 instructions: 165001186 cycles: 61521726 heartbeat IPC: 2.735 cumulative IPC: 2.56 (Simulation time: 00 hr 19 min 37 sec)
Heartbeat CPU 0 instructions: 165501186 cycles: 61704148 heartbeat IPC: 2.741 cumulative IPC: 2.56 (Simulation time: 00 hr 19 min 40 sec)
Heartbeat CPU 0 instructions: 166001192 cycles: 61914401 heartbeat IPC: 2.378 cumulative IPC: 2.56 (Simulation time: 00 hr 19 min 44 sec)
Heartbeat CPU 0 instructions: 166501194 cycles: 62096731 heartbeat IPC: 2.742 cumulative IPC: 2.56 (Simulation time: 00 hr 19 min 47 sec)
Heartbeat CPU 0 instructions: 167001194 cycles: 62278909 heartbeat IPC: 2.745 cumulative IPC: 2.561 (Simulation time: 00 hr 19 min 51 sec)
Heartbeat CPU 0 instructions: 167501195 cycles: 62487239 heartbeat IPC: 2.4 cumulative IPC: 2.56 (Simulation time: 00 hr 19 min 55 sec)
Heartbeat CPU 0 instructions: 168001198 cycles: 62669299 heartbeat IPC: 2.746 cumulative IPC: 2.561 (Simulation time: 00 hr 19 min 58 sec)
Heartbeat CPU 0 instructions: 168501199 cycles: 62851817 heartbeat IPC: 2.739 cumulative IPC: 2.562 (Simulation time: 00 hr 20 min 02 sec)
Heartbeat CPU 0 instructions: 169001202 cycles: 63061355 heartbeat IPC: 2.386 cumulative IPC: 2.561 (Simulation time: 00 hr 20 min 05 sec)
Heartbeat CPU 0 instructions: 169501202 cycles: 63242551 heartbeat IPC: 2.759 cumulative IPC: 2.562 (Simulation time: 00 hr 20 min 09 sec)
Heartbeat CPU 0 instructions: 170001205 cycles: 63424216 heartbeat IPC: 2.752 cumulative IPC: 2.562 (Simulation time: 00 hr 20 min 12 sec)
Heartbeat CPU 0 instructions: 170501210 cycles: 63606309 heartbeat IPC: 2.746 cumulative IPC: 2.563 (Simulation time: 00 hr 20 min 16 sec)
Heartbeat CPU 0 instructions: 171001210 cycles: 63815067 heartbeat IPC: 2.395 cumulative IPC: 2.562 (Simulation time: 00 hr 20 min 19 sec)
Heartbeat CPU 0 instructions: 171501214 cycles: 63997046 heartbeat IPC: 2.748 cumulative IPC: 2.563 (Simulation time: 00 hr 20 min 23 sec)
Heartbeat CPU 0 instructions: 172001214 cycles: 64179915 heartbeat IPC: 2.734 cumulative IPC: 2.564 (Simulation time: 00 hr 20 min 26 sec)
Heartbeat CPU 0 instructions: 172501217 cycles: 64390239 heartbeat IPC: 2.377 cumulative IPC: 2.563 (Simulation time: 00 hr 20 min 30 sec)
Heartbeat CPU 0 instructions: 173001219 cycles: 64572510 heartbeat IPC: 2.743 cumulative IPC: 2.564 (Simulation time: 00 hr 20 min 33 sec)
Heartbeat CPU 0 instructions: 173501224 cycles: 64754145 heartbeat IPC: 2.753 cumulative IPC: 2.564 (Simulation time: 00 hr 20 min 37 sec)
Heartbeat CPU 0 instructions: 174001227 cycles: 64961924 heartbeat IPC: 2.406 cumulative IPC: 2.564 (Simulation time: 00 hr 20 min 41 sec)
Heartbeat CPU 0 instructions: 174501229 cycles: 65144162 heartbeat IPC: 2.744 cumulative IPC: 2.564 (Simulation time: 00 hr 20 min 44 sec)
Heartbeat CPU 0 instructions: 175001236 cycles: 65326130 heartbeat IPC: 2.748 cumulative IPC: 2.565 (Simulation time: 00 hr 20 min 47 sec)
Heartbeat CPU 0 instructions: 175501241 cycles: 65508094 heartbeat IPC: 2.748 cumulative IPC: 2.566 (Simulation time: 00 hr 20 min 51 sec)
Heartbeat CPU 0 instructions: 176001241 cycles: 65718093 heartbeat IPC: 2.381 cumulative IPC: 2.565 (Simulation time: 00 hr 20 min 55 sec)
Heartbeat CPU 0 instructions: 176501248 cycles: 65900863 heartbeat IPC: 2.736 cumulative IPC: 2.566 (Simulation time: 00 hr 20 min 58 sec)
Heartbeat CPU 0 instructions: 177001251 cycles: 66083684 heartbeat IPC: 2.735 cumulative IPC: 2.566 (Simulation time: 00 hr 21 min 01 sec)
Heartbeat CPU 0 instructions: 177501256 cycles: 66292840 heartbeat IPC: 2.391 cumulative IPC: 2.565 (Simulation time: 00 hr 21 min 05 sec)
Heartbeat CPU 0 instructions: 178001258 cycles: 66474442 heartbeat IPC: 2.753 cumulative IPC: 2.566 (Simulation time: 00 hr 21 min 09 sec)
Heartbeat CPU 0 instructions: 178501259 cycles: 66655240 heartbeat IPC: 2.766 cumulative IPC: 2.567 (Simulation time: 00 hr 21 min 12 sec)
Heartbeat CPU 0 instructions: 179001263 cycles: 66865157 heartbeat IPC: 2.382 cumulative IPC: 2.566 (Simulation time: 00 hr 21 min 16 sec)
Heartbeat CPU 0 instructions: 179501263 cycles: 67046661 heartbeat IPC: 2.755 cumulative IPC: 2.567 (Simulation time: 00 hr 21 min 19 sec)
Heartbeat CPU 0 instructions: 180001267 cycles: 67229264 heartbeat IPC: 2.738 cumulative IPC: 2.567 (Simulation time: 00 hr 21 min 23 sec)
Heartbeat CPU 0 instructions: 180501267 cycles: 67413088 heartbeat IPC: 2.72 cumulative IPC: 2.568 (Simulation time: 00 hr 21 min 26 sec)
Heartbeat CPU 0 instructions: 181001271 cycles: 67618955 heartbeat IPC: 2.429 cumulative IPC: 2.567 (Simulation time: 00 hr 21 min 30 sec)
Heartbeat CPU 0 instructions: 181501271 cycles: 67801342 heartbeat IPC: 2.741 cumulative IPC: 2.568 (Simulation time: 00 hr 21 min 33 sec)
Heartbeat CPU 0 instructions: 182001273 cycles: 67983801 heartbeat IPC: 2.74 cumulative IPC: 2.569 (Simulation time: 00 hr 21 min 37 sec)
Heartbeat CPU 0 instructions: 182501273 cycles: 68193290 heartbeat IPC: 2.387 cumulative IPC: 2.568 (Simulation time: 00 hr 21 min 40 sec)
Heartbeat CPU 0 instructions: 183001274 cycles: 68376844 heartbeat IPC: 2.724 cumulative IPC: 2.568 (Simulation time: 00 hr 21 min 44 sec)
Heartbeat CPU 0 instructions: 183501275 cycles: 68559063 heartbeat IPC: 2.744 cumulative IPC: 2.569 (Simulation time: 00 hr 21 min 47 sec)
Heartbeat CPU 0 instructions: 184001281 cycles: 68768971 heartbeat IPC: 2.382 cumulative IPC: 2.568 (Simulation time: 00 hr 21 min 51 sec)
Heartbeat CPU 0 instructions: 184501286 cycles: 68950133 heartbeat IPC: 2.76 cumulative IPC: 2.569 (Simulation time: 00 hr 21 min 54 sec)
Heartbeat CPU 0 instructions: 185001290 cycles: 69131240 heartbeat IPC: 2.761 cumulative IPC: 2.57 (Simulation time: 00 hr 21 min 58 sec)
Heartbeat CPU 0 instructions: 185501291 cycles: 69324795 heartbeat IPC: 2.583 cumulative IPC: 2.57 (Simulation time: 00 hr 22 min 01 sec)
Heartbeat CPU 0 instructions: 186001296 cycles: 69524388 heartbeat IPC: 2.505 cumulative IPC: 2.569 (Simulation time: 00 hr 22 min 05 sec)
Heartbeat CPU 0 instructions: 186501296 cycles: 69706720 heartbeat IPC: 2.742 cumulative IPC: 2.57 (Simulation time: 00 hr 22 min 08 sec)
Heartbeat CPU 0 instructions: 187001297 cycles: 69889725 heartbeat IPC: 2.732 cumulative IPC: 2.571 (Simulation time: 00 hr 22 min 12 sec)
Heartbeat CPU 0 instructions: 187501300 cycles: 70097555 heartbeat IPC: 2.406 cumulative IPC: 2.57 (Simulation time: 00 hr 22 min 15 sec)
Heartbeat CPU 0 instructions: 188001302 cycles: 70279651 heartbeat IPC: 2.746 cumulative IPC: 2.57 (Simulation time: 00 hr 22 min 19 sec)
Heartbeat CPU 0 instructions: 188501307 cycles: 70461806 heartbeat IPC: 2.745 cumulative IPC: 2.571 (Simulation time: 00 hr 22 min 22 sec)
Heartbeat CPU 0 instructions: 189001310 cycles: 70666263 heartbeat IPC: 2.446 cumulative IPC: 2.571 (Simulation time: 00 hr 22 min 26 sec)
Heartbeat CPU 0 instructions: 189501317 cycles: 70845553 heartbeat IPC: 2.789 cumulative IPC: 2.571 (Simulation time: 00 hr 22 min 29 sec)
Heartbeat CPU 0 instructions: 190001318 cycles: 71025815 heartbeat IPC: 2.774 cumulative IPC: 2.572 (Simulation time: 00 hr 22 min 32 sec)
Heartbeat CPU 0 instructions: 190501322 cycles: 71222456 heartbeat IPC: 2.543 cumulative IPC: 2.572 (Simulation time: 00 hr 22 min 36 sec)
Heartbeat CPU 0 instructions: 191001327 cycles: 71407137 heartbeat IPC: 2.707 cumulative IPC: 2.572 (Simulation time: 00 hr 22 min 39 sec)
Heartbeat CPU 0 instructions: 191501332 cycles: 71586040 heartbeat IPC: 2.795 cumulative IPC: 2.573 (Simulation time: 00 hr 22 min 43 sec)
Heartbeat CPU 0 instructions: 192001338 cycles: 71760667 heartbeat IPC: 2.863 cumulative IPC: 2.574 (Simulation time: 00 hr 22 min 46 sec)
Heartbeat CPU 0 instructions: 192501341 cycles: 71953919 heartbeat IPC: 2.587 cumulative IPC: 2.574 (Simulation time: 00 hr 22 min 49 sec)
Heartbeat CPU 0 instructions: 193001346 cycles: 72128808 heartbeat IPC: 2.859 cumulative IPC: 2.575 (Simulation time: 00 hr 22 min 52 sec)
Heartbeat CPU 0 instructions: 193501353 cycles: 72300793 heartbeat IPC: 2.907 cumulative IPC: 2.576 (Simulation time: 00 hr 22 min 56 sec)
Heartbeat CPU 0 instructions: 194001354 cycles: 72489365 heartbeat IPC: 2.652 cumulative IPC: 2.576 (Simulation time: 00 hr 22 min 59 sec)
Heartbeat CPU 0 instructions: 194501354 cycles: 72660388 heartbeat IPC: 2.924 cumulative IPC: 2.577 (Simulation time: 00 hr 23 min 02 sec)
Heartbeat CPU 0 instructions: 195001359 cycles: 72833186 heartbeat IPC: 2.894 cumulative IPC: 2.578 (Simulation time: 00 hr 23 min 06 sec)
Heartbeat CPU 0 instructions: 195501364 cycles: 73020491 heartbeat IPC: 2.669 cumulative IPC: 2.579 (Simulation time: 00 hr 23 min 09 sec)
Heartbeat CPU 0 instructions: 196001366 cycles: 73192123 heartbeat IPC: 2.913 cumulative IPC: 2.58 (Simulation time: 00 hr 23 min 12 sec)
Heartbeat CPU 0 instructions: 196501373 cycles: 73364172 heartbeat IPC: 2.906 cumulative IPC: 2.581 (Simulation time: 00 hr 23 min 15 sec)
Heartbeat CPU 0 instructions: 197001376 cycles: 73546016 heartbeat IPC: 2.75 cumulative IPC: 2.581 (Simulation time: 00 hr 23 min 19 sec)
Heartbeat CPU 0 instructions: 197501378 cycles: 73753605 heartbeat IPC: 2.409 cumulative IPC: 2.58 (Simulation time: 00 hr 23 min 22 sec)
Heartbeat CPU 0 instructions: 198001378 cycles: 73934563 heartbeat IPC: 2.763 cumulative IPC: 2.581 (Simulation time: 00 hr 23 min 26 sec)
Heartbeat CPU 0 instructions: 198501380 cycles: 74114501 heartbeat IPC: 2.779 cumulative IPC: 2.582 (Simulation time: 00 hr 23 min 29 sec)
Heartbeat CPU 0 instructions: 199001387 cycles: 74318769 heartbeat IPC: 2.448 cumulative IPC: 2.581 (Simulation time: 00 hr 23 min 33 sec)
Heartbeat CPU 0 instructions: 199501393 cycles: 74499575 heartbeat IPC: 2.765 cumulative IPC: 2.582 (Simulation time: 00 hr 23 min 36 sec)
Heartbeat CPU 0 instructions: 200001397 cycles: 74678870 heartbeat IPC: 2.789 cumulative IPC: 2.582 (Simulation time: 00 hr 23 min 39 sec)
Heartbeat CPU 0 instructions: 200501401 cycles: 74884345 heartbeat IPC: 2.433 cumulative IPC: 2.582 (Simulation time: 00 hr 23 min 43 sec)
Heartbeat CPU 0 instructions: 201001401 cycles: 75064555 heartbeat IPC: 2.775 cumulative IPC: 2.582 (Simulation time: 00 hr 23 min 46 sec)
Heartbeat CPU 0 instructions: 201501402 cycles: 75244769 heartbeat IPC: 2.774 cumulative IPC: 2.583 (Simulation time: 00 hr 23 min 49 sec)
Heartbeat CPU 0 instructions: 202001407 cycles: 75424341 heartbeat IPC: 2.784 cumulative IPC: 2.584 (Simulation time: 00 hr 23 min 53 sec)
Heartbeat CPU 0 instructions: 202501412 cycles: 75630487 heartbeat IPC: 2.425 cumulative IPC: 2.583 (Simulation time: 00 hr 23 min 56 sec)
Heartbeat CPU 0 instructions: 203001414 cycles: 75810612 heartbeat IPC: 2.776 cumulative IPC: 2.584 (Simulation time: 00 hr 23 min 59 sec)
Heartbeat CPU 0 instructions: 203501417 cycles: 75991638 heartbeat IPC: 2.762 cumulative IPC: 2.584 (Simulation time: 00 hr 24 min 03 sec)
Heartbeat CPU 0 instructions: 204001420 cycles: 76200464 heartbeat IPC: 2.394 cumulative IPC: 2.584 (Simulation time: 00 hr 24 min 06 sec)
Heartbeat CPU 0 instructions: 204501420 cycles: 76383017 heartbeat IPC: 2.739 cumulative IPC: 2.584 (Simulation time: 00 hr 24 min 10 sec)
Heartbeat CPU 0 instructions: 205001421 cycles: 76564526 heartbeat IPC: 2.755 cumulative IPC: 2.585 (Simulation time: 00 hr 24 min 13 sec)
Heartbeat CPU 0 instructions: 205501426 cycles: 76772633 heartbeat IPC: 2.403 cumulative IPC: 2.584 (Simulation time: 00 hr 24 min 17 sec)
Heartbeat CPU 0 instructions: 206001429 cycles: 76955074 heartbeat IPC: 2.741 cumulative IPC: 2.584 (Simulation time: 00 hr 24 min 20 sec)
Heartbeat CPU 0 instructions: 206501431 cycles: 77137752 heartbeat IPC: 2.737 cumulative IPC: 2.585 (Simulation time: 00 hr 24 min 24 sec)
Heartbeat CPU 0 instructions: 207001434 cycles: 77323152 heartbeat IPC: 2.697 cumulative IPC: 2.585 (Simulation time: 00 hr 24 min 27 sec)
Heartbeat CPU 0 instructions: 207501441 cycles: 77529271 heartbeat IPC: 2.426 cumulative IPC: 2.585 (Simulation time: 00 hr 24 min 31 sec)
Heartbeat CPU 0 instructions: 208001445 cycles: 77710215 heartbeat IPC: 2.763 cumulative IPC: 2.585 (Simulation time: 00 hr 24 min 34 sec)
Heartbeat CPU 0 instructions: 208501448 cycles: 77893454 heartbeat IPC: 2.729 cumulative IPC: 2.586 (Simulation time: 00 hr 24 min 37 sec)
Heartbeat CPU 0 instructions: 209001451 cycles: 78104469 heartbeat IPC: 2.37 cumulative IPC: 2.585 (Simulation time: 00 hr 24 min 41 sec)
Heartbeat CPU 0 instructions: 209501458 cycles: 78286097 heartbeat IPC: 2.753 cumulative IPC: 2.585 (Simulation time: 00 hr 24 min 44 sec)
Heartbeat CPU 0 instructions: 210001458 cycles: 78468728 heartbeat IPC: 2.738 cumulative IPC: 2.586 (Simulation time: 00 hr 24 min 48 sec)
Heartbeat CPU 0 instructions: 210501459 cycles: 78678397 heartbeat IPC: 2.385 cumulative IPC: 2.585 (Simulation time: 00 hr 24 min 51 sec)
Heartbeat CPU 0 instructions: 211001462 cycles: 78861403 heartbeat IPC: 2.732 cumulative IPC: 2.586 (Simulation time: 00 hr 24 min 55 sec)
Heartbeat CPU 0 instructions: 211501464 cycles: 79043391 heartbeat IPC: 2.747 cumulative IPC: 2.586 (Simulation time: 00 hr 24 min 58 sec)
Heartbeat CPU 0 instructions: 212001464 cycles: 79236356 heartbeat IPC: 2.591 cumulative IPC: 2.586 (Simulation time: 00 hr 25 min 01 sec)
Heartbeat CPU 0 instructions: 212501470 cycles: 79435505 heartbeat IPC: 2.511 cumulative IPC: 2.586 (Simulation time: 00 hr 25 min 05 sec)
Heartbeat CPU 0 instructions: 213001475 cycles: 79617686 heartbeat IPC: 2.745 cumulative IPC: 2.586 (Simulation time: 00 hr 25 min 08 sec)
Heartbeat CPU 0 instructions: 213501476 cycles: 79799792 heartbeat IPC: 2.746 cumulative IPC: 2.587 (Simulation time: 00 hr 25 min 11 sec)
Heartbeat CPU 0 instructions: 214001478 cycles: 80009706 heartbeat IPC: 2.382 cumulative IPC: 2.586 (Simulation time: 00 hr 25 min 15 sec)
Heartbeat CPU 0 instructions: 214501483 cycles: 80192334 heartbeat IPC: 2.738 cumulative IPC: 2.587 (Simulation time: 00 hr 25 min 18 sec)
Heartbeat CPU 0 instructions: 215001487 cycles: 80374156 heartbeat IPC: 2.75 cumulative IPC: 2.587 (Simulation time: 00 hr 25 min 22 sec)
Heartbeat CPU 0 instructions: 215501492 cycles: 80583408 heartbeat IPC: 2.389 cumulative IPC: 2.586 (Simulation time: 00 hr 25 min 25 sec)
Heartbeat CPU 0 instructions: 216001493 cycles: 80766178 heartbeat IPC: 2.736 cumulative IPC: 2.587 (Simulation time: 00 hr 25 min 28 sec)
Heartbeat CPU 0 instructions: 216501493 cycles: 80948634 heartbeat IPC: 2.74 cumulative IPC: 2.587 (Simulation time: 00 hr 25 min 32 sec)
Heartbeat CPU 0 instructions: 217001494 cycles: 81148772 heartbeat IPC: 2.498 cumulative IPC: 2.587 (Simulation time: 00 hr 25 min 35 sec)
Heartbeat CPU 0 instructions: 217501501 cycles: 81338752 heartbeat IPC: 2.632 cumulative IPC: 2.587 (Simulation time: 00 hr 25 min 38 sec)
Heartbeat CPU 0 instructions: 218001502 cycles: 81520747 heartbeat IPC: 2.747 cumulative IPC: 2.588 (Simulation time: 00 hr 25 min 42 sec)
Heartbeat CPU 0 instructions: 218501502 cycles: 81703865 heartbeat IPC: 2.73 cumulative IPC: 2.588 (Simulation time: 00 hr 25 min 45 sec)
Heartbeat CPU 0 instructions: 219001507 cycles: 81913886 heartbeat IPC: 2.381 cumulative IPC: 2.587 (Simulation time: 00 hr 25 min 49 sec)
Heartbeat CPU 0 instructions: 219501510 cycles: 82094679 heartbeat IPC: 2.766 cumulative IPC: 2.588 (Simulation time: 00 hr 25 min 52 sec)
Heartbeat CPU 0 instructions: 220001517 cycles: 82275719 heartbeat IPC: 2.762 cumulative IPC: 2.588 (Simulation time: 00 hr 25 min 55 sec)
Heartbeat CPU 0 instructions: 220501518 cycles: 82484609 heartbeat IPC: 2.394 cumulative IPC: 2.588 (Simulation time: 00 hr 25 min 59 sec)
Heartbeat CPU 0 instructions: 221001519 cycles: 82667226 heartbeat IPC: 2.738 cumulative IPC: 2.588 (Simulation time: 00 hr 26 min 02 sec)
Heartbeat CPU 0 instructions: 221501519 cycles: 82850277 heartbeat IPC: 2.731 cumulative IPC: 2.588 (Simulation time: 00 hr 26 min 05 sec)
Heartbeat CPU 0 instructions: 222001521 cycles: 83058730 heartbeat IPC: 2.399 cumulative IPC: 2.588 (Simulation time: 00 hr 26 min 09 sec)
Heartbeat CPU 0 instructions: 222501526 cycles: 83241463 heartbeat IPC: 2.736 cumulative IPC: 2.588 (Simulation time: 00 hr 26 min 12 sec)
Heartbeat CPU 0 instructions: 223001528 cycles: 83424228 heartbeat IPC: 2.736 cumulative IPC: 2.589 (Simulation time: 00 hr 26 min 15 sec)
Heartbeat CPU 0 instructions: 223501531 cycles: 83606108 heartbeat IPC: 2.749 cumulative IPC: 2.589 (Simulation time: 00 hr 26 min 18 sec)
Heartbeat CPU 0 instructions: 224001531 cycles: 83814031 heartbeat IPC: 2.405 cumulative IPC: 2.588 (Simulation time: 00 hr 26 min 22 sec)
Heartbeat CPU 0 instructions: 224501531 cycles: 83996482 heartbeat IPC: 2.74 cumulative IPC: 2.589 (Simulation time: 00 hr 26 min 25 sec)
Heartbeat CPU 0 instructions: 225001535 cycles: 84179061 heartbeat IPC: 2.739 cumulative IPC: 2.589 (Simulation time: 00 hr 26 min 29 sec)
Heartbeat CPU 0 instructions: 225501538 cycles: 84387884 heartbeat IPC: 2.394 cumulative IPC: 2.589 (Simulation time: 00 hr 26 min 32 sec)
Heartbeat CPU 0 instructions: 226001543 cycles: 84569948 heartbeat IPC: 2.746 cumulative IPC: 2.589 (Simulation time: 00 hr 26 min 35 sec)
Heartbeat CPU 0 instructions: 226501547 cycles: 84750528 heartbeat IPC: 2.769 cumulative IPC: 2.59 (Simulation time: 00 hr 26 min 39 sec)
Heartbeat CPU 0 instructions: 227001548 cycles: 84959970 heartbeat IPC: 2.387 cumulative IPC: 2.589 (Simulation time: 00 hr 26 min 42 sec)
Heartbeat CPU 0 instructions: 227501550 cycles: 85143186 heartbeat IPC: 2.729 cumulative IPC: 2.589 (Simulation time: 00 hr 26 min 45 sec)
Heartbeat CPU 0 instructions: 228001556 cycles: 85325587 heartbeat IPC: 2.741 cumulative IPC: 2.59 (Simulation time: 00 hr 26 min 48 sec)
Heartbeat CPU 0 instructions: 228501557 cycles: 85507083 heartbeat IPC: 2.755 cumulative IPC: 2.59 (Simulation time: 00 hr 26 min 52 sec)
Heartbeat CPU 0 instructions: 229001562 cycles: 85717551 heartbeat IPC: 2.376 cumulative IPC: 2.59 (Simulation time: 00 hr 26 min 55 sec)
Heartbeat CPU 0 instructions: 229501562 cycles: 85899343 heartbeat IPC: 2.75 cumulative IPC: 2.59 (Simulation time: 00 hr 26 min 58 sec)
Heartbeat CPU 0 instructions: 230001567 cycles: 86082130 heartbeat IPC: 2.735 cumulative IPC: 2.59 (Simulation time: 00 hr 27 min 02 sec)
Heartbeat CPU 0 instructions: 230501570 cycles: 86288926 heartbeat IPC: 2.418 cumulative IPC: 2.59 (Simulation time: 00 hr 27 min 05 sec)
Heartbeat CPU 0 instructions: 231001572 cycles: 86471369 heartbeat IPC: 2.741 cumulative IPC: 2.59 (Simulation time: 00 hr 27 min 08 sec)
Heartbeat CPU 0 instructions: 231501573 cycles: 86653241 heartbeat IPC: 2.749 cumulative IPC: 2.591 (Simulation time: 00 hr 27 min 11 sec)
Heartbeat CPU 0 instructions: 232001574 cycles: 86862959 heartbeat IPC: 2.384 cumulative IPC: 2.59 (Simulation time: 00 hr 27 min 15 sec)
Heartbeat CPU 0 instructions: 232501581 cycles: 87044029 heartbeat IPC: 2.761 cumulative IPC: 2.59 (Simulation time: 00 hr 27 min 18 sec)
Heartbeat CPU 0 instructions: 233001583 cycles: 87225656 heartbeat IPC: 2.753 cumulative IPC: 2.591 (Simulation time: 00 hr 27 min 21 sec)
Heartbeat CPU 0 instructions: 233501584 cycles: 87409953 heartbeat IPC: 2.713 cumulative IPC: 2.591 (Simulation time: 00 hr 27 min 25 sec)
Heartbeat CPU 0 instructions: 234001591 cycles: 87617379 heartbeat IPC: 2.411 cumulative IPC: 2.591 (Simulation time: 00 hr 27 min 28 sec)
Heartbeat CPU 0 instructions: 234501598 cycles: 87799641 heartbeat IPC: 2.743 cumulative IPC: 2.591 (Simulation time: 00 hr 27 min 31 sec)
Heartbeat CPU 0 instructions: 235001598 cycles: 87982024 heartbeat IPC: 2.741 cumulative IPC: 2.591 (Simulation time: 00 hr 27 min 34 sec)
Heartbeat CPU 0 instructions: 235501601 cycles: 88192455 heartbeat IPC: 2.376 cumulative IPC: 2.591 (Simulation time: 00 hr 27 min 38 sec)
Heartbeat CPU 0 instructions: 236001606 cycles: 88374725 heartbeat IPC: 2.743 cumulative IPC: 2.591 (Simulation time: 00 hr 27 min 41 sec)
Heartbeat CPU 0 instructions: 236501610 cycles: 88556607 heartbeat IPC: 2.749 cumulative IPC: 2.592 (Simulation time: 00 hr 27 min 44 sec)
Heartbeat CPU 0 instructions: 237001613 cycles: 88765616 heartbeat IPC: 2.392 cumulative IPC: 2.591 (Simulation time: 00 hr 27 min 48 sec)
Heartbeat CPU 0 instructions: 237501618 cycles: 88948001 heartbeat IPC: 2.741 cumulative IPC: 2.591 (Simulation time: 00 hr 27 min 51 sec)
Heartbeat CPU 0 instructions: 238001619 cycles: 89130070 heartbeat IPC: 2.746 cumulative IPC: 2.592 (Simulation time: 00 hr 27 min 54 sec)
Heartbeat CPU 0 instructions: 238501623 cycles: 89323646 heartbeat IPC: 2.583 cumulative IPC: 2.592 (Simulation time: 00 hr 27 min 57 sec)
Heartbeat CPU 0 instructions: 239001628 cycles: 89521075 heartbeat IPC: 2.533 cumulative IPC: 2.592 (Simulation time: 00 hr 28 min 01 sec)
Heartbeat CPU 0 instructions: 239501633 cycles: 89704268 heartbeat IPC: 2.729 cumulative IPC: 2.592 (Simulation time: 00 hr 28 min 04 sec)
Heartbeat CPU 0 instructions: 240001636 cycles: 89885445 heartbeat IPC: 2.76 cumulative IPC: 2.592 (Simulation time: 00 hr 28 min 07 sec)
Heartbeat CPU 0 instructions: 240501640 cycles: 90095169 heartbeat IPC: 2.384 cumulative IPC: 2.592 (Simulation time: 00 hr 28 min 11 sec)
Heartbeat CPU 0 instructions: 241001645 cycles: 90276526 heartbeat IPC: 2.757 cumulative IPC: 2.592 (Simulation time: 00 hr 28 min 14 sec)
Heartbeat CPU 0 instructions: 241501646 cycles: 90457056 heartbeat IPC: 2.77 cumulative IPC: 2.593 (Simulation time: 00 hr 28 min 17 sec)
Heartbeat CPU 0 instructions: 242001652 cycles: 90665857 heartbeat IPC: 2.395 cumulative IPC: 2.592 (Simulation time: 00 hr 28 min 20 sec)
Heartbeat CPU 0 instructions: 242501655 cycles: 90847853 heartbeat IPC: 2.747 cumulative IPC: 2.592 (Simulation time: 00 hr 28 min 23 sec)
Heartbeat CPU 0 instructions: 243001662 cycles: 91029840 heartbeat IPC: 2.747 cumulative IPC: 2.593 (Simulation time: 00 hr 28 min 27 sec)
Heartbeat CPU 0 instructions: 243501665 cycles: 91229650 heartbeat IPC: 2.502 cumulative IPC: 2.593 (Simulation time: 00 hr 28 min 30 sec)
Heartbeat CPU 0 instructions: 244001667 cycles: 91421252 heartbeat IPC: 2.61 cumulative IPC: 2.593 (Simulation time: 00 hr 28 min 33 sec)
Heartbeat CPU 0 instructions: 244501672 cycles: 91603377 heartbeat IPC: 2.745 cumulative IPC: 2.593 (Simulation time: 00 hr 28 min 36 sec)
Heartbeat CPU 0 instructions: 245001677 cycles: 91786163 heartbeat IPC: 2.735 cumulative IPC: 2.593 (Simulation time: 00 hr 28 min 40 sec)
Heartbeat CPU 0 instructions: 245501679 cycles: 91994791 heartbeat IPC: 2.397 cumulative IPC: 2.593 (Simulation time: 00 hr 28 min 43 sec)
Heartbeat CPU 0 instructions: 246001686 cycles: 92175652 heartbeat IPC: 2.765 cumulative IPC: 2.593 (Simulation time: 00 hr 28 min 46 sec)
Heartbeat CPU 0 instructions: 246501686 cycles: 92358464 heartbeat IPC: 2.735 cumulative IPC: 2.594 (Simulation time: 00 hr 28 min 49 sec)
Heartbeat CPU 0 instructions: 247001692 cycles: 92566893 heartbeat IPC: 2.399 cumulative IPC: 2.593 (Simulation time: 00 hr 28 min 53 sec)
Heartbeat CPU 0 instructions: 247501694 cycles: 92749704 heartbeat IPC: 2.735 cumulative IPC: 2.593 (Simulation time: 00 hr 28 min 56 sec)
Heartbeat CPU 0 instructions: 248001695 cycles: 92930411 heartbeat IPC: 2.767 cumulative IPC: 2.594 (Simulation time: 00 hr 28 min 59 sec)
Heartbeat CPU 0 instructions: 248501696 cycles: 93139479 heartbeat IPC: 2.392 cumulative IPC: 2.593 (Simulation time: 00 hr 29 min 02 sec)
Heartbeat CPU 0 instructions: 249001702 cycles: 93322019 heartbeat IPC: 2.739 cumulative IPC: 2.594 (Simulation time: 00 hr 29 min 06 sec)
Heartbeat CPU 0 instructions: 249501707 cycles: 93505011 heartbeat IPC: 2.732 cumulative IPC: 2.594 (Simulation time: 00 hr 29 min 09 sec)
Simulation finished CPU 0 instructions: 200000006 cycles: 77094580 cumulative IPC: 2.594 (Simulation time: 00 hr 29 min 12 sec)
Simulation complete CPU 0 instructions: 200000006 cycles: 77094580 cumulative IPC: 2.594 (Simulation time: 00 hr 29 min 12 sec)

ChampSim completed all CPUs

=== Simulation ===
CPU 0 runs /local-ssd/ben/dpc4-traces/ai-ml/stable-diffusion.cpp-sd-v1-4.ckpt.2.champsimtrace.gz

Region of Interest Statistics

CPU 0 cumulative IPC: 2.594 instructions: 200000006 cycles: 77094580
CPU 0 Branch Prediction Accuracy: 98.9% MPKI: 0.7108 Average ROB Occupancy at Mispredict: 528.8
Branch type MPKI
BRANCH_DIRECT_JUMP: 0
BRANCH_INDIRECT: 0
BRANCH_CONDITIONAL: 0.7108
BRANCH_DIRECT_CALL: 0
BRANCH_INDIRECT_CALL: 0
BRANCH_RETURN: 0

cpu0->cpu0_STLB TOTAL        ACCESS:      94849 HIT:      71199 MISS:      23650 MSHR_MERGE:          0
cpu0->cpu0_STLB LOAD         ACCESS:      94849 HIT:      71199 MISS:      23650 MSHR_MERGE:          0
cpu0->cpu0_STLB RFO          ACCESS:          0 HIT:          0 MISS:          0 MSHR_MERGE:          0
cpu0->cpu0_STLB PREFETCH     ACCESS:          0 HIT:          0 MISS:          0 MSHR_MERGE:          0
cpu0->cpu0_STLB WRITE        ACCESS:          0 HIT:          0 MISS:          0 MSHR_MERGE:          0
cpu0->cpu0_STLB TRANSLATION  ACCESS:          0 HIT:          0 MISS:          0 MSHR_MERGE:          0
cpu0->cpu0_STLB PREFETCH REQUESTED:          0 ISSUED:          0 USEFUL:          0 USELESS:          0
cpu0->cpu0_STLB AVERAGE MISS LATENCY: 93.06 cycles
cpu0->cpu0_L2C TOTAL        ACCESS:   51646370 HIT:   48219317 MISS:    3427053 MSHR_MERGE:    1911728
cpu0->cpu0_L2C LOAD         ACCESS:   18947241 HIT:   17981363 MISS:     965878 MSHR_MERGE:     418657
cpu0->cpu0_L2C RFO          ACCESS:      47153 HIT:      38821 MISS:       8332 MSHR_MERGE:          0
cpu0->cpu0_L2C PREFETCH     ACCESS:   32581578 HIT:   30131754 MISS:    2449824 MSHR_MERGE:    1493071
cpu0->cpu0_L2C WRITE        ACCESS:      66808 HIT:      66808 MISS:          0 MSHR_MERGE:          0
cpu0->cpu0_L2C TRANSLATION  ACCESS:       3590 HIT:        571 MISS:       3019 MSHR_MERGE:          0
cpu0->cpu0_L2C PREFETCH REQUESTED:   66387500 ISSUED:   25918893 USEFUL:     817456 USELESS:        344
cpu0->cpu0_L2C AVERAGE MISS LATENCY: 188.1 cycles
cpu0->cpu0_L1I TOTAL        ACCESS:   43969386 HIT:   43969386 MISS:          0 MSHR_MERGE:          0
cpu0->cpu0_L1I LOAD         ACCESS:   43969386 HIT:   43969386 MISS:          0 MSHR_MERGE:          0
cpu0->cpu0_L1I RFO          ACCESS:          0 HIT:          0 MISS:          0 MSHR_MERGE:          0
cpu0->cpu0_L1I PREFETCH     ACCESS:          0 HIT:          0 MISS:          0 MSHR_MERGE:          0
cpu0->cpu0_L1I WRITE        ACCESS:          0 HIT:          0 MISS:          0 MSHR_MERGE:          0
cpu0->cpu0_L1I TRANSLATION  ACCESS:          0 HIT:          0 MISS:          0 MSHR_MERGE:          0
cpu0->cpu0_L1I PREFETCH REQUESTED:          0 ISSUED:          0 USEFUL:          0 USELESS:          0
cpu0->cpu0_L1I AVERAGE MISS LATENCY: - cycles
cpu0->cpu0_L1D TOTAL        ACCESS:   74798503 HIT:   42841720 MISS:   31956783 MSHR_MERGE:    6296037
cpu0->cpu0_L1D LOAD         ACCESS:   58512791 HIT:   36621898 MISS:   21890893 MSHR_MERGE:    2943651
cpu0->cpu0_L1D RFO          ACCESS:          0 HIT:          0 MISS:          0 MSHR_MERGE:          0
cpu0->cpu0_L1D PREFETCH     ACCESS:   15612400 HIT:    5607857 MISS:   10004543 MSHR_MERGE:    3341846
cpu0->cpu0_L1D WRITE        ACCESS:     626002 HIT:     568247 MISS:      57755 MSHR_MERGE:      10538
cpu0->cpu0_L1D TRANSLATION  ACCESS:      47310 HIT:      43718 MISS:       3592 MSHR_MERGE:          2
cpu0->cpu0_L1D PREFETCH REQUESTED:   23374780 ISSUED:   15612396 USEFUL:    6616434 USELESS:      46260
cpu0->cpu0_L1D AVERAGE MISS LATENCY: 18.09 cycles
cpu0->cpu0_ITLB TOTAL        ACCESS:   27032159 HIT:   27032159 MISS:          0 MSHR_MERGE:          0
cpu0->cpu0_ITLB LOAD         ACCESS:   27032159 HIT:   27032159 MISS:          0 MSHR_MERGE:          0
cpu0->cpu0_ITLB RFO          ACCESS:          0 HIT:          0 MISS:          0 MSHR_MERGE:          0
cpu0->cpu0_ITLB PREFETCH     ACCESS:          0 HIT:          0 MISS:          0 MSHR_MERGE:          0
cpu0->cpu0_ITLB WRITE        ACCESS:          0 HIT:          0 MISS:          0 MSHR_MERGE:          0
cpu0->cpu0_ITLB TRANSLATION  ACCESS:          0 HIT:          0 MISS:          0 MSHR_MERGE:          0
cpu0->cpu0_ITLB PREFETCH REQUESTED:          0 ISSUED:          0 USEFUL:          0 USELESS:          0
cpu0->cpu0_ITLB AVERAGE MISS LATENCY: - cycles
cpu0->cpu0_DTLB TOTAL        ACCESS:   60719502 HIT:   60326991 MISS:     392511 MSHR_MERGE:     297662
cpu0->cpu0_DTLB LOAD         ACCESS:   60719502 HIT:   60326991 MISS:     392511 MSHR_MERGE:     297662
cpu0->cpu0_DTLB RFO          ACCESS:          0 HIT:          0 MISS:          0 MSHR_MERGE:          0
cpu0->cpu0_DTLB PREFETCH     ACCESS:          0 HIT:          0 MISS:          0 MSHR_MERGE:          0
cpu0->cpu0_DTLB WRITE        ACCESS:          0 HIT:          0 MISS:          0 MSHR_MERGE:          0
cpu0->cpu0_DTLB TRANSLATION  ACCESS:          0 HIT:          0 MISS:          0 MSHR_MERGE:          0
cpu0->cpu0_DTLB PREFETCH REQUESTED:          0 ISSUED:          0 USEFUL:          0 USELESS:          0
cpu0->cpu0_DTLB AVERAGE MISS LATENCY: 28.46 cycles
cpu0->LLC TOTAL        ACCESS:    1523651 HIT:      43454 MISS:    1480197 MSHR_MERGE:          0
cpu0->LLC LOAD         ACCESS:     547221 HIT:      11193 MISS:     536028 MSHR_MERGE:          0
cpu0->LLC RFO          ACCESS:       8332 HIT:          0 MISS:       8332 MSHR_MERGE:          0
cpu0->LLC PREFETCH     ACCESS:     956753 HIT:      29623 MISS:     927130 MSHR_MERGE:          0
cpu0->LLC WRITE        ACCESS:       8326 HIT:       2556 MISS:       5770 MSHR_MERGE:          0
cpu0->LLC TRANSLATION  ACCESS:       3019 HIT:         82 MISS:       2937 MSHR_MERGE:          0
cpu0->LLC PREFETCH REQUESTED:          0 ISSUED:          0 USEFUL:          0 USELESS:          0
cpu0->LLC AVERAGE MISS LATENCY: 215.9 cycles

DRAM Statistics

Channel 0 RQ ROW_BUFFER_HIT:     697569
  ROW_BUFFER_MISS:     776858
  AVG DBUS CONGESTED CYCLE: 4.71
Channel 0 WQ ROW_BUFFER_HIT:       2115
  ROW_BUFFER_MISS:       2963
  FULL:          0
Channel 0 REFRESHES ISSUED:       6424
