[VMEM] WARNING: physical memory size is smaller than virtual memory size.

*** ChampSim Multicore Out-of-Order Simulator ***
Warmup Instructions: 50000000
Simulation Instructions: 200000000
Number of CPUs: 1
Page size: 4096
Core 0: /local-ssd/ben/dpc4-traces/Graph/Ligra/ligra_BFSCC.com-lj.ungraph.gcc_6.3.0_O3.drop_17000M.length_250M.champsimtrace.xz
 L1D Berti prefetcher
Off-chip DRAM Size: 64 GiB Channels: 1 Width: 64-bit Data Rate: 4807 MT/s
Heartbeat CPU 0 instructions: 500000 cycles: 171575 heartbeat IPC: 2.914 cumulative IPC: 2.914 (Simulation time: 00 hr 00 min 02 sec)
Heartbeat CPU 0 instructions: 1000005 cycles: 353580 heartbeat IPC: 2.747 cumulative IPC: 2.828 (Simulation time: 00 hr 00 min 04 sec)
Heartbeat CPU 0 instructions: 1500007 cycles: 526462 heartbeat IPC: 2.892 cumulative IPC: 2.849 (Simulation time: 00 hr 00 min 06 sec)
Heartbeat CPU 0 instructions: 2000011 cycles: 700172 heartbeat IPC: 2.878 cumulative IPC: 2.856 (Simulation time: 00 hr 00 min 08 sec)
Heartbeat CPU 0 instructions: 2500011 cycles: 882614 heartbeat IPC: 2.741 cumulative IPC: 2.833 (Simulation time: 00 hr 00 min 10 sec)
Heartbeat CPU 0 instructions: 3000017 cycles: 1072117 heartbeat IPC: 2.639 cumulative IPC: 2.798 (Simulation time: 00 hr 00 min 13 sec)
Heartbeat CPU 0 instructions: 3500022 cycles: 1264749 heartbeat IPC: 2.596 cumulative IPC: 2.767 (Simulation time: 00 hr 00 min 15 sec)
Heartbeat CPU 0 instructions: 4000026 cycles: 1441727 heartbeat IPC: 2.825 cumulative IPC: 2.774 (Simulation time: 00 hr 00 min 17 sec)
Heartbeat CPU 0 instructions: 4500027 cycles: 1628847 heartbeat IPC: 2.672 cumulative IPC: 2.763 (Simulation time: 00 hr 00 min 19 sec)
Heartbeat CPU 0 instructions: 5000028 cycles: 1798056 heartbeat IPC: 2.955 cumulative IPC: 2.781 (Simulation time: 00 hr 00 min 22 sec)
Heartbeat CPU 0 instructions: 5500028 cycles: 1984153 heartbeat IPC: 2.687 cumulative IPC: 2.772 (Simulation time: 00 hr 00 min 24 sec)
Heartbeat CPU 0 instructions: 6000030 cycles: 2159974 heartbeat IPC: 2.844 cumulative IPC: 2.778 (Simulation time: 00 hr 00 min 26 sec)
Heartbeat CPU 0 instructions: 6500033 cycles: 2347758 heartbeat IPC: 2.663 cumulative IPC: 2.769 (Simulation time: 00 hr 00 min 28 sec)
Heartbeat CPU 0 instructions: 7000034 cycles: 2519187 heartbeat IPC: 2.917 cumulative IPC: 2.779 (Simulation time: 00 hr 00 min 31 sec)
Heartbeat CPU 0 instructions: 7500037 cycles: 2706014 heartbeat IPC: 2.676 cumulative IPC: 2.772 (Simulation time: 00 hr 00 min 33 sec)
Heartbeat CPU 0 instructions: 8000042 cycles: 2895012 heartbeat IPC: 2.646 cumulative IPC: 2.763 (Simulation time: 00 hr 00 min 35 sec)
Heartbeat CPU 0 instructions: 8500044 cycles: 3086280 heartbeat IPC: 2.614 cumulative IPC: 2.754 (Simulation time: 00 hr 00 min 38 sec)
Heartbeat CPU 0 instructions: 9000050 cycles: 3273085 heartbeat IPC: 2.677 cumulative IPC: 2.75 (Simulation time: 00 hr 00 min 40 sec)
Heartbeat CPU 0 instructions: 9500056 cycles: 3460686 heartbeat IPC: 2.665 cumulative IPC: 2.745 (Simulation time: 00 hr 00 min 42 sec)
Heartbeat CPU 0 instructions: 10000063 cycles: 3650076 heartbeat IPC: 2.64 cumulative IPC: 2.74 (Simulation time: 00 hr 00 min 44 sec)
Heartbeat CPU 0 instructions: 10500066 cycles: 3842579 heartbeat IPC: 2.597 cumulative IPC: 2.733 (Simulation time: 00 hr 00 min 47 sec)
Heartbeat CPU 0 instructions: 11000066 cycles: 4014116 heartbeat IPC: 2.915 cumulative IPC: 2.74 (Simulation time: 00 hr 00 min 49 sec)
Heartbeat CPU 0 instructions: 11500067 cycles: 4192420 heartbeat IPC: 2.804 cumulative IPC: 2.743 (Simulation time: 00 hr 00 min 51 sec)
Heartbeat CPU 0 instructions: 12000069 cycles: 4359647 heartbeat IPC: 2.99 cumulative IPC: 2.753 (Simulation time: 00 hr 00 min 53 sec)
Heartbeat CPU 0 instructions: 12500070 cycles: 4540931 heartbeat IPC: 2.758 cumulative IPC: 2.753 (Simulation time: 00 hr 00 min 55 sec)
Heartbeat CPU 0 instructions: 13000071 cycles: 4711450 heartbeat IPC: 2.932 cumulative IPC: 2.759 (Simulation time: 00 hr 00 min 57 sec)
Heartbeat CPU 0 instructions: 13500077 cycles: 4826759 heartbeat IPC: 4.336 cumulative IPC: 2.797 (Simulation time: 00 hr 00 min 59 sec)
Heartbeat CPU 0 instructions: 14000078 cycles: 4939222 heartbeat IPC: 4.446 cumulative IPC: 2.834 (Simulation time: 00 hr 01 min 01 sec)
Heartbeat CPU 0 instructions: 14500081 cycles: 5039222 heartbeat IPC: 5 cumulative IPC: 2.877 (Simulation time: 00 hr 01 min 02 sec)
Heartbeat CPU 0 instructions: 15000088 cycles: 5139218 heartbeat IPC: 5 cumulative IPC: 2.919 (Simulation time: 00 hr 01 min 04 sec)
Heartbeat CPU 0 instructions: 15500095 cycles: 5253728 heartbeat IPC: 4.366 cumulative IPC: 2.95 (Simulation time: 00 hr 01 min 06 sec)
Heartbeat CPU 0 instructions: 16000096 cycles: 5374424 heartbeat IPC: 4.143 cumulative IPC: 2.977 (Simulation time: 00 hr 01 min 08 sec)
Heartbeat CPU 0 instructions: 16500097 cycles: 5491372 heartbeat IPC: 4.275 cumulative IPC: 3.005 (Simulation time: 00 hr 01 min 10 sec)
Heartbeat CPU 0 instructions: 17000104 cycles: 5607934 heartbeat IPC: 4.29 cumulative IPC: 3.031 (Simulation time: 00 hr 01 min 12 sec)
Heartbeat CPU 0 instructions: 17500104 cycles: 5724907 heartbeat IPC: 4.274 cumulative IPC: 3.057 (Simulation time: 00 hr 01 min 14 sec)
Heartbeat CPU 0 instructions: 18000106 cycles: 5848683 heartbeat IPC: 4.04 cumulative IPC: 3.078 (Simulation time: 00 hr 01 min 16 sec)
Heartbeat CPU 0 instructions: 18500106 cycles: 5966101 heartbeat IPC: 4.258 cumulative IPC: 3.101 (Simulation time: 00 hr 01 min 18 sec)
Heartbeat CPU 0 instructions: 19000110 cycles: 6083248 heartbeat IPC: 4.268 cumulative IPC: 3.123 (Simulation time: 00 hr 01 min 20 sec)
Heartbeat CPU 0 instructions: 19500112 cycles: 6200152 heartbeat IPC: 4.277 cumulative IPC: 3.145 (Simulation time: 00 hr 01 min 23 sec)
Heartbeat CPU 0 instructions: 20000118 cycles: 6317279 heartbeat IPC: 4.269 cumulative IPC: 3.166 (Simulation time: 00 hr 01 min 25 sec)
Heartbeat CPU 0 instructions: 20500122 cycles: 6434605 heartbeat IPC: 4.262 cumulative IPC: 3.186 (Simulation time: 00 hr 01 min 27 sec)
Heartbeat CPU 0 instructions: 21000128 cycles: 6551755 heartbeat IPC: 4.268 cumulative IPC: 3.205 (Simulation time: 00 hr 01 min 29 sec)
Heartbeat CPU 0 instructions: 21500130 cycles: 6668737 heartbeat IPC: 4.274 cumulative IPC: 3.224 (Simulation time: 00 hr 01 min 31 sec)
Heartbeat CPU 0 instructions: 22000137 cycles: 6785872 heartbeat IPC: 4.269 cumulative IPC: 3.242 (Simulation time: 00 hr 01 min 33 sec)
Heartbeat CPU 0 instructions: 22500137 cycles: 6903026 heartbeat IPC: 4.268 cumulative IPC: 3.259 (Simulation time: 00 hr 01 min 35 sec)
Heartbeat CPU 0 instructions: 23000140 cycles: 7020169 heartbeat IPC: 4.268 cumulative IPC: 3.276 (Simulation time: 00 hr 01 min 37 sec)
Heartbeat CPU 0 instructions: 23500141 cycles: 7137066 heartbeat IPC: 4.277 cumulative IPC: 3.293 (Simulation time: 00 hr 01 min 39 sec)
Heartbeat CPU 0 instructions: 24000142 cycles: 7254254 heartbeat IPC: 4.267 cumulative IPC: 3.308 (Simulation time: 00 hr 01 min 42 sec)
Heartbeat CPU 0 instructions: 24500144 cycles: 7371058 heartbeat IPC: 4.281 cumulative IPC: 3.324 (Simulation time: 00 hr 01 min 44 sec)
Heartbeat CPU 0 instructions: 25000150 cycles: 7488175 heartbeat IPC: 4.269 cumulative IPC: 3.339 (Simulation time: 00 hr 01 min 46 sec)
Heartbeat CPU 0 instructions: 25500150 cycles: 7605276 heartbeat IPC: 4.27 cumulative IPC: 3.353 (Simulation time: 00 hr 01 min 48 sec)
Heartbeat CPU 0 instructions: 26000154 cycles: 7722120 heartbeat IPC: 4.279 cumulative IPC: 3.367 (Simulation time: 00 hr 01 min 50 sec)
Heartbeat CPU 0 instructions: 26500158 cycles: 7839256 heartbeat IPC: 4.269 cumulative IPC: 3.38 (Simulation time: 00 hr 01 min 52 sec)
Heartbeat CPU 0 instructions: 27000164 cycles: 7956722 heartbeat IPC: 4.257 cumulative IPC: 3.393 (Simulation time: 00 hr 01 min 54 sec)
Heartbeat CPU 0 instructions: 27500170 cycles: 8074396 heartbeat IPC: 4.249 cumulative IPC: 3.406 (Simulation time: 00 hr 01 min 56 sec)
Heartbeat CPU 0 instructions: 28000172 cycles: 8192025 heartbeat IPC: 4.251 cumulative IPC: 3.418 (Simulation time: 00 hr 01 min 58 sec)
Heartbeat CPU 0 instructions: 28500176 cycles: 8314110 heartbeat IPC: 4.096 cumulative IPC: 3.428 (Simulation time: 00 hr 02 min 00 sec)
Heartbeat CPU 0 instructions: 29000182 cycles: 8431805 heartbeat IPC: 4.248 cumulative IPC: 3.439 (Simulation time: 00 hr 02 min 03 sec)
Heartbeat CPU 0 instructions: 29500189 cycles: 8565075 heartbeat IPC: 3.752 cumulative IPC: 3.444 (Simulation time: 00 hr 02 min 05 sec)
Heartbeat CPU 0 instructions: 30000195 cycles: 8682747 heartbeat IPC: 4.249 cumulative IPC: 3.455 (Simulation time: 00 hr 02 min 07 sec)
Heartbeat CPU 0 instructions: 30500196 cycles: 8800541 heartbeat IPC: 4.245 cumulative IPC: 3.466 (Simulation time: 00 hr 02 min 09 sec)
Heartbeat CPU 0 instructions: 31000198 cycles: 8973195 heartbeat IPC: 2.896 cumulative IPC: 3.455 (Simulation time: 00 hr 02 min 11 sec)
Heartbeat CPU 0 instructions: 31500202 cycles: 9166752 heartbeat IPC: 2.583 cumulative IPC: 3.436 (Simulation time: 00 hr 02 min 14 sec)
Heartbeat CPU 0 instructions: 32000203 cycles: 9359354 heartbeat IPC: 2.596 cumulative IPC: 3.419 (Simulation time: 00 hr 02 min 16 sec)
Heartbeat CPU 0 instructions: 32500207 cycles: 9552072 heartbeat IPC: 2.594 cumulative IPC: 3.402 (Simulation time: 00 hr 02 min 18 sec)
Heartbeat CPU 0 instructions: 33000210 cycles: 9747111 heartbeat IPC: 2.564 cumulative IPC: 3.386 (Simulation time: 00 hr 02 min 21 sec)
Heartbeat CPU 0 instructions: 33500213 cycles: 9944449 heartbeat IPC: 2.534 cumulative IPC: 3.369 (Simulation time: 00 hr 02 min 23 sec)
Heartbeat CPU 0 instructions: 34000219 cycles: 10138224 heartbeat IPC: 2.58 cumulative IPC: 3.354 (Simulation time: 00 hr 02 min 25 sec)
Heartbeat CPU 0 instructions: 34500223 cycles: 10330005 heartbeat IPC: 2.607 cumulative IPC: 3.34 (Simulation time: 00 hr 02 min 28 sec)
Heartbeat CPU 0 instructions: 35000227 cycles: 10521954 heartbeat IPC: 2.605 cumulative IPC: 3.326 (Simulation time: 00 hr 02 min 30 sec)
Heartbeat CPU 0 instructions: 35500234 cycles: 10716929 heartbeat IPC: 2.564 cumulative IPC: 3.313 (Simulation time: 00 hr 02 min 32 sec)
Heartbeat CPU 0 instructions: 36000238 cycles: 10912147 heartbeat IPC: 2.561 cumulative IPC: 3.299 (Simulation time: 00 hr 02 min 35 sec)
Heartbeat CPU 0 instructions: 36500244 cycles: 11104493 heartbeat IPC: 2.6 cumulative IPC: 3.287 (Simulation time: 00 hr 02 min 37 sec)
Heartbeat CPU 0 instructions: 37000248 cycles: 11295883 heartbeat IPC: 2.612 cumulative IPC: 3.276 (Simulation time: 00 hr 02 min 39 sec)
Heartbeat CPU 0 instructions: 37500252 cycles: 11487435 heartbeat IPC: 2.61 cumulative IPC: 3.264 (Simulation time: 00 hr 02 min 42 sec)
Heartbeat CPU 0 instructions: 38000258 cycles: 11682020 heartbeat IPC: 2.57 cumulative IPC: 3.253 (Simulation time: 00 hr 02 min 44 sec)
Heartbeat CPU 0 instructions: 38500263 cycles: 11878269 heartbeat IPC: 2.548 cumulative IPC: 3.241 (Simulation time: 00 hr 02 min 46 sec)
Heartbeat CPU 0 instructions: 39000269 cycles: 12070871 heartbeat IPC: 2.596 cumulative IPC: 3.231 (Simulation time: 00 hr 02 min 49 sec)
Heartbeat CPU 0 instructions: 39500273 cycles: 12261927 heartbeat IPC: 2.617 cumulative IPC: 3.221 (Simulation time: 00 hr 02 min 51 sec)
Heartbeat CPU 0 instructions: 40000277 cycles: 12453876 heartbeat IPC: 2.605 cumulative IPC: 3.212 (Simulation time: 00 hr 02 min 53 sec)
Heartbeat CPU 0 instructions: 40500282 cycles: 12647931 heartbeat IPC: 2.577 cumulative IPC: 3.202 (Simulation time: 00 hr 02 min 56 sec)
Heartbeat CPU 0 instructions: 41000286 cycles: 12839671 heartbeat IPC: 2.608 cumulative IPC: 3.193 (Simulation time: 00 hr 02 min 58 sec)
Heartbeat CPU 0 instructions: 41500290 cycles: 12979898 heartbeat IPC: 3.566 cumulative IPC: 3.197 (Simulation time: 00 hr 03 min 00 sec)
Heartbeat CPU 0 instructions: 42000292 cycles: 13079893 heartbeat IPC: 5 cumulative IPC: 3.211 (Simulation time: 00 hr 03 min 02 sec)
Heartbeat CPU 0 instructions: 42500293 cycles: 13179910 heartbeat IPC: 4.999 cumulative IPC: 3.225 (Simulation time: 00 hr 03 min 04 sec)
Heartbeat CPU 0 instructions: 43000297 cycles: 13280267 heartbeat IPC: 4.982 cumulative IPC: 3.238 (Simulation time: 00 hr 03 min 05 sec)
Heartbeat CPU 0 instructions: 43500301 cycles: 13406194 heartbeat IPC: 3.971 cumulative IPC: 3.245 (Simulation time: 00 hr 03 min 07 sec)
Heartbeat CPU 0 instructions: 44000301 cycles: 13531910 heartbeat IPC: 3.977 cumulative IPC: 3.252 (Simulation time: 00 hr 03 min 10 sec)
Heartbeat CPU 0 instructions: 44500301 cycles: 13657699 heartbeat IPC: 3.975 cumulative IPC: 3.258 (Simulation time: 00 hr 03 min 12 sec)
Heartbeat CPU 0 instructions: 45000302 cycles: 13783836 heartbeat IPC: 3.964 cumulative IPC: 3.265 (Simulation time: 00 hr 03 min 14 sec)
Heartbeat CPU 0 instructions: 45500304 cycles: 13909727 heartbeat IPC: 3.972 cumulative IPC: 3.271 (Simulation time: 00 hr 03 min 16 sec)
Heartbeat CPU 0 instructions: 46000305 cycles: 14035430 heartbeat IPC: 3.978 cumulative IPC: 3.277 (Simulation time: 00 hr 03 min 18 sec)
Heartbeat CPU 0 instructions: 46500311 cycles: 14166091 heartbeat IPC: 3.827 cumulative IPC: 3.283 (Simulation time: 00 hr 03 min 21 sec)
Heartbeat CPU 0 instructions: 47000314 cycles: 14302397 heartbeat IPC: 3.668 cumulative IPC: 3.286 (Simulation time: 00 hr 03 min 23 sec)
Heartbeat CPU 0 instructions: 47500319 cycles: 14429683 heartbeat IPC: 3.928 cumulative IPC: 3.292 (Simulation time: 00 hr 03 min 25 sec)
Heartbeat CPU 0 instructions: 48000322 cycles: 14555677 heartbeat IPC: 3.968 cumulative IPC: 3.298 (Simulation time: 00 hr 03 min 27 sec)
Heartbeat CPU 0 instructions: 48500327 cycles: 14691449 heartbeat IPC: 3.683 cumulative IPC: 3.301 (Simulation time: 00 hr 03 min 30 sec)
Heartbeat CPU 0 instructions: 49000329 cycles: 14822046 heartbeat IPC: 3.829 cumulative IPC: 3.306 (Simulation time: 00 hr 03 min 32 sec)
Heartbeat CPU 0 instructions: 49500330 cycles: 14947864 heartbeat IPC: 3.974 cumulative IPC: 3.312 (Simulation time: 00 hr 03 min 34 sec)
Warmup halting CPU 0 at instruction 50000006 cycle 15074321 for remainder of phase
Warmup finished CPU 0 instructions: 50000006 cycles: 15074321 cumulative IPC: 3.317 (Simulation time: 00 hr 03 min 36 sec)
Warmup complete CPU 0 instructions: 50000006 cycles: 15074321 cumulative IPC: 3.317 (Simulation time: 00 hr 03 min 36 sec)
Heartbeat CPU 0 instructions: 50000334 cycles: 15074572 heartbeat IPC: 3.946 cumulative IPC: 1.307 (Simulation time: 00 hr 03 min 36 sec)
Heartbeat CPU 0 instructions: 50500337 cycles: 15281110 heartbeat IPC: 2.421 cumulative IPC: 2.42 (Simulation time: 00 hr 03 min 39 sec)
Heartbeat CPU 0 instructions: 51000343 cycles: 15498281 heartbeat IPC: 2.302 cumulative IPC: 2.36 (Simulation time: 00 hr 03 min 43 sec)
Heartbeat CPU 0 instructions: 51500349 cycles: 15707219 heartbeat IPC: 2.393 cumulative IPC: 2.371 (Simulation time: 00 hr 03 min 46 sec)
Heartbeat CPU 0 instructions: 52000356 cycles: 15910521 heartbeat IPC: 2.459 cumulative IPC: 2.392 (Simulation time: 00 hr 03 min 49 sec)
Heartbeat CPU 0 instructions: 52500360 cycles: 16117103 heartbeat IPC: 2.42 cumulative IPC: 2.398 (Simulation time: 00 hr 03 min 52 sec)
Heartbeat CPU 0 instructions: 53000360 cycles: 16329827 heartbeat IPC: 2.35 cumulative IPC: 2.39 (Simulation time: 00 hr 03 min 55 sec)
Heartbeat CPU 0 instructions: 53500363 cycles: 16550464 heartbeat IPC: 2.266 cumulative IPC: 2.371 (Simulation time: 00 hr 03 min 58 sec)
Heartbeat CPU 0 instructions: 54000364 cycles: 17181332 heartbeat IPC: 0.7926 cumulative IPC: 1.899 (Simulation time: 00 hr 04 min 06 sec)
Heartbeat CPU 0 instructions: 54500364 cycles: 18030254 heartbeat IPC: 0.589 cumulative IPC: 1.522 (Simulation time: 00 hr 04 min 16 sec)
Heartbeat CPU 0 instructions: 55000370 cycles: 18965530 heartbeat IPC: 0.5346 cumulative IPC: 1.285 (Simulation time: 00 hr 04 min 27 sec)
Heartbeat CPU 0 instructions: 55500377 cycles: 19715823 heartbeat IPC: 0.6664 cumulative IPC: 1.185 (Simulation time: 00 hr 04 min 36 sec)
Heartbeat CPU 0 instructions: 56000383 cycles: 19950221 heartbeat IPC: 2.133 cumulative IPC: 1.231 (Simulation time: 00 hr 04 min 39 sec)
Heartbeat CPU 0 instructions: 56500388 cycles: 20175480 heartbeat IPC: 2.22 cumulative IPC: 1.274 (Simulation time: 00 hr 04 min 42 sec)
Heartbeat CPU 0 instructions: 57000392 cycles: 20396997 heartbeat IPC: 2.257 cumulative IPC: 1.315 (Simulation time: 00 hr 04 min 46 sec)
Heartbeat CPU 0 instructions: 57500394 cycles: 20629175 heartbeat IPC: 2.154 cumulative IPC: 1.35 (Simulation time: 00 hr 04 min 49 sec)
Heartbeat CPU 0 instructions: 58000397 cycles: 20865490 heartbeat IPC: 2.116 cumulative IPC: 1.381 (Simulation time: 00 hr 04 min 52 sec)
Heartbeat CPU 0 instructions: 58500404 cycles: 21102854 heartbeat IPC: 2.106 cumulative IPC: 1.41 (Simulation time: 00 hr 04 min 56 sec)
Heartbeat CPU 0 instructions: 59000404 cycles: 21338904 heartbeat IPC: 2.118 cumulative IPC: 1.437 (Simulation time: 00 hr 04 min 59 sec)
Heartbeat CPU 0 instructions: 59500405 cycles: 21569365 heartbeat IPC: 2.17 cumulative IPC: 1.463 (Simulation time: 00 hr 05 min 03 sec)
Heartbeat CPU 0 instructions: 60000411 cycles: 21809982 heartbeat IPC: 2.078 cumulative IPC: 1.485 (Simulation time: 00 hr 05 min 06 sec)
Heartbeat CPU 0 instructions: 60500412 cycles: 22048861 heartbeat IPC: 2.093 cumulative IPC: 1.506 (Simulation time: 00 hr 05 min 10 sec)
Heartbeat CPU 0 instructions: 61000416 cycles: 22281339 heartbeat IPC: 2.151 cumulative IPC: 1.526 (Simulation time: 00 hr 05 min 13 sec)
Heartbeat CPU 0 instructions: 61500420 cycles: 22514905 heartbeat IPC: 2.141 cumulative IPC: 1.546 (Simulation time: 00 hr 05 min 16 sec)
Heartbeat CPU 0 instructions: 62000425 cycles: 22749302 heartbeat IPC: 2.133 cumulative IPC: 1.564 (Simulation time: 00 hr 05 min 20 sec)
Heartbeat CPU 0 instructions: 62500431 cycles: 22989744 heartbeat IPC: 2.08 cumulative IPC: 1.579 (Simulation time: 00 hr 05 min 23 sec)
Heartbeat CPU 0 instructions: 63000437 cycles: 23231944 heartbeat IPC: 2.064 cumulative IPC: 1.594 (Simulation time: 00 hr 05 min 27 sec)
Heartbeat CPU 0 instructions: 63500439 cycles: 23465656 heartbeat IPC: 2.139 cumulative IPC: 1.609 (Simulation time: 00 hr 05 min 30 sec)
Heartbeat CPU 0 instructions: 64000439 cycles: 23695627 heartbeat IPC: 2.174 cumulative IPC: 1.624 (Simulation time: 00 hr 05 min 34 sec)
Heartbeat CPU 0 instructions: 64500444 cycles: 24180355 heartbeat IPC: 1.032 cumulative IPC: 1.592 (Simulation time: 00 hr 05 min 40 sec)
Heartbeat CPU 0 instructions: 65000447 cycles: 24980362 heartbeat IPC: 0.625 cumulative IPC: 1.514 (Simulation time: 00 hr 05 min 49 sec)
Heartbeat CPU 0 instructions: 65500452 cycles: 25949487 heartbeat IPC: 0.5159 cumulative IPC: 1.425 (Simulation time: 00 hr 06 min 01 sec)
Heartbeat CPU 0 instructions: 66000453 cycles: 26480907 heartbeat IPC: 0.9409 cumulative IPC: 1.403 (Simulation time: 00 hr 06 min 07 sec)
Heartbeat CPU 0 instructions: 66500457 cycles: 26693662 heartbeat IPC: 2.35 cumulative IPC: 1.42 (Simulation time: 00 hr 06 min 10 sec)
Heartbeat CPU 0 instructions: 67000464 cycles: 26895473 heartbeat IPC: 2.478 cumulative IPC: 1.438 (Simulation time: 00 hr 06 min 14 sec)
Heartbeat CPU 0 instructions: 67500464 cycles: 27103623 heartbeat IPC: 2.402 cumulative IPC: 1.455 (Simulation time: 00 hr 06 min 17 sec)
Heartbeat CPU 0 instructions: 68000465 cycles: 27317961 heartbeat IPC: 2.333 cumulative IPC: 1.47 (Simulation time: 00 hr 06 min 20 sec)
Heartbeat CPU 0 instructions: 68500471 cycles: 27521908 heartbeat IPC: 2.452 cumulative IPC: 1.486 (Simulation time: 00 hr 06 min 23 sec)
Heartbeat CPU 0 instructions: 69000476 cycles: 27721321 heartbeat IPC: 2.507 cumulative IPC: 1.502 (Simulation time: 00 hr 06 min 26 sec)
Heartbeat CPU 0 instructions: 69500480 cycles: 27926989 heartbeat IPC: 2.431 cumulative IPC: 1.517 (Simulation time: 00 hr 06 min 29 sec)
Heartbeat CPU 0 instructions: 70000487 cycles: 28130700 heartbeat IPC: 2.454 cumulative IPC: 1.532 (Simulation time: 00 hr 06 min 32 sec)
Heartbeat CPU 0 instructions: 70500493 cycles: 28343696 heartbeat IPC: 2.347 cumulative IPC: 1.545 (Simulation time: 00 hr 06 min 36 sec)
Heartbeat CPU 0 instructions: 71000493 cycles: 28539516 heartbeat IPC: 2.553 cumulative IPC: 1.56 (Simulation time: 00 hr 06 min 39 sec)
Heartbeat CPU 0 instructions: 71500500 cycles: 28729568 heartbeat IPC: 2.631 cumulative IPC: 1.575 (Simulation time: 00 hr 06 min 42 sec)
Heartbeat CPU 0 instructions: 72000501 cycles: 28913326 heartbeat IPC: 2.721 cumulative IPC: 1.59 (Simulation time: 00 hr 06 min 44 sec)
Heartbeat CPU 0 instructions: 72500507 cycles: 29105629 heartbeat IPC: 2.6 cumulative IPC: 1.604 (Simulation time: 00 hr 06 min 47 sec)
Heartbeat CPU 0 instructions: 73000511 cycles: 29299981 heartbeat IPC: 2.573 cumulative IPC: 1.617 (Simulation time: 00 hr 06 min 50 sec)
Heartbeat CPU 0 instructions: 73500512 cycles: 29496999 heartbeat IPC: 2.538 cumulative IPC: 1.629 (Simulation time: 00 hr 06 min 53 sec)
Heartbeat CPU 0 instructions: 74000516 cycles: 29703531 heartbeat IPC: 2.421 cumulative IPC: 1.641 (Simulation time: 00 hr 06 min 57 sec)
Heartbeat CPU 0 instructions: 74500516 cycles: 29903440 heartbeat IPC: 2.501 cumulative IPC: 1.652 (Simulation time: 00 hr 07 min 00 sec)
Heartbeat CPU 0 instructions: 75000518 cycles: 30468500 heartbeat IPC: 0.8849 cumulative IPC: 1.624 (Simulation time: 00 hr 07 min 07 sec)
Heartbeat CPU 0 instructions: 75500521 cycles: 31280312 heartbeat IPC: 0.6159 cumulative IPC: 1.574 (Simulation time: 00 hr 07 min 16 sec)
Heartbeat CPU 0 instructions: 76000521 cycles: 32148729 heartbeat IPC: 0.5758 cumulative IPC: 1.523 (Simulation time: 00 hr 07 min 26 sec)
Heartbeat CPU 0 instructions: 76500527 cycles: 32451947 heartbeat IPC: 1.649 cumulative IPC: 1.525 (Simulation time: 00 hr 07 min 30 sec)
Heartbeat CPU 0 instructions: 77000532 cycles: 32676215 heartbeat IPC: 2.229 cumulative IPC: 1.534 (Simulation time: 00 hr 07 min 33 sec)
Heartbeat CPU 0 instructions: 77500539 cycles: 32893620 heartbeat IPC: 2.3 cumulative IPC: 1.543 (Simulation time: 00 hr 07 min 36 sec)
Heartbeat CPU 0 instructions: 78000544 cycles: 33120556 heartbeat IPC: 2.203 cumulative IPC: 1.552 (Simulation time: 00 hr 07 min 40 sec)
Heartbeat CPU 0 instructions: 78500545 cycles: 33356174 heartbeat IPC: 2.122 cumulative IPC: 1.559 (Simulation time: 00 hr 07 min 43 sec)
Heartbeat CPU 0 instructions: 79000551 cycles: 33590540 heartbeat IPC: 2.133 cumulative IPC: 1.566 (Simulation time: 00 hr 07 min 46 sec)
Heartbeat CPU 0 instructions: 79500556 cycles: 33827552 heartbeat IPC: 2.11 cumulative IPC: 1.573 (Simulation time: 00 hr 07 min 50 sec)
Heartbeat CPU 0 instructions: 80000561 cycles: 34057837 heartbeat IPC: 2.171 cumulative IPC: 1.58 (Simulation time: 00 hr 07 min 53 sec)
Heartbeat CPU 0 instructions: 80500568 cycles: 34289546 heartbeat IPC: 2.158 cumulative IPC: 1.587 (Simulation time: 00 hr 07 min 57 sec)
Heartbeat CPU 0 instructions: 81000569 cycles: 34527657 heartbeat IPC: 2.1 cumulative IPC: 1.594 (Simulation time: 00 hr 08 min 00 sec)
Heartbeat CPU 0 instructions: 81500569 cycles: 34769622 heartbeat IPC: 2.066 cumulative IPC: 1.599 (Simulation time: 00 hr 08 min 03 sec)
Heartbeat CPU 0 instructions: 82000569 cycles: 35009710 heartbeat IPC: 2.083 cumulative IPC: 1.605 (Simulation time: 00 hr 08 min 07 sec)
Heartbeat CPU 0 instructions: 82500575 cycles: 35240328 heartbeat IPC: 2.168 cumulative IPC: 1.612 (Simulation time: 00 hr 08 min 10 sec)
Heartbeat CPU 0 instructions: 83000582 cycles: 35470648 heartbeat IPC: 2.171 cumulative IPC: 1.618 (Simulation time: 00 hr 08 min 14 sec)
Heartbeat CPU 0 instructions: 83500583 cycles: 35707194 heartbeat IPC: 2.114 cumulative IPC: 1.624 (Simulation time: 00 hr 08 min 17 sec)
Heartbeat CPU 0 instructions: 84000584 cycles: 35947795 heartbeat IPC: 2.078 cumulative IPC: 1.629 (Simulation time: 00 hr 08 min 20 sec)
Heartbeat CPU 0 instructions: 84500585 cycles: 36547182 heartbeat IPC: 0.8342 cumulative IPC: 1.607 (Simulation time: 00 hr 08 min 28 sec)
Heartbeat CPU 0 instructions: 85000585 cycles: 37425347 heartbeat IPC: 0.5694 cumulative IPC: 1.566 (Simulation time: 00 hr 08 min 38 sec)
Heartbeat CPU 0 instructions: 85500587 cycles: 38301522 heartbeat IPC: 0.5707 cumulative IPC: 1.528 (Simulation time: 00 hr 08 min 49 sec)
Heartbeat CPU 0 instructions: 86000594 cycles: 38492055 heartbeat IPC: 2.624 cumulative IPC: 1.537 (Simulation time: 00 hr 08 min 52 sec)
Heartbeat CPU 0 instructions: 86500595 cycles: 38684867 heartbeat IPC: 2.593 cumulative IPC: 1.546 (Simulation time: 00 hr 08 min 55 sec)
Heartbeat CPU 0 instructions: 87000598 cycles: 38902270 heartbeat IPC: 2.3 cumulative IPC: 1.553 (Simulation time: 00 hr 08 min 58 sec)
Heartbeat CPU 0 instructions: 87500598 cycles: 39111947 heartbeat IPC: 2.385 cumulative IPC: 1.56 (Simulation time: 00 hr 09 min 01 sec)
Heartbeat CPU 0 instructions: 88000601 cycles: 39309174 heartbeat IPC: 2.535 cumulative IPC: 1.568 (Simulation time: 00 hr 09 min 05 sec)
Heartbeat CPU 0 instructions: 88500608 cycles: 39512078 heartbeat IPC: 2.464 cumulative IPC: 1.575 (Simulation time: 00 hr 09 min 08 sec)
Heartbeat CPU 0 instructions: 89000615 cycles: 39711421 heartbeat IPC: 2.508 cumulative IPC: 1.583 (Simulation time: 00 hr 09 min 11 sec)
Heartbeat CPU 0 instructions: 89500620 cycles: 39917333 heartbeat IPC: 2.428 cumulative IPC: 1.59 (Simulation time: 00 hr 09 min 14 sec)
Heartbeat CPU 0 instructions: 90000623 cycles: 40105849 heartbeat IPC: 2.652 cumulative IPC: 1.598 (Simulation time: 00 hr 09 min 17 sec)
Heartbeat CPU 0 instructions: 90500626 cycles: 40304788 heartbeat IPC: 2.513 cumulative IPC: 1.605 (Simulation time: 00 hr 09 min 20 sec)
Heartbeat CPU 0 instructions: 91000627 cycles: 40492687 heartbeat IPC: 2.661 cumulative IPC: 1.613 (Simulation time: 00 hr 09 min 23 sec)
Heartbeat CPU 0 instructions: 91500627 cycles: 40681836 heartbeat IPC: 2.643 cumulative IPC: 1.621 (Simulation time: 00 hr 09 min 26 sec)
Heartbeat CPU 0 instructions: 92000634 cycles: 40860689 heartbeat IPC: 2.796 cumulative IPC: 1.629 (Simulation time: 00 hr 09 min 29 sec)
Heartbeat CPU 0 instructions: 92500637 cycles: 41048119 heartbeat IPC: 2.668 cumulative IPC: 1.636 (Simulation time: 00 hr 09 min 32 sec)
Heartbeat CPU 0 instructions: 93000640 cycles: 41243511 heartbeat IPC: 2.559 cumulative IPC: 1.643 (Simulation time: 00 hr 09 min 35 sec)
Heartbeat CPU 0 instructions: 93500645 cycles: 41424660 heartbeat IPC: 2.76 cumulative IPC: 1.651 (Simulation time: 00 hr 09 min 38 sec)
Heartbeat CPU 0 instructions: 94000646 cycles: 42059914 heartbeat IPC: 0.7871 cumulative IPC: 1.631 (Simulation time: 00 hr 09 min 46 sec)
Heartbeat CPU 0 instructions: 94500650 cycles: 42820522 heartbeat IPC: 0.6574 cumulative IPC: 1.604 (Simulation time: 00 hr 09 min 55 sec)
Heartbeat CPU 0 instructions: 95000650 cycles: 43449996 heartbeat IPC: 0.7943 cumulative IPC: 1.586 (Simulation time: 00 hr 10 min 02 sec)
Heartbeat CPU 0 instructions: 95500657 cycles: 43681264 heartbeat IPC: 2.162 cumulative IPC: 1.591 (Simulation time: 00 hr 10 min 06 sec)
Heartbeat CPU 0 instructions: 96000659 cycles: 43919816 heartbeat IPC: 2.096 cumulative IPC: 1.595 (Simulation time: 00 hr 10 min 09 sec)
Heartbeat CPU 0 instructions: 96500662 cycles: 44137551 heartbeat IPC: 2.296 cumulative IPC: 1.6 (Simulation time: 00 hr 10 min 12 sec)
Heartbeat CPU 0 instructions: 97000665 cycles: 44360221 heartbeat IPC: 2.245 cumulative IPC: 1.605 (Simulation time: 00 hr 10 min 15 sec)
Heartbeat CPU 0 instructions: 97500672 cycles: 44595308 heartbeat IPC: 2.127 cumulative IPC: 1.609 (Simulation time: 00 hr 10 min 19 sec)
Heartbeat CPU 0 instructions: 98000674 cycles: 44826313 heartbeat IPC: 2.164 cumulative IPC: 1.613 (Simulation time: 00 hr 10 min 22 sec)
Heartbeat CPU 0 instructions: 98500681 cycles: 45054235 heartbeat IPC: 2.194 cumulative IPC: 1.618 (Simulation time: 00 hr 10 min 26 sec)
Heartbeat CPU 0 instructions: 99000684 cycles: 45289738 heartbeat IPC: 2.123 cumulative IPC: 1.622 (Simulation time: 00 hr 10 min 29 sec)
Heartbeat CPU 0 instructions: 99500687 cycles: 45528511 heartbeat IPC: 2.094 cumulative IPC: 1.625 (Simulation time: 00 hr 10 min 33 sec)
Heartbeat CPU 0 instructions: 100000692 cycles: 45769360 heartbeat IPC: 2.076 cumulative IPC: 1.629 (Simulation time: 00 hr 10 min 36 sec)
Heartbeat CPU 0 instructions: 100500692 cycles: 45995598 heartbeat IPC: 2.21 cumulative IPC: 1.633 (Simulation time: 00 hr 10 min 40 sec)
Heartbeat CPU 0 instructions: 101000694 cycles: 46349311 heartbeat IPC: 1.414 cumulative IPC: 1.631 (Simulation time: 00 hr 10 min 45 sec)
Heartbeat CPU 0 instructions: 101500694 cycles: 47078775 heartbeat IPC: 0.6854 cumulative IPC: 1.609 (Simulation time: 00 hr 10 min 54 sec)
Heartbeat CPU 0 instructions: 102000698 cycles: 47741335 heartbeat IPC: 0.7547 cumulative IPC: 1.592 (Simulation time: 00 hr 11 min 02 sec)
Heartbeat CPU 0 instructions: 102500699 cycles: 47920272 heartbeat IPC: 2.794 cumulative IPC: 1.598 (Simulation time: 00 hr 11 min 05 sec)
Heartbeat CPU 0 instructions: 103000704 cycles: 48102286 heartbeat IPC: 2.747 cumulative IPC: 1.605 (Simulation time: 00 hr 11 min 08 sec)
Heartbeat CPU 0 instructions: 103500710 cycles: 48267364 heartbeat IPC: 3.029 cumulative IPC: 1.612 (Simulation time: 00 hr 11 min 11 sec)
Heartbeat CPU 0 instructions: 104000713 cycles: 48429396 heartbeat IPC: 3.086 cumulative IPC: 1.619 (Simulation time: 00 hr 11 min 13 sec)
Heartbeat CPU 0 instructions: 104500720 cycles: 48617287 heartbeat IPC: 2.661 cumulative IPC: 1.625 (Simulation time: 00 hr 11 min 16 sec)
Heartbeat CPU 0 instructions: 105000727 cycles: 48793853 heartbeat IPC: 2.832 cumulative IPC: 1.631 (Simulation time: 00 hr 11 min 19 sec)
Heartbeat CPU 0 instructions: 105500729 cycles: 48964836 heartbeat IPC: 2.924 cumulative IPC: 1.638 (Simulation time: 00 hr 11 min 22 sec)
Heartbeat CPU 0 instructions: 106000732 cycles: 49139159 heartbeat IPC: 2.868 cumulative IPC: 1.644 (Simulation time: 00 hr 11 min 25 sec)
Heartbeat CPU 0 instructions: 106500734 cycles: 49311299 heartbeat IPC: 2.905 cumulative IPC: 1.65 (Simulation time: 00 hr 11 min 28 sec)
Heartbeat CPU 0 instructions: 107000734 cycles: 49473243 heartbeat IPC: 3.087 cumulative IPC: 1.657 (Simulation time: 00 hr 11 min 30 sec)
Heartbeat CPU 0 instructions: 107500740 cycles: 49638294 heartbeat IPC: 3.029 cumulative IPC: 1.664 (Simulation time: 00 hr 11 min 33 sec)
Heartbeat CPU 0 instructions: 108000746 cycles: 49890079 heartbeat IPC: 1.986 cumulative IPC: 1.666 (Simulation time: 00 hr 11 min 37 sec)
Heartbeat CPU 0 instructions: 108500747 cycles: 50368637 heartbeat IPC: 1.045 cumulative IPC: 1.658 (Simulation time: 00 hr 11 min 43 sec)
Heartbeat CPU 0 instructions: 109000751 cycles: 50880325 heartbeat IPC: 0.9772 cumulative IPC: 1.648 (Simulation time: 00 hr 11 min 49 sec)
Heartbeat CPU 0 instructions: 109500758 cycles: 51101763 heartbeat IPC: 2.258 cumulative IPC: 1.652 (Simulation time: 00 hr 11 min 52 sec)
Heartbeat CPU 0 instructions: 110000765 cycles: 51327311 heartbeat IPC: 2.217 cumulative IPC: 1.655 (Simulation time: 00 hr 11 min 56 sec)
Heartbeat CPU 0 instructions: 110500767 cycles: 51548929 heartbeat IPC: 2.256 cumulative IPC: 1.659 (Simulation time: 00 hr 11 min 59 sec)
Heartbeat CPU 0 instructions: 111000770 cycles: 51764239 heartbeat IPC: 2.322 cumulative IPC: 1.663 (Simulation time: 00 hr 12 min 02 sec)
Heartbeat CPU 0 instructions: 111500773 cycles: 51988401 heartbeat IPC: 2.231 cumulative IPC: 1.666 (Simulation time: 00 hr 12 min 05 sec)
Heartbeat CPU 0 instructions: 112000773 cycles: 52215342 heartbeat IPC: 2.203 cumulative IPC: 1.669 (Simulation time: 00 hr 12 min 09 sec)
Heartbeat CPU 0 instructions: 112500779 cycles: 52442675 heartbeat IPC: 2.199 cumulative IPC: 1.673 (Simulation time: 00 hr 12 min 12 sec)
Heartbeat CPU 0 instructions: 113000781 cycles: 52686924 heartbeat IPC: 2.047 cumulative IPC: 1.675 (Simulation time: 00 hr 12 min 16 sec)
Heartbeat CPU 0 instructions: 113500787 cycles: 53280812 heartbeat IPC: 0.8419 cumulative IPC: 1.662 (Simulation time: 00 hr 12 min 23 sec)
Heartbeat CPU 0 instructions: 114000788 cycles: 53569529 heartbeat IPC: 1.732 cumulative IPC: 1.663 (Simulation time: 00 hr 12 min 27 sec)
Heartbeat CPU 0 instructions: 114500791 cycles: 53697270 heartbeat IPC: 3.914 cumulative IPC: 1.67 (Simulation time: 00 hr 12 min 30 sec)
Heartbeat CPU 0 instructions: 115000796 cycles: 53830196 heartbeat IPC: 3.762 cumulative IPC: 1.677 (Simulation time: 00 hr 12 min 32 sec)
Heartbeat CPU 0 instructions: 115500797 cycles: 53960946 heartbeat IPC: 3.824 cumulative IPC: 1.684 (Simulation time: 00 hr 12 min 34 sec)
Heartbeat CPU 0 instructions: 116000799 cycles: 54091449 heartbeat IPC: 3.831 cumulative IPC: 1.692 (Simulation time: 00 hr 12 min 36 sec)
Heartbeat CPU 0 instructions: 116500802 cycles: 54227257 heartbeat IPC: 3.682 cumulative IPC: 1.698 (Simulation time: 00 hr 12 min 39 sec)
Heartbeat CPU 0 instructions: 117000805 cycles: 54360940 heartbeat IPC: 3.74 cumulative IPC: 1.705 (Simulation time: 00 hr 12 min 41 sec)
Heartbeat CPU 0 instructions: 117500807 cycles: 54498213 heartbeat IPC: 3.642 cumulative IPC: 1.712 (Simulation time: 00 hr 12 min 43 sec)
Heartbeat CPU 0 instructions: 118000812 cycles: 54681635 heartbeat IPC: 2.726 cumulative IPC: 1.717 (Simulation time: 00 hr 12 min 46 sec)
Heartbeat CPU 0 instructions: 118500818 cycles: 54964917 heartbeat IPC: 1.765 cumulative IPC: 1.717 (Simulation time: 00 hr 12 min 50 sec)
Heartbeat CPU 0 instructions: 119000820 cycles: 55188319 heartbeat IPC: 2.238 cumulative IPC: 1.72 (Simulation time: 00 hr 12 min 53 sec)
Heartbeat CPU 0 instructions: 119500822 cycles: 55401696 heartbeat IPC: 2.343 cumulative IPC: 1.723 (Simulation time: 00 hr 12 min 56 sec)
Heartbeat CPU 0 instructions: 120000823 cycles: 55615920 heartbeat IPC: 2.334 cumulative IPC: 1.727 (Simulation time: 00 hr 12 min 59 sec)
Heartbeat CPU 0 instructions: 120500826 cycles: 55831073 heartbeat IPC: 2.324 cumulative IPC: 1.73 (Simulation time: 00 hr 13 min 03 sec)
Heartbeat CPU 0 instructions: 121000826 cycles: 56053906 heartbeat IPC: 2.244 cumulative IPC: 1.733 (Simulation time: 00 hr 13 min 06 sec)
Heartbeat CPU 0 instructions: 121500829 cycles: 56273318 heartbeat IPC: 2.279 cumulative IPC: 1.735 (Simulation time: 00 hr 13 min 09 sec)
Heartbeat CPU 0 instructions: 122000834 cycles: 56498325 heartbeat IPC: 2.222 cumulative IPC: 1.738 (Simulation time: 00 hr 13 min 12 sec)
Heartbeat CPU 0 instructions: 122500836 cycles: 56735203 heartbeat IPC: 2.111 cumulative IPC: 1.74 (Simulation time: 00 hr 13 min 16 sec)
Heartbeat CPU 0 instructions: 123000839 cycles: 56968780 heartbeat IPC: 2.141 cumulative IPC: 1.742 (Simulation time: 00 hr 13 min 19 sec)
Heartbeat CPU 0 instructions: 123500843 cycles: 57212682 heartbeat IPC: 2.05 cumulative IPC: 1.744 (Simulation time: 00 hr 13 min 23 sec)
Heartbeat CPU 0 instructions: 124000845 cycles: 57450486 heartbeat IPC: 2.103 cumulative IPC: 1.746 (Simulation time: 00 hr 13 min 26 sec)
Heartbeat CPU 0 instructions: 124500846 cycles: 58011540 heartbeat IPC: 0.8912 cumulative IPC: 1.735 (Simulation time: 00 hr 13 min 34 sec)
Heartbeat CPU 0 instructions: 125000846 cycles: 58853862 heartbeat IPC: 0.5936 cumulative IPC: 1.713 (Simulation time: 00 hr 13 min 44 sec)
Heartbeat CPU 0 instructions: 125500847 cycles: 59077763 heartbeat IPC: 2.233 cumulative IPC: 1.716 (Simulation time: 00 hr 13 min 47 sec)
Heartbeat CPU 0 instructions: 126000852 cycles: 59242355 heartbeat IPC: 3.038 cumulative IPC: 1.721 (Simulation time: 00 hr 13 min 50 sec)
Heartbeat CPU 0 instructions: 126500857 cycles: 59415983 heartbeat IPC: 2.88 cumulative IPC: 1.725 (Simulation time: 00 hr 13 min 53 sec)
Heartbeat CPU 0 instructions: 127000859 cycles: 59573604 heartbeat IPC: 3.172 cumulative IPC: 1.73 (Simulation time: 00 hr 13 min 56 sec)
Heartbeat CPU 0 instructions: 127500862 cycles: 59743603 heartbeat IPC: 2.941 cumulative IPC: 1.735 (Simulation time: 00 hr 13 min 58 sec)
Heartbeat CPU 0 instructions: 128000862 cycles: 59910422 heartbeat IPC: 2.997 cumulative IPC: 1.74 (Simulation time: 00 hr 14 min 01 sec)
Heartbeat CPU 0 instructions: 128500867 cycles: 60079160 heartbeat IPC: 2.963 cumulative IPC: 1.744 (Simulation time: 00 hr 14 min 04 sec)
Heartbeat CPU 0 instructions: 129000868 cycles: 60243492 heartbeat IPC: 3.043 cumulative IPC: 1.749 (Simulation time: 00 hr 14 min 07 sec)
Heartbeat CPU 0 instructions: 129500871 cycles: 60407863 heartbeat IPC: 3.042 cumulative IPC: 1.754 (Simulation time: 00 hr 14 min 10 sec)
Heartbeat CPU 0 instructions: 130000873 cycles: 60564856 heartbeat IPC: 3.185 cumulative IPC: 1.759 (Simulation time: 00 hr 14 min 12 sec)
Heartbeat CPU 0 instructions: 130500877 cycles: 60729993 heartbeat IPC: 3.028 cumulative IPC: 1.763 (Simulation time: 00 hr 14 min 15 sec)
Heartbeat CPU 0 instructions: 131000880 cycles: 61003960 heartbeat IPC: 1.825 cumulative IPC: 1.764 (Simulation time: 00 hr 14 min 19 sec)
Heartbeat CPU 0 instructions: 131500887 cycles: 61521353 heartbeat IPC: 0.9664 cumulative IPC: 1.755 (Simulation time: 00 hr 14 min 25 sec)
Heartbeat CPU 0 instructions: 132000894 cycles: 61858575 heartbeat IPC: 1.483 cumulative IPC: 1.753 (Simulation time: 00 hr 14 min 30 sec)
Heartbeat CPU 0 instructions: 132500900 cycles: 62082718 heartbeat IPC: 2.231 cumulative IPC: 1.755 (Simulation time: 00 hr 14 min 33 sec)
Heartbeat CPU 0 instructions: 133000904 cycles: 62306235 heartbeat IPC: 2.237 cumulative IPC: 1.757 (Simulation time: 00 hr 14 min 36 sec)
Heartbeat CPU 0 instructions: 133500904 cycles: 62518789 heartbeat IPC: 2.352 cumulative IPC: 1.76 (Simulation time: 00 hr 14 min 39 sec)
Heartbeat CPU 0 instructions: 134000905 cycles: 62729266 heartbeat IPC: 2.376 cumulative IPC: 1.763 (Simulation time: 00 hr 14 min 42 sec)
Heartbeat CPU 0 instructions: 134500910 cycles: 62947629 heartbeat IPC: 2.29 cumulative IPC: 1.765 (Simulation time: 00 hr 14 min 45 sec)
Heartbeat CPU 0 instructions: 135000916 cycles: 63177140 heartbeat IPC: 2.179 cumulative IPC: 1.767 (Simulation time: 00 hr 14 min 49 sec)
Heartbeat CPU 0 instructions: 135500921 cycles: 63409084 heartbeat IPC: 2.156 cumulative IPC: 1.769 (Simulation time: 00 hr 14 min 52 sec)
Heartbeat CPU 0 instructions: 136000928 cycles: 63642061 heartbeat IPC: 2.146 cumulative IPC: 1.771 (Simulation time: 00 hr 14 min 56 sec)
Heartbeat CPU 0 instructions: 136500934 cycles: 64086891 heartbeat IPC: 1.124 cumulative IPC: 1.765 (Simulation time: 00 hr 15 min 01 sec)
Heartbeat CPU 0 instructions: 137000940 cycles: 64741446 heartbeat IPC: 0.7639 cumulative IPC: 1.752 (Simulation time: 00 hr 15 min 10 sec)
Heartbeat CPU 0 instructions: 137500947 cycles: 64878741 heartbeat IPC: 3.642 cumulative IPC: 1.757 (Simulation time: 00 hr 15 min 12 sec)
Heartbeat CPU 0 instructions: 138000950 cycles: 65021055 heartbeat IPC: 3.513 cumulative IPC: 1.762 (Simulation time: 00 hr 15 min 15 sec)
Heartbeat CPU 0 instructions: 138500953 cycles: 65152526 heartbeat IPC: 3.803 cumulative IPC: 1.767 (Simulation time: 00 hr 15 min 17 sec)
Heartbeat CPU 0 instructions: 139000955 cycles: 65293594 heartbeat IPC: 3.544 cumulative IPC: 1.772 (Simulation time: 00 hr 15 min 20 sec)
Heartbeat CPU 0 instructions: 139500962 cycles: 65433293 heartbeat IPC: 3.579 cumulative IPC: 1.777 (Simulation time: 00 hr 15 min 22 sec)
Heartbeat CPU 0 instructions: 140000965 cycles: 65586873 heartbeat IPC: 3.256 cumulative IPC: 1.782 (Simulation time: 00 hr 15 min 25 sec)
Heartbeat CPU 0 instructions: 140500969 cycles: 65732082 heartbeat IPC: 3.443 cumulative IPC: 1.787 (Simulation time: 00 hr 15 min 28 sec)
Heartbeat CPU 0 instructions: 141000975 cycles: 65881309 heartbeat IPC: 3.351 cumulative IPC: 1.791 (Simulation time: 00 hr 15 min 30 sec)
Heartbeat CPU 0 instructions: 141500977 cycles: 66026961 heartbeat IPC: 3.433 cumulative IPC: 1.796 (Simulation time: 00 hr 15 min 33 sec)
Heartbeat CPU 0 instructions: 142000983 cycles: 66306193 heartbeat IPC: 1.791 cumulative IPC: 1.796 (Simulation time: 00 hr 15 min 36 sec)
Heartbeat CPU 0 instructions: 142500983 cycles: 66615231 heartbeat IPC: 1.618 cumulative IPC: 1.795 (Simulation time: 00 hr 15 min 41 sec)
Heartbeat CPU 0 instructions: 143000988 cycles: 66832142 heartbeat IPC: 2.305 cumulative IPC: 1.797 (Simulation time: 00 hr 15 min 44 sec)
Heartbeat CPU 0 instructions: 143500989 cycles: 67046523 heartbeat IPC: 2.332 cumulative IPC: 1.799 (Simulation time: 00 hr 15 min 47 sec)
Heartbeat CPU 0 instructions: 144000990 cycles: 67254917 heartbeat IPC: 2.399 cumulative IPC: 1.801 (Simulation time: 00 hr 15 min 50 sec)
Heartbeat CPU 0 instructions: 144500990 cycles: 67465580 heartbeat IPC: 2.373 cumulative IPC: 1.804 (Simulation time: 00 hr 15 min 53 sec)
Heartbeat CPU 0 instructions: 145000992 cycles: 67683406 heartbeat IPC: 2.295 cumulative IPC: 1.806 (Simulation time: 00 hr 15 min 56 sec)
Heartbeat CPU 0 instructions: 145500993 cycles: 67908987 heartbeat IPC: 2.217 cumulative IPC: 1.808 (Simulation time: 00 hr 16 min 00 sec)
Heartbeat CPU 0 instructions: 146001000 cycles: 68236197 heartbeat IPC: 1.528 cumulative IPC: 1.806 (Simulation time: 00 hr 16 min 04 sec)
Heartbeat CPU 0 instructions: 146501006 cycles: 68588566 heartbeat IPC: 1.419 cumulative IPC: 1.803 (Simulation time: 00 hr 16 min 09 sec)
Heartbeat CPU 0 instructions: 147001007 cycles: 68709908 heartbeat IPC: 4.121 cumulative IPC: 1.809 (Simulation time: 00 hr 16 min 11 sec)
Heartbeat CPU 0 instructions: 147501008 cycles: 68828677 heartbeat IPC: 4.21 cumulative IPC: 1.814 (Simulation time: 00 hr 16 min 14 sec)
Heartbeat CPU 0 instructions: 148001015 cycles: 68951114 heartbeat IPC: 4.084 cumulative IPC: 1.819 (Simulation time: 00 hr 16 min 16 sec)
Heartbeat CPU 0 instructions: 148501015 cycles: 69069714 heartbeat IPC: 4.216 cumulative IPC: 1.824 (Simulation time: 00 hr 16 min 18 sec)
Heartbeat CPU 0 instructions: 149001019 cycles: 69198358 heartbeat IPC: 3.887 cumulative IPC: 1.829 (Simulation time: 00 hr 16 min 20 sec)
Heartbeat CPU 0 instructions: 149501022 cycles: 69320044 heartbeat IPC: 4.109 cumulative IPC: 1.834 (Simulation time: 00 hr 16 min 23 sec)
Heartbeat CPU 0 instructions: 150001023 cycles: 69457818 heartbeat IPC: 3.629 cumulative IPC: 1.839 (Simulation time: 00 hr 16 min 25 sec)
Heartbeat CPU 0 instructions: 150501025 cycles: 69672354 heartbeat IPC: 2.331 cumulative IPC: 1.841 (Simulation time: 00 hr 16 min 28 sec)
Heartbeat CPU 0 instructions: 151001027 cycles: 69911354 heartbeat IPC: 2.092 cumulative IPC: 1.842 (Simulation time: 00 hr 16 min 31 sec)
Heartbeat CPU 0 instructions: 151501028 cycles: 70139721 heartbeat IPC: 2.189 cumulative IPC: 1.843 (Simulation time: 00 hr 16 min 35 sec)
Heartbeat CPU 0 instructions: 152001028 cycles: 70358291 heartbeat IPC: 2.288 cumulative IPC: 1.845 (Simulation time: 00 hr 16 min 38 sec)
Heartbeat CPU 0 instructions: 152501029 cycles: 70582585 heartbeat IPC: 2.229 cumulative IPC: 1.847 (Simulation time: 00 hr 16 min 41 sec)
Heartbeat CPU 0 instructions: 153001031 cycles: 70811214 heartbeat IPC: 2.187 cumulative IPC: 1.848 (Simulation time: 00 hr 16 min 45 sec)
Heartbeat CPU 0 instructions: 153501033 cycles: 71048832 heartbeat IPC: 2.104 cumulative IPC: 1.849 (Simulation time: 00 hr 16 min 48 sec)
Heartbeat CPU 0 instructions: 154001036 cycles: 71276577 heartbeat IPC: 2.195 cumulative IPC: 1.85 (Simulation time: 00 hr 16 min 52 sec)
Heartbeat CPU 0 instructions: 154501036 cycles: 71500039 heartbeat IPC: 2.238 cumulative IPC: 1.852 (Simulation time: 00 hr 16 min 55 sec)
Heartbeat CPU 0 instructions: 155001036 cycles: 71747781 heartbeat IPC: 2.018 cumulative IPC: 1.853 (Simulation time: 00 hr 16 min 59 sec)
Heartbeat CPU 0 instructions: 155501043 cycles: 71987493 heartbeat IPC: 2.086 cumulative IPC: 1.854 (Simulation time: 00 hr 17 min 02 sec)
Heartbeat CPU 0 instructions: 156001043 cycles: 72230593 heartbeat IPC: 2.057 cumulative IPC: 1.855 (Simulation time: 00 hr 17 min 06 sec)
Heartbeat CPU 0 instructions: 156501048 cycles: 72442520 heartbeat IPC: 2.359 cumulative IPC: 1.856 (Simulation time: 00 hr 17 min 09 sec)
Heartbeat CPU 0 instructions: 157001049 cycles: 73125773 heartbeat IPC: 0.7318 cumulative IPC: 1.843 (Simulation time: 00 hr 17 min 18 sec)
Heartbeat CPU 0 instructions: 157501052 cycles: 74024068 heartbeat IPC: 0.5566 cumulative IPC: 1.824 (Simulation time: 00 hr 17 min 29 sec)
Heartbeat CPU 0 instructions: 158001056 cycles: 74221542 heartbeat IPC: 2.532 cumulative IPC: 1.826 (Simulation time: 00 hr 17 min 32 sec)
Heartbeat CPU 0 instructions: 158501060 cycles: 74399083 heartbeat IPC: 2.816 cumulative IPC: 1.829 (Simulation time: 00 hr 17 min 35 sec)
Heartbeat CPU 0 instructions: 159001063 cycles: 74574103 heartbeat IPC: 2.857 cumulative IPC: 1.832 (Simulation time: 00 hr 17 min 38 sec)
Heartbeat CPU 0 instructions: 159501063 cycles: 74745747 heartbeat IPC: 2.913 cumulative IPC: 1.835 (Simulation time: 00 hr 17 min 40 sec)
Heartbeat CPU 0 instructions: 160001063 cycles: 74916727 heartbeat IPC: 2.924 cumulative IPC: 1.838 (Simulation time: 00 hr 17 min 43 sec)
Heartbeat CPU 0 instructions: 160501070 cycles: 75096785 heartbeat IPC: 2.777 cumulative IPC: 1.841 (Simulation time: 00 hr 17 min 46 sec)
Heartbeat CPU 0 instructions: 161001072 cycles: 75263280 heartbeat IPC: 3.003 cumulative IPC: 1.844 (Simulation time: 00 hr 17 min 49 sec)
Heartbeat CPU 0 instructions: 161501079 cycles: 75423263 heartbeat IPC: 3.125 cumulative IPC: 1.848 (Simulation time: 00 hr 17 min 52 sec)
Heartbeat CPU 0 instructions: 162001079 cycles: 75595109 heartbeat IPC: 2.91 cumulative IPC: 1.851 (Simulation time: 00 hr 17 min 54 sec)
Heartbeat CPU 0 instructions: 162501080 cycles: 75762459 heartbeat IPC: 2.988 cumulative IPC: 1.854 (Simulation time: 00 hr 17 min 57 sec)
Heartbeat CPU 0 instructions: 163001085 cycles: 75937504 heartbeat IPC: 2.856 cumulative IPC: 1.857 (Simulation time: 00 hr 18 min 00 sec)
Heartbeat CPU 0 instructions: 163501092 cycles: 76115683 heartbeat IPC: 2.806 cumulative IPC: 1.859 (Simulation time: 00 hr 18 min 03 sec)
Heartbeat CPU 0 instructions: 164001092 cycles: 76461249 heartbeat IPC: 1.447 cumulative IPC: 1.857 (Simulation time: 00 hr 18 min 07 sec)
Heartbeat CPU 0 instructions: 164501092 cycles: 77063554 heartbeat IPC: 0.8301 cumulative IPC: 1.847 (Simulation time: 00 hr 18 min 15 sec)
Heartbeat CPU 0 instructions: 165001096 cycles: 77440295 heartbeat IPC: 1.327 cumulative IPC: 1.844 (Simulation time: 00 hr 18 min 20 sec)
Heartbeat CPU 0 instructions: 165501097 cycles: 77664430 heartbeat IPC: 2.231 cumulative IPC: 1.845 (Simulation time: 00 hr 18 min 23 sec)
Heartbeat CPU 0 instructions: 166001102 cycles: 77883358 heartbeat IPC: 2.284 cumulative IPC: 1.847 (Simulation time: 00 hr 18 min 26 sec)
Heartbeat CPU 0 instructions: 166501104 cycles: 78097167 heartbeat IPC: 2.339 cumulative IPC: 1.849 (Simulation time: 00 hr 18 min 30 sec)
Heartbeat CPU 0 instructions: 167001105 cycles: 78309987 heartbeat IPC: 2.349 cumulative IPC: 1.85 (Simulation time: 00 hr 18 min 33 sec)
Heartbeat CPU 0 instructions: 167501106 cycles: 78529626 heartbeat IPC: 2.276 cumulative IPC: 1.852 (Simulation time: 00 hr 18 min 36 sec)
Heartbeat CPU 0 instructions: 168001107 cycles: 78771360 heartbeat IPC: 2.068 cumulative IPC: 1.853 (Simulation time: 00 hr 18 min 40 sec)
Heartbeat CPU 0 instructions: 168501107 cycles: 79008206 heartbeat IPC: 2.111 cumulative IPC: 1.853 (Simulation time: 00 hr 18 min 43 sec)
Heartbeat CPU 0 instructions: 169001114 cycles: 79241429 heartbeat IPC: 2.144 cumulative IPC: 1.855 (Simulation time: 00 hr 18 min 46 sec)
Heartbeat CPU 0 instructions: 169501115 cycles: 79475912 heartbeat IPC: 2.132 cumulative IPC: 1.856 (Simulation time: 00 hr 18 min 50 sec)
Heartbeat CPU 0 instructions: 170001116 cycles: 79702622 heartbeat IPC: 2.205 cumulative IPC: 1.857 (Simulation time: 00 hr 18 min 53 sec)
Heartbeat CPU 0 instructions: 170501117 cycles: 79941125 heartbeat IPC: 2.096 cumulative IPC: 1.858 (Simulation time: 00 hr 18 min 57 sec)
Heartbeat CPU 0 instructions: 171001118 cycles: 80173042 heartbeat IPC: 2.156 cumulative IPC: 1.859 (Simulation time: 00 hr 19 min 00 sec)
Heartbeat CPU 0 instructions: 171501119 cycles: 80581453 heartbeat IPC: 1.224 cumulative IPC: 1.855 (Simulation time: 00 hr 19 min 06 sec)
Heartbeat CPU 0 instructions: 172001119 cycles: 81379063 heartbeat IPC: 0.6269 cumulative IPC: 1.84 (Simulation time: 00 hr 19 min 15 sec)
Heartbeat CPU 0 instructions: 172501119 cycles: 82099474 heartbeat IPC: 0.694 cumulative IPC: 1.828 (Simulation time: 00 hr 19 min 24 sec)
Heartbeat CPU 0 instructions: 173001126 cycles: 82274373 heartbeat IPC: 2.859 cumulative IPC: 1.83 (Simulation time: 00 hr 19 min 27 sec)
Heartbeat CPU 0 instructions: 173501126 cycles: 82455105 heartbeat IPC: 2.767 cumulative IPC: 1.833 (Simulation time: 00 hr 19 min 30 sec)
Heartbeat CPU 0 instructions: 174001127 cycles: 82633428 heartbeat IPC: 2.804 cumulative IPC: 1.835 (Simulation time: 00 hr 19 min 33 sec)
Heartbeat CPU 0 instructions: 174501128 cycles: 82813338 heartbeat IPC: 2.779 cumulative IPC: 1.838 (Simulation time: 00 hr 19 min 36 sec)
Heartbeat CPU 0 instructions: 175001129 cycles: 82994060 heartbeat IPC: 2.767 cumulative IPC: 1.84 (Simulation time: 00 hr 19 min 39 sec)
Heartbeat CPU 0 instructions: 175501131 cycles: 83188289 heartbeat IPC: 2.574 cumulative IPC: 1.843 (Simulation time: 00 hr 19 min 42 sec)
Heartbeat CPU 0 instructions: 176001133 cycles: 83367139 heartbeat IPC: 2.796 cumulative IPC: 1.845 (Simulation time: 00 hr 19 min 45 sec)
Heartbeat CPU 0 instructions: 176501137 cycles: 83541467 heartbeat IPC: 2.868 cumulative IPC: 1.848 (Simulation time: 00 hr 19 min 48 sec)
Heartbeat CPU 0 instructions: 177001138 cycles: 83720074 heartbeat IPC: 2.799 cumulative IPC: 1.85 (Simulation time: 00 hr 19 min 50 sec)
Heartbeat CPU 0 instructions: 177501139 cycles: 83894585 heartbeat IPC: 2.865 cumulative IPC: 1.853 (Simulation time: 00 hr 19 min 53 sec)
Heartbeat CPU 0 instructions: 178001140 cycles: 84067356 heartbeat IPC: 2.894 cumulative IPC: 1.855 (Simulation time: 00 hr 19 min 56 sec)
Heartbeat CPU 0 instructions: 178501141 cycles: 84241802 heartbeat IPC: 2.866 cumulative IPC: 1.858 (Simulation time: 00 hr 19 min 59 sec)
Heartbeat CPU 0 instructions: 179001141 cycles: 84410237 heartbeat IPC: 2.969 cumulative IPC: 1.861 (Simulation time: 00 hr 20 min 01 sec)
Heartbeat CPU 0 instructions: 179501144 cycles: 84901855 heartbeat IPC: 1.017 cumulative IPC: 1.855 (Simulation time: 00 hr 20 min 07 sec)
Heartbeat CPU 0 instructions: 180001150 cycles: 85588825 heartbeat IPC: 0.7278 cumulative IPC: 1.844 (Simulation time: 00 hr 20 min 16 sec)
Heartbeat CPU 0 instructions: 180501152 cycles: 85901316 heartbeat IPC: 1.6 cumulative IPC: 1.843 (Simulation time: 00 hr 20 min 20 sec)
Heartbeat CPU 0 instructions: 181001159 cycles: 86123313 heartbeat IPC: 2.252 cumulative IPC: 1.844 (Simulation time: 00 hr 20 min 23 sec)
Heartbeat CPU 0 instructions: 181501160 cycles: 86341109 heartbeat IPC: 2.296 cumulative IPC: 1.845 (Simulation time: 00 hr 20 min 26 sec)
Heartbeat CPU 0 instructions: 182001164 cycles: 86559636 heartbeat IPC: 2.288 cumulative IPC: 1.847 (Simulation time: 00 hr 20 min 29 sec)
Heartbeat CPU 0 instructions: 182501166 cycles: 86784286 heartbeat IPC: 2.226 cumulative IPC: 1.848 (Simulation time: 00 hr 20 min 33 sec)
Heartbeat CPU 0 instructions: 183001166 cycles: 87014400 heartbeat IPC: 2.173 cumulative IPC: 1.849 (Simulation time: 00 hr 20 min 36 sec)
Heartbeat CPU 0 instructions: 183501173 cycles: 87237455 heartbeat IPC: 2.242 cumulative IPC: 1.85 (Simulation time: 00 hr 20 min 39 sec)
Heartbeat CPU 0 instructions: 184001180 cycles: 87468590 heartbeat IPC: 2.163 cumulative IPC: 1.851 (Simulation time: 00 hr 20 min 43 sec)
Heartbeat CPU 0 instructions: 184501186 cycles: 87700788 heartbeat IPC: 2.153 cumulative IPC: 1.852 (Simulation time: 00 hr 20 min 46 sec)
Heartbeat CPU 0 instructions: 185001189 cycles: 87979995 heartbeat IPC: 1.791 cumulative IPC: 1.852 (Simulation time: 00 hr 20 min 50 sec)
Heartbeat CPU 0 instructions: 185501195 cycles: 88624126 heartbeat IPC: 0.7762 cumulative IPC: 1.842 (Simulation time: 00 hr 20 min 58 sec)
Heartbeat CPU 0 instructions: 186001198 cycles: 89090338 heartbeat IPC: 1.072 cumulative IPC: 1.837 (Simulation time: 00 hr 21 min 04 sec)
Heartbeat CPU 0 instructions: 186501204 cycles: 89232797 heartbeat IPC: 3.51 cumulative IPC: 1.841 (Simulation time: 00 hr 21 min 06 sec)
Heartbeat CPU 0 instructions: 187001211 cycles: 89384949 heartbeat IPC: 3.286 cumulative IPC: 1.844 (Simulation time: 00 hr 21 min 09 sec)
Heartbeat CPU 0 instructions: 187501216 cycles: 89526917 heartbeat IPC: 3.522 cumulative IPC: 1.847 (Simulation time: 00 hr 21 min 11 sec)
Heartbeat CPU 0 instructions: 188001221 cycles: 89689993 heartbeat IPC: 3.066 cumulative IPC: 1.849 (Simulation time: 00 hr 21 min 14 sec)
Heartbeat CPU 0 instructions: 188501227 cycles: 89835731 heartbeat IPC: 3.431 cumulative IPC: 1.853 (Simulation time: 00 hr 21 min 17 sec)
Heartbeat CPU 0 instructions: 189001234 cycles: 89994784 heartbeat IPC: 3.144 cumulative IPC: 1.855 (Simulation time: 00 hr 21 min 19 sec)
Heartbeat CPU 0 instructions: 189501239 cycles: 90140895 heartbeat IPC: 3.422 cumulative IPC: 1.858 (Simulation time: 00 hr 21 min 22 sec)
Heartbeat CPU 0 instructions: 190001245 cycles: 90280476 heartbeat IPC: 3.582 cumulative IPC: 1.862 (Simulation time: 00 hr 21 min 24 sec)
Heartbeat CPU 0 instructions: 190501247 cycles: 90433431 heartbeat IPC: 3.269 cumulative IPC: 1.864 (Simulation time: 00 hr 21 min 27 sec)
Heartbeat CPU 0 instructions: 191001250 cycles: 90707039 heartbeat IPC: 1.827 cumulative IPC: 1.864 (Simulation time: 00 hr 21 min 30 sec)
Heartbeat CPU 0 instructions: 191501250 cycles: 91113211 heartbeat IPC: 1.231 cumulative IPC: 1.861 (Simulation time: 00 hr 21 min 35 sec)
Heartbeat CPU 0 instructions: 192001250 cycles: 91343277 heartbeat IPC: 2.173 cumulative IPC: 1.862 (Simulation time: 00 hr 21 min 39 sec)
Heartbeat CPU 0 instructions: 192501257 cycles: 91556632 heartbeat IPC: 2.344 cumulative IPC: 1.863 (Simulation time: 00 hr 21 min 42 sec)
Heartbeat CPU 0 instructions: 193001264 cycles: 91769975 heartbeat IPC: 2.344 cumulative IPC: 1.865 (Simulation time: 00 hr 21 min 45 sec)
Heartbeat CPU 0 instructions: 193501266 cycles: 91983492 heartbeat IPC: 2.342 cumulative IPC: 1.866 (Simulation time: 00 hr 21 min 48 sec)
Heartbeat CPU 0 instructions: 194001266 cycles: 92203540 heartbeat IPC: 2.272 cumulative IPC: 1.867 (Simulation time: 00 hr 21 min 51 sec)
Heartbeat CPU 0 instructions: 194501269 cycles: 92432641 heartbeat IPC: 2.182 cumulative IPC: 1.868 (Simulation time: 00 hr 21 min 55 sec)
Heartbeat CPU 0 instructions: 195001271 cycles: 92657990 heartbeat IPC: 2.219 cumulative IPC: 1.869 (Simulation time: 00 hr 21 min 58 sec)
Heartbeat CPU 0 instructions: 195501278 cycles: 92888985 heartbeat IPC: 2.165 cumulative IPC: 1.87 (Simulation time: 00 hr 22 min 01 sec)
Heartbeat CPU 0 instructions: 196001285 cycles: 93123499 heartbeat IPC: 2.132 cumulative IPC: 1.871 (Simulation time: 00 hr 22 min 05 sec)
Heartbeat CPU 0 instructions: 196501288 cycles: 93400536 heartbeat IPC: 1.805 cumulative IPC: 1.87 (Simulation time: 00 hr 22 min 08 sec)
Heartbeat CPU 0 instructions: 197001293 cycles: 94060390 heartbeat IPC: 0.7578 cumulative IPC: 1.861 (Simulation time: 00 hr 22 min 17 sec)
Heartbeat CPU 0 instructions: 197501299 cycles: 94563348 heartbeat IPC: 0.9941 cumulative IPC: 1.856 (Simulation time: 00 hr 22 min 23 sec)
Heartbeat CPU 0 instructions: 198001306 cycles: 94713565 heartbeat IPC: 3.329 cumulative IPC: 1.858 (Simulation time: 00 hr 22 min 26 sec)
Heartbeat CPU 0 instructions: 198501309 cycles: 94865827 heartbeat IPC: 3.284 cumulative IPC: 1.861 (Simulation time: 00 hr 22 min 28 sec)
Heartbeat CPU 0 instructions: 199001316 cycles: 95013036 heartbeat IPC: 3.397 cumulative IPC: 1.864 (Simulation time: 00 hr 22 min 31 sec)
Heartbeat CPU 0 instructions: 199501323 cycles: 95174403 heartbeat IPC: 3.099 cumulative IPC: 1.866 (Simulation time: 00 hr 22 min 33 sec)
Heartbeat CPU 0 instructions: 200001329 cycles: 95329435 heartbeat IPC: 3.225 cumulative IPC: 1.869 (Simulation time: 00 hr 22 min 36 sec)
Heartbeat CPU 0 instructions: 200501336 cycles: 95477322 heartbeat IPC: 3.381 cumulative IPC: 1.872 (Simulation time: 00 hr 22 min 38 sec)
Heartbeat CPU 0 instructions: 201001336 cycles: 95635935 heartbeat IPC: 3.152 cumulative IPC: 1.874 (Simulation time: 00 hr 22 min 41 sec)
Heartbeat CPU 0 instructions: 201501340 cycles: 95782725 heartbeat IPC: 3.406 cumulative IPC: 1.877 (Simulation time: 00 hr 22 min 43 sec)
Heartbeat CPU 0 instructions: 202001345 cycles: 95941779 heartbeat IPC: 3.144 cumulative IPC: 1.88 (Simulation time: 00 hr 22 min 46 sec)
Heartbeat CPU 0 instructions: 202501352 cycles: 96141674 heartbeat IPC: 2.501 cumulative IPC: 1.881 (Simulation time: 00 hr 22 min 49 sec)
Heartbeat CPU 0 instructions: 203001354 cycles: 96542863 heartbeat IPC: 1.246 cumulative IPC: 1.878 (Simulation time: 00 hr 22 min 54 sec)
Heartbeat CPU 0 instructions: 203501359 cycles: 96842696 heartbeat IPC: 1.668 cumulative IPC: 1.877 (Simulation time: 00 hr 22 min 58 sec)
Heartbeat CPU 0 instructions: 204001364 cycles: 97064447 heartbeat IPC: 2.255 cumulative IPC: 1.878 (Simulation time: 00 hr 23 min 01 sec)
Heartbeat CPU 0 instructions: 204501369 cycles: 97282778 heartbeat IPC: 2.29 cumulative IPC: 1.879 (Simulation time: 00 hr 23 min 04 sec)
Heartbeat CPU 0 instructions: 205001372 cycles: 97497262 heartbeat IPC: 2.331 cumulative IPC: 1.881 (Simulation time: 00 hr 23 min 07 sec)
Heartbeat CPU 0 instructions: 205501374 cycles: 97716795 heartbeat IPC: 2.278 cumulative IPC: 1.882 (Simulation time: 00 hr 23 min 10 sec)
Heartbeat CPU 0 instructions: 206001379 cycles: 97931930 heartbeat IPC: 2.324 cumulative IPC: 1.883 (Simulation time: 00 hr 23 min 13 sec)
Heartbeat CPU 0 instructions: 206501381 cycles: 98150778 heartbeat IPC: 2.285 cumulative IPC: 1.884 (Simulation time: 00 hr 23 min 16 sec)
Heartbeat CPU 0 instructions: 207001384 cycles: 98381582 heartbeat IPC: 2.166 cumulative IPC: 1.885 (Simulation time: 00 hr 23 min 20 sec)
Heartbeat CPU 0 instructions: 207501386 cycles: 98616263 heartbeat IPC: 2.131 cumulative IPC: 1.885 (Simulation time: 00 hr 23 min 23 sec)
Heartbeat CPU 0 instructions: 208001386 cycles: 98846624 heartbeat IPC: 2.171 cumulative IPC: 1.886 (Simulation time: 00 hr 23 min 26 sec)
Heartbeat CPU 0 instructions: 208501391 cycles: 99221619 heartbeat IPC: 1.333 cumulative IPC: 1.884 (Simulation time: 00 hr 23 min 31 sec)
Heartbeat CPU 0 instructions: 209001396 cycles: 99972084 heartbeat IPC: 0.6663 cumulative IPC: 1.873 (Simulation time: 00 hr 23 min 40 sec)
Heartbeat CPU 0 instructions: 209501399 cycles: 100318458 heartbeat IPC: 1.444 cumulative IPC: 1.871 (Simulation time: 00 hr 23 min 45 sec)
Heartbeat CPU 0 instructions: 210001404 cycles: 100474895 heartbeat IPC: 3.196 cumulative IPC: 1.874 (Simulation time: 00 hr 23 min 47 sec)
Heartbeat CPU 0 instructions: 210501410 cycles: 100631425 heartbeat IPC: 3.194 cumulative IPC: 1.876 (Simulation time: 00 hr 23 min 50 sec)
Heartbeat CPU 0 instructions: 211001412 cycles: 100783776 heartbeat IPC: 3.282 cumulative IPC: 1.878 (Simulation time: 00 hr 23 min 52 sec)
Heartbeat CPU 0 instructions: 211501417 cycles: 100950209 heartbeat IPC: 3.004 cumulative IPC: 1.881 (Simulation time: 00 hr 23 min 55 sec)
Heartbeat CPU 0 instructions: 212001419 cycles: 101108111 heartbeat IPC: 3.167 cumulative IPC: 1.883 (Simulation time: 00 hr 23 min 58 sec)
Heartbeat CPU 0 instructions: 212501425 cycles: 101259365 heartbeat IPC: 3.306 cumulative IPC: 1.885 (Simulation time: 00 hr 24 min 00 sec)
Heartbeat CPU 0 instructions: 213001427 cycles: 101415788 heartbeat IPC: 3.196 cumulative IPC: 1.888 (Simulation time: 00 hr 24 min 03 sec)
Heartbeat CPU 0 instructions: 213501433 cycles: 101575331 heartbeat IPC: 3.134 cumulative IPC: 1.89 (Simulation time: 00 hr 24 min 05 sec)
Heartbeat CPU 0 instructions: 214001439 cycles: 101729913 heartbeat IPC: 3.235 cumulative IPC: 1.893 (Simulation time: 00 hr 24 min 08 sec)
Heartbeat CPU 0 instructions: 214501439 cycles: 101944074 heartbeat IPC: 2.335 cumulative IPC: 1.894 (Simulation time: 00 hr 24 min 11 sec)
Heartbeat CPU 0 instructions: 215001440 cycles: 102351321 heartbeat IPC: 1.228 cumulative IPC: 1.891 (Simulation time: 00 hr 24 min 16 sec)
Heartbeat CPU 0 instructions: 215501442 cycles: 102676906 heartbeat IPC: 1.536 cumulative IPC: 1.889 (Simulation time: 00 hr 24 min 20 sec)
Heartbeat CPU 0 instructions: 216001445 cycles: 102900618 heartbeat IPC: 2.235 cumulative IPC: 1.89 (Simulation time: 00 hr 24 min 23 sec)
Heartbeat CPU 0 instructions: 216501452 cycles: 103110268 heartbeat IPC: 2.385 cumulative IPC: 1.891 (Simulation time: 00 hr 24 min 26 sec)
Heartbeat CPU 0 instructions: 217001452 cycles: 103322606 heartbeat IPC: 2.355 cumulative IPC: 1.892 (Simulation time: 00 hr 24 min 29 sec)
Heartbeat CPU 0 instructions: 217501457 cycles: 103536922 heartbeat IPC: 2.333 cumulative IPC: 1.893 (Simulation time: 00 hr 24 min 32 sec)
Heartbeat CPU 0 instructions: 218001462 cycles: 103752313 heartbeat IPC: 2.321 cumulative IPC: 1.895 (Simulation time: 00 hr 24 min 35 sec)
Heartbeat CPU 0 instructions: 218501463 cycles: 103976521 heartbeat IPC: 2.23 cumulative IPC: 1.895 (Simulation time: 00 hr 24 min 38 sec)
Heartbeat CPU 0 instructions: 219001466 cycles: 104214190 heartbeat IPC: 2.104 cumulative IPC: 1.896 (Simulation time: 00 hr 24 min 41 sec)
Heartbeat CPU 0 instructions: 219501473 cycles: 104453603 heartbeat IPC: 2.088 cumulative IPC: 1.896 (Simulation time: 00 hr 24 min 44 sec)
Heartbeat CPU 0 instructions: 220001475 cycles: 104681755 heartbeat IPC: 2.192 cumulative IPC: 1.897 (Simulation time: 00 hr 24 min 48 sec)
Heartbeat CPU 0 instructions: 220501481 cycles: 105189457 heartbeat IPC: 0.9848 cumulative IPC: 1.892 (Simulation time: 00 hr 24 min 54 sec)
Heartbeat CPU 0 instructions: 221001485 cycles: 105950419 heartbeat IPC: 0.6571 cumulative IPC: 1.882 (Simulation time: 00 hr 25 min 03 sec)
Heartbeat CPU 0 instructions: 221501489 cycles: 106087062 heartbeat IPC: 3.659 cumulative IPC: 1.884 (Simulation time: 00 hr 25 min 05 sec)
Heartbeat CPU 0 instructions: 222001491 cycles: 106239821 heartbeat IPC: 3.273 cumulative IPC: 1.887 (Simulation time: 00 hr 25 min 07 sec)
Heartbeat CPU 0 instructions: 222501496 cycles: 106395259 heartbeat IPC: 3.217 cumulative IPC: 1.889 (Simulation time: 00 hr 25 min 10 sec)
Heartbeat CPU 0 instructions: 223001499 cycles: 106544797 heartbeat IPC: 3.344 cumulative IPC: 1.891 (Simulation time: 00 hr 25 min 13 sec)
Heartbeat CPU 0 instructions: 223501503 cycles: 106702159 heartbeat IPC: 3.177 cumulative IPC: 1.894 (Simulation time: 00 hr 25 min 15 sec)
Heartbeat CPU 0 instructions: 224001508 cycles: 106846345 heartbeat IPC: 3.468 cumulative IPC: 1.896 (Simulation time: 00 hr 25 min 18 sec)
Heartbeat CPU 0 instructions: 224501508 cycles: 107005985 heartbeat IPC: 3.132 cumulative IPC: 1.898 (Simulation time: 00 hr 25 min 20 sec)
Heartbeat CPU 0 instructions: 225001514 cycles: 107155861 heartbeat IPC: 3.336 cumulative IPC: 1.901 (Simulation time: 00 hr 25 min 23 sec)
Heartbeat CPU 0 instructions: 225501516 cycles: 107306210 heartbeat IPC: 3.326 cumulative IPC: 1.903 (Simulation time: 00 hr 25 min 25 sec)
Heartbeat CPU 0 instructions: 226001518 cycles: 107471820 heartbeat IPC: 3.019 cumulative IPC: 1.905 (Simulation time: 00 hr 25 min 27 sec)
Heartbeat CPU 0 instructions: 226501523 cycles: 107791040 heartbeat IPC: 1.566 cumulative IPC: 1.904 (Simulation time: 00 hr 25 min 31 sec)
Heartbeat CPU 0 instructions: 227001528 cycles: 108163007 heartbeat IPC: 1.344 cumulative IPC: 1.901 (Simulation time: 00 hr 25 min 36 sec)
Heartbeat CPU 0 instructions: 227501533 cycles: 108383703 heartbeat IPC: 2.266 cumulative IPC: 1.902 (Simulation time: 00 hr 25 min 39 sec)
Heartbeat CPU 0 instructions: 228001539 cycles: 108602417 heartbeat IPC: 2.286 cumulative IPC: 1.903 (Simulation time: 00 hr 25 min 42 sec)
Heartbeat CPU 0 instructions: 228501539 cycles: 108822076 heartbeat IPC: 2.276 cumulative IPC: 1.904 (Simulation time: 00 hr 25 min 45 sec)
Heartbeat CPU 0 instructions: 229001540 cycles: 109036108 heartbeat IPC: 2.336 cumulative IPC: 1.905 (Simulation time: 00 hr 25 min 48 sec)
Heartbeat CPU 0 instructions: 229501544 cycles: 109250176 heartbeat IPC: 2.336 cumulative IPC: 1.906 (Simulation time: 00 hr 25 min 51 sec)
Heartbeat CPU 0 instructions: 230001545 cycles: 109468742 heartbeat IPC: 2.288 cumulative IPC: 1.907 (Simulation time: 00 hr 25 min 54 sec)
Heartbeat CPU 0 instructions: 230501551 cycles: 109712734 heartbeat IPC: 2.049 cumulative IPC: 1.907 (Simulation time: 00 hr 25 min 57 sec)
Heartbeat CPU 0 instructions: 231001551 cycles: 109946913 heartbeat IPC: 2.135 cumulative IPC: 1.908 (Simulation time: 00 hr 26 min 01 sec)
Heartbeat CPU 0 instructions: 231501554 cycles: 110181892 heartbeat IPC: 2.128 cumulative IPC: 1.908 (Simulation time: 00 hr 26 min 04 sec)
Heartbeat CPU 0 instructions: 232001557 cycles: 110537270 heartbeat IPC: 1.407 cumulative IPC: 1.907 (Simulation time: 00 hr 26 min 09 sec)
Heartbeat CPU 0 instructions: 232501560 cycles: 111263334 heartbeat IPC: 0.6886 cumulative IPC: 1.897 (Simulation time: 00 hr 26 min 17 sec)
Heartbeat CPU 0 instructions: 233001565 cycles: 111621818 heartbeat IPC: 1.395 cumulative IPC: 1.895 (Simulation time: 00 hr 26 min 22 sec)
Heartbeat CPU 0 instructions: 233501568 cycles: 111777426 heartbeat IPC: 3.213 cumulative IPC: 1.898 (Simulation time: 00 hr 26 min 24 sec)
Heartbeat CPU 0 instructions: 234001569 cycles: 111946411 heartbeat IPC: 2.959 cumulative IPC: 1.899 (Simulation time: 00 hr 26 min 27 sec)
Heartbeat CPU 0 instructions: 234501573 cycles: 112093871 heartbeat IPC: 3.391 cumulative IPC: 1.902 (Simulation time: 00 hr 26 min 29 sec)
Heartbeat CPU 0 instructions: 235001577 cycles: 112258307 heartbeat IPC: 3.041 cumulative IPC: 1.904 (Simulation time: 00 hr 26 min 32 sec)
Heartbeat CPU 0 instructions: 235501582 cycles: 112398655 heartbeat IPC: 3.563 cumulative IPC: 1.906 (Simulation time: 00 hr 26 min 34 sec)
Heartbeat CPU 0 instructions: 236001588 cycles: 112555551 heartbeat IPC: 3.187 cumulative IPC: 1.908 (Simulation time: 00 hr 26 min 37 sec)
Heartbeat CPU 0 instructions: 236501592 cycles: 112720936 heartbeat IPC: 3.023 cumulative IPC: 1.91 (Simulation time: 00 hr 26 min 39 sec)
Heartbeat CPU 0 instructions: 237001597 cycles: 112872657 heartbeat IPC: 3.296 cumulative IPC: 1.912 (Simulation time: 00 hr 26 min 42 sec)
Heartbeat CPU 0 instructions: 237501601 cycles: 113037616 heartbeat IPC: 3.031 cumulative IPC: 1.914 (Simulation time: 00 hr 26 min 44 sec)
Heartbeat CPU 0 instructions: 238001606 cycles: 113289055 heartbeat IPC: 1.989 cumulative IPC: 1.914 (Simulation time: 00 hr 26 min 47 sec)
Heartbeat CPU 0 instructions: 238501609 cycles: 113726289 heartbeat IPC: 1.144 cumulative IPC: 1.911 (Simulation time: 00 hr 26 min 53 sec)
Heartbeat CPU 0 instructions: 239001612 cycles: 113968908 heartbeat IPC: 2.061 cumulative IPC: 1.911 (Simulation time: 00 hr 26 min 56 sec)
Heartbeat CPU 0 instructions: 239501619 cycles: 114192380 heartbeat IPC: 2.237 cumulative IPC: 1.912 (Simulation time: 00 hr 26 min 59 sec)
Heartbeat CPU 0 instructions: 240001621 cycles: 114402828 heartbeat IPC: 2.376 cumulative IPC: 1.913 (Simulation time: 00 hr 27 min 02 sec)
Heartbeat CPU 0 instructions: 240501626 cycles: 114612782 heartbeat IPC: 2.381 cumulative IPC: 1.914 (Simulation time: 00 hr 27 min 05 sec)
Heartbeat CPU 0 instructions: 241001628 cycles: 114826076 heartbeat IPC: 2.344 cumulative IPC: 1.915 (Simulation time: 00 hr 27 min 07 sec)
Heartbeat CPU 0 instructions: 241501630 cycles: 115054136 heartbeat IPC: 2.192 cumulative IPC: 1.915 (Simulation time: 00 hr 27 min 11 sec)
Heartbeat CPU 0 instructions: 242001630 cycles: 115286115 heartbeat IPC: 2.155 cumulative IPC: 1.916 (Simulation time: 00 hr 27 min 14 sec)
Heartbeat CPU 0 instructions: 242501631 cycles: 115512878 heartbeat IPC: 2.205 cumulative IPC: 1.917 (Simulation time: 00 hr 27 min 17 sec)
Heartbeat CPU 0 instructions: 243001636 cycles: 115743801 heartbeat IPC: 2.165 cumulative IPC: 1.917 (Simulation time: 00 hr 27 min 20 sec)
Heartbeat CPU 0 instructions: 243501643 cycles: 115982493 heartbeat IPC: 2.095 cumulative IPC: 1.918 (Simulation time: 00 hr 27 min 24 sec)
Heartbeat CPU 0 instructions: 244001643 cycles: 116221273 heartbeat IPC: 2.094 cumulative IPC: 1.918 (Simulation time: 00 hr 27 min 27 sec)
Heartbeat CPU 0 instructions: 244501643 cycles: 116799346 heartbeat IPC: 0.8649 cumulative IPC: 1.912 (Simulation time: 00 hr 27 min 34 sec)
Heartbeat CPU 0 instructions: 245001649 cycles: 117629422 heartbeat IPC: 0.6024 cumulative IPC: 1.901 (Simulation time: 00 hr 27 min 43 sec)
Heartbeat CPU 0 instructions: 245501652 cycles: 117820291 heartbeat IPC: 2.62 cumulative IPC: 1.903 (Simulation time: 00 hr 27 min 46 sec)
Heartbeat CPU 0 instructions: 246001654 cycles: 117988612 heartbeat IPC: 2.971 cumulative IPC: 1.905 (Simulation time: 00 hr 27 min 48 sec)
Heartbeat CPU 0 instructions: 246501661 cycles: 118155821 heartbeat IPC: 2.99 cumulative IPC: 1.906 (Simulation time: 00 hr 27 min 51 sec)
Heartbeat CPU 0 instructions: 247001666 cycles: 118313857 heartbeat IPC: 3.164 cumulative IPC: 1.908 (Simulation time: 00 hr 27 min 54 sec)
Heartbeat CPU 0 instructions: 247501673 cycles: 118485693 heartbeat IPC: 2.91 cumulative IPC: 1.91 (Simulation time: 00 hr 27 min 56 sec)
Heartbeat CPU 0 instructions: 248001676 cycles: 118659295 heartbeat IPC: 2.88 cumulative IPC: 1.911 (Simulation time: 00 hr 27 min 59 sec)
Heartbeat CPU 0 instructions: 248501682 cycles: 118822147 heartbeat IPC: 3.07 cumulative IPC: 1.913 (Simulation time: 00 hr 28 min 01 sec)
Heartbeat CPU 0 instructions: 249001687 cycles: 118981487 heartbeat IPC: 3.138 cumulative IPC: 1.915 (Simulation time: 00 hr 28 min 04 sec)
Heartbeat CPU 0 instructions: 249501689 cycles: 119138155 heartbeat IPC: 3.191 cumulative IPC: 1.917 (Simulation time: 00 hr 28 min 06 sec)
*** Reached end of trace: (0, "/local-ssd/ben/dpc4-traces/Graph/Ligra/ligra_BFSCC.com-lj.ungraph.gcc_6.3.0_O3.drop_17000M.length_250M.champsimtrace.xz")
Simulation finished CPU 0 instructions: 200000005 cycles: 104223237 cumulative IPC: 1.919 (Simulation time: 00 hr 28 min 09 sec)
Simulation complete CPU 0 instructions: 200000005 cycles: 104223237 cumulative IPC: 1.919 (Simulation time: 00 hr 28 min 09 sec)

ChampSim completed all CPUs

=== Simulation ===
CPU 0 runs /local-ssd/ben/dpc4-traces/Graph/Ligra/ligra_BFSCC.com-lj.ungraph.gcc_6.3.0_O3.drop_17000M.length_250M.champsimtrace.xz

Region of Interest Statistics

CPU 0 cumulative IPC: 1.919 instructions: 200000005 cycles: 104223237
CPU 0 Branch Prediction Accuracy: 99.03% MPKI: 0.9836 Average ROB Occupancy at Mispredict: 165.5
Branch type MPKI
BRANCH_DIRECT_JUMP: 0
BRANCH_INDIRECT: 0
BRANCH_CONDITIONAL: 0.9835
BRANCH_DIRECT_CALL: 0
BRANCH_INDIRECT_CALL: 0
BRANCH_RETURN: 0.000155

cpu0->cpu0_STLB TOTAL        ACCESS:     106293 HIT:      86320 MISS:      19973 MSHR_MERGE:          0
cpu0->cpu0_STLB LOAD         ACCESS:     106293 HIT:      86320 MISS:      19973 MSHR_MERGE:          0
cpu0->cpu0_STLB RFO          ACCESS:          0 HIT:          0 MISS:          0 MSHR_MERGE:          0
cpu0->cpu0_STLB PREFETCH     ACCESS:          0 HIT:          0 MISS:          0 MSHR_MERGE:          0
cpu0->cpu0_STLB WRITE        ACCESS:          0 HIT:          0 MISS:          0 MSHR_MERGE:          0
cpu0->cpu0_STLB TRANSLATION  ACCESS:          0 HIT:          0 MISS:          0 MSHR_MERGE:          0
cpu0->cpu0_STLB PREFETCH REQUESTED:          0 ISSUED:          0 USEFUL:          0 USELESS:          0
cpu0->cpu0_STLB AVERAGE MISS LATENCY: 256.9 cycles
cpu0->cpu0_L2C TOTAL        ACCESS:   17345209 HIT:    8370142 MISS:    8975067 MSHR_MERGE:    5122114
cpu0->cpu0_L2C LOAD         ACCESS:    1689750 HIT:    1325094 MISS:     364656 MSHR_MERGE:     250931
cpu0->cpu0_L2C RFO          ACCESS:    2218840 HIT:     228940 MISS:    1989900 MSHR_MERGE:        115
cpu0->cpu0_L2C PREFETCH     ACCESS:   11201870 HIT:    4584435 MISS:    6617435 MSHR_MERGE:    4871068
cpu0->cpu0_L2C WRITE        ACCESS:    2229164 HIT:    2229158 MISS:          6 MSHR_MERGE:          0
cpu0->cpu0_L2C TRANSLATION  ACCESS:       5585 HIT:       2515 MISS:       3070 MSHR_MERGE:          0
cpu0->cpu0_L2C PREFETCH REQUESTED:   11463838 ISSUED:   10085674 USEFUL:    1292384 USELESS:     277941
cpu0->cpu0_L2C AVERAGE MISS LATENCY: 314 cycles
cpu0->cpu0_L1I TOTAL        ACCESS:   21744843 HIT:   21744843 MISS:          0 MSHR_MERGE:          0
cpu0->cpu0_L1I LOAD         ACCESS:   21744843 HIT:   21744843 MISS:          0 MSHR_MERGE:          0
cpu0->cpu0_L1I RFO          ACCESS:          0 HIT:          0 MISS:          0 MSHR_MERGE:          0
cpu0->cpu0_L1I PREFETCH     ACCESS:          0 HIT:          0 MISS:          0 MSHR_MERGE:          0
cpu0->cpu0_L1I WRITE        ACCESS:          0 HIT:          0 MISS:          0 MSHR_MERGE:          0
cpu0->cpu0_L1I TRANSLATION  ACCESS:          0 HIT:          0 MISS:          0 MSHR_MERGE:          0
cpu0->cpu0_L1I PREFETCH REQUESTED:          0 ISSUED:          0 USEFUL:          0 USELESS:          0
cpu0->cpu0_L1I AVERAGE MISS LATENCY: - cycles
cpu0->cpu0_L1D TOTAL        ACCESS:   56915172 HIT:   38106181 MISS:   18808991 MSHR_MERGE:   13778525
cpu0->cpu0_L1D LOAD         ACCESS:   15596950 HIT:   12681106 MISS:    2915844 MSHR_MERGE:    1226085
cpu0->cpu0_L1D RFO          ACCESS:          0 HIT:          0 MISS:          0 MSHR_MERGE:          0
cpu0->cpu0_L1D PREFETCH     ACCESS:    1818495 HIT:     540260 MISS:    1278235 MSHR_MERGE:     162039
cpu0->cpu0_L1D WRITE        ACCESS:   39461543 HIT:   24854104 MISS:   14607439 MSHR_MERGE:   12388515
cpu0->cpu0_L1D TRANSLATION  ACCESS:      38184 HIT:      30711 MISS:       7473 MSHR_MERGE:       1886
cpu0->cpu0_L1D PREFETCH REQUESTED:    2842269 ISSUED:    1818493 USEFUL:    1074997 USELESS:      41203
cpu0->cpu0_L1D AVERAGE MISS LATENCY: 195.9 cycles
cpu0->cpu0_ITLB TOTAL        ACCESS:   21320474 HIT:   21320474 MISS:          0 MSHR_MERGE:          0
cpu0->cpu0_ITLB LOAD         ACCESS:   21320474 HIT:   21320474 MISS:          0 MSHR_MERGE:          0
cpu0->cpu0_ITLB RFO          ACCESS:          0 HIT:          0 MISS:          0 MSHR_MERGE:          0
cpu0->cpu0_ITLB PREFETCH     ACCESS:          0 HIT:          0 MISS:          0 MSHR_MERGE:          0
cpu0->cpu0_ITLB WRITE        ACCESS:          0 HIT:          0 MISS:          0 MSHR_MERGE:          0
cpu0->cpu0_ITLB TRANSLATION  ACCESS:          0 HIT:          0 MISS:          0 MSHR_MERGE:          0
cpu0->cpu0_ITLB PREFETCH REQUESTED:          0 ISSUED:          0 USEFUL:          0 USELESS:          0
cpu0->cpu0_ITLB AVERAGE MISS LATENCY: - cycles
cpu0->cpu0_DTLB TOTAL        ACCESS:   50860965 HIT:   50462455 MISS:     398510 MSHR_MERGE:     292217
cpu0->cpu0_DTLB LOAD         ACCESS:   50860965 HIT:   50462455 MISS:     398510 MSHR_MERGE:     292217
cpu0->cpu0_DTLB RFO          ACCESS:          0 HIT:          0 MISS:          0 MSHR_MERGE:          0
cpu0->cpu0_DTLB PREFETCH     ACCESS:          0 HIT:          0 MISS:          0 MSHR_MERGE:          0
cpu0->cpu0_DTLB WRITE        ACCESS:          0 HIT:          0 MISS:          0 MSHR_MERGE:          0
cpu0->cpu0_DTLB TRANSLATION  ACCESS:          0 HIT:          0 MISS:          0 MSHR_MERGE:          0
cpu0->cpu0_DTLB PREFETCH REQUESTED:          0 ISSUED:          0 USEFUL:          0 USELESS:          0
cpu0->cpu0_DTLB AVERAGE MISS LATENCY: 53.45 cycles
cpu0->LLC TOTAL        ACCESS:    5922471 HIT:    1865647 MISS:    4056824 MSHR_MERGE:          0
cpu0->LLC LOAD         ACCESS:     113725 HIT:      65413 MISS:      48312 MSHR_MERGE:          0
cpu0->LLC RFO          ACCESS:    1989785 HIT:     476511 MISS:    1513274 MSHR_MERGE:          0
cpu0->LLC PREFETCH     ACCESS:    1746367 HIT:     742452 MISS:    1003915 MSHR_MERGE:          0
cpu0->LLC WRITE        ACCESS:    2069524 HIT:     581270 MISS:    1488254 MSHR_MERGE:          0
cpu0->LLC TRANSLATION  ACCESS:       3070 HIT:          1 MISS:       3069 MSHR_MERGE:          0
cpu0->LLC PREFETCH REQUESTED:          0 ISSUED:          0 USEFUL:          0 USELESS:          0
cpu0->LLC AVERAGE MISS LATENCY: 220.9 cycles

DRAM Statistics

Channel 0 RQ ROW_BUFFER_HIT:     200446
  ROW_BUFFER_MISS:    2365713
  AVG DBUS CONGESTED CYCLE: 13.55
Channel 0 WQ ROW_BUFFER_HIT:     197001
  ROW_BUFFER_MISS:    1372983
  FULL:     373405
Channel 0 REFRESHES ISSUED:       8684
