[VMEM] WARNING: physical memory size is smaller than virtual memory size.

*** ChampSim Multicore Out-of-Order Simulator ***
Warmup Instructions: 50000000
Simulation Instructions: 200000000
Number of CPUs: 1
Page size: 4096
Core 0: /local-ssd/ben/dpc4-traces/Graph/GMS/gms.k_clique_list_danisch_node_parallel.soc-pokec-relationships.slice-248.champsimstrace.gz
 L1D Berti prefetcher
Off-chip DRAM Size: 64 GiB Channels: 1 Width: 64-bit Data Rate: 4807 MT/s
Heartbeat CPU 0 instructions: 500000 cycles: 177541 heartbeat IPC: 2.816 cumulative IPC: 2.816 (Simulation time: 00 hr 00 min 03 sec)
Heartbeat CPU 0 instructions: 1000007 cycles: 278868 heartbeat IPC: 4.935 cumulative IPC: 3.586 (Simulation time: 00 hr 00 min 05 sec)
Heartbeat CPU 0 instructions: 1500007 cycles: 380788 heartbeat IPC: 4.906 cumulative IPC: 3.939 (Simulation time: 00 hr 00 min 06 sec)
Heartbeat CPU 0 instructions: 2000012 cycles: 483573 heartbeat IPC: 4.865 cumulative IPC: 4.136 (Simulation time: 00 hr 00 min 08 sec)
Heartbeat CPU 0 instructions: 2500016 cycles: 585710 heartbeat IPC: 4.895 cumulative IPC: 4.268 (Simulation time: 00 hr 00 min 10 sec)
Heartbeat CPU 0 instructions: 3000018 cycles: 688695 heartbeat IPC: 4.855 cumulative IPC: 4.356 (Simulation time: 00 hr 00 min 12 sec)
Heartbeat CPU 0 instructions: 3500018 cycles: 813541 heartbeat IPC: 4.005 cumulative IPC: 4.302 (Simulation time: 00 hr 00 min 14 sec)
Heartbeat CPU 0 instructions: 4000018 cycles: 919039 heartbeat IPC: 4.739 cumulative IPC: 4.352 (Simulation time: 00 hr 00 min 16 sec)
Heartbeat CPU 0 instructions: 4500025 cycles: 1035511 heartbeat IPC: 4.293 cumulative IPC: 4.346 (Simulation time: 00 hr 00 min 18 sec)
Heartbeat CPU 0 instructions: 5000030 cycles: 1171345 heartbeat IPC: 3.681 cumulative IPC: 4.269 (Simulation time: 00 hr 00 min 21 sec)
Heartbeat CPU 0 instructions: 5500037 cycles: 1297196 heartbeat IPC: 3.973 cumulative IPC: 4.24 (Simulation time: 00 hr 00 min 23 sec)
Heartbeat CPU 0 instructions: 6000042 cycles: 1411938 heartbeat IPC: 4.358 cumulative IPC: 4.25 (Simulation time: 00 hr 00 min 25 sec)
Heartbeat CPU 0 instructions: 6500045 cycles: 1513931 heartbeat IPC: 4.902 cumulative IPC: 4.293 (Simulation time: 00 hr 00 min 27 sec)
Heartbeat CPU 0 instructions: 7000046 cycles: 1637371 heartbeat IPC: 4.051 cumulative IPC: 4.275 (Simulation time: 00 hr 00 min 30 sec)
Heartbeat CPU 0 instructions: 7500051 cycles: 1761078 heartbeat IPC: 4.042 cumulative IPC: 4.259 (Simulation time: 00 hr 00 min 32 sec)
Heartbeat CPU 0 instructions: 8000053 cycles: 1885476 heartbeat IPC: 4.019 cumulative IPC: 4.243 (Simulation time: 00 hr 00 min 34 sec)
Heartbeat CPU 0 instructions: 8500056 cycles: 1999095 heartbeat IPC: 4.401 cumulative IPC: 4.252 (Simulation time: 00 hr 00 min 36 sec)
Heartbeat CPU 0 instructions: 9000062 cycles: 2113801 heartbeat IPC: 4.359 cumulative IPC: 4.258 (Simulation time: 00 hr 00 min 39 sec)
Heartbeat CPU 0 instructions: 9500064 cycles: 2225370 heartbeat IPC: 4.482 cumulative IPC: 4.269 (Simulation time: 00 hr 00 min 41 sec)
Heartbeat CPU 0 instructions: 10000066 cycles: 2345762 heartbeat IPC: 4.153 cumulative IPC: 4.263 (Simulation time: 00 hr 00 min 43 sec)
Heartbeat CPU 0 instructions: 10500071 cycles: 2470320 heartbeat IPC: 4.014 cumulative IPC: 4.25 (Simulation time: 00 hr 00 min 45 sec)
Heartbeat CPU 0 instructions: 11000077 cycles: 2573986 heartbeat IPC: 4.823 cumulative IPC: 4.274 (Simulation time: 00 hr 00 min 47 sec)
Heartbeat CPU 0 instructions: 11500083 cycles: 2674070 heartbeat IPC: 4.996 cumulative IPC: 4.301 (Simulation time: 00 hr 00 min 48 sec)
Heartbeat CPU 0 instructions: 12000090 cycles: 2774278 heartbeat IPC: 4.99 cumulative IPC: 4.325 (Simulation time: 00 hr 00 min 50 sec)
Heartbeat CPU 0 instructions: 12500093 cycles: 2874487 heartbeat IPC: 4.99 cumulative IPC: 4.349 (Simulation time: 00 hr 00 min 52 sec)
Heartbeat CPU 0 instructions: 13000093 cycles: 2974750 heartbeat IPC: 4.987 cumulative IPC: 4.37 (Simulation time: 00 hr 00 min 53 sec)
Heartbeat CPU 0 instructions: 13500099 cycles: 3075274 heartbeat IPC: 4.974 cumulative IPC: 4.39 (Simulation time: 00 hr 00 min 55 sec)
Heartbeat CPU 0 instructions: 14000101 cycles: 3176208 heartbeat IPC: 4.954 cumulative IPC: 4.408 (Simulation time: 00 hr 00 min 57 sec)
Heartbeat CPU 0 instructions: 14500104 cycles: 3284748 heartbeat IPC: 4.607 cumulative IPC: 4.414 (Simulation time: 00 hr 00 min 59 sec)
Heartbeat CPU 0 instructions: 15000110 cycles: 3418037 heartbeat IPC: 3.751 cumulative IPC: 4.389 (Simulation time: 00 hr 01 min 01 sec)
Heartbeat CPU 0 instructions: 15500116 cycles: 3542857 heartbeat IPC: 4.006 cumulative IPC: 4.375 (Simulation time: 00 hr 01 min 04 sec)
Heartbeat CPU 0 instructions: 16000123 cycles: 3668065 heartbeat IPC: 3.993 cumulative IPC: 4.362 (Simulation time: 00 hr 01 min 06 sec)
Heartbeat CPU 0 instructions: 16500123 cycles: 3792846 heartbeat IPC: 4.007 cumulative IPC: 4.35 (Simulation time: 00 hr 01 min 08 sec)
Heartbeat CPU 0 instructions: 17000124 cycles: 3918152 heartbeat IPC: 3.99 cumulative IPC: 4.339 (Simulation time: 00 hr 01 min 11 sec)
Heartbeat CPU 0 instructions: 17500126 cycles: 4042705 heartbeat IPC: 4.014 cumulative IPC: 4.329 (Simulation time: 00 hr 01 min 13 sec)
Heartbeat CPU 0 instructions: 18000131 cycles: 4184233 heartbeat IPC: 3.533 cumulative IPC: 4.302 (Simulation time: 00 hr 01 min 16 sec)
Heartbeat CPU 0 instructions: 18500135 cycles: 4312390 heartbeat IPC: 3.901 cumulative IPC: 4.29 (Simulation time: 00 hr 01 min 18 sec)
Heartbeat CPU 0 instructions: 19000139 cycles: 4419516 heartbeat IPC: 4.667 cumulative IPC: 4.299 (Simulation time: 00 hr 01 min 20 sec)
Heartbeat CPU 0 instructions: 19500144 cycles: 4538851 heartbeat IPC: 4.19 cumulative IPC: 4.296 (Simulation time: 00 hr 01 min 22 sec)
Heartbeat CPU 0 instructions: 20000147 cycles: 4664497 heartbeat IPC: 3.979 cumulative IPC: 4.288 (Simulation time: 00 hr 01 min 25 sec)
Heartbeat CPU 0 instructions: 20500152 cycles: 4776247 heartbeat IPC: 4.474 cumulative IPC: 4.292 (Simulation time: 00 hr 01 min 27 sec)
Heartbeat CPU 0 instructions: 21000158 cycles: 4880201 heartbeat IPC: 4.81 cumulative IPC: 4.303 (Simulation time: 00 hr 01 min 29 sec)
Heartbeat CPU 0 instructions: 21500159 cycles: 4991054 heartbeat IPC: 4.51 cumulative IPC: 4.308 (Simulation time: 00 hr 01 min 31 sec)
Heartbeat CPU 0 instructions: 22000163 cycles: 5092467 heartbeat IPC: 4.93 cumulative IPC: 4.32 (Simulation time: 00 hr 01 min 33 sec)
Heartbeat CPU 0 instructions: 22500170 cycles: 5202637 heartbeat IPC: 4.539 cumulative IPC: 4.325 (Simulation time: 00 hr 01 min 35 sec)
Heartbeat CPU 0 instructions: 23000175 cycles: 5315335 heartbeat IPC: 4.437 cumulative IPC: 4.327 (Simulation time: 00 hr 01 min 37 sec)
Heartbeat CPU 0 instructions: 23500180 cycles: 5417467 heartbeat IPC: 4.896 cumulative IPC: 4.338 (Simulation time: 00 hr 01 min 39 sec)
Heartbeat CPU 0 instructions: 24000181 cycles: 5545006 heartbeat IPC: 3.92 cumulative IPC: 4.328 (Simulation time: 00 hr 01 min 41 sec)
Heartbeat CPU 0 instructions: 24500188 cycles: 5646230 heartbeat IPC: 4.94 cumulative IPC: 4.339 (Simulation time: 00 hr 01 min 43 sec)
Heartbeat CPU 0 instructions: 25000193 cycles: 5747667 heartbeat IPC: 4.929 cumulative IPC: 4.35 (Simulation time: 00 hr 01 min 44 sec)
Heartbeat CPU 0 instructions: 25500199 cycles: 5849164 heartbeat IPC: 4.926 cumulative IPC: 4.36 (Simulation time: 00 hr 01 min 46 sec)
Heartbeat CPU 0 instructions: 26000203 cycles: 5951437 heartbeat IPC: 4.889 cumulative IPC: 4.369 (Simulation time: 00 hr 01 min 48 sec)
Heartbeat CPU 0 instructions: 26500204 cycles: 6060863 heartbeat IPC: 4.569 cumulative IPC: 4.372 (Simulation time: 00 hr 01 min 50 sec)
Heartbeat CPU 0 instructions: 27000204 cycles: 6174913 heartbeat IPC: 4.384 cumulative IPC: 4.373 (Simulation time: 00 hr 01 min 52 sec)
Heartbeat CPU 0 instructions: 27500207 cycles: 6304555 heartbeat IPC: 3.857 cumulative IPC: 4.362 (Simulation time: 00 hr 01 min 55 sec)
Heartbeat CPU 0 instructions: 28000211 cycles: 6418118 heartbeat IPC: 4.403 cumulative IPC: 4.363 (Simulation time: 00 hr 01 min 57 sec)
Heartbeat CPU 0 instructions: 28500213 cycles: 6537117 heartbeat IPC: 4.202 cumulative IPC: 4.36 (Simulation time: 00 hr 01 min 59 sec)
Heartbeat CPU 0 instructions: 29000220 cycles: 6659176 heartbeat IPC: 4.096 cumulative IPC: 4.355 (Simulation time: 00 hr 02 min 01 sec)
Heartbeat CPU 0 instructions: 29500223 cycles: 6762949 heartbeat IPC: 4.818 cumulative IPC: 4.362 (Simulation time: 00 hr 02 min 03 sec)
Heartbeat CPU 0 instructions: 30000223 cycles: 6882557 heartbeat IPC: 4.18 cumulative IPC: 4.359 (Simulation time: 00 hr 02 min 06 sec)
Heartbeat CPU 0 instructions: 30500229 cycles: 7002068 heartbeat IPC: 4.184 cumulative IPC: 4.356 (Simulation time: 00 hr 02 min 08 sec)
Heartbeat CPU 0 instructions: 31000229 cycles: 7126309 heartbeat IPC: 4.024 cumulative IPC: 4.35 (Simulation time: 00 hr 02 min 10 sec)
Heartbeat CPU 0 instructions: 31500234 cycles: 7255988 heartbeat IPC: 3.856 cumulative IPC: 4.341 (Simulation time: 00 hr 02 min 13 sec)
Heartbeat CPU 0 instructions: 32000234 cycles: 7379020 heartbeat IPC: 4.064 cumulative IPC: 4.337 (Simulation time: 00 hr 02 min 15 sec)
Heartbeat CPU 0 instructions: 32500239 cycles: 7486440 heartbeat IPC: 4.655 cumulative IPC: 4.341 (Simulation time: 00 hr 02 min 17 sec)
Heartbeat CPU 0 instructions: 33000239 cycles: 7615608 heartbeat IPC: 3.871 cumulative IPC: 4.333 (Simulation time: 00 hr 02 min 19 sec)
Heartbeat CPU 0 instructions: 33500242 cycles: 7738475 heartbeat IPC: 4.069 cumulative IPC: 4.329 (Simulation time: 00 hr 02 min 22 sec)
Heartbeat CPU 0 instructions: 34000249 cycles: 7839419 heartbeat IPC: 4.953 cumulative IPC: 4.337 (Simulation time: 00 hr 02 min 23 sec)
Heartbeat CPU 0 instructions: 34500250 cycles: 7941353 heartbeat IPC: 4.905 cumulative IPC: 4.344 (Simulation time: 00 hr 02 min 25 sec)
Heartbeat CPU 0 instructions: 35000254 cycles: 8061585 heartbeat IPC: 4.159 cumulative IPC: 4.342 (Simulation time: 00 hr 02 min 27 sec)
Heartbeat CPU 0 instructions: 35500256 cycles: 8172638 heartbeat IPC: 4.502 cumulative IPC: 4.344 (Simulation time: 00 hr 02 min 30 sec)
Heartbeat CPU 0 instructions: 36000256 cycles: 8293006 heartbeat IPC: 4.154 cumulative IPC: 4.341 (Simulation time: 00 hr 02 min 32 sec)
Heartbeat CPU 0 instructions: 36500260 cycles: 8416206 heartbeat IPC: 4.058 cumulative IPC: 4.337 (Simulation time: 00 hr 02 min 34 sec)
Heartbeat CPU 0 instructions: 37000262 cycles: 8519399 heartbeat IPC: 4.845 cumulative IPC: 4.343 (Simulation time: 00 hr 02 min 36 sec)
Heartbeat CPU 0 instructions: 37500268 cycles: 8634059 heartbeat IPC: 4.361 cumulative IPC: 4.343 (Simulation time: 00 hr 02 min 38 sec)
Heartbeat CPU 0 instructions: 38000273 cycles: 8752894 heartbeat IPC: 4.208 cumulative IPC: 4.341 (Simulation time: 00 hr 02 min 40 sec)
Heartbeat CPU 0 instructions: 38500277 cycles: 8882958 heartbeat IPC: 3.844 cumulative IPC: 4.334 (Simulation time: 00 hr 02 min 43 sec)
Heartbeat CPU 0 instructions: 39000279 cycles: 9007793 heartbeat IPC: 4.005 cumulative IPC: 4.33 (Simulation time: 00 hr 02 min 45 sec)
Heartbeat CPU 0 instructions: 39500283 cycles: 9109694 heartbeat IPC: 4.907 cumulative IPC: 4.336 (Simulation time: 00 hr 02 min 47 sec)
Heartbeat CPU 0 instructions: 40000284 cycles: 9212717 heartbeat IPC: 4.853 cumulative IPC: 4.342 (Simulation time: 00 hr 02 min 49 sec)
Heartbeat CPU 0 instructions: 40500290 cycles: 9336653 heartbeat IPC: 4.034 cumulative IPC: 4.338 (Simulation time: 00 hr 02 min 51 sec)
Heartbeat CPU 0 instructions: 41000292 cycles: 9459323 heartbeat IPC: 4.076 cumulative IPC: 4.334 (Simulation time: 00 hr 02 min 54 sec)
Heartbeat CPU 0 instructions: 41500293 cycles: 9591931 heartbeat IPC: 3.771 cumulative IPC: 4.327 (Simulation time: 00 hr 02 min 56 sec)
Heartbeat CPU 0 instructions: 42000297 cycles: 9717069 heartbeat IPC: 3.996 cumulative IPC: 4.322 (Simulation time: 00 hr 02 min 59 sec)
Heartbeat CPU 0 instructions: 42500303 cycles: 9839551 heartbeat IPC: 4.082 cumulative IPC: 4.319 (Simulation time: 00 hr 03 min 01 sec)
Heartbeat CPU 0 instructions: 43000310 cycles: 9951705 heartbeat IPC: 4.458 cumulative IPC: 4.321 (Simulation time: 00 hr 03 min 03 sec)
Heartbeat CPU 0 instructions: 43500312 cycles: 10064669 heartbeat IPC: 4.426 cumulative IPC: 4.322 (Simulation time: 00 hr 03 min 05 sec)
Heartbeat CPU 0 instructions: 44000312 cycles: 10173079 heartbeat IPC: 4.612 cumulative IPC: 4.325 (Simulation time: 00 hr 03 min 07 sec)
Heartbeat CPU 0 instructions: 44500312 cycles: 10303065 heartbeat IPC: 3.847 cumulative IPC: 4.319 (Simulation time: 00 hr 03 min 10 sec)
Heartbeat CPU 0 instructions: 45000317 cycles: 10407049 heartbeat IPC: 4.808 cumulative IPC: 4.324 (Simulation time: 00 hr 03 min 12 sec)
Heartbeat CPU 0 instructions: 45500324 cycles: 10532820 heartbeat IPC: 3.976 cumulative IPC: 4.32 (Simulation time: 00 hr 03 min 14 sec)
Heartbeat CPU 0 instructions: 46000326 cycles: 10642266 heartbeat IPC: 4.568 cumulative IPC: 4.322 (Simulation time: 00 hr 03 min 16 sec)
Heartbeat CPU 0 instructions: 46500326 cycles: 10742327 heartbeat IPC: 4.997 cumulative IPC: 4.329 (Simulation time: 00 hr 03 min 18 sec)
Heartbeat CPU 0 instructions: 47000332 cycles: 10842462 heartbeat IPC: 4.993 cumulative IPC: 4.335 (Simulation time: 00 hr 03 min 19 sec)
Heartbeat CPU 0 instructions: 47500336 cycles: 10942481 heartbeat IPC: 4.999 cumulative IPC: 4.341 (Simulation time: 00 hr 03 min 21 sec)
Heartbeat CPU 0 instructions: 48000343 cycles: 11042642 heartbeat IPC: 4.992 cumulative IPC: 4.347 (Simulation time: 00 hr 03 min 22 sec)
Heartbeat CPU 0 instructions: 48500350 cycles: 11142666 heartbeat IPC: 4.999 cumulative IPC: 4.353 (Simulation time: 00 hr 03 min 24 sec)
Heartbeat CPU 0 instructions: 49000355 cycles: 11242706 heartbeat IPC: 4.998 cumulative IPC: 4.358 (Simulation time: 00 hr 03 min 26 sec)
Heartbeat CPU 0 instructions: 49500355 cycles: 11342712 heartbeat IPC: 5 cumulative IPC: 4.364 (Simulation time: 00 hr 03 min 27 sec)
Warmup halting CPU 0 at instruction 50000007 cycle 11442691 for remainder of phase
Warmup finished CPU 0 instructions: 50000007 cycles: 11442691 cumulative IPC: 4.37 (Simulation time: 00 hr 03 min 29 sec)
Warmup complete CPU 0 instructions: 50000007 cycles: 11442691 cumulative IPC: 4.37 (Simulation time: 00 hr 03 min 29 sec)
Heartbeat CPU 0 instructions: 50000359 cycles: 11442924 heartbeat IPC: 4.989 cumulative IPC: 1.511 (Simulation time: 00 hr 03 min 29 sec)
Heartbeat CPU 0 instructions: 50500361 cycles: 11824703 heartbeat IPC: 1.31 cumulative IPC: 1.31 (Simulation time: 00 hr 03 min 32 sec)
Heartbeat CPU 0 instructions: 51000367 cycles: 12198513 heartbeat IPC: 1.338 cumulative IPC: 1.324 (Simulation time: 00 hr 03 min 35 sec)
Heartbeat CPU 0 instructions: 51500368 cycles: 12585966 heartbeat IPC: 1.29 cumulative IPC: 1.312 (Simulation time: 00 hr 03 min 38 sec)
Heartbeat CPU 0 instructions: 52000368 cycles: 12964413 heartbeat IPC: 1.321 cumulative IPC: 1.315 (Simulation time: 00 hr 03 min 41 sec)
Heartbeat CPU 0 instructions: 52500369 cycles: 13358068 heartbeat IPC: 1.27 cumulative IPC: 1.305 (Simulation time: 00 hr 03 min 45 sec)
Heartbeat CPU 0 instructions: 53000370 cycles: 13744321 heartbeat IPC: 1.294 cumulative IPC: 1.304 (Simulation time: 00 hr 03 min 48 sec)
Heartbeat CPU 0 instructions: 53500373 cycles: 14137174 heartbeat IPC: 1.273 cumulative IPC: 1.299 (Simulation time: 00 hr 03 min 51 sec)
Heartbeat CPU 0 instructions: 54000378 cycles: 14522372 heartbeat IPC: 1.298 cumulative IPC: 1.299 (Simulation time: 00 hr 03 min 54 sec)
Heartbeat CPU 0 instructions: 54500378 cycles: 14911413 heartbeat IPC: 1.285 cumulative IPC: 1.297 (Simulation time: 00 hr 03 min 57 sec)
Heartbeat CPU 0 instructions: 55000381 cycles: 15297189 heartbeat IPC: 1.296 cumulative IPC: 1.297 (Simulation time: 00 hr 04 min 00 sec)
Heartbeat CPU 0 instructions: 55500381 cycles: 15686578 heartbeat IPC: 1.284 cumulative IPC: 1.296 (Simulation time: 00 hr 04 min 04 sec)
Heartbeat CPU 0 instructions: 56000388 cycles: 16064375 heartbeat IPC: 1.323 cumulative IPC: 1.298 (Simulation time: 00 hr 04 min 07 sec)
Heartbeat CPU 0 instructions: 56500388 cycles: 16496642 heartbeat IPC: 1.157 cumulative IPC: 1.286 (Simulation time: 00 hr 04 min 10 sec)
Heartbeat CPU 0 instructions: 57000390 cycles: 17155601 heartbeat IPC: 0.7588 cumulative IPC: 1.225 (Simulation time: 00 hr 04 min 15 sec)
Heartbeat CPU 0 instructions: 57500395 cycles: 17635222 heartbeat IPC: 1.043 cumulative IPC: 1.211 (Simulation time: 00 hr 04 min 19 sec)
Heartbeat CPU 0 instructions: 58000395 cycles: 18009815 heartbeat IPC: 1.335 cumulative IPC: 1.218 (Simulation time: 00 hr 04 min 22 sec)
Heartbeat CPU 0 instructions: 58500395 cycles: 18915043 heartbeat IPC: 0.5523 cumulative IPC: 1.138 (Simulation time: 00 hr 04 min 29 sec)
Heartbeat CPU 0 instructions: 59000395 cycles: 19278079 heartbeat IPC: 1.377 cumulative IPC: 1.149 (Simulation time: 00 hr 04 min 32 sec)
Heartbeat CPU 0 instructions: 59500395 cycles: 20044372 heartbeat IPC: 0.6525 cumulative IPC: 1.104 (Simulation time: 00 hr 04 min 38 sec)
Heartbeat CPU 0 instructions: 60000400 cycles: 20424813 heartbeat IPC: 1.314 cumulative IPC: 1.113 (Simulation time: 00 hr 04 min 41 sec)
Heartbeat CPU 0 instructions: 60500402 cycles: 21330579 heartbeat IPC: 0.552 cumulative IPC: 1.062 (Simulation time: 00 hr 04 min 48 sec)
Heartbeat CPU 0 instructions: 61000403 cycles: 22651622 heartbeat IPC: 0.3785 cumulative IPC: 0.9814 (Simulation time: 00 hr 04 min 59 sec)
Heartbeat CPU 0 instructions: 61500407 cycles: 23037079 heartbeat IPC: 1.297 cumulative IPC: 0.9919 (Simulation time: 00 hr 05 min 02 sec)
Heartbeat CPU 0 instructions: 62000411 cycles: 23815686 heartbeat IPC: 0.6422 cumulative IPC: 0.9699 (Simulation time: 00 hr 05 min 08 sec)
Heartbeat CPU 0 instructions: 62500417 cycles: 24195188 heartbeat IPC: 1.318 cumulative IPC: 0.9802 (Simulation time: 00 hr 05 min 11 sec)
Heartbeat CPU 0 instructions: 63000422 cycles: 24751483 heartbeat IPC: 0.8988 cumulative IPC: 0.9768 (Simulation time: 00 hr 05 min 15 sec)
Heartbeat CPU 0 instructions: 63500422 cycles: 25482737 heartbeat IPC: 0.6838 cumulative IPC: 0.9616 (Simulation time: 00 hr 05 min 21 sec)
Heartbeat CPU 0 instructions: 64000423 cycles: 26235848 heartbeat IPC: 0.6639 cumulative IPC: 0.9464 (Simulation time: 00 hr 05 min 27 sec)
Heartbeat CPU 0 instructions: 64500424 cycles: 26590544 heartbeat IPC: 1.41 cumulative IPC: 0.9573 (Simulation time: 00 hr 05 min 30 sec)
Heartbeat CPU 0 instructions: 65000424 cycles: 27278777 heartbeat IPC: 0.7265 cumulative IPC: 0.9472 (Simulation time: 00 hr 05 min 35 sec)
Heartbeat CPU 0 instructions: 65500428 cycles: 28025807 heartbeat IPC: 0.6693 cumulative IPC: 0.9347 (Simulation time: 00 hr 05 min 41 sec)
Heartbeat CPU 0 instructions: 66000429 cycles: 28929000 heartbeat IPC: 0.5536 cumulative IPC: 0.915 (Simulation time: 00 hr 05 min 48 sec)
Heartbeat CPU 0 instructions: 66500433 cycles: 29305682 heartbeat IPC: 1.327 cumulative IPC: 0.9237 (Simulation time: 00 hr 05 min 51 sec)
Heartbeat CPU 0 instructions: 67000436 cycles: 29676833 heartbeat IPC: 1.347 cumulative IPC: 0.9323 (Simulation time: 00 hr 05 min 54 sec)
Heartbeat CPU 0 instructions: 67500442 cycles: 30215701 heartbeat IPC: 0.9279 cumulative IPC: 0.9322 (Simulation time: 00 hr 05 min 58 sec)
Heartbeat CPU 0 instructions: 68000445 cycles: 30792722 heartbeat IPC: 0.8665 cumulative IPC: 0.9303 (Simulation time: 00 hr 06 min 03 sec)
Heartbeat CPU 0 instructions: 68500445 cycles: 31164043 heartbeat IPC: 1.347 cumulative IPC: 0.9381 (Simulation time: 00 hr 06 min 06 sec)
Heartbeat CPU 0 instructions: 69000446 cycles: 31940600 heartbeat IPC: 0.6439 cumulative IPC: 0.9269 (Simulation time: 00 hr 06 min 12 sec)
Heartbeat CPU 0 instructions: 69500447 cycles: 32711676 heartbeat IPC: 0.6484 cumulative IPC: 0.9168 (Simulation time: 00 hr 06 min 18 sec)
Heartbeat CPU 0 instructions: 70000447 cycles: 33090585 heartbeat IPC: 1.32 cumulative IPC: 0.9239 (Simulation time: 00 hr 06 min 21 sec)
Heartbeat CPU 0 instructions: 70500447 cycles: 33464837 heartbeat IPC: 1.336 cumulative IPC: 0.9309 (Simulation time: 00 hr 06 min 24 sec)
Heartbeat CPU 0 instructions: 71000453 cycles: 34011190 heartbeat IPC: 0.9152 cumulative IPC: 0.9305 (Simulation time: 00 hr 06 min 28 sec)
Heartbeat CPU 0 instructions: 71500453 cycles: 34623092 heartbeat IPC: 0.8171 cumulative IPC: 0.9275 (Simulation time: 00 hr 06 min 33 sec)
Heartbeat CPU 0 instructions: 72000455 cycles: 35561293 heartbeat IPC: 0.5329 cumulative IPC: 0.9122 (Simulation time: 00 hr 06 min 40 sec)
Heartbeat CPU 0 instructions: 72500456 cycles: 35950625 heartbeat IPC: 1.284 cumulative IPC: 0.9181 (Simulation time: 00 hr 06 min 43 sec)
Heartbeat CPU 0 instructions: 73000457 cycles: 36346683 heartbeat IPC: 1.262 cumulative IPC: 0.9236 (Simulation time: 00 hr 06 min 47 sec)
Heartbeat CPU 0 instructions: 73500459 cycles: 36882574 heartbeat IPC: 0.933 cumulative IPC: 0.9238 (Simulation time: 00 hr 06 min 51 sec)
Heartbeat CPU 0 instructions: 74000462 cycles: 37687819 heartbeat IPC: 0.6209 cumulative IPC: 0.9145 (Simulation time: 00 hr 06 min 57 sec)
Heartbeat CPU 0 instructions: 74500465 cycles: 38408914 heartbeat IPC: 0.6934 cumulative IPC: 0.9086 (Simulation time: 00 hr 07 min 03 sec)
Heartbeat CPU 0 instructions: 75000468 cycles: 39511432 heartbeat IPC: 0.4535 cumulative IPC: 0.8907 (Simulation time: 00 hr 07 min 11 sec)
Heartbeat CPU 0 instructions: 75500470 cycles: 40448601 heartbeat IPC: 0.5335 cumulative IPC: 0.8791 (Simulation time: 00 hr 07 min 18 sec)
Heartbeat CPU 0 instructions: 76000471 cycles: 40847647 heartbeat IPC: 1.253 cumulative IPC: 0.8842 (Simulation time: 00 hr 07 min 22 sec)
Heartbeat CPU 0 instructions: 76500473 cycles: 41233483 heartbeat IPC: 1.296 cumulative IPC: 0.8896 (Simulation time: 00 hr 07 min 25 sec)
Heartbeat CPU 0 instructions: 77000475 cycles: 41622465 heartbeat IPC: 1.285 cumulative IPC: 0.8947 (Simulation time: 00 hr 07 min 28 sec)
Heartbeat CPU 0 instructions: 77500481 cycles: 42019904 heartbeat IPC: 1.258 cumulative IPC: 0.8994 (Simulation time: 00 hr 07 min 31 sec)
Heartbeat CPU 0 instructions: 78000481 cycles: 42408754 heartbeat IPC: 1.286 cumulative IPC: 0.9042 (Simulation time: 00 hr 07 min 34 sec)
Heartbeat CPU 0 instructions: 78500481 cycles: 42791153 heartbeat IPC: 1.308 cumulative IPC: 0.9092 (Simulation time: 00 hr 07 min 37 sec)
Heartbeat CPU 0 instructions: 79000483 cycles: 43165573 heartbeat IPC: 1.335 cumulative IPC: 0.9142 (Simulation time: 00 hr 07 min 40 sec)
Heartbeat CPU 0 instructions: 79500487 cycles: 43522731 heartbeat IPC: 1.4 cumulative IPC: 0.9196 (Simulation time: 00 hr 07 min 43 sec)
Heartbeat CPU 0 instructions: 80000490 cycles: 44168215 heartbeat IPC: 0.7746 cumulative IPC: 0.9167 (Simulation time: 00 hr 07 min 49 sec)
Heartbeat CPU 0 instructions: 80500490 cycles: 44817978 heartbeat IPC: 0.7695 cumulative IPC: 0.9139 (Simulation time: 00 hr 07 min 53 sec)
Heartbeat CPU 0 instructions: 81000496 cycles: 45523305 heartbeat IPC: 0.7089 cumulative IPC: 0.9096 (Simulation time: 00 hr 07 min 59 sec)
Heartbeat CPU 0 instructions: 81500501 cycles: 46241112 heartbeat IPC: 0.6966 cumulative IPC: 0.9052 (Simulation time: 00 hr 08 min 04 sec)
Heartbeat CPU 0 instructions: 82000502 cycles: 46638146 heartbeat IPC: 1.259 cumulative IPC: 0.9092 (Simulation time: 00 hr 08 min 08 sec)
Heartbeat CPU 0 instructions: 82500507 cycles: 47022159 heartbeat IPC: 1.302 cumulative IPC: 0.9135 (Simulation time: 00 hr 08 min 11 sec)
Heartbeat CPU 0 instructions: 83000509 cycles: 47576255 heartbeat IPC: 0.9024 cumulative IPC: 0.9133 (Simulation time: 00 hr 08 min 15 sec)
Heartbeat CPU 0 instructions: 83500510 cycles: 48324952 heartbeat IPC: 0.6678 cumulative IPC: 0.9083 (Simulation time: 00 hr 08 min 21 sec)
Heartbeat CPU 0 instructions: 84000514 cycles: 48899872 heartbeat IPC: 0.8697 cumulative IPC: 0.9077 (Simulation time: 00 hr 08 min 26 sec)
Heartbeat CPU 0 instructions: 84500516 cycles: 49271838 heartbeat IPC: 1.344 cumulative IPC: 0.912 (Simulation time: 00 hr 08 min 29 sec)
Heartbeat CPU 0 instructions: 85000522 cycles: 49819652 heartbeat IPC: 0.9127 cumulative IPC: 0.912 (Simulation time: 00 hr 08 min 33 sec)
Heartbeat CPU 0 instructions: 85500527 cycles: 50395799 heartbeat IPC: 0.8678 cumulative IPC: 0.9114 (Simulation time: 00 hr 08 min 37 sec)
Heartbeat CPU 0 instructions: 86000527 cycles: 50766726 heartbeat IPC: 1.348 cumulative IPC: 0.9155 (Simulation time: 00 hr 08 min 41 sec)
Heartbeat CPU 0 instructions: 86500534 cycles: 51315110 heartbeat IPC: 0.9118 cumulative IPC: 0.9154 (Simulation time: 00 hr 08 min 45 sec)
Heartbeat CPU 0 instructions: 87000540 cycles: 51893537 heartbeat IPC: 0.8644 cumulative IPC: 0.9147 (Simulation time: 00 hr 08 min 50 sec)
Heartbeat CPU 0 instructions: 87500545 cycles: 52283443 heartbeat IPC: 1.282 cumulative IPC: 0.9182 (Simulation time: 00 hr 08 min 53 sec)
Heartbeat CPU 0 instructions: 88000545 cycles: 53292415 heartbeat IPC: 0.4956 cumulative IPC: 0.908 (Simulation time: 00 hr 09 min 01 sec)
Heartbeat CPU 0 instructions: 88500545 cycles: 54359085 heartbeat IPC: 0.4687 cumulative IPC: 0.8971 (Simulation time: 00 hr 09 min 09 sec)
Heartbeat CPU 0 instructions: 89000546 cycles: 54959383 heartbeat IPC: 0.8329 cumulative IPC: 0.8962 (Simulation time: 00 hr 09 min 14 sec)
Heartbeat CPU 0 instructions: 89500546 cycles: 55342521 heartbeat IPC: 1.305 cumulative IPC: 0.8998 (Simulation time: 00 hr 09 min 17 sec)
Heartbeat CPU 0 instructions: 90000548 cycles: 55723873 heartbeat IPC: 1.311 cumulative IPC: 0.9033 (Simulation time: 00 hr 09 min 20 sec)
Heartbeat CPU 0 instructions: 90500549 cycles: 56292120 heartbeat IPC: 0.8799 cumulative IPC: 0.903 (Simulation time: 00 hr 09 min 24 sec)
Heartbeat CPU 0 instructions: 91000551 cycles: 57078712 heartbeat IPC: 0.6357 cumulative IPC: 0.8984 (Simulation time: 00 hr 09 min 31 sec)
Heartbeat CPU 0 instructions: 91500553 cycles: 57601683 heartbeat IPC: 0.9561 cumulative IPC: 0.8991 (Simulation time: 00 hr 09 min 35 sec)
Heartbeat CPU 0 instructions: 92000553 cycles: 57995804 heartbeat IPC: 1.269 cumulative IPC: 0.9022 (Simulation time: 00 hr 09 min 38 sec)
Heartbeat CPU 0 instructions: 92500554 cycles: 58665495 heartbeat IPC: 0.7466 cumulative IPC: 0.9 (Simulation time: 00 hr 09 min 43 sec)
Heartbeat CPU 0 instructions: 93000557 cycles: 59097333 heartbeat IPC: 1.158 cumulative IPC: 0.9023 (Simulation time: 00 hr 09 min 47 sec)
Heartbeat CPU 0 instructions: 93500562 cycles: 59668866 heartbeat IPC: 0.8748 cumulative IPC: 0.902 (Simulation time: 00 hr 09 min 51 sec)
Heartbeat CPU 0 instructions: 94000562 cycles: 60230105 heartbeat IPC: 0.8909 cumulative IPC: 0.9019 (Simulation time: 00 hr 09 min 56 sec)
Heartbeat CPU 0 instructions: 94500569 cycles: 61078550 heartbeat IPC: 0.5893 cumulative IPC: 0.8965 (Simulation time: 00 hr 10 min 02 sec)
Heartbeat CPU 0 instructions: 95000575 cycles: 61782659 heartbeat IPC: 0.7101 cumulative IPC: 0.8939 (Simulation time: 00 hr 10 min 08 sec)
Heartbeat CPU 0 instructions: 95500575 cycles: 62691534 heartbeat IPC: 0.5501 cumulative IPC: 0.8878 (Simulation time: 00 hr 10 min 15 sec)
Heartbeat CPU 0 instructions: 96000576 cycles: 63407982 heartbeat IPC: 0.6979 cumulative IPC: 0.8852 (Simulation time: 00 hr 10 min 20 sec)
Heartbeat CPU 0 instructions: 96500578 cycles: 64491621 heartbeat IPC: 0.4614 cumulative IPC: 0.8766 (Simulation time: 00 hr 10 min 29 sec)
Heartbeat CPU 0 instructions: 97000578 cycles: 65236353 heartbeat IPC: 0.6714 cumulative IPC: 0.8737 (Simulation time: 00 hr 10 min 35 sec)
Heartbeat CPU 0 instructions: 97500580 cycles: 65810900 heartbeat IPC: 0.8703 cumulative IPC: 0.8737 (Simulation time: 00 hr 10 min 39 sec)
Heartbeat CPU 0 instructions: 98000580 cycles: 66685933 heartbeat IPC: 0.5714 cumulative IPC: 0.8689 (Simulation time: 00 hr 10 min 46 sec)
Heartbeat CPU 0 instructions: 98500583 cycles: 67394182 heartbeat IPC: 0.706 cumulative IPC: 0.8668 (Simulation time: 00 hr 10 min 52 sec)
Heartbeat CPU 0 instructions: 99000587 cycles: 67972851 heartbeat IPC: 0.8641 cumulative IPC: 0.8668 (Simulation time: 00 hr 10 min 56 sec)
Heartbeat CPU 0 instructions: 99500591 cycles: 68325405 heartbeat IPC: 1.418 cumulative IPC: 0.8702 (Simulation time: 00 hr 10 min 59 sec)
Heartbeat CPU 0 instructions: 100000591 cycles: 68901404 heartbeat IPC: 0.8681 cumulative IPC: 0.8702 (Simulation time: 00 hr 11 min 04 sec)
Heartbeat CPU 0 instructions: 100500596 cycles: 69534909 heartbeat IPC: 0.7893 cumulative IPC: 0.8693 (Simulation time: 00 hr 11 min 09 sec)
Heartbeat CPU 0 instructions: 101000596 cycles: 70262348 heartbeat IPC: 0.6873 cumulative IPC: 0.8671 (Simulation time: 00 hr 11 min 15 sec)
Heartbeat CPU 0 instructions: 101500596 cycles: 70655631 heartbeat IPC: 1.271 cumulative IPC: 0.8698 (Simulation time: 00 hr 11 min 18 sec)
Heartbeat CPU 0 instructions: 102000596 cycles: 71033788 heartbeat IPC: 1.322 cumulative IPC: 0.8726 (Simulation time: 00 hr 11 min 21 sec)
Heartbeat CPU 0 instructions: 102500598 cycles: 71866065 heartbeat IPC: 0.6008 cumulative IPC: 0.8689 (Simulation time: 00 hr 11 min 27 sec)
Heartbeat CPU 0 instructions: 103000603 cycles: 72424788 heartbeat IPC: 0.8949 cumulative IPC: 0.8691 (Simulation time: 00 hr 11 min 32 sec)
Heartbeat CPU 0 instructions: 103500605 cycles: 72989912 heartbeat IPC: 0.8848 cumulative IPC: 0.8693 (Simulation time: 00 hr 11 min 36 sec)
Heartbeat CPU 0 instructions: 104000608 cycles: 74015849 heartbeat IPC: 0.4874 cumulative IPC: 0.863 (Simulation time: 00 hr 11 min 44 sec)
Heartbeat CPU 0 instructions: 104500610 cycles: 74741608 heartbeat IPC: 0.6889 cumulative IPC: 0.861 (Simulation time: 00 hr 11 min 50 sec)
Heartbeat CPU 0 instructions: 105000611 cycles: 75435351 heartbeat IPC: 0.7207 cumulative IPC: 0.8595 (Simulation time: 00 hr 11 min 56 sec)
Heartbeat CPU 0 instructions: 105500612 cycles: 76159025 heartbeat IPC: 0.6909 cumulative IPC: 0.8576 (Simulation time: 00 hr 12 min 01 sec)
Heartbeat CPU 0 instructions: 106000612 cycles: 76531902 heartbeat IPC: 1.341 cumulative IPC: 0.8604 (Simulation time: 00 hr 12 min 04 sec)
Heartbeat CPU 0 instructions: 106500612 cycles: 77056871 heartbeat IPC: 0.9524 cumulative IPC: 0.8611 (Simulation time: 00 hr 12 min 09 sec)
Heartbeat CPU 0 instructions: 107000614 cycles: 77795824 heartbeat IPC: 0.6766 cumulative IPC: 0.859 (Simulation time: 00 hr 12 min 14 sec)
Heartbeat CPU 0 instructions: 107500617 cycles: 78340557 heartbeat IPC: 0.9179 cumulative IPC: 0.8595 (Simulation time: 00 hr 12 min 19 sec)
Heartbeat CPU 0 instructions: 108000621 cycles: 78731870 heartbeat IPC: 1.278 cumulative IPC: 0.862 (Simulation time: 00 hr 12 min 22 sec)
Heartbeat CPU 0 instructions: 108500621 cycles: 79256221 heartbeat IPC: 0.9536 cumulative IPC: 0.8627 (Simulation time: 00 hr 12 min 26 sec)
Heartbeat CPU 0 instructions: 109000622 cycles: 79638364 heartbeat IPC: 1.308 cumulative IPC: 0.8652 (Simulation time: 00 hr 12 min 29 sec)
Heartbeat CPU 0 instructions: 109500627 cycles: 80372243 heartbeat IPC: 0.6813 cumulative IPC: 0.8632 (Simulation time: 00 hr 12 min 35 sec)
Heartbeat CPU 0 instructions: 110000627 cycles: 81235146 heartbeat IPC: 0.5794 cumulative IPC: 0.8597 (Simulation time: 00 hr 12 min 42 sec)
Heartbeat CPU 0 instructions: 110500627 cycles: 82103273 heartbeat IPC: 0.576 cumulative IPC: 0.8562 (Simulation time: 00 hr 12 min 49 sec)
Heartbeat CPU 0 instructions: 111000628 cycles: 82951294 heartbeat IPC: 0.5896 cumulative IPC: 0.8531 (Simulation time: 00 hr 12 min 56 sec)
Heartbeat CPU 0 instructions: 111500632 cycles: 83771192 heartbeat IPC: 0.6098 cumulative IPC: 0.8503 (Simulation time: 00 hr 13 min 02 sec)
Heartbeat CPU 0 instructions: 112000635 cycles: 84309779 heartbeat IPC: 0.9284 cumulative IPC: 0.8509 (Simulation time: 00 hr 13 min 06 sec)
Heartbeat CPU 0 instructions: 112500638 cycles: 85221402 heartbeat IPC: 0.5485 cumulative IPC: 0.8471 (Simulation time: 00 hr 13 min 14 sec)
Heartbeat CPU 0 instructions: 113000639 cycles: 85824664 heartbeat IPC: 0.8288 cumulative IPC: 0.847 (Simulation time: 00 hr 13 min 18 sec)
Heartbeat CPU 0 instructions: 113500640 cycles: 86625701 heartbeat IPC: 0.6242 cumulative IPC: 0.8446 (Simulation time: 00 hr 13 min 25 sec)
Heartbeat CPU 0 instructions: 114000644 cycles: 87006849 heartbeat IPC: 1.312 cumulative IPC: 0.847 (Simulation time: 00 hr 13 min 28 sec)
Heartbeat CPU 0 instructions: 114500650 cycles: 87379777 heartbeat IPC: 1.341 cumulative IPC: 0.8494 (Simulation time: 00 hr 13 min 31 sec)
Heartbeat CPU 0 instructions: 115000656 cycles: 87887220 heartbeat IPC: 0.9853 cumulative IPC: 0.8503 (Simulation time: 00 hr 13 min 35 sec)
Heartbeat CPU 0 instructions: 115500656 cycles: 88405597 heartbeat IPC: 0.9645 cumulative IPC: 0.8511 (Simulation time: 00 hr 13 min 39 sec)
Heartbeat CPU 0 instructions: 116000657 cycles: 88780742 heartbeat IPC: 1.333 cumulative IPC: 0.8534 (Simulation time: 00 hr 13 min 42 sec)
Heartbeat CPU 0 instructions: 116500657 cycles: 89625300 heartbeat IPC: 0.592 cumulative IPC: 0.8506 (Simulation time: 00 hr 13 min 49 sec)
Heartbeat CPU 0 instructions: 117000657 cycles: 90017799 heartbeat IPC: 1.274 cumulative IPC: 0.8527 (Simulation time: 00 hr 13 min 52 sec)
Heartbeat CPU 0 instructions: 117500661 cycles: 90419196 heartbeat IPC: 1.246 cumulative IPC: 0.8547 (Simulation time: 00 hr 13 min 55 sec)
Heartbeat CPU 0 instructions: 118000666 cycles: 90813507 heartbeat IPC: 1.268 cumulative IPC: 0.8567 (Simulation time: 00 hr 13 min 58 sec)
Heartbeat CPU 0 instructions: 118500668 cycles: 91375874 heartbeat IPC: 0.8891 cumulative IPC: 0.857 (Simulation time: 00 hr 14 min 03 sec)
Heartbeat CPU 0 instructions: 119000668 cycles: 91757212 heartbeat IPC: 1.311 cumulative IPC: 0.8591 (Simulation time: 00 hr 14 min 06 sec)
Heartbeat CPU 0 instructions: 119500670 cycles: 92150474 heartbeat IPC: 1.271 cumulative IPC: 0.8611 (Simulation time: 00 hr 14 min 09 sec)
Heartbeat CPU 0 instructions: 120000670 cycles: 92549030 heartbeat IPC: 1.255 cumulative IPC: 0.8631 (Simulation time: 00 hr 14 min 12 sec)
Heartbeat CPU 0 instructions: 120500671 cycles: 92943068 heartbeat IPC: 1.269 cumulative IPC: 0.865 (Simulation time: 00 hr 14 min 15 sec)
Heartbeat CPU 0 instructions: 121000672 cycles: 93344063 heartbeat IPC: 1.247 cumulative IPC: 0.8669 (Simulation time: 00 hr 14 min 19 sec)
Heartbeat CPU 0 instructions: 121500674 cycles: 93743133 heartbeat IPC: 1.253 cumulative IPC: 0.8688 (Simulation time: 00 hr 14 min 22 sec)
Heartbeat CPU 0 instructions: 122000676 cycles: 94137641 heartbeat IPC: 1.267 cumulative IPC: 0.8707 (Simulation time: 00 hr 14 min 25 sec)
Heartbeat CPU 0 instructions: 122500682 cycles: 94525915 heartbeat IPC: 1.288 cumulative IPC: 0.8726 (Simulation time: 00 hr 14 min 28 sec)
Heartbeat CPU 0 instructions: 123000685 cycles: 94915180 heartbeat IPC: 1.284 cumulative IPC: 0.8745 (Simulation time: 00 hr 14 min 31 sec)
Heartbeat CPU 0 instructions: 123500690 cycles: 95302118 heartbeat IPC: 1.292 cumulative IPC: 0.8765 (Simulation time: 00 hr 14 min 34 sec)
Heartbeat CPU 0 instructions: 124000690 cycles: 95681581 heartbeat IPC: 1.318 cumulative IPC: 0.8785 (Simulation time: 00 hr 14 min 37 sec)
Heartbeat CPU 0 instructions: 124500693 cycles: 96239836 heartbeat IPC: 0.8957 cumulative IPC: 0.8786 (Simulation time: 00 hr 14 min 42 sec)
Heartbeat CPU 0 instructions: 125000700 cycles: 97049597 heartbeat IPC: 0.6175 cumulative IPC: 0.8761 (Simulation time: 00 hr 14 min 48 sec)
Heartbeat CPU 0 instructions: 125500700 cycles: 97707557 heartbeat IPC: 0.7599 cumulative IPC: 0.8752 (Simulation time: 00 hr 14 min 54 sec)
Heartbeat CPU 0 instructions: 126000700 cycles: 98092473 heartbeat IPC: 1.299 cumulative IPC: 0.8771 (Simulation time: 00 hr 14 min 57 sec)
Heartbeat CPU 0 instructions: 126500706 cycles: 98705776 heartbeat IPC: 0.8153 cumulative IPC: 0.8767 (Simulation time: 00 hr 15 min 02 sec)
Heartbeat CPU 0 instructions: 127000707 cycles: 99219194 heartbeat IPC: 0.9739 cumulative IPC: 0.8772 (Simulation time: 00 hr 15 min 06 sec)
Heartbeat CPU 0 instructions: 127500707 cycles: 99611011 heartbeat IPC: 1.276 cumulative IPC: 0.879 (Simulation time: 00 hr 15 min 09 sec)
Heartbeat CPU 0 instructions: 128000708 cycles: 100006232 heartbeat IPC: 1.265 cumulative IPC: 0.8807 (Simulation time: 00 hr 15 min 12 sec)
Heartbeat CPU 0 instructions: 128500713 cycles: 100392261 heartbeat IPC: 1.295 cumulative IPC: 0.8825 (Simulation time: 00 hr 15 min 15 sec)
Heartbeat CPU 0 instructions: 129000716 cycles: 100978816 heartbeat IPC: 0.8524 cumulative IPC: 0.8823 (Simulation time: 00 hr 15 min 20 sec)
Heartbeat CPU 0 instructions: 129500718 cycles: 101367211 heartbeat IPC: 1.287 cumulative IPC: 0.8841 (Simulation time: 00 hr 15 min 23 sec)
Heartbeat CPU 0 instructions: 130000720 cycles: 101763085 heartbeat IPC: 1.263 cumulative IPC: 0.8857 (Simulation time: 00 hr 15 min 26 sec)
Heartbeat CPU 0 instructions: 130500726 cycles: 102144535 heartbeat IPC: 1.311 cumulative IPC: 0.8875 (Simulation time: 00 hr 15 min 29 sec)
Heartbeat CPU 0 instructions: 131000726 cycles: 102525213 heartbeat IPC: 1.313 cumulative IPC: 0.8893 (Simulation time: 00 hr 15 min 32 sec)
Heartbeat CPU 0 instructions: 131500727 cycles: 102897613 heartbeat IPC: 1.343 cumulative IPC: 0.8912 (Simulation time: 00 hr 15 min 35 sec)
Heartbeat CPU 0 instructions: 132000728 cycles: 103817264 heartbeat IPC: 0.5437 cumulative IPC: 0.8877 (Simulation time: 00 hr 15 min 42 sec)
Heartbeat CPU 0 instructions: 132500731 cycles: 104205139 heartbeat IPC: 1.289 cumulative IPC: 0.8894 (Simulation time: 00 hr 15 min 46 sec)
Heartbeat CPU 0 instructions: 133000736 cycles: 104943554 heartbeat IPC: 0.6771 cumulative IPC: 0.8877 (Simulation time: 00 hr 15 min 51 sec)
Heartbeat CPU 0 instructions: 133500738 cycles: 105319237 heartbeat IPC: 1.331 cumulative IPC: 0.8895 (Simulation time: 00 hr 15 min 54 sec)
Heartbeat CPU 0 instructions: 134000740 cycles: 105871393 heartbeat IPC: 0.9055 cumulative IPC: 0.8896 (Simulation time: 00 hr 15 min 59 sec)
Heartbeat CPU 0 instructions: 134500743 cycles: 106461172 heartbeat IPC: 0.8478 cumulative IPC: 0.8893 (Simulation time: 00 hr 16 min 03 sec)
Heartbeat CPU 0 instructions: 135000747 cycles: 107179621 heartbeat IPC: 0.6959 cumulative IPC: 0.8879 (Simulation time: 00 hr 16 min 09 sec)
Heartbeat CPU 0 instructions: 135500747 cycles: 107550551 heartbeat IPC: 1.348 cumulative IPC: 0.8896 (Simulation time: 00 hr 16 min 12 sec)
Heartbeat CPU 0 instructions: 136000750 cycles: 107908639 heartbeat IPC: 1.396 cumulative IPC: 0.8915 (Simulation time: 00 hr 16 min 15 sec)
Heartbeat CPU 0 instructions: 136500750 cycles: 108460238 heartbeat IPC: 0.9065 cumulative IPC: 0.8916 (Simulation time: 00 hr 16 min 19 sec)
Heartbeat CPU 0 instructions: 137000750 cycles: 109040799 heartbeat IPC: 0.8612 cumulative IPC: 0.8914 (Simulation time: 00 hr 16 min 24 sec)
Heartbeat CPU 0 instructions: 137500757 cycles: 109564462 heartbeat IPC: 0.9548 cumulative IPC: 0.8918 (Simulation time: 00 hr 16 min 28 sec)
Heartbeat CPU 0 instructions: 138000759 cycles: 110260399 heartbeat IPC: 0.7185 cumulative IPC: 0.8905 (Simulation time: 00 hr 16 min 33 sec)
Heartbeat CPU 0 instructions: 138500762 cycles: 110648102 heartbeat IPC: 1.29 cumulative IPC: 0.8921 (Simulation time: 00 hr 16 min 36 sec)
Heartbeat CPU 0 instructions: 139000768 cycles: 111029962 heartbeat IPC: 1.309 cumulative IPC: 0.8937 (Simulation time: 00 hr 16 min 39 sec)
Heartbeat CPU 0 instructions: 139500770 cycles: 111411076 heartbeat IPC: 1.312 cumulative IPC: 0.8953 (Simulation time: 00 hr 16 min 42 sec)
Heartbeat CPU 0 instructions: 140000772 cycles: 111968319 heartbeat IPC: 0.8973 cumulative IPC: 0.8953 (Simulation time: 00 hr 16 min 47 sec)
Heartbeat CPU 0 instructions: 140500774 cycles: 112644473 heartbeat IPC: 0.7395 cumulative IPC: 0.8943 (Simulation time: 00 hr 16 min 52 sec)
Heartbeat CPU 0 instructions: 141000776 cycles: 113209284 heartbeat IPC: 0.8853 cumulative IPC: 0.8942 (Simulation time: 00 hr 16 min 56 sec)
Heartbeat CPU 0 instructions: 141500779 cycles: 113762732 heartbeat IPC: 0.9034 cumulative IPC: 0.8943 (Simulation time: 00 hr 17 min 01 sec)
Heartbeat CPU 0 instructions: 142000779 cycles: 114302270 heartbeat IPC: 0.9267 cumulative IPC: 0.8944 (Simulation time: 00 hr 17 min 05 sec)
Heartbeat CPU 0 instructions: 142500779 cycles: 114999071 heartbeat IPC: 0.7176 cumulative IPC: 0.8932 (Simulation time: 00 hr 17 min 10 sec)
Heartbeat CPU 0 instructions: 143000779 cycles: 115543451 heartbeat IPC: 0.9185 cumulative IPC: 0.8934 (Simulation time: 00 hr 17 min 15 sec)
Heartbeat CPU 0 instructions: 143500779 cycles: 115921659 heartbeat IPC: 1.322 cumulative IPC: 0.8949 (Simulation time: 00 hr 17 min 18 sec)
Heartbeat CPU 0 instructions: 144000782 cycles: 116327302 heartbeat IPC: 1.233 cumulative IPC: 0.8962 (Simulation time: 00 hr 17 min 21 sec)
Heartbeat CPU 0 instructions: 144500783 cycles: 117104689 heartbeat IPC: 0.6432 cumulative IPC: 0.8944 (Simulation time: 00 hr 17 min 27 sec)
Heartbeat CPU 0 instructions: 145000785 cycles: 117822989 heartbeat IPC: 0.6961 cumulative IPC: 0.893 (Simulation time: 00 hr 17 min 33 sec)
Heartbeat CPU 0 instructions: 145500785 cycles: 118115014 heartbeat IPC: 1.712 cumulative IPC: 0.8953 (Simulation time: 00 hr 17 min 35 sec)
Heartbeat CPU 0 instructions: 146000788 cycles: 118682439 heartbeat IPC: 0.8812 cumulative IPC: 0.8952 (Simulation time: 00 hr 17 min 40 sec)
Heartbeat CPU 0 instructions: 146500794 cycles: 119067711 heartbeat IPC: 1.298 cumulative IPC: 0.8966 (Simulation time: 00 hr 17 min 43 sec)
Heartbeat CPU 0 instructions: 147000796 cycles: 119456097 heartbeat IPC: 1.287 cumulative IPC: 0.898 (Simulation time: 00 hr 17 min 46 sec)
Heartbeat CPU 0 instructions: 147500798 cycles: 119844073 heartbeat IPC: 1.289 cumulative IPC: 0.8994 (Simulation time: 00 hr 17 min 49 sec)
Heartbeat CPU 0 instructions: 148000804 cycles: 120226017 heartbeat IPC: 1.309 cumulative IPC: 0.9009 (Simulation time: 00 hr 17 min 52 sec)
Heartbeat CPU 0 instructions: 148500806 cycles: 120602973 heartbeat IPC: 1.326 cumulative IPC: 0.9024 (Simulation time: 00 hr 17 min 55 sec)
Heartbeat CPU 0 instructions: 149000806 cycles: 120979290 heartbeat IPC: 1.329 cumulative IPC: 0.9038 (Simulation time: 00 hr 17 min 58 sec)
Heartbeat CPU 0 instructions: 149500809 cycles: 121366556 heartbeat IPC: 1.291 cumulative IPC: 0.9052 (Simulation time: 00 hr 18 min 01 sec)
Heartbeat CPU 0 instructions: 150000809 cycles: 121762383 heartbeat IPC: 1.263 cumulative IPC: 0.9065 (Simulation time: 00 hr 18 min 05 sec)
Heartbeat CPU 0 instructions: 150500811 cycles: 122147275 heartbeat IPC: 1.299 cumulative IPC: 0.9078 (Simulation time: 00 hr 18 min 08 sec)
Heartbeat CPU 0 instructions: 151000812 cycles: 122518123 heartbeat IPC: 1.348 cumulative IPC: 0.9093 (Simulation time: 00 hr 18 min 11 sec)
Heartbeat CPU 0 instructions: 151500813 cycles: 123275041 heartbeat IPC: 0.6606 cumulative IPC: 0.9076 (Simulation time: 00 hr 18 min 17 sec)
Heartbeat CPU 0 instructions: 152000813 cycles: 124158704 heartbeat IPC: 0.5658 cumulative IPC: 0.9049 (Simulation time: 00 hr 18 min 24 sec)
Heartbeat CPU 0 instructions: 152500814 cycles: 124793490 heartbeat IPC: 0.7877 cumulative IPC: 0.9043 (Simulation time: 00 hr 18 min 29 sec)
Heartbeat CPU 0 instructions: 153000814 cycles: 125484072 heartbeat IPC: 0.724 cumulative IPC: 0.9032 (Simulation time: 00 hr 18 min 34 sec)
Heartbeat CPU 0 instructions: 153500815 cycles: 126289053 heartbeat IPC: 0.6211 cumulative IPC: 0.9012 (Simulation time: 00 hr 18 min 40 sec)
Heartbeat CPU 0 instructions: 154000815 cycles: 126688827 heartbeat IPC: 1.251 cumulative IPC: 0.9024 (Simulation time: 00 hr 18 min 43 sec)
Heartbeat CPU 0 instructions: 154500815 cycles: 127085256 heartbeat IPC: 1.261 cumulative IPC: 0.9037 (Simulation time: 00 hr 18 min 46 sec)
Heartbeat CPU 0 instructions: 155000816 cycles: 127486969 heartbeat IPC: 1.245 cumulative IPC: 0.9048 (Simulation time: 00 hr 18 min 50 sec)
Heartbeat CPU 0 instructions: 155500823 cycles: 127881787 heartbeat IPC: 1.266 cumulative IPC: 0.9061 (Simulation time: 00 hr 18 min 53 sec)
Heartbeat CPU 0 instructions: 156000826 cycles: 128269877 heartbeat IPC: 1.288 cumulative IPC: 0.9073 (Simulation time: 00 hr 18 min 56 sec)
Heartbeat CPU 0 instructions: 156500826 cycles: 128826823 heartbeat IPC: 0.8978 cumulative IPC: 0.9073 (Simulation time: 00 hr 19 min 00 sec)
Heartbeat CPU 0 instructions: 157000827 cycles: 129225502 heartbeat IPC: 1.254 cumulative IPC: 0.9085 (Simulation time: 00 hr 19 min 03 sec)
Heartbeat CPU 0 instructions: 157500828 cycles: 129621770 heartbeat IPC: 1.262 cumulative IPC: 0.9096 (Simulation time: 00 hr 19 min 07 sec)
Heartbeat CPU 0 instructions: 158000830 cycles: 130019129 heartbeat IPC: 1.258 cumulative IPC: 0.9108 (Simulation time: 00 hr 19 min 10 sec)
Heartbeat CPU 0 instructions: 158500836 cycles: 130415997 heartbeat IPC: 1.26 cumulative IPC: 0.912 (Simulation time: 00 hr 19 min 13 sec)
Heartbeat CPU 0 instructions: 159000841 cycles: 131074506 heartbeat IPC: 0.7593 cumulative IPC: 0.9111 (Simulation time: 00 hr 19 min 18 sec)
Heartbeat CPU 0 instructions: 159500841 cycles: 131759751 heartbeat IPC: 0.7297 cumulative IPC: 0.9101 (Simulation time: 00 hr 19 min 24 sec)
Heartbeat CPU 0 instructions: 160000844 cycles: 132448241 heartbeat IPC: 0.7262 cumulative IPC: 0.9091 (Simulation time: 00 hr 19 min 29 sec)
Heartbeat CPU 0 instructions: 160500851 cycles: 132935136 heartbeat IPC: 1.027 cumulative IPC: 0.9095 (Simulation time: 00 hr 19 min 33 sec)
Heartbeat CPU 0 instructions: 161000854 cycles: 133520867 heartbeat IPC: 0.8536 cumulative IPC: 0.9093 (Simulation time: 00 hr 19 min 38 sec)
Heartbeat CPU 0 instructions: 161500858 cycles: 133923259 heartbeat IPC: 1.243 cumulative IPC: 0.9104 (Simulation time: 00 hr 19 min 41 sec)
Heartbeat CPU 0 instructions: 162000861 cycles: 134329998 heartbeat IPC: 1.229 cumulative IPC: 0.9114 (Simulation time: 00 hr 19 min 44 sec)
Heartbeat CPU 0 instructions: 162500861 cycles: 134729120 heartbeat IPC: 1.253 cumulative IPC: 0.9125 (Simulation time: 00 hr 19 min 47 sec)
Heartbeat CPU 0 instructions: 163000863 cycles: 135113635 heartbeat IPC: 1.3 cumulative IPC: 0.9137 (Simulation time: 00 hr 19 min 50 sec)
Heartbeat CPU 0 instructions: 163500864 cycles: 135509285 heartbeat IPC: 1.264 cumulative IPC: 0.9148 (Simulation time: 00 hr 19 min 54 sec)
Heartbeat CPU 0 instructions: 164000871 cycles: 135892474 heartbeat IPC: 1.305 cumulative IPC: 0.916 (Simulation time: 00 hr 19 min 57 sec)
Heartbeat CPU 0 instructions: 164500873 cycles: 136274477 heartbeat IPC: 1.309 cumulative IPC: 0.9172 (Simulation time: 00 hr 20 min 00 sec)
Heartbeat CPU 0 instructions: 165000873 cycles: 136657268 heartbeat IPC: 1.306 cumulative IPC: 0.9184 (Simulation time: 00 hr 20 min 03 sec)
Heartbeat CPU 0 instructions: 165500874 cycles: 137039424 heartbeat IPC: 1.308 cumulative IPC: 0.9196 (Simulation time: 00 hr 20 min 06 sec)
Heartbeat CPU 0 instructions: 166000875 cycles: 137850226 heartbeat IPC: 0.6167 cumulative IPC: 0.9177 (Simulation time: 00 hr 20 min 13 sec)
Heartbeat CPU 0 instructions: 166500876 cycles: 138747450 heartbeat IPC: 0.5573 cumulative IPC: 0.9151 (Simulation time: 00 hr 20 min 20 sec)
Heartbeat CPU 0 instructions: 167000876 cycles: 139259210 heartbeat IPC: 0.977 cumulative IPC: 0.9154 (Simulation time: 00 hr 20 min 23 sec)
Heartbeat CPU 0 instructions: 167500878 cycles: 140140460 heartbeat IPC: 0.5674 cumulative IPC: 0.913 (Simulation time: 00 hr 20 min 30 sec)
Heartbeat CPU 0 instructions: 168000879 cycles: 140665854 heartbeat IPC: 0.9517 cumulative IPC: 0.9132 (Simulation time: 00 hr 20 min 34 sec)
Heartbeat CPU 0 instructions: 168500881 cycles: 141214126 heartbeat IPC: 0.912 cumulative IPC: 0.9132 (Simulation time: 00 hr 20 min 39 sec)
Heartbeat CPU 0 instructions: 169000883 cycles: 141597966 heartbeat IPC: 1.303 cumulative IPC: 0.9143 (Simulation time: 00 hr 20 min 42 sec)
Heartbeat CPU 0 instructions: 169500886 cycles: 141984114 heartbeat IPC: 1.295 cumulative IPC: 0.9154 (Simulation time: 00 hr 20 min 45 sec)
Heartbeat CPU 0 instructions: 170000893 cycles: 142374094 heartbeat IPC: 1.282 cumulative IPC: 0.9165 (Simulation time: 00 hr 20 min 48 sec)
Heartbeat CPU 0 instructions: 170500894 cycles: 143017337 heartbeat IPC: 0.7773 cumulative IPC: 0.9158 (Simulation time: 00 hr 20 min 53 sec)
Heartbeat CPU 0 instructions: 171000894 cycles: 143574152 heartbeat IPC: 0.898 cumulative IPC: 0.9158 (Simulation time: 00 hr 20 min 58 sec)
Heartbeat CPU 0 instructions: 171500901 cycles: 144305461 heartbeat IPC: 0.6837 cumulative IPC: 0.9145 (Simulation time: 00 hr 21 min 03 sec)
Heartbeat CPU 0 instructions: 172000901 cycles: 144854129 heartbeat IPC: 0.9113 cumulative IPC: 0.9145 (Simulation time: 00 hr 21 min 07 sec)
Heartbeat CPU 0 instructions: 172500901 cycles: 145247261 heartbeat IPC: 1.272 cumulative IPC: 0.9155 (Simulation time: 00 hr 21 min 11 sec)
Heartbeat CPU 0 instructions: 173000908 cycles: 145641390 heartbeat IPC: 1.269 cumulative IPC: 0.9166 (Simulation time: 00 hr 21 min 14 sec)
Heartbeat CPU 0 instructions: 173500909 cycles: 146020436 heartbeat IPC: 1.319 cumulative IPC: 0.9177 (Simulation time: 00 hr 21 min 17 sec)
Heartbeat CPU 0 instructions: 174000910 cycles: 146892735 heartbeat IPC: 0.5732 cumulative IPC: 0.9155 (Simulation time: 00 hr 21 min 24 sec)
Heartbeat CPU 0 instructions: 174500911 cycles: 147553840 heartbeat IPC: 0.7563 cumulative IPC: 0.9147 (Simulation time: 00 hr 21 min 29 sec)
Heartbeat CPU 0 instructions: 175000917 cycles: 148128476 heartbeat IPC: 0.8701 cumulative IPC: 0.9145 (Simulation time: 00 hr 21 min 33 sec)
Heartbeat CPU 0 instructions: 175500920 cycles: 148508495 heartbeat IPC: 1.316 cumulative IPC: 0.9156 (Simulation time: 00 hr 21 min 36 sec)
Heartbeat CPU 0 instructions: 176000920 cycles: 149121734 heartbeat IPC: 0.8153 cumulative IPC: 0.9152 (Simulation time: 00 hr 21 min 41 sec)
Heartbeat CPU 0 instructions: 176500923 cycles: 150198891 heartbeat IPC: 0.4642 cumulative IPC: 0.9117 (Simulation time: 00 hr 21 min 49 sec)
Heartbeat CPU 0 instructions: 177000925 cycles: 150932385 heartbeat IPC: 0.6817 cumulative IPC: 0.9105 (Simulation time: 00 hr 21 min 55 sec)
Heartbeat CPU 0 instructions: 177500927 cycles: 151750865 heartbeat IPC: 0.6109 cumulative IPC: 0.9087 (Simulation time: 00 hr 22 min 01 sec)
Heartbeat CPU 0 instructions: 178000929 cycles: 152311767 heartbeat IPC: 0.8914 cumulative IPC: 0.9087 (Simulation time: 00 hr 22 min 06 sec)
Heartbeat CPU 0 instructions: 178500935 cycles: 152690516 heartbeat IPC: 1.32 cumulative IPC: 0.9098 (Simulation time: 00 hr 22 min 09 sec)
Heartbeat CPU 0 instructions: 179000939 cycles: 153079538 heartbeat IPC: 1.285 cumulative IPC: 0.9108 (Simulation time: 00 hr 22 min 12 sec)
Heartbeat CPU 0 instructions: 179500942 cycles: 153478614 heartbeat IPC: 1.253 cumulative IPC: 0.9117 (Simulation time: 00 hr 22 min 15 sec)
Heartbeat CPU 0 instructions: 180000942 cycles: 153863608 heartbeat IPC: 1.299 cumulative IPC: 0.9128 (Simulation time: 00 hr 22 min 18 sec)
Heartbeat CPU 0 instructions: 180500947 cycles: 154258963 heartbeat IPC: 1.265 cumulative IPC: 0.9138 (Simulation time: 00 hr 22 min 21 sec)
Heartbeat CPU 0 instructions: 181000949 cycles: 154648079 heartbeat IPC: 1.285 cumulative IPC: 0.9148 (Simulation time: 00 hr 22 min 24 sec)
Heartbeat CPU 0 instructions: 181500953 cycles: 155041221 heartbeat IPC: 1.272 cumulative IPC: 0.9158 (Simulation time: 00 hr 22 min 27 sec)
Heartbeat CPU 0 instructions: 182000954 cycles: 155564698 heartbeat IPC: 0.9552 cumulative IPC: 0.9159 (Simulation time: 00 hr 22 min 32 sec)
Heartbeat CPU 0 instructions: 182500957 cycles: 156321573 heartbeat IPC: 0.6606 cumulative IPC: 0.9146 (Simulation time: 00 hr 22 min 37 sec)
Heartbeat CPU 0 instructions: 183000959 cycles: 157289981 heartbeat IPC: 0.5163 cumulative IPC: 0.9119 (Simulation time: 00 hr 22 min 45 sec)
Heartbeat CPU 0 instructions: 183500961 cycles: 158106628 heartbeat IPC: 0.6123 cumulative IPC: 0.9103 (Simulation time: 00 hr 22 min 51 sec)
Heartbeat CPU 0 instructions: 184000961 cycles: 159099522 heartbeat IPC: 0.5036 cumulative IPC: 0.9075 (Simulation time: 00 hr 22 min 59 sec)
Heartbeat CPU 0 instructions: 184500961 cycles: 159900042 heartbeat IPC: 0.6246 cumulative IPC: 0.906 (Simulation time: 00 hr 23 min 05 sec)
Heartbeat CPU 0 instructions: 185000964 cycles: 160750982 heartbeat IPC: 0.5876 cumulative IPC: 0.9042 (Simulation time: 00 hr 23 min 11 sec)
Heartbeat CPU 0 instructions: 185500970 cycles: 161137803 heartbeat IPC: 1.293 cumulative IPC: 0.9052 (Simulation time: 00 hr 23 min 14 sec)
Heartbeat CPU 0 instructions: 186000974 cycles: 161531374 heartbeat IPC: 1.27 cumulative IPC: 0.9061 (Simulation time: 00 hr 23 min 17 sec)
Heartbeat CPU 0 instructions: 186500974 cycles: 161916661 heartbeat IPC: 1.298 cumulative IPC: 0.9071 (Simulation time: 00 hr 23 min 21 sec)
Heartbeat CPU 0 instructions: 187000974 cycles: 162310666 heartbeat IPC: 1.269 cumulative IPC: 0.9081 (Simulation time: 00 hr 23 min 24 sec)
Heartbeat CPU 0 instructions: 187500977 cycles: 162700360 heartbeat IPC: 1.283 cumulative IPC: 0.9091 (Simulation time: 00 hr 23 min 27 sec)
Heartbeat CPU 0 instructions: 188000983 cycles: 163093489 heartbeat IPC: 1.272 cumulative IPC: 0.91 (Simulation time: 00 hr 23 min 30 sec)
Heartbeat CPU 0 instructions: 188500984 cycles: 163485909 heartbeat IPC: 1.274 cumulative IPC: 0.9109 (Simulation time: 00 hr 23 min 33 sec)
Heartbeat CPU 0 instructions: 189000984 cycles: 163873230 heartbeat IPC: 1.291 cumulative IPC: 0.9119 (Simulation time: 00 hr 23 min 36 sec)
Heartbeat CPU 0 instructions: 189500985 cycles: 164425781 heartbeat IPC: 0.9049 cumulative IPC: 0.9119 (Simulation time: 00 hr 23 min 40 sec)
Heartbeat CPU 0 instructions: 190000990 cycles: 164971145 heartbeat IPC: 0.9168 cumulative IPC: 0.9119 (Simulation time: 00 hr 23 min 44 sec)
Heartbeat CPU 0 instructions: 190500991 cycles: 165354894 heartbeat IPC: 1.303 cumulative IPC: 0.9129 (Simulation time: 00 hr 23 min 47 sec)
Heartbeat CPU 0 instructions: 191000992 cycles: 165736723 heartbeat IPC: 1.309 cumulative IPC: 0.9138 (Simulation time: 00 hr 23 min 50 sec)
Heartbeat CPU 0 instructions: 191500992 cycles: 166459422 heartbeat IPC: 0.6919 cumulative IPC: 0.9128 (Simulation time: 00 hr 23 min 56 sec)
Heartbeat CPU 0 instructions: 192000999 cycles: 166846548 heartbeat IPC: 1.292 cumulative IPC: 0.9138 (Simulation time: 00 hr 23 min 59 sec)
Heartbeat CPU 0 instructions: 192501003 cycles: 167238654 heartbeat IPC: 1.275 cumulative IPC: 0.9147 (Simulation time: 00 hr 24 min 02 sec)
Heartbeat CPU 0 instructions: 193001003 cycles: 167621167 heartbeat IPC: 1.307 cumulative IPC: 0.9156 (Simulation time: 00 hr 24 min 05 sec)
Heartbeat CPU 0 instructions: 193501005 cycles: 168160337 heartbeat IPC: 0.9274 cumulative IPC: 0.9157 (Simulation time: 00 hr 24 min 09 sec)
Heartbeat CPU 0 instructions: 194001012 cycles: 168864630 heartbeat IPC: 0.7099 cumulative IPC: 0.9147 (Simulation time: 00 hr 24 min 14 sec)
Heartbeat CPU 0 instructions: 194501018 cycles: 169411882 heartbeat IPC: 0.9137 cumulative IPC: 0.9147 (Simulation time: 00 hr 24 min 18 sec)
Heartbeat CPU 0 instructions: 195001019 cycles: 170257791 heartbeat IPC: 0.5911 cumulative IPC: 0.913 (Simulation time: 00 hr 24 min 25 sec)
Heartbeat CPU 0 instructions: 195501022 cycles: 171137440 heartbeat IPC: 0.5684 cumulative IPC: 0.9111 (Simulation time: 00 hr 24 min 31 sec)
Heartbeat CPU 0 instructions: 196001022 cycles: 171515486 heartbeat IPC: 1.323 cumulative IPC: 0.9121 (Simulation time: 00 hr 24 min 34 sec)
Heartbeat CPU 0 instructions: 196501024 cycles: 172204196 heartbeat IPC: 0.726 cumulative IPC: 0.9113 (Simulation time: 00 hr 24 min 40 sec)
Heartbeat CPU 0 instructions: 197001024 cycles: 172756298 heartbeat IPC: 0.9056 cumulative IPC: 0.9113 (Simulation time: 00 hr 24 min 44 sec)
Heartbeat CPU 0 instructions: 197501025 cycles: 173452516 heartbeat IPC: 0.7182 cumulative IPC: 0.9104 (Simulation time: 00 hr 24 min 49 sec)
Heartbeat CPU 0 instructions: 198001028 cycles: 173847596 heartbeat IPC: 1.266 cumulative IPC: 0.9113 (Simulation time: 00 hr 24 min 52 sec)
Heartbeat CPU 0 instructions: 198501028 cycles: 174648657 heartbeat IPC: 0.6242 cumulative IPC: 0.9099 (Simulation time: 00 hr 24 min 58 sec)
Heartbeat CPU 0 instructions: 199001029 cycles: 175204525 heartbeat IPC: 0.8995 cumulative IPC: 0.9099 (Simulation time: 00 hr 25 min 03 sec)
Heartbeat CPU 0 instructions: 199501029 cycles: 175894273 heartbeat IPC: 0.7249 cumulative IPC: 0.9091 (Simulation time: 00 hr 25 min 08 sec)
Heartbeat CPU 0 instructions: 200001029 cycles: 176280207 heartbeat IPC: 1.296 cumulative IPC: 0.91 (Simulation time: 00 hr 25 min 11 sec)
Heartbeat CPU 0 instructions: 200501030 cycles: 176828916 heartbeat IPC: 0.9112 cumulative IPC: 0.91 (Simulation time: 00 hr 25 min 15 sec)
Heartbeat CPU 0 instructions: 201001030 cycles: 177541811 heartbeat IPC: 0.7014 cumulative IPC: 0.9091 (Simulation time: 00 hr 25 min 20 sec)
Heartbeat CPU 0 instructions: 201501030 cycles: 178097731 heartbeat IPC: 0.8994 cumulative IPC: 0.9091 (Simulation time: 00 hr 25 min 24 sec)
Heartbeat CPU 0 instructions: 202001032 cycles: 178477904 heartbeat IPC: 1.315 cumulative IPC: 0.91 (Simulation time: 00 hr 25 min 27 sec)
Heartbeat CPU 0 instructions: 202501035 cycles: 178991203 heartbeat IPC: 0.9741 cumulative IPC: 0.9102 (Simulation time: 00 hr 25 min 31 sec)
Heartbeat CPU 0 instructions: 203001035 cycles: 179720280 heartbeat IPC: 0.6858 cumulative IPC: 0.9092 (Simulation time: 00 hr 25 min 37 sec)
Heartbeat CPU 0 instructions: 203501035 cycles: 180117327 heartbeat IPC: 1.259 cumulative IPC: 0.91 (Simulation time: 00 hr 25 min 40 sec)
Heartbeat CPU 0 instructions: 204001037 cycles: 180682707 heartbeat IPC: 0.8844 cumulative IPC: 0.91 (Simulation time: 00 hr 25 min 44 sec)
Heartbeat CPU 0 instructions: 204501039 cycles: 181086091 heartbeat IPC: 1.24 cumulative IPC: 0.9107 (Simulation time: 00 hr 25 min 47 sec)
Heartbeat CPU 0 instructions: 205001041 cycles: 182137369 heartbeat IPC: 0.4756 cumulative IPC: 0.9081 (Simulation time: 00 hr 25 min 55 sec)
Heartbeat CPU 0 instructions: 205501041 cycles: 182540023 heartbeat IPC: 1.242 cumulative IPC: 0.9088 (Simulation time: 00 hr 25 min 58 sec)
Heartbeat CPU 0 instructions: 206001041 cycles: 182937450 heartbeat IPC: 1.258 cumulative IPC: 0.9097 (Simulation time: 00 hr 26 min 01 sec)
Heartbeat CPU 0 instructions: 206501043 cycles: 183332944 heartbeat IPC: 1.264 cumulative IPC: 0.9105 (Simulation time: 00 hr 26 min 04 sec)
Heartbeat CPU 0 instructions: 207001050 cycles: 183728768 heartbeat IPC: 1.263 cumulative IPC: 0.9113 (Simulation time: 00 hr 26 min 07 sec)
Heartbeat CPU 0 instructions: 207501050 cycles: 184113593 heartbeat IPC: 1.299 cumulative IPC: 0.9121 (Simulation time: 00 hr 26 min 10 sec)
Heartbeat CPU 0 instructions: 208001057 cycles: 184483011 heartbeat IPC: 1.353 cumulative IPC: 0.9131 (Simulation time: 00 hr 26 min 13 sec)
Heartbeat CPU 0 instructions: 208501058 cycles: 185212801 heartbeat IPC: 0.6851 cumulative IPC: 0.9121 (Simulation time: 00 hr 26 min 18 sec)
Heartbeat CPU 0 instructions: 209001058 cycles: 185609689 heartbeat IPC: 1.26 cumulative IPC: 0.9129 (Simulation time: 00 hr 26 min 21 sec)
Heartbeat CPU 0 instructions: 209501058 cycles: 185994206 heartbeat IPC: 1.3 cumulative IPC: 0.9138 (Simulation time: 00 hr 26 min 24 sec)
Heartbeat CPU 0 instructions: 210001061 cycles: 186378411 heartbeat IPC: 1.301 cumulative IPC: 0.9146 (Simulation time: 00 hr 26 min 27 sec)
Heartbeat CPU 0 instructions: 210501062 cycles: 186926275 heartbeat IPC: 0.9126 cumulative IPC: 0.9146 (Simulation time: 00 hr 26 min 31 sec)
Heartbeat CPU 0 instructions: 211001066 cycles: 187617074 heartbeat IPC: 0.7238 cumulative IPC: 0.9139 (Simulation time: 00 hr 26 min 36 sec)
Heartbeat CPU 0 instructions: 211501066 cycles: 188148805 heartbeat IPC: 0.9403 cumulative IPC: 0.914 (Simulation time: 00 hr 26 min 40 sec)
Heartbeat CPU 0 instructions: 212001066 cycles: 188691909 heartbeat IPC: 0.9206 cumulative IPC: 0.914 (Simulation time: 00 hr 26 min 44 sec)
Heartbeat CPU 0 instructions: 212501071 cycles: 189070092 heartbeat IPC: 1.322 cumulative IPC: 0.9148 (Simulation time: 00 hr 26 min 47 sec)
Heartbeat CPU 0 instructions: 213001073 cycles: 189767784 heartbeat IPC: 0.7167 cumulative IPC: 0.9141 (Simulation time: 00 hr 26 min 52 sec)
Heartbeat CPU 0 instructions: 213501073 cycles: 190523894 heartbeat IPC: 0.6613 cumulative IPC: 0.913 (Simulation time: 00 hr 26 min 58 sec)
Heartbeat CPU 0 instructions: 214001077 cycles: 191168866 heartbeat IPC: 0.7752 cumulative IPC: 0.9125 (Simulation time: 00 hr 27 min 02 sec)
Heartbeat CPU 0 instructions: 214501078 cycles: 191552813 heartbeat IPC: 1.302 cumulative IPC: 0.9133 (Simulation time: 00 hr 27 min 05 sec)
Heartbeat CPU 0 instructions: 215001078 cycles: 191937859 heartbeat IPC: 1.299 cumulative IPC: 0.9142 (Simulation time: 00 hr 27 min 08 sec)
Heartbeat CPU 0 instructions: 215501079 cycles: 192324914 heartbeat IPC: 1.292 cumulative IPC: 0.915 (Simulation time: 00 hr 27 min 11 sec)
Heartbeat CPU 0 instructions: 216001084 cycles: 192716395 heartbeat IPC: 1.277 cumulative IPC: 0.9157 (Simulation time: 00 hr 27 min 14 sec)
Heartbeat CPU 0 instructions: 216501084 cycles: 193279753 heartbeat IPC: 0.8875 cumulative IPC: 0.9157 (Simulation time: 00 hr 27 min 18 sec)
Heartbeat CPU 0 instructions: 217001089 cycles: 193984447 heartbeat IPC: 0.7095 cumulative IPC: 0.9149 (Simulation time: 00 hr 27 min 23 sec)
Heartbeat CPU 0 instructions: 217501090 cycles: 194361494 heartbeat IPC: 1.326 cumulative IPC: 0.9157 (Simulation time: 00 hr 27 min 26 sec)
Heartbeat CPU 0 instructions: 218001095 cycles: 194731604 heartbeat IPC: 1.351 cumulative IPC: 0.9166 (Simulation time: 00 hr 27 min 29 sec)
Heartbeat CPU 0 instructions: 218501097 cycles: 195355472 heartbeat IPC: 0.8015 cumulative IPC: 0.9162 (Simulation time: 00 hr 27 min 33 sec)
Heartbeat CPU 0 instructions: 219001101 cycles: 196161057 heartbeat IPC: 0.6207 cumulative IPC: 0.9149 (Simulation time: 00 hr 27 min 39 sec)
Heartbeat CPU 0 instructions: 219501104 cycles: 196534455 heartbeat IPC: 1.339 cumulative IPC: 0.9158 (Simulation time: 00 hr 27 min 42 sec)
Heartbeat CPU 0 instructions: 220001108 cycles: 197310769 heartbeat IPC: 0.6441 cumulative IPC: 0.9146 (Simulation time: 00 hr 27 min 47 sec)
Heartbeat CPU 0 instructions: 220501108 cycles: 197863276 heartbeat IPC: 0.905 cumulative IPC: 0.9146 (Simulation time: 00 hr 27 min 51 sec)
Heartbeat CPU 0 instructions: 221001109 cycles: 198238735 heartbeat IPC: 1.332 cumulative IPC: 0.9154 (Simulation time: 00 hr 27 min 54 sec)
Heartbeat CPU 0 instructions: 221501113 cycles: 199118042 heartbeat IPC: 0.5686 cumulative IPC: 0.9138 (Simulation time: 00 hr 28 min 01 sec)
Heartbeat CPU 0 instructions: 222001113 cycles: 199514344 heartbeat IPC: 1.262 cumulative IPC: 0.9146 (Simulation time: 00 hr 28 min 04 sec)
Heartbeat CPU 0 instructions: 222501116 cycles: 200187816 heartbeat IPC: 0.7424 cumulative IPC: 0.9139 (Simulation time: 00 hr 28 min 09 sec)
Heartbeat CPU 0 instructions: 223001119 cycles: 200573582 heartbeat IPC: 1.296 cumulative IPC: 0.9147 (Simulation time: 00 hr 28 min 11 sec)
Heartbeat CPU 0 instructions: 223501120 cycles: 200971195 heartbeat IPC: 1.258 cumulative IPC: 0.9154 (Simulation time: 00 hr 28 min 14 sec)
Heartbeat CPU 0 instructions: 224001122 cycles: 201472824 heartbeat IPC: 0.9968 cumulative IPC: 0.9157 (Simulation time: 00 hr 28 min 18 sec)
Heartbeat CPU 0 instructions: 224501126 cycles: 201942710 heartbeat IPC: 1.064 cumulative IPC: 0.916 (Simulation time: 00 hr 28 min 22 sec)
Heartbeat CPU 0 instructions: 225001128 cycles: 202590784 heartbeat IPC: 0.7715 cumulative IPC: 0.9155 (Simulation time: 00 hr 28 min 26 sec)
Heartbeat CPU 0 instructions: 225501128 cycles: 203335997 heartbeat IPC: 0.6709 cumulative IPC: 0.9146 (Simulation time: 00 hr 28 min 31 sec)
Heartbeat CPU 0 instructions: 226001128 cycles: 203972767 heartbeat IPC: 0.7852 cumulative IPC: 0.9141 (Simulation time: 00 hr 28 min 36 sec)
Heartbeat CPU 0 instructions: 226501130 cycles: 204711790 heartbeat IPC: 0.6766 cumulative IPC: 0.9132 (Simulation time: 00 hr 28 min 42 sec)
Heartbeat CPU 0 instructions: 227001132 cycles: 205192126 heartbeat IPC: 1.041 cumulative IPC: 0.9136 (Simulation time: 00 hr 28 min 45 sec)
Heartbeat CPU 0 instructions: 227501139 cycles: 205735091 heartbeat IPC: 0.9209 cumulative IPC: 0.9136 (Simulation time: 00 hr 28 min 49 sec)
Heartbeat CPU 0 instructions: 228001140 cycles: 206269239 heartbeat IPC: 0.9361 cumulative IPC: 0.9136 (Simulation time: 00 hr 28 min 53 sec)
Heartbeat CPU 0 instructions: 228501142 cycles: 207023806 heartbeat IPC: 0.6626 cumulative IPC: 0.9127 (Simulation time: 00 hr 28 min 58 sec)
Heartbeat CPU 0 instructions: 229001149 cycles: 207388517 heartbeat IPC: 1.371 cumulative IPC: 0.9135 (Simulation time: 00 hr 29 min 01 sec)
Heartbeat CPU 0 instructions: 229501155 cycles: 208251197 heartbeat IPC: 0.5796 cumulative IPC: 0.9121 (Simulation time: 00 hr 29 min 07 sec)
Heartbeat CPU 0 instructions: 230001155 cycles: 209000185 heartbeat IPC: 0.6676 cumulative IPC: 0.9111 (Simulation time: 00 hr 29 min 12 sec)
Heartbeat CPU 0 instructions: 230501155 cycles: 209682177 heartbeat IPC: 0.7331 cumulative IPC: 0.9105 (Simulation time: 00 hr 29 min 17 sec)
Heartbeat CPU 0 instructions: 231001155 cycles: 210365589 heartbeat IPC: 0.7316 cumulative IPC: 0.9099 (Simulation time: 00 hr 29 min 22 sec)
Heartbeat CPU 0 instructions: 231501161 cycles: 210966471 heartbeat IPC: 0.8321 cumulative IPC: 0.9097 (Simulation time: 00 hr 29 min 26 sec)
Heartbeat CPU 0 instructions: 232001167 cycles: 211368488 heartbeat IPC: 1.244 cumulative IPC: 0.9103 (Simulation time: 00 hr 29 min 29 sec)
Heartbeat CPU 0 instructions: 232501167 cycles: 211779212 heartbeat IPC: 1.217 cumulative IPC: 0.911 (Simulation time: 00 hr 29 min 32 sec)
Heartbeat CPU 0 instructions: 233001168 cycles: 212190593 heartbeat IPC: 1.215 cumulative IPC: 0.9116 (Simulation time: 00 hr 29 min 35 sec)
Heartbeat CPU 0 instructions: 233501173 cycles: 212603785 heartbeat IPC: 1.21 cumulative IPC: 0.9122 (Simulation time: 00 hr 29 min 38 sec)
Heartbeat CPU 0 instructions: 234001177 cycles: 213014619 heartbeat IPC: 1.217 cumulative IPC: 0.9128 (Simulation time: 00 hr 29 min 41 sec)
Heartbeat CPU 0 instructions: 234501183 cycles: 213419802 heartbeat IPC: 1.234 cumulative IPC: 0.9135 (Simulation time: 00 hr 29 min 44 sec)
Heartbeat CPU 0 instructions: 235001184 cycles: 213823229 heartbeat IPC: 1.239 cumulative IPC: 0.9141 (Simulation time: 00 hr 29 min 46 sec)
Heartbeat CPU 0 instructions: 235501185 cycles: 214227301 heartbeat IPC: 1.237 cumulative IPC: 0.9148 (Simulation time: 00 hr 29 min 49 sec)
Heartbeat CPU 0 instructions: 236001189 cycles: 214634674 heartbeat IPC: 1.227 cumulative IPC: 0.9154 (Simulation time: 00 hr 29 min 52 sec)
Heartbeat CPU 0 instructions: 236501189 cycles: 215047344 heartbeat IPC: 1.212 cumulative IPC: 0.916 (Simulation time: 00 hr 29 min 55 sec)
Heartbeat CPU 0 instructions: 237001192 cycles: 215446127 heartbeat IPC: 1.254 cumulative IPC: 0.9167 (Simulation time: 00 hr 29 min 58 sec)
Heartbeat CPU 0 instructions: 237501197 cycles: 215858713 heartbeat IPC: 1.212 cumulative IPC: 0.9173 (Simulation time: 00 hr 30 min 01 sec)
Heartbeat CPU 0 instructions: 238001198 cycles: 216256155 heartbeat IPC: 1.258 cumulative IPC: 0.9179 (Simulation time: 00 hr 30 min 04 sec)
Heartbeat CPU 0 instructions: 238501201 cycles: 216650835 heartbeat IPC: 1.267 cumulative IPC: 0.9186 (Simulation time: 00 hr 30 min 07 sec)
Heartbeat CPU 0 instructions: 239001203 cycles: 217052995 heartbeat IPC: 1.243 cumulative IPC: 0.9192 (Simulation time: 00 hr 30 min 09 sec)
Heartbeat CPU 0 instructions: 239501206 cycles: 217458987 heartbeat IPC: 1.232 cumulative IPC: 0.9198 (Simulation time: 00 hr 30 min 12 sec)
Heartbeat CPU 0 instructions: 240001211 cycles: 217874340 heartbeat IPC: 1.204 cumulative IPC: 0.9204 (Simulation time: 00 hr 30 min 15 sec)
Heartbeat CPU 0 instructions: 240501217 cycles: 218282916 heartbeat IPC: 1.224 cumulative IPC: 0.921 (Simulation time: 00 hr 30 min 18 sec)
Heartbeat CPU 0 instructions: 241001217 cycles: 218687943 heartbeat IPC: 1.234 cumulative IPC: 0.9216 (Simulation time: 00 hr 30 min 21 sec)
Heartbeat CPU 0 instructions: 241501217 cycles: 219101894 heartbeat IPC: 1.208 cumulative IPC: 0.9222 (Simulation time: 00 hr 30 min 24 sec)
Heartbeat CPU 0 instructions: 242001218 cycles: 219512344 heartbeat IPC: 1.218 cumulative IPC: 0.9228 (Simulation time: 00 hr 30 min 27 sec)
Heartbeat CPU 0 instructions: 242501218 cycles: 219920451 heartbeat IPC: 1.225 cumulative IPC: 0.9234 (Simulation time: 00 hr 30 min 30 sec)
Heartbeat CPU 0 instructions: 243001218 cycles: 220321902 heartbeat IPC: 1.245 cumulative IPC: 0.924 (Simulation time: 00 hr 30 min 32 sec)
Heartbeat CPU 0 instructions: 243501218 cycles: 220716621 heartbeat IPC: 1.267 cumulative IPC: 0.9246 (Simulation time: 00 hr 30 min 35 sec)
Heartbeat CPU 0 instructions: 244001224 cycles: 221115845 heartbeat IPC: 1.252 cumulative IPC: 0.9253 (Simulation time: 00 hr 30 min 38 sec)
Heartbeat CPU 0 instructions: 244501225 cycles: 221522012 heartbeat IPC: 1.231 cumulative IPC: 0.9258 (Simulation time: 00 hr 30 min 41 sec)
Heartbeat CPU 0 instructions: 245001227 cycles: 221925046 heartbeat IPC: 1.241 cumulative IPC: 0.9264 (Simulation time: 00 hr 30 min 44 sec)
Heartbeat CPU 0 instructions: 245501227 cycles: 222335289 heartbeat IPC: 1.219 cumulative IPC: 0.927 (Simulation time: 00 hr 30 min 47 sec)
Heartbeat CPU 0 instructions: 246001228 cycles: 222737259 heartbeat IPC: 1.244 cumulative IPC: 0.9276 (Simulation time: 00 hr 30 min 50 sec)
Heartbeat CPU 0 instructions: 246501228 cycles: 223145167 heartbeat IPC: 1.226 cumulative IPC: 0.9282 (Simulation time: 00 hr 30 min 53 sec)
Heartbeat CPU 0 instructions: 247001229 cycles: 223550507 heartbeat IPC: 1.234 cumulative IPC: 0.9288 (Simulation time: 00 hr 30 min 55 sec)
Heartbeat CPU 0 instructions: 247501230 cycles: 223947084 heartbeat IPC: 1.261 cumulative IPC: 0.9294 (Simulation time: 00 hr 30 min 58 sec)
Heartbeat CPU 0 instructions: 248001232 cycles: 224347775 heartbeat IPC: 1.248 cumulative IPC: 0.93 (Simulation time: 00 hr 31 min 01 sec)
Heartbeat CPU 0 instructions: 248501236 cycles: 224735500 heartbeat IPC: 1.29 cumulative IPC: 0.9307 (Simulation time: 00 hr 31 min 04 sec)
Heartbeat CPU 0 instructions: 249001237 cycles: 225121447 heartbeat IPC: 1.296 cumulative IPC: 0.9313 (Simulation time: 00 hr 31 min 07 sec)
Heartbeat CPU 0 instructions: 249501240 cycles: 225826023 heartbeat IPC: 0.7097 cumulative IPC: 0.9306 (Simulation time: 00 hr 31 min 11 sec)
Simulation finished CPU 0 instructions: 200000003 cycles: 215098145 cumulative IPC: 0.9298 (Simulation time: 00 hr 31 min 16 sec)
Simulation complete CPU 0 instructions: 200000003 cycles: 215098145 cumulative IPC: 0.9298 (Simulation time: 00 hr 31 min 16 sec)

ChampSim completed all CPUs

=== Simulation ===
CPU 0 runs /local-ssd/ben/dpc4-traces/Graph/GMS/gms.k_clique_list_danisch_node_parallel.soc-pokec-relationships.slice-248.champsimstrace.gz

Region of Interest Statistics

CPU 0 cumulative IPC: 0.9298 instructions: 200000003 cycles: 215098145
CPU 0 Branch Prediction Accuracy: 83.01% MPKI: 24.05 Average ROB Occupancy at Mispredict: 17.39
Branch type MPKI
BRANCH_DIRECT_JUMP: 0
BRANCH_INDIRECT: 0
BRANCH_CONDITIONAL: 24.05
BRANCH_DIRECT_CALL: 0
BRANCH_INDIRECT_CALL: 0
BRANCH_RETURN: 0

cpu0->cpu0_STLB TOTAL        ACCESS:    2394808 HIT:    2203729 MISS:     191079 MSHR_MERGE:          0
cpu0->cpu0_STLB LOAD         ACCESS:    2394808 HIT:    2203729 MISS:     191079 MSHR_MERGE:          0
cpu0->cpu0_STLB RFO          ACCESS:          0 HIT:          0 MISS:          0 MSHR_MERGE:          0
cpu0->cpu0_STLB PREFETCH     ACCESS:          0 HIT:          0 MISS:          0 MSHR_MERGE:          0
cpu0->cpu0_STLB WRITE        ACCESS:          0 HIT:          0 MISS:          0 MSHR_MERGE:          0
cpu0->cpu0_STLB TRANSLATION  ACCESS:          0 HIT:          0 MISS:          0 MSHR_MERGE:          0
cpu0->cpu0_STLB PREFETCH REQUESTED:          0 ISSUED:          0 USEFUL:          0 USELESS:          0
cpu0->cpu0_STLB AVERAGE MISS LATENCY: 68.63 cycles
cpu0->cpu0_L2C TOTAL        ACCESS:    5513339 HIT:    3172925 MISS:    2340414 MSHR_MERGE:     165019
cpu0->cpu0_L2C LOAD         ACCESS:    2201308 HIT:    1257539 MISS:     943769 MSHR_MERGE:      18556
cpu0->cpu0_L2C RFO          ACCESS:     162262 HIT:     133809 MISS:      28453 MSHR_MERGE:          0
cpu0->cpu0_L2C PREFETCH     ACCESS:    2780254 HIT:    1462627 MISS:    1317627 MSHR_MERGE:     146463
cpu0->cpu0_L2C WRITE        ACCESS:     208171 HIT:     208166 MISS:          5 MSHR_MERGE:          0
cpu0->cpu0_L2C TRANSLATION  ACCESS:     161344 HIT:     110784 MISS:      50560 MSHR_MERGE:          0
cpu0->cpu0_L2C PREFETCH REQUESTED:    2642108 ISSUED:    2530945 USEFUL:     331697 USELESS:     754874
cpu0->cpu0_L2C AVERAGE MISS LATENCY: 144.8 cycles
cpu0->cpu0_L1I TOTAL        ACCESS:    1521104 HIT:    1521104 MISS:          0 MSHR_MERGE:          0
cpu0->cpu0_L1I LOAD         ACCESS:    1521104 HIT:    1521104 MISS:          0 MSHR_MERGE:          0
cpu0->cpu0_L1I RFO          ACCESS:          0 HIT:          0 MISS:          0 MSHR_MERGE:          0
cpu0->cpu0_L1I PREFETCH     ACCESS:          0 HIT:          0 MISS:          0 MSHR_MERGE:          0
cpu0->cpu0_L1I WRITE        ACCESS:          0 HIT:          0 MISS:          0 MSHR_MERGE:          0
cpu0->cpu0_L1I TRANSLATION  ACCESS:          0 HIT:          0 MISS:          0 MSHR_MERGE:          0
cpu0->cpu0_L1I PREFETCH REQUESTED:          0 ISSUED:          0 USEFUL:          0 USELESS:          0
cpu0->cpu0_L1I AVERAGE MISS LATENCY: - cycles
cpu0->cpu0_L1D TOTAL        ACCESS:   77594842 HIT:   74122195 MISS:    3472647 MSHR_MERGE:     698415
cpu0->cpu0_L1D LOAD         ACCESS:   45614753 HIT:   42764312 MISS:    2850441 MSHR_MERGE:     649132
cpu0->cpu0_L1D RFO          ACCESS:          0 HIT:          0 MISS:          0 MSHR_MERGE:          0
cpu0->cpu0_L1D PREFETCH     ACCESS:     350331 HIT:      79953 MISS:     270378 MSHR_MERGE:      21068
cpu0->cpu0_L1D WRITE        ACCESS:   31233800 HIT:   31044652 MISS:     189148 MSHR_MERGE:      26879
cpu0->cpu0_L1D TRANSLATION  ACCESS:     395958 HIT:     233278 MISS:     162680 MSHR_MERGE:       1336
cpu0->cpu0_L1D PREFETCH REQUESTED:     350440 ISSUED:     350331 USEFUL:     103975 USELESS:     145355
cpu0->cpu0_L1D AVERAGE MISS LATENCY: 67.79 cycles
cpu0->cpu0_ITLB TOTAL        ACCESS:    1420315 HIT:    1420315 MISS:          0 MSHR_MERGE:          0
cpu0->cpu0_ITLB LOAD         ACCESS:    1420315 HIT:    1420315 MISS:          0 MSHR_MERGE:          0
cpu0->cpu0_ITLB RFO          ACCESS:          0 HIT:          0 MISS:          0 MSHR_MERGE:          0
cpu0->cpu0_ITLB PREFETCH     ACCESS:          0 HIT:          0 MISS:          0 MSHR_MERGE:          0
cpu0->cpu0_ITLB WRITE        ACCESS:          0 HIT:          0 MISS:          0 MSHR_MERGE:          0
cpu0->cpu0_ITLB TRANSLATION  ACCESS:          0 HIT:          0 MISS:          0 MSHR_MERGE:          0
cpu0->cpu0_ITLB PREFETCH REQUESTED:          0 ISSUED:          0 USEFUL:          0 USELESS:          0
cpu0->cpu0_ITLB AVERAGE MISS LATENCY: - cycles
cpu0->cpu0_DTLB TOTAL        ACCESS:   73552929 HIT:   70467698 MISS:    3085231 MSHR_MERGE:     690423
cpu0->cpu0_DTLB LOAD         ACCESS:   73552929 HIT:   70467698 MISS:    3085231 MSHR_MERGE:     690423
cpu0->cpu0_DTLB RFO          ACCESS:          0 HIT:          0 MISS:          0 MSHR_MERGE:          0
cpu0->cpu0_DTLB PREFETCH     ACCESS:          0 HIT:          0 MISS:          0 MSHR_MERGE:          0
cpu0->cpu0_DTLB WRITE        ACCESS:          0 HIT:          0 MISS:          0 MSHR_MERGE:          0
cpu0->cpu0_DTLB TRANSLATION  ACCESS:          0 HIT:          0 MISS:          0 MSHR_MERGE:          0
cpu0->cpu0_DTLB PREFETCH REQUESTED:          0 ISSUED:          0 USEFUL:          0 USELESS:          0
cpu0->cpu0_DTLB AVERAGE MISS LATENCY: 10.63 cycles
cpu0->LLC TOTAL        ACCESS:    2233360 HIT:    1039007 MISS:    1194353 MSHR_MERGE:          0
cpu0->LLC LOAD         ACCESS:     925213 HIT:     466015 MISS:     459198 MSHR_MERGE:          0
cpu0->LLC RFO          ACCESS:      28453 HIT:      20237 MISS:       8216 MSHR_MERGE:          0
cpu0->LLC PREFETCH     ACCESS:    1171164 HIT:     489463 MISS:     681701 MSHR_MERGE:          0
cpu0->LLC WRITE        ACCESS:      57970 HIT:      44069 MISS:      13901 MSHR_MERGE:          0
cpu0->LLC TRANSLATION  ACCESS:      50560 HIT:      19223 MISS:      31337 MSHR_MERGE:          0
cpu0->LLC PREFETCH REQUESTED:          0 ISSUED:          0 USEFUL:          0 USELESS:          0
cpu0->LLC AVERAGE MISS LATENCY: 237.2 cycles

DRAM Statistics

Channel 0 RQ ROW_BUFFER_HIT:       1292
  ROW_BUFFER_MISS:    1179103
  AVG DBUS CONGESTED CYCLE: 14.47
Channel 0 WQ ROW_BUFFER_HIT:       4537
  ROW_BUFFER_MISS:       9019
  FULL:          0
Channel 0 REFRESHES ISSUED:      17924
