[VMEM] WARNING: physical memory size is smaller than virtual memory size.

*** ChampSim Multicore Out-of-Order Simulator ***
Warmup Instructions: 50000000
Simulation Instructions: 200000000
Number of CPUs: 1
Page size: 4096
Core 0: /local-ssd/ben/dpc4-traces/Graph/Ligra/ligra_BFSCC.com-lj.ungraph.gcc_6.3.0_O3.drop_15500M.length_250M.champsimtrace.xz
Off-chip DRAM Size: 64 GiB Channels: 1 Width: 64-bit Data Rate: 4807 MT/s
Heartbeat CPU 0 instructions: 500003 cycles: 162044 heartbeat IPC: 3.086 cumulative IPC: 3.086 (Simulation time: 00 hr 00 min 02 sec)
Heartbeat CPU 0 instructions: 1000004 cycles: 322615 heartbeat IPC: 3.114 cumulative IPC: 3.1 (Simulation time: 00 hr 00 min 04 sec)
Heartbeat CPU 0 instructions: 1500008 cycles: 483340 heartbeat IPC: 3.111 cumulative IPC: 3.103 (Simulation time: 00 hr 00 min 06 sec)
Heartbeat CPU 0 instructions: 2000010 cycles: 643799 heartbeat IPC: 3.116 cumulative IPC: 3.107 (Simulation time: 00 hr 00 min 07 sec)
Heartbeat CPU 0 instructions: 2500012 cycles: 804566 heartbeat IPC: 3.11 cumulative IPC: 3.107 (Simulation time: 00 hr 00 min 09 sec)
Heartbeat CPU 0 instructions: 3000015 cycles: 965083 heartbeat IPC: 3.115 cumulative IPC: 3.109 (Simulation time: 00 hr 00 min 11 sec)
Heartbeat CPU 0 instructions: 3500018 cycles: 1125670 heartbeat IPC: 3.114 cumulative IPC: 3.109 (Simulation time: 00 hr 00 min 13 sec)
Heartbeat CPU 0 instructions: 4000020 cycles: 1286359 heartbeat IPC: 3.112 cumulative IPC: 3.11 (Simulation time: 00 hr 00 min 15 sec)
Heartbeat CPU 0 instructions: 4500026 cycles: 1447032 heartbeat IPC: 3.112 cumulative IPC: 3.11 (Simulation time: 00 hr 00 min 17 sec)
Heartbeat CPU 0 instructions: 5000033 cycles: 1607266 heartbeat IPC: 3.12 cumulative IPC: 3.111 (Simulation time: 00 hr 00 min 19 sec)
Heartbeat CPU 0 instructions: 5500039 cycles: 1768087 heartbeat IPC: 3.109 cumulative IPC: 3.111 (Simulation time: 00 hr 00 min 21 sec)
Heartbeat CPU 0 instructions: 6000045 cycles: 1928549 heartbeat IPC: 3.116 cumulative IPC: 3.111 (Simulation time: 00 hr 00 min 22 sec)
Heartbeat CPU 0 instructions: 6500048 cycles: 2088862 heartbeat IPC: 3.119 cumulative IPC: 3.112 (Simulation time: 00 hr 00 min 24 sec)
Heartbeat CPU 0 instructions: 7000050 cycles: 2249854 heartbeat IPC: 3.106 cumulative IPC: 3.111 (Simulation time: 00 hr 00 min 26 sec)
Heartbeat CPU 0 instructions: 7500053 cycles: 2410356 heartbeat IPC: 3.115 cumulative IPC: 3.112 (Simulation time: 00 hr 00 min 28 sec)
Heartbeat CPU 0 instructions: 8000055 cycles: 2571143 heartbeat IPC: 3.11 cumulative IPC: 3.111 (Simulation time: 00 hr 00 min 30 sec)
Heartbeat CPU 0 instructions: 8500058 cycles: 2731456 heartbeat IPC: 3.119 cumulative IPC: 3.112 (Simulation time: 00 hr 00 min 32 sec)
Heartbeat CPU 0 instructions: 9000060 cycles: 2892356 heartbeat IPC: 3.108 cumulative IPC: 3.112 (Simulation time: 00 hr 00 min 34 sec)
Heartbeat CPU 0 instructions: 9500063 cycles: 3052888 heartbeat IPC: 3.115 cumulative IPC: 3.112 (Simulation time: 00 hr 00 min 36 sec)
Heartbeat CPU 0 instructions: 10000065 cycles: 3213567 heartbeat IPC: 3.112 cumulative IPC: 3.112 (Simulation time: 00 hr 00 min 38 sec)
Heartbeat CPU 0 instructions: 10500068 cycles: 3374174 heartbeat IPC: 3.113 cumulative IPC: 3.112 (Simulation time: 00 hr 00 min 40 sec)
Heartbeat CPU 0 instructions: 11000070 cycles: 3534503 heartbeat IPC: 3.119 cumulative IPC: 3.112 (Simulation time: 00 hr 00 min 42 sec)
Heartbeat CPU 0 instructions: 11500073 cycles: 3695074 heartbeat IPC: 3.114 cumulative IPC: 3.112 (Simulation time: 00 hr 00 min 44 sec)
Heartbeat CPU 0 instructions: 12000075 cycles: 3855769 heartbeat IPC: 3.111 cumulative IPC: 3.112 (Simulation time: 00 hr 00 min 46 sec)
Heartbeat CPU 0 instructions: 12500076 cycles: 4016352 heartbeat IPC: 3.114 cumulative IPC: 3.112 (Simulation time: 00 hr 00 min 48 sec)
Heartbeat CPU 0 instructions: 13000080 cycles: 4176665 heartbeat IPC: 3.119 cumulative IPC: 3.113 (Simulation time: 00 hr 00 min 50 sec)
Heartbeat CPU 0 instructions: 13500084 cycles: 4337829 heartbeat IPC: 3.102 cumulative IPC: 3.112 (Simulation time: 00 hr 00 min 52 sec)
Heartbeat CPU 0 instructions: 14000084 cycles: 4497951 heartbeat IPC: 3.123 cumulative IPC: 3.113 (Simulation time: 00 hr 00 min 53 sec)
Heartbeat CPU 0 instructions: 14500089 cycles: 4659100 heartbeat IPC: 3.103 cumulative IPC: 3.112 (Simulation time: 00 hr 00 min 55 sec)
Heartbeat CPU 0 instructions: 15000089 cycles: 4819241 heartbeat IPC: 3.122 cumulative IPC: 3.113 (Simulation time: 00 hr 00 min 57 sec)
Heartbeat CPU 0 instructions: 15500092 cycles: 4979804 heartbeat IPC: 3.114 cumulative IPC: 3.113 (Simulation time: 00 hr 00 min 59 sec)
Heartbeat CPU 0 instructions: 16000095 cycles: 5140541 heartbeat IPC: 3.111 cumulative IPC: 3.113 (Simulation time: 00 hr 01 min 01 sec)
Heartbeat CPU 0 instructions: 16500098 cycles: 5301004 heartbeat IPC: 3.116 cumulative IPC: 3.113 (Simulation time: 00 hr 01 min 03 sec)
Heartbeat CPU 0 instructions: 17000100 cycles: 5461771 heartbeat IPC: 3.11 cumulative IPC: 3.113 (Simulation time: 00 hr 01 min 05 sec)
Heartbeat CPU 0 instructions: 17500103 cycles: 5622290 heartbeat IPC: 3.115 cumulative IPC: 3.113 (Simulation time: 00 hr 01 min 07 sec)
Heartbeat CPU 0 instructions: 18000105 cycles: 5782869 heartbeat IPC: 3.114 cumulative IPC: 3.113 (Simulation time: 00 hr 01 min 09 sec)
Heartbeat CPU 0 instructions: 18500108 cycles: 5943574 heartbeat IPC: 3.111 cumulative IPC: 3.113 (Simulation time: 00 hr 01 min 11 sec)
Heartbeat CPU 0 instructions: 19000114 cycles: 6104203 heartbeat IPC: 3.113 cumulative IPC: 3.113 (Simulation time: 00 hr 01 min 13 sec)
Heartbeat CPU 0 instructions: 19500120 cycles: 6264467 heartbeat IPC: 3.12 cumulative IPC: 3.113 (Simulation time: 00 hr 01 min 15 sec)
Heartbeat CPU 0 instructions: 20000127 cycles: 6425258 heartbeat IPC: 3.11 cumulative IPC: 3.113 (Simulation time: 00 hr 01 min 17 sec)
Heartbeat CPU 0 instructions: 20500133 cycles: 6585756 heartbeat IPC: 3.115 cumulative IPC: 3.113 (Simulation time: 00 hr 01 min 19 sec)
Heartbeat CPU 0 instructions: 21000135 cycles: 6746271 heartbeat IPC: 3.115 cumulative IPC: 3.113 (Simulation time: 00 hr 01 min 20 sec)
Heartbeat CPU 0 instructions: 21500138 cycles: 6907040 heartbeat IPC: 3.11 cumulative IPC: 3.113 (Simulation time: 00 hr 01 min 22 sec)
Heartbeat CPU 0 instructions: 22000140 cycles: 7067349 heartbeat IPC: 3.119 cumulative IPC: 3.113 (Simulation time: 00 hr 01 min 24 sec)
Heartbeat CPU 0 instructions: 22500143 cycles: 7228350 heartbeat IPC: 3.106 cumulative IPC: 3.113 (Simulation time: 00 hr 01 min 26 sec)
Heartbeat CPU 0 instructions: 23000145 cycles: 7388843 heartbeat IPC: 3.115 cumulative IPC: 3.113 (Simulation time: 00 hr 01 min 28 sec)
Heartbeat CPU 0 instructions: 23500148 cycles: 7549525 heartbeat IPC: 3.112 cumulative IPC: 3.113 (Simulation time: 00 hr 01 min 30 sec)
Heartbeat CPU 0 instructions: 24000150 cycles: 7710093 heartbeat IPC: 3.114 cumulative IPC: 3.113 (Simulation time: 00 hr 01 min 32 sec)
Heartbeat CPU 0 instructions: 24500153 cycles: 7870738 heartbeat IPC: 3.112 cumulative IPC: 3.113 (Simulation time: 00 hr 01 min 34 sec)
Heartbeat CPU 0 instructions: 25000155 cycles: 8031379 heartbeat IPC: 3.113 cumulative IPC: 3.113 (Simulation time: 00 hr 01 min 36 sec)
Heartbeat CPU 0 instructions: 25500156 cycles: 8191692 heartbeat IPC: 3.119 cumulative IPC: 3.113 (Simulation time: 00 hr 01 min 38 sec)
Heartbeat CPU 0 instructions: 26000160 cycles: 8352275 heartbeat IPC: 3.114 cumulative IPC: 3.113 (Simulation time: 00 hr 01 min 40 sec)
Heartbeat CPU 0 instructions: 26500163 cycles: 8512970 heartbeat IPC: 3.112 cumulative IPC: 3.113 (Simulation time: 00 hr 01 min 42 sec)
Heartbeat CPU 0 instructions: 27000164 cycles: 8673559 heartbeat IPC: 3.114 cumulative IPC: 3.113 (Simulation time: 00 hr 01 min 44 sec)
Heartbeat CPU 0 instructions: 27500168 cycles: 8833868 heartbeat IPC: 3.119 cumulative IPC: 3.113 (Simulation time: 00 hr 01 min 46 sec)
Heartbeat CPU 0 instructions: 28000172 cycles: 8994995 heartbeat IPC: 3.103 cumulative IPC: 3.113 (Simulation time: 00 hr 01 min 48 sec)
Heartbeat CPU 0 instructions: 28500172 cycles: 9155156 heartbeat IPC: 3.122 cumulative IPC: 3.113 (Simulation time: 00 hr 01 min 49 sec)
Heartbeat CPU 0 instructions: 29000177 cycles: 9316063 heartbeat IPC: 3.107 cumulative IPC: 3.113 (Simulation time: 00 hr 01 min 51 sec)
Heartbeat CPU 0 instructions: 29500178 cycles: 9476442 heartbeat IPC: 3.118 cumulative IPC: 3.113 (Simulation time: 00 hr 01 min 53 sec)
Heartbeat CPU 0 instructions: 30000180 cycles: 9636779 heartbeat IPC: 3.118 cumulative IPC: 3.113 (Simulation time: 00 hr 01 min 55 sec)
Heartbeat CPU 0 instructions: 30500183 cycles: 9797746 heartbeat IPC: 3.106 cumulative IPC: 3.113 (Simulation time: 00 hr 01 min 57 sec)
Heartbeat CPU 0 instructions: 31000185 cycles: 9958389 heartbeat IPC: 3.113 cumulative IPC: 3.113 (Simulation time: 00 hr 01 min 59 sec)
Heartbeat CPU 0 instructions: 31500188 cycles: 10119178 heartbeat IPC: 3.11 cumulative IPC: 3.113 (Simulation time: 00 hr 02 min 01 sec)
Heartbeat CPU 0 instructions: 32000190 cycles: 10279495 heartbeat IPC: 3.119 cumulative IPC: 3.113 (Simulation time: 00 hr 02 min 03 sec)
Heartbeat CPU 0 instructions: 32500191 cycles: 10440071 heartbeat IPC: 3.114 cumulative IPC: 3.113 (Simulation time: 00 hr 02 min 05 sec)
Heartbeat CPU 0 instructions: 33000195 cycles: 10600769 heartbeat IPC: 3.111 cumulative IPC: 3.113 (Simulation time: 00 hr 02 min 07 sec)
Heartbeat CPU 0 instructions: 33500199 cycles: 10761549 heartbeat IPC: 3.11 cumulative IPC: 3.113 (Simulation time: 00 hr 02 min 09 sec)
Heartbeat CPU 0 instructions: 34000200 cycles: 10921671 heartbeat IPC: 3.123 cumulative IPC: 3.113 (Simulation time: 00 hr 02 min 11 sec)
Heartbeat CPU 0 instructions: 34500201 cycles: 11082436 heartbeat IPC: 3.11 cumulative IPC: 3.113 (Simulation time: 00 hr 02 min 13 sec)
Heartbeat CPU 0 instructions: 35000205 cycles: 11242957 heartbeat IPC: 3.115 cumulative IPC: 3.113 (Simulation time: 00 hr 02 min 14 sec)
Heartbeat CPU 0 instructions: 35500208 cycles: 11403468 heartbeat IPC: 3.115 cumulative IPC: 3.113 (Simulation time: 00 hr 02 min 16 sec)
Heartbeat CPU 0 instructions: 36000210 cycles: 11564239 heartbeat IPC: 3.11 cumulative IPC: 3.113 (Simulation time: 00 hr 02 min 18 sec)
Heartbeat CPU 0 instructions: 36500213 cycles: 11724552 heartbeat IPC: 3.119 cumulative IPC: 3.113 (Simulation time: 00 hr 02 min 20 sec)
Heartbeat CPU 0 instructions: 37000215 cycles: 11885343 heartbeat IPC: 3.11 cumulative IPC: 3.113 (Simulation time: 00 hr 02 min 22 sec)
Heartbeat CPU 0 instructions: 37500218 cycles: 12045838 heartbeat IPC: 3.115 cumulative IPC: 3.113 (Simulation time: 00 hr 02 min 24 sec)
Heartbeat CPU 0 instructions: 38000220 cycles: 12206894 heartbeat IPC: 3.105 cumulative IPC: 3.113 (Simulation time: 00 hr 02 min 26 sec)
Heartbeat CPU 0 instructions: 38500223 cycles: 12367296 heartbeat IPC: 3.117 cumulative IPC: 3.113 (Simulation time: 00 hr 02 min 28 sec)
Heartbeat CPU 0 instructions: 39000225 cycles: 12527907 heartbeat IPC: 3.113 cumulative IPC: 3.113 (Simulation time: 00 hr 02 min 30 sec)
Heartbeat CPU 0 instructions: 39500228 cycles: 12688576 heartbeat IPC: 3.112 cumulative IPC: 3.113 (Simulation time: 00 hr 02 min 32 sec)
Heartbeat CPU 0 instructions: 40000230 cycles: 12848893 heartbeat IPC: 3.119 cumulative IPC: 3.113 (Simulation time: 00 hr 02 min 34 sec)
Heartbeat CPU 0 instructions: 40500233 cycles: 13009469 heartbeat IPC: 3.114 cumulative IPC: 3.113 (Simulation time: 00 hr 02 min 36 sec)
Heartbeat CPU 0 instructions: 41000235 cycles: 13170171 heartbeat IPC: 3.111 cumulative IPC: 3.113 (Simulation time: 00 hr 02 min 38 sec)
Heartbeat CPU 0 instructions: 41500236 cycles: 13330760 heartbeat IPC: 3.114 cumulative IPC: 3.113 (Simulation time: 00 hr 02 min 39 sec)
Heartbeat CPU 0 instructions: 42000240 cycles: 13491271 heartbeat IPC: 3.115 cumulative IPC: 3.113 (Simulation time: 00 hr 02 min 41 sec)
Heartbeat CPU 0 instructions: 42500247 cycles: 13652174 heartbeat IPC: 3.108 cumulative IPC: 3.113 (Simulation time: 00 hr 02 min 43 sec)
Heartbeat CPU 0 instructions: 43000252 cycles: 13812360 heartbeat IPC: 3.121 cumulative IPC: 3.113 (Simulation time: 00 hr 02 min 45 sec)
Heartbeat CPU 0 instructions: 43500255 cycles: 13973236 heartbeat IPC: 3.108 cumulative IPC: 3.113 (Simulation time: 00 hr 02 min 47 sec)
Heartbeat CPU 0 instructions: 44000258 cycles: 14133646 heartbeat IPC: 3.117 cumulative IPC: 3.113 (Simulation time: 00 hr 02 min 49 sec)
Heartbeat CPU 0 instructions: 44500260 cycles: 14293970 heartbeat IPC: 3.119 cumulative IPC: 3.113 (Simulation time: 00 hr 02 min 51 sec)
Heartbeat CPU 0 instructions: 45000263 cycles: 14454744 heartbeat IPC: 3.11 cumulative IPC: 3.113 (Simulation time: 00 hr 02 min 53 sec)
Heartbeat CPU 0 instructions: 45500265 cycles: 14615385 heartbeat IPC: 3.113 cumulative IPC: 3.113 (Simulation time: 00 hr 02 min 55 sec)
Heartbeat CPU 0 instructions: 46000268 cycles: 14776380 heartbeat IPC: 3.106 cumulative IPC: 3.113 (Simulation time: 00 hr 02 min 57 sec)
Heartbeat CPU 0 instructions: 46500270 cycles: 14936695 heartbeat IPC: 3.119 cumulative IPC: 3.113 (Simulation time: 00 hr 02 min 59 sec)
Heartbeat CPU 0 instructions: 47000276 cycles: 15097648 heartbeat IPC: 3.107 cumulative IPC: 3.113 (Simulation time: 00 hr 03 min 01 sec)
Heartbeat CPU 0 instructions: 47500283 cycles: 15257976 heartbeat IPC: 3.119 cumulative IPC: 3.113 (Simulation time: 00 hr 03 min 03 sec)
Heartbeat CPU 0 instructions: 48000287 cycles: 15418722 heartbeat IPC: 3.111 cumulative IPC: 3.113 (Simulation time: 00 hr 03 min 05 sec)
Heartbeat CPU 0 instructions: 48500288 cycles: 15579262 heartbeat IPC: 3.114 cumulative IPC: 3.113 (Simulation time: 00 hr 03 min 06 sec)
Heartbeat CPU 0 instructions: 49000289 cycles: 15739624 heartbeat IPC: 3.118 cumulative IPC: 3.113 (Simulation time: 00 hr 03 min 08 sec)
Heartbeat CPU 0 instructions: 49500293 cycles: 15900164 heartbeat IPC: 3.115 cumulative IPC: 3.113 (Simulation time: 00 hr 03 min 10 sec)
Warmup finished CPU 0 instructions: 50000003 cycles: 16060604 cumulative IPC: 3.113 (Simulation time: 00 hr 03 min 12 sec)
Warmup complete CPU 0 instructions: 50000003 cycles: 16060604 cumulative IPC: 3.113 (Simulation time: 00 hr 03 min 12 sec)
Heartbeat CPU 0 instructions: 50000295 cycles: 16060666 heartbeat IPC: 3.115 cumulative IPC: 4.71 (Simulation time: 00 hr 03 min 12 sec)
Heartbeat CPU 0 instructions: 50500297 cycles: 16534973 heartbeat IPC: 1.054 cumulative IPC: 1.055 (Simulation time: 00 hr 03 min 18 sec)
Heartbeat CPU 0 instructions: 51000303 cycles: 17003611 heartbeat IPC: 1.067 cumulative IPC: 1.061 (Simulation time: 00 hr 03 min 23 sec)
Heartbeat CPU 0 instructions: 51500306 cycles: 17480331 heartbeat IPC: 1.049 cumulative IPC: 1.057 (Simulation time: 00 hr 03 min 28 sec)
Heartbeat CPU 0 instructions: 52000312 cycles: 17959046 heartbeat IPC: 1.044 cumulative IPC: 1.054 (Simulation time: 00 hr 03 min 34 sec)
Heartbeat CPU 0 instructions: 52500319 cycles: 18443928 heartbeat IPC: 1.031 cumulative IPC: 1.049 (Simulation time: 00 hr 03 min 39 sec)
Heartbeat CPU 0 instructions: 53000320 cycles: 18912527 heartbeat IPC: 1.067 cumulative IPC: 1.052 (Simulation time: 00 hr 03 min 45 sec)
Heartbeat CPU 0 instructions: 53500320 cycles: 19390365 heartbeat IPC: 1.046 cumulative IPC: 1.051 (Simulation time: 00 hr 03 min 50 sec)
Heartbeat CPU 0 instructions: 54000320 cycles: 19866513 heartbeat IPC: 1.05 cumulative IPC: 1.051 (Simulation time: 00 hr 03 min 56 sec)
Heartbeat CPU 0 instructions: 54500320 cycles: 20346859 heartbeat IPC: 1.041 cumulative IPC: 1.05 (Simulation time: 00 hr 04 min 01 sec)
Heartbeat CPU 0 instructions: 55000323 cycles: 20815229 heartbeat IPC: 1.068 cumulative IPC: 1.052 (Simulation time: 00 hr 04 min 07 sec)
Heartbeat CPU 0 instructions: 55500325 cycles: 21285638 heartbeat IPC: 1.063 cumulative IPC: 1.053 (Simulation time: 00 hr 04 min 12 sec)
Heartbeat CPU 0 instructions: 56000328 cycles: 21774211 heartbeat IPC: 1.023 cumulative IPC: 1.05 (Simulation time: 00 hr 04 min 17 sec)
Heartbeat CPU 0 instructions: 56500330 cycles: 22245133 heartbeat IPC: 1.062 cumulative IPC: 1.051 (Simulation time: 00 hr 04 min 23 sec)
Heartbeat CPU 0 instructions: 57000330 cycles: 22726531 heartbeat IPC: 1.039 cumulative IPC: 1.05 (Simulation time: 00 hr 04 min 28 sec)
Heartbeat CPU 0 instructions: 57500337 cycles: 23202019 heartbeat IPC: 1.052 cumulative IPC: 1.05 (Simulation time: 00 hr 04 min 34 sec)
Heartbeat CPU 0 instructions: 58000342 cycles: 23683570 heartbeat IPC: 1.038 cumulative IPC: 1.05 (Simulation time: 00 hr 04 min 39 sec)
Heartbeat CPU 0 instructions: 58500349 cycles: 24155580 heartbeat IPC: 1.059 cumulative IPC: 1.05 (Simulation time: 00 hr 04 min 45 sec)
Heartbeat CPU 0 instructions: 59000352 cycles: 24643548 heartbeat IPC: 1.025 cumulative IPC: 1.049 (Simulation time: 00 hr 04 min 50 sec)
Heartbeat CPU 0 instructions: 59500355 cycles: 25121167 heartbeat IPC: 1.047 cumulative IPC: 1.049 (Simulation time: 00 hr 04 min 56 sec)
Heartbeat CPU 0 instructions: 60000355 cycles: 25593140 heartbeat IPC: 1.059 cumulative IPC: 1.049 (Simulation time: 00 hr 05 min 01 sec)
Heartbeat CPU 0 instructions: 60500360 cycles: 26071557 heartbeat IPC: 1.045 cumulative IPC: 1.049 (Simulation time: 00 hr 05 min 07 sec)
Heartbeat CPU 0 instructions: 61000360 cycles: 26860011 heartbeat IPC: 0.6342 cumulative IPC: 1.019 (Simulation time: 00 hr 05 min 14 sec)
Heartbeat CPU 0 instructions: 61500360 cycles: 27694392 heartbeat IPC: 0.5992 cumulative IPC: 0.9885 (Simulation time: 00 hr 05 min 22 sec)
Heartbeat CPU 0 instructions: 62000360 cycles: 28557592 heartbeat IPC: 0.5792 cumulative IPC: 0.9603 (Simulation time: 00 hr 05 min 30 sec)
Heartbeat CPU 0 instructions: 62500360 cycles: 29432463 heartbeat IPC: 0.5715 cumulative IPC: 0.9348 (Simulation time: 00 hr 05 min 39 sec)
Heartbeat CPU 0 instructions: 63000360 cycles: 30320242 heartbeat IPC: 0.5632 cumulative IPC: 0.9117 (Simulation time: 00 hr 05 min 47 sec)
Heartbeat CPU 0 instructions: 63500360 cycles: 31201217 heartbeat IPC: 0.5676 cumulative IPC: 0.8917 (Simulation time: 00 hr 05 min 56 sec)
Heartbeat CPU 0 instructions: 64000360 cycles: 32088118 heartbeat IPC: 0.5638 cumulative IPC: 0.8735 (Simulation time: 00 hr 06 min 04 sec)
Heartbeat CPU 0 instructions: 64500360 cycles: 32985065 heartbeat IPC: 0.5574 cumulative IPC: 0.8568 (Simulation time: 00 hr 06 min 13 sec)
Heartbeat CPU 0 instructions: 65000360 cycles: 33870691 heartbeat IPC: 0.5646 cumulative IPC: 0.8422 (Simulation time: 00 hr 06 min 21 sec)
Heartbeat CPU 0 instructions: 65500360 cycles: 34749761 heartbeat IPC: 0.5688 cumulative IPC: 0.8294 (Simulation time: 00 hr 06 min 30 sec)
Heartbeat CPU 0 instructions: 66000362 cycles: 35236422 heartbeat IPC: 1.027 cumulative IPC: 0.8344 (Simulation time: 00 hr 06 min 35 sec)
Heartbeat CPU 0 instructions: 66500363 cycles: 35610408 heartbeat IPC: 1.337 cumulative IPC: 0.844 (Simulation time: 00 hr 06 min 40 sec)
Heartbeat CPU 0 instructions: 67000363 cycles: 35991516 heartbeat IPC: 1.312 cumulative IPC: 0.853 (Simulation time: 00 hr 06 min 45 sec)
Heartbeat CPU 0 instructions: 67500367 cycles: 36366327 heartbeat IPC: 1.334 cumulative IPC: 0.8618 (Simulation time: 00 hr 06 min 49 sec)
Heartbeat CPU 0 instructions: 68000371 cycles: 36717167 heartbeat IPC: 1.425 cumulative IPC: 0.8714 (Simulation time: 00 hr 06 min 54 sec)
Heartbeat CPU 0 instructions: 68500371 cycles: 37070179 heartbeat IPC: 1.416 cumulative IPC: 0.8806 (Simulation time: 00 hr 06 min 58 sec)
Heartbeat CPU 0 instructions: 69000375 cycles: 37415497 heartbeat IPC: 1.448 cumulative IPC: 0.8897 (Simulation time: 00 hr 07 min 03 sec)
Heartbeat CPU 0 instructions: 69500381 cycles: 37748330 heartbeat IPC: 1.502 cumulative IPC: 0.8991 (Simulation time: 00 hr 07 min 07 sec)
Heartbeat CPU 0 instructions: 70000387 cycles: 38064602 heartbeat IPC: 1.581 cumulative IPC: 0.9089 (Simulation time: 00 hr 07 min 11 sec)
Heartbeat CPU 0 instructions: 70500387 cycles: 38389065 heartbeat IPC: 1.541 cumulative IPC: 0.9181 (Simulation time: 00 hr 07 min 15 sec)
Heartbeat CPU 0 instructions: 71000387 cycles: 38705410 heartbeat IPC: 1.581 cumulative IPC: 0.9274 (Simulation time: 00 hr 07 min 19 sec)
Heartbeat CPU 0 instructions: 71500391 cycles: 39019062 heartbeat IPC: 1.594 cumulative IPC: 0.9365 (Simulation time: 00 hr 07 min 23 sec)
Heartbeat CPU 0 instructions: 72000395 cycles: 39336116 heartbeat IPC: 1.577 cumulative IPC: 0.9452 (Simulation time: 00 hr 07 min 27 sec)
Heartbeat CPU 0 instructions: 72500399 cycles: 39654243 heartbeat IPC: 1.572 cumulative IPC: 0.9537 (Simulation time: 00 hr 07 min 31 sec)
Heartbeat CPU 0 instructions: 73000404 cycles: 39964382 heartbeat IPC: 1.612 cumulative IPC: 0.9622 (Simulation time: 00 hr 07 min 35 sec)
Heartbeat CPU 0 instructions: 73500409 cycles: 40283867 heartbeat IPC: 1.565 cumulative IPC: 0.9702 (Simulation time: 00 hr 07 min 39 sec)
Heartbeat CPU 0 instructions: 74000415 cycles: 40605324 heartbeat IPC: 1.555 cumulative IPC: 0.9778 (Simulation time: 00 hr 07 min 43 sec)
Heartbeat CPU 0 instructions: 74500419 cycles: 40919463 heartbeat IPC: 1.592 cumulative IPC: 0.9856 (Simulation time: 00 hr 07 min 47 sec)
Heartbeat CPU 0 instructions: 75000419 cycles: 41229657 heartbeat IPC: 1.612 cumulative IPC: 0.9933 (Simulation time: 00 hr 07 min 51 sec)
Heartbeat CPU 0 instructions: 75500425 cycles: 41545376 heartbeat IPC: 1.584 cumulative IPC: 1.001 (Simulation time: 00 hr 07 min 55 sec)
Heartbeat CPU 0 instructions: 76000431 cycles: 41858658 heartbeat IPC: 1.596 cumulative IPC: 1.008 (Simulation time: 00 hr 07 min 59 sec)
Heartbeat CPU 0 instructions: 76500431 cycles: 42178459 heartbeat IPC: 1.563 cumulative IPC: 1.015 (Simulation time: 00 hr 08 min 03 sec)
Heartbeat CPU 0 instructions: 77000431 cycles: 42501500 heartbeat IPC: 1.548 cumulative IPC: 1.021 (Simulation time: 00 hr 08 min 07 sec)
Heartbeat CPU 0 instructions: 77500432 cycles: 42817920 heartbeat IPC: 1.58 cumulative IPC: 1.028 (Simulation time: 00 hr 08 min 11 sec)
Heartbeat CPU 0 instructions: 78000436 cycles: 43138137 heartbeat IPC: 1.561 cumulative IPC: 1.034 (Simulation time: 00 hr 08 min 15 sec)
Heartbeat CPU 0 instructions: 78500436 cycles: 43454479 heartbeat IPC: 1.581 cumulative IPC: 1.04 (Simulation time: 00 hr 08 min 19 sec)
Heartbeat CPU 0 instructions: 79000439 cycles: 43767097 heartbeat IPC: 1.599 cumulative IPC: 1.047 (Simulation time: 00 hr 08 min 23 sec)
Heartbeat CPU 0 instructions: 79500444 cycles: 44084615 heartbeat IPC: 1.575 cumulative IPC: 1.053 (Simulation time: 00 hr 08 min 27 sec)
Heartbeat CPU 0 instructions: 80000449 cycles: 44400538 heartbeat IPC: 1.583 cumulative IPC: 1.059 (Simulation time: 00 hr 08 min 31 sec)
Heartbeat CPU 0 instructions: 80500455 cycles: 44709949 heartbeat IPC: 1.616 cumulative IPC: 1.065 (Simulation time: 00 hr 08 min 35 sec)
Heartbeat CPU 0 instructions: 81000455 cycles: 45028134 heartbeat IPC: 1.571 cumulative IPC: 1.07 (Simulation time: 00 hr 08 min 39 sec)
Heartbeat CPU 0 instructions: 81500460 cycles: 45344565 heartbeat IPC: 1.58 cumulative IPC: 1.076 (Simulation time: 00 hr 08 min 43 sec)
Heartbeat CPU 0 instructions: 82000460 cycles: 45658834 heartbeat IPC: 1.591 cumulative IPC: 1.081 (Simulation time: 00 hr 08 min 47 sec)
Heartbeat CPU 0 instructions: 82500463 cycles: 45969209 heartbeat IPC: 1.611 cumulative IPC: 1.087 (Simulation time: 00 hr 08 min 51 sec)
Heartbeat CPU 0 instructions: 83000463 cycles: 46285213 heartbeat IPC: 1.582 cumulative IPC: 1.092 (Simulation time: 00 hr 08 min 55 sec)
Heartbeat CPU 0 instructions: 83500464 cycles: 46604700 heartbeat IPC: 1.565 cumulative IPC: 1.097 (Simulation time: 00 hr 08 min 59 sec)
Heartbeat CPU 0 instructions: 84000465 cycles: 46934335 heartbeat IPC: 1.517 cumulative IPC: 1.101 (Simulation time: 00 hr 09 min 03 sec)
Heartbeat CPU 0 instructions: 84500468 cycles: 47251276 heartbeat IPC: 1.578 cumulative IPC: 1.106 (Simulation time: 00 hr 09 min 07 sec)
Heartbeat CPU 0 instructions: 85000475 cycles: 47569791 heartbeat IPC: 1.57 cumulative IPC: 1.111 (Simulation time: 00 hr 09 min 11 sec)
Heartbeat CPU 0 instructions: 85500476 cycles: 47880739 heartbeat IPC: 1.608 cumulative IPC: 1.116 (Simulation time: 00 hr 09 min 15 sec)
Heartbeat CPU 0 instructions: 86000480 cycles: 48190086 heartbeat IPC: 1.616 cumulative IPC: 1.12 (Simulation time: 00 hr 09 min 19 sec)
Heartbeat CPU 0 instructions: 86500483 cycles: 48501255 heartbeat IPC: 1.607 cumulative IPC: 1.125 (Simulation time: 00 hr 09 min 23 sec)
Heartbeat CPU 0 instructions: 87000487 cycles: 48821490 heartbeat IPC: 1.561 cumulative IPC: 1.129 (Simulation time: 00 hr 09 min 27 sec)
Heartbeat CPU 0 instructions: 87500491 cycles: 49130681 heartbeat IPC: 1.617 cumulative IPC: 1.134 (Simulation time: 00 hr 09 min 30 sec)
Heartbeat CPU 0 instructions: 88000491 cycles: 49456926 heartbeat IPC: 1.533 cumulative IPC: 1.138 (Simulation time: 00 hr 09 min 35 sec)
Heartbeat CPU 0 instructions: 88500495 cycles: 49773268 heartbeat IPC: 1.581 cumulative IPC: 1.142 (Simulation time: 00 hr 09 min 39 sec)
Heartbeat CPU 0 instructions: 89000501 cycles: 50087137 heartbeat IPC: 1.593 cumulative IPC: 1.146 (Simulation time: 00 hr 09 min 43 sec)
Heartbeat CPU 0 instructions: 89500503 cycles: 50408337 heartbeat IPC: 1.557 cumulative IPC: 1.15 (Simulation time: 00 hr 09 min 47 sec)
Heartbeat CPU 0 instructions: 90000507 cycles: 50728758 heartbeat IPC: 1.56 cumulative IPC: 1.154 (Simulation time: 00 hr 09 min 51 sec)
Heartbeat CPU 0 instructions: 90500511 cycles: 51045367 heartbeat IPC: 1.579 cumulative IPC: 1.158 (Simulation time: 00 hr 09 min 55 sec)
Heartbeat CPU 0 instructions: 91000515 cycles: 51366186 heartbeat IPC: 1.559 cumulative IPC: 1.161 (Simulation time: 00 hr 09 min 59 sec)
Heartbeat CPU 0 instructions: 91500516 cycles: 51677298 heartbeat IPC: 1.607 cumulative IPC: 1.165 (Simulation time: 00 hr 10 min 03 sec)
Heartbeat CPU 0 instructions: 92000519 cycles: 51995767 heartbeat IPC: 1.57 cumulative IPC: 1.169 (Simulation time: 00 hr 10 min 07 sec)
Heartbeat CPU 0 instructions: 92500526 cycles: 52305024 heartbeat IPC: 1.617 cumulative IPC: 1.173 (Simulation time: 00 hr 10 min 10 sec)
Heartbeat CPU 0 instructions: 93000527 cycles: 52614424 heartbeat IPC: 1.616 cumulative IPC: 1.176 (Simulation time: 00 hr 10 min 14 sec)
Heartbeat CPU 0 instructions: 93500531 cycles: 52932713 heartbeat IPC: 1.571 cumulative IPC: 1.18 (Simulation time: 00 hr 10 min 18 sec)
Heartbeat CPU 0 instructions: 94000531 cycles: 53250879 heartbeat IPC: 1.572 cumulative IPC: 1.183 (Simulation time: 00 hr 10 min 22 sec)
Heartbeat CPU 0 instructions: 94500537 cycles: 53567468 heartbeat IPC: 1.579 cumulative IPC: 1.186 (Simulation time: 00 hr 10 min 26 sec)
Heartbeat CPU 0 instructions: 95000537 cycles: 53887815 heartbeat IPC: 1.561 cumulative IPC: 1.19 (Simulation time: 00 hr 10 min 30 sec)
Heartbeat CPU 0 instructions: 95500543 cycles: 54206012 heartbeat IPC: 1.571 cumulative IPC: 1.193 (Simulation time: 00 hr 10 min 34 sec)
Heartbeat CPU 0 instructions: 96000543 cycles: 54525320 heartbeat IPC: 1.566 cumulative IPC: 1.196 (Simulation time: 00 hr 10 min 38 sec)
Heartbeat CPU 0 instructions: 96500543 cycles: 54831459 heartbeat IPC: 1.633 cumulative IPC: 1.199 (Simulation time: 00 hr 10 min 42 sec)
Heartbeat CPU 0 instructions: 97000543 cycles: 55149551 heartbeat IPC: 1.572 cumulative IPC: 1.202 (Simulation time: 00 hr 10 min 46 sec)
Heartbeat CPU 0 instructions: 97500543 cycles: 55470545 heartbeat IPC: 1.558 cumulative IPC: 1.205 (Simulation time: 00 hr 10 min 50 sec)
Heartbeat CPU 0 instructions: 98000544 cycles: 55781264 heartbeat IPC: 1.609 cumulative IPC: 1.208 (Simulation time: 00 hr 10 min 54 sec)
Heartbeat CPU 0 instructions: 98500545 cycles: 56086200 heartbeat IPC: 1.64 cumulative IPC: 1.212 (Simulation time: 00 hr 10 min 58 sec)
Heartbeat CPU 0 instructions: 99000551 cycles: 56397461 heartbeat IPC: 1.606 cumulative IPC: 1.215 (Simulation time: 00 hr 11 min 02 sec)
Heartbeat CPU 0 instructions: 99500555 cycles: 56711067 heartbeat IPC: 1.594 cumulative IPC: 1.218 (Simulation time: 00 hr 11 min 06 sec)
Heartbeat CPU 0 instructions: 100000559 cycles: 57015501 heartbeat IPC: 1.642 cumulative IPC: 1.221 (Simulation time: 00 hr 11 min 10 sec)
Heartbeat CPU 0 instructions: 100500563 cycles: 57334098 heartbeat IPC: 1.569 cumulative IPC: 1.224 (Simulation time: 00 hr 11 min 14 sec)
Heartbeat CPU 0 instructions: 101000567 cycles: 57656632 heartbeat IPC: 1.55 cumulative IPC: 1.226 (Simulation time: 00 hr 11 min 18 sec)
Heartbeat CPU 0 instructions: 101500569 cycles: 57974481 heartbeat IPC: 1.573 cumulative IPC: 1.229 (Simulation time: 00 hr 11 min 22 sec)
Heartbeat CPU 0 instructions: 102000569 cycles: 58283716 heartbeat IPC: 1.617 cumulative IPC: 1.232 (Simulation time: 00 hr 11 min 26 sec)
Heartbeat CPU 0 instructions: 102500575 cycles: 58599147 heartbeat IPC: 1.585 cumulative IPC: 1.234 (Simulation time: 00 hr 11 min 30 sec)
Heartbeat CPU 0 instructions: 103000575 cycles: 58917103 heartbeat IPC: 1.573 cumulative IPC: 1.237 (Simulation time: 00 hr 11 min 34 sec)
Heartbeat CPU 0 instructions: 103500577 cycles: 59233010 heartbeat IPC: 1.583 cumulative IPC: 1.239 (Simulation time: 00 hr 11 min 38 sec)
Heartbeat CPU 0 instructions: 104000579 cycles: 59551161 heartbeat IPC: 1.572 cumulative IPC: 1.242 (Simulation time: 00 hr 11 min 42 sec)
Heartbeat CPU 0 instructions: 104500579 cycles: 59868911 heartbeat IPC: 1.574 cumulative IPC: 1.244 (Simulation time: 00 hr 11 min 46 sec)
Heartbeat CPU 0 instructions: 105000579 cycles: 60197289 heartbeat IPC: 1.523 cumulative IPC: 1.246 (Simulation time: 00 hr 11 min 50 sec)
Heartbeat CPU 0 instructions: 105500579 cycles: 60506653 heartbeat IPC: 1.616 cumulative IPC: 1.249 (Simulation time: 00 hr 11 min 54 sec)
Heartbeat CPU 0 instructions: 106000582 cycles: 60821245 heartbeat IPC: 1.589 cumulative IPC: 1.251 (Simulation time: 00 hr 11 min 58 sec)
Heartbeat CPU 0 instructions: 106500583 cycles: 61139050 heartbeat IPC: 1.573 cumulative IPC: 1.253 (Simulation time: 00 hr 12 min 02 sec)
Heartbeat CPU 0 instructions: 107000587 cycles: 61466593 heartbeat IPC: 1.527 cumulative IPC: 1.255 (Simulation time: 00 hr 12 min 06 sec)
Heartbeat CPU 0 instructions: 107500591 cycles: 61787431 heartbeat IPC: 1.558 cumulative IPC: 1.257 (Simulation time: 00 hr 12 min 10 sec)
Heartbeat CPU 0 instructions: 108000598 cycles: 62103764 heartbeat IPC: 1.581 cumulative IPC: 1.26 (Simulation time: 00 hr 12 min 14 sec)
Heartbeat CPU 0 instructions: 108500599 cycles: 62422732 heartbeat IPC: 1.568 cumulative IPC: 1.262 (Simulation time: 00 hr 12 min 18 sec)
Heartbeat CPU 0 instructions: 109000603 cycles: 62740250 heartbeat IPC: 1.575 cumulative IPC: 1.264 (Simulation time: 00 hr 12 min 22 sec)
Heartbeat CPU 0 instructions: 109500606 cycles: 63057690 heartbeat IPC: 1.575 cumulative IPC: 1.266 (Simulation time: 00 hr 12 min 26 sec)
Heartbeat CPU 0 instructions: 110000611 cycles: 63371711 heartbeat IPC: 1.592 cumulative IPC: 1.268 (Simulation time: 00 hr 12 min 30 sec)
Heartbeat CPU 0 instructions: 110500616 cycles: 63689564 heartbeat IPC: 1.573 cumulative IPC: 1.27 (Simulation time: 00 hr 12 min 34 sec)
Heartbeat CPU 0 instructions: 111000622 cycles: 64000247 heartbeat IPC: 1.609 cumulative IPC: 1.272 (Simulation time: 00 hr 12 min 38 sec)
Heartbeat CPU 0 instructions: 111500625 cycles: 64317161 heartbeat IPC: 1.578 cumulative IPC: 1.274 (Simulation time: 00 hr 12 min 42 sec)
Heartbeat CPU 0 instructions: 112000627 cycles: 64640494 heartbeat IPC: 1.546 cumulative IPC: 1.276 (Simulation time: 00 hr 12 min 46 sec)
Heartbeat CPU 0 instructions: 112500627 cycles: 64954990 heartbeat IPC: 1.59 cumulative IPC: 1.278 (Simulation time: 00 hr 12 min 50 sec)
Heartbeat CPU 0 instructions: 113000627 cycles: 65269136 heartbeat IPC: 1.592 cumulative IPC: 1.28 (Simulation time: 00 hr 12 min 54 sec)
Heartbeat CPU 0 instructions: 113500627 cycles: 65588585 heartbeat IPC: 1.565 cumulative IPC: 1.282 (Simulation time: 00 hr 12 min 58 sec)
Heartbeat CPU 0 instructions: 114000631 cycles: 65902268 heartbeat IPC: 1.594 cumulative IPC: 1.284 (Simulation time: 00 hr 13 min 02 sec)
Heartbeat CPU 0 instructions: 114500633 cycles: 66215246 heartbeat IPC: 1.598 cumulative IPC: 1.286 (Simulation time: 00 hr 13 min 06 sec)
Heartbeat CPU 0 instructions: 115000635 cycles: 66531987 heartbeat IPC: 1.579 cumulative IPC: 1.288 (Simulation time: 00 hr 13 min 10 sec)
Heartbeat CPU 0 instructions: 115500635 cycles: 66851127 heartbeat IPC: 1.567 cumulative IPC: 1.29 (Simulation time: 00 hr 13 min 14 sec)
Heartbeat CPU 0 instructions: 116000639 cycles: 67168223 heartbeat IPC: 1.577 cumulative IPC: 1.291 (Simulation time: 00 hr 13 min 18 sec)
Heartbeat CPU 0 instructions: 116500643 cycles: 67485985 heartbeat IPC: 1.574 cumulative IPC: 1.293 (Simulation time: 00 hr 13 min 22 sec)
Heartbeat CPU 0 instructions: 117000647 cycles: 67799662 heartbeat IPC: 1.594 cumulative IPC: 1.295 (Simulation time: 00 hr 13 min 26 sec)
Heartbeat CPU 0 instructions: 117500650 cycles: 68115030 heartbeat IPC: 1.585 cumulative IPC: 1.297 (Simulation time: 00 hr 13 min 30 sec)
Heartbeat CPU 0 instructions: 118000655 cycles: 68444426 heartbeat IPC: 1.518 cumulative IPC: 1.298 (Simulation time: 00 hr 13 min 35 sec)
Heartbeat CPU 0 instructions: 118500655 cycles: 68753930 heartbeat IPC: 1.615 cumulative IPC: 1.3 (Simulation time: 00 hr 13 min 38 sec)
Heartbeat CPU 0 instructions: 119000658 cycles: 69076245 heartbeat IPC: 1.551 cumulative IPC: 1.302 (Simulation time: 00 hr 13 min 43 sec)
Heartbeat CPU 0 instructions: 119500659 cycles: 69394609 heartbeat IPC: 1.571 cumulative IPC: 1.303 (Simulation time: 00 hr 13 min 47 sec)
Heartbeat CPU 0 instructions: 120000659 cycles: 69704660 heartbeat IPC: 1.613 cumulative IPC: 1.305 (Simulation time: 00 hr 13 min 51 sec)
Heartbeat CPU 0 instructions: 120500659 cycles: 70021457 heartbeat IPC: 1.578 cumulative IPC: 1.307 (Simulation time: 00 hr 13 min 55 sec)
Heartbeat CPU 0 instructions: 121000661 cycles: 70338271 heartbeat IPC: 1.578 cumulative IPC: 1.308 (Simulation time: 00 hr 13 min 59 sec)
Heartbeat CPU 0 instructions: 121500667 cycles: 70655811 heartbeat IPC: 1.575 cumulative IPC: 1.31 (Simulation time: 00 hr 14 min 03 sec)
Heartbeat CPU 0 instructions: 122000667 cycles: 70979969 heartbeat IPC: 1.542 cumulative IPC: 1.311 (Simulation time: 00 hr 14 min 07 sec)
Heartbeat CPU 0 instructions: 122500667 cycles: 71294150 heartbeat IPC: 1.591 cumulative IPC: 1.313 (Simulation time: 00 hr 14 min 11 sec)
Heartbeat CPU 0 instructions: 123000669 cycles: 71611779 heartbeat IPC: 1.574 cumulative IPC: 1.314 (Simulation time: 00 hr 14 min 15 sec)
Heartbeat CPU 0 instructions: 123500670 cycles: 71938738 heartbeat IPC: 1.529 cumulative IPC: 1.315 (Simulation time: 00 hr 14 min 19 sec)
Heartbeat CPU 0 instructions: 124000675 cycles: 72249559 heartbeat IPC: 1.609 cumulative IPC: 1.317 (Simulation time: 00 hr 14 min 23 sec)
Heartbeat CPU 0 instructions: 124500678 cycles: 72555099 heartbeat IPC: 1.636 cumulative IPC: 1.319 (Simulation time: 00 hr 14 min 27 sec)
Heartbeat CPU 0 instructions: 125000679 cycles: 72867714 heartbeat IPC: 1.599 cumulative IPC: 1.32 (Simulation time: 00 hr 14 min 30 sec)
Heartbeat CPU 0 instructions: 125500679 cycles: 73184684 heartbeat IPC: 1.577 cumulative IPC: 1.322 (Simulation time: 00 hr 14 min 34 sec)
Heartbeat CPU 0 instructions: 126000685 cycles: 73501082 heartbeat IPC: 1.58 cumulative IPC: 1.323 (Simulation time: 00 hr 14 min 38 sec)
Heartbeat CPU 0 instructions: 126500691 cycles: 73820987 heartbeat IPC: 1.563 cumulative IPC: 1.324 (Simulation time: 00 hr 14 min 42 sec)
Heartbeat CPU 0 instructions: 127000691 cycles: 74149034 heartbeat IPC: 1.524 cumulative IPC: 1.326 (Simulation time: 00 hr 14 min 47 sec)
Heartbeat CPU 0 instructions: 127500696 cycles: 74463444 heartbeat IPC: 1.59 cumulative IPC: 1.327 (Simulation time: 00 hr 14 min 51 sec)
Heartbeat CPU 0 instructions: 128000703 cycles: 74785356 heartbeat IPC: 1.553 cumulative IPC: 1.328 (Simulation time: 00 hr 14 min 55 sec)
Heartbeat CPU 0 instructions: 128500703 cycles: 75098907 heartbeat IPC: 1.595 cumulative IPC: 1.33 (Simulation time: 00 hr 14 min 59 sec)
Heartbeat CPU 0 instructions: 129000705 cycles: 75414688 heartbeat IPC: 1.583 cumulative IPC: 1.331 (Simulation time: 00 hr 15 min 03 sec)
Heartbeat CPU 0 instructions: 129500705 cycles: 75725174 heartbeat IPC: 1.61 cumulative IPC: 1.332 (Simulation time: 00 hr 15 min 07 sec)
Heartbeat CPU 0 instructions: 130000711 cycles: 76042156 heartbeat IPC: 1.577 cumulative IPC: 1.334 (Simulation time: 00 hr 15 min 11 sec)
Heartbeat CPU 0 instructions: 130500711 cycles: 76356325 heartbeat IPC: 1.592 cumulative IPC: 1.335 (Simulation time: 00 hr 15 min 15 sec)
Heartbeat CPU 0 instructions: 131000718 cycles: 76662938 heartbeat IPC: 1.631 cumulative IPC: 1.337 (Simulation time: 00 hr 15 min 18 sec)
Heartbeat CPU 0 instructions: 131500719 cycles: 76979625 heartbeat IPC: 1.579 cumulative IPC: 1.338 (Simulation time: 00 hr 15 min 22 sec)
Heartbeat CPU 0 instructions: 132000722 cycles: 77298725 heartbeat IPC: 1.567 cumulative IPC: 1.339 (Simulation time: 00 hr 15 min 26 sec)
Heartbeat CPU 0 instructions: 132500723 cycles: 77608225 heartbeat IPC: 1.616 cumulative IPC: 1.34 (Simulation time: 00 hr 15 min 30 sec)
Heartbeat CPU 0 instructions: 133000724 cycles: 77917939 heartbeat IPC: 1.614 cumulative IPC: 1.342 (Simulation time: 00 hr 15 min 34 sec)
Heartbeat CPU 0 instructions: 133500724 cycles: 78239197 heartbeat IPC: 1.556 cumulative IPC: 1.343 (Simulation time: 00 hr 15 min 38 sec)
Heartbeat CPU 0 instructions: 134000731 cycles: 78553907 heartbeat IPC: 1.589 cumulative IPC: 1.344 (Simulation time: 00 hr 15 min 42 sec)
Heartbeat CPU 0 instructions: 134500731 cycles: 78872497 heartbeat IPC: 1.569 cumulative IPC: 1.345 (Simulation time: 00 hr 15 min 46 sec)
Heartbeat CPU 0 instructions: 135000731 cycles: 79195905 heartbeat IPC: 1.546 cumulative IPC: 1.346 (Simulation time: 00 hr 15 min 50 sec)
Heartbeat CPU 0 instructions: 135500734 cycles: 79512271 heartbeat IPC: 1.58 cumulative IPC: 1.347 (Simulation time: 00 hr 15 min 54 sec)
Heartbeat CPU 0 instructions: 136000735 cycles: 79830877 heartbeat IPC: 1.569 cumulative IPC: 1.349 (Simulation time: 00 hr 15 min 58 sec)
Heartbeat CPU 0 instructions: 136500735 cycles: 80143757 heartbeat IPC: 1.598 cumulative IPC: 1.35 (Simulation time: 00 hr 16 min 02 sec)
Heartbeat CPU 0 instructions: 137000736 cycles: 80459521 heartbeat IPC: 1.583 cumulative IPC: 1.351 (Simulation time: 00 hr 16 min 06 sec)
Heartbeat CPU 0 instructions: 137500739 cycles: 80779599 heartbeat IPC: 1.562 cumulative IPC: 1.352 (Simulation time: 00 hr 16 min 10 sec)
Heartbeat CPU 0 instructions: 138000743 cycles: 81097858 heartbeat IPC: 1.571 cumulative IPC: 1.353 (Simulation time: 00 hr 16 min 14 sec)
Heartbeat CPU 0 instructions: 138500746 cycles: 81403022 heartbeat IPC: 1.638 cumulative IPC: 1.354 (Simulation time: 00 hr 16 min 18 sec)
Heartbeat CPU 0 instructions: 139000746 cycles: 81715481 heartbeat IPC: 1.6 cumulative IPC: 1.356 (Simulation time: 00 hr 16 min 22 sec)
Heartbeat CPU 0 instructions: 139500749 cycles: 82029836 heartbeat IPC: 1.591 cumulative IPC: 1.357 (Simulation time: 00 hr 16 min 26 sec)
Heartbeat CPU 0 instructions: 140000751 cycles: 82357722 heartbeat IPC: 1.525 cumulative IPC: 1.358 (Simulation time: 00 hr 16 min 30 sec)
Heartbeat CPU 0 instructions: 140500751 cycles: 82674992 heartbeat IPC: 1.576 cumulative IPC: 1.359 (Simulation time: 00 hr 16 min 34 sec)
Heartbeat CPU 0 instructions: 141000751 cycles: 82982036 heartbeat IPC: 1.628 cumulative IPC: 1.36 (Simulation time: 00 hr 16 min 38 sec)
Heartbeat CPU 0 instructions: 141500755 cycles: 83296699 heartbeat IPC: 1.589 cumulative IPC: 1.361 (Simulation time: 00 hr 16 min 42 sec)
Heartbeat CPU 0 instructions: 142000755 cycles: 83614826 heartbeat IPC: 1.572 cumulative IPC: 1.362 (Simulation time: 00 hr 16 min 46 sec)
Heartbeat CPU 0 instructions: 142500755 cycles: 83931186 heartbeat IPC: 1.58 cumulative IPC: 1.363 (Simulation time: 00 hr 16 min 50 sec)
Heartbeat CPU 0 instructions: 143000755 cycles: 84242879 heartbeat IPC: 1.604 cumulative IPC: 1.364 (Simulation time: 00 hr 16 min 54 sec)
Heartbeat CPU 0 instructions: 143500758 cycles: 84549827 heartbeat IPC: 1.629 cumulative IPC: 1.365 (Simulation time: 00 hr 16 min 58 sec)
Heartbeat CPU 0 instructions: 144000763 cycles: 84873130 heartbeat IPC: 1.547 cumulative IPC: 1.366 (Simulation time: 00 hr 17 min 02 sec)
Heartbeat CPU 0 instructions: 144500770 cycles: 85187538 heartbeat IPC: 1.59 cumulative IPC: 1.367 (Simulation time: 00 hr 17 min 06 sec)
Heartbeat CPU 0 instructions: 145000771 cycles: 85513956 heartbeat IPC: 1.532 cumulative IPC: 1.368 (Simulation time: 00 hr 17 min 10 sec)
Heartbeat CPU 0 instructions: 145500775 cycles: 85825982 heartbeat IPC: 1.602 cumulative IPC: 1.369 (Simulation time: 00 hr 17 min 14 sec)
Heartbeat CPU 0 instructions: 146000779 cycles: 86140026 heartbeat IPC: 1.592 cumulative IPC: 1.37 (Simulation time: 00 hr 17 min 18 sec)
Heartbeat CPU 0 instructions: 146500779 cycles: 86463390 heartbeat IPC: 1.546 cumulative IPC: 1.371 (Simulation time: 00 hr 17 min 22 sec)
Heartbeat CPU 0 instructions: 147000779 cycles: 86784309 heartbeat IPC: 1.558 cumulative IPC: 1.372 (Simulation time: 00 hr 17 min 26 sec)
Heartbeat CPU 0 instructions: 147500779 cycles: 87094732 heartbeat IPC: 1.611 cumulative IPC: 1.373 (Simulation time: 00 hr 17 min 30 sec)
Heartbeat CPU 0 instructions: 148000779 cycles: 87412337 heartbeat IPC: 1.574 cumulative IPC: 1.373 (Simulation time: 00 hr 17 min 34 sec)
Heartbeat CPU 0 instructions: 148500779 cycles: 87731019 heartbeat IPC: 1.569 cumulative IPC: 1.374 (Simulation time: 00 hr 17 min 38 sec)
Heartbeat CPU 0 instructions: 149000783 cycles: 88061465 heartbeat IPC: 1.513 cumulative IPC: 1.375 (Simulation time: 00 hr 17 min 42 sec)
Heartbeat CPU 0 instructions: 149500785 cycles: 88392741 heartbeat IPC: 1.509 cumulative IPC: 1.376 (Simulation time: 00 hr 17 min 46 sec)
Heartbeat CPU 0 instructions: 150000789 cycles: 88729553 heartbeat IPC: 1.485 cumulative IPC: 1.376 (Simulation time: 00 hr 17 min 50 sec)
Heartbeat CPU 0 instructions: 150500794 cycles: 89066727 heartbeat IPC: 1.483 cumulative IPC: 1.377 (Simulation time: 00 hr 17 min 54 sec)
Heartbeat CPU 0 instructions: 151000798 cycles: 89404683 heartbeat IPC: 1.479 cumulative IPC: 1.377 (Simulation time: 00 hr 17 min 58 sec)
Heartbeat CPU 0 instructions: 151500798 cycles: 89739502 heartbeat IPC: 1.493 cumulative IPC: 1.378 (Simulation time: 00 hr 18 min 02 sec)
Heartbeat CPU 0 instructions: 152000803 cycles: 90094377 heartbeat IPC: 1.409 cumulative IPC: 1.378 (Simulation time: 00 hr 18 min 07 sec)
Heartbeat CPU 0 instructions: 152500807 cycles: 90416829 heartbeat IPC: 1.551 cumulative IPC: 1.379 (Simulation time: 00 hr 18 min 10 sec)
Heartbeat CPU 0 instructions: 153000812 cycles: 90716259 heartbeat IPC: 1.67 cumulative IPC: 1.38 (Simulation time: 00 hr 18 min 14 sec)
Heartbeat CPU 0 instructions: 153500819 cycles: 90999718 heartbeat IPC: 1.764 cumulative IPC: 1.381 (Simulation time: 00 hr 18 min 18 sec)
Heartbeat CPU 0 instructions: 154000819 cycles: 91291346 heartbeat IPC: 1.715 cumulative IPC: 1.382 (Simulation time: 00 hr 18 min 22 sec)
Heartbeat CPU 0 instructions: 154500823 cycles: 91588016 heartbeat IPC: 1.685 cumulative IPC: 1.384 (Simulation time: 00 hr 18 min 25 sec)
Heartbeat CPU 0 instructions: 155000823 cycles: 91892229 heartbeat IPC: 1.644 cumulative IPC: 1.385 (Simulation time: 00 hr 18 min 29 sec)
Heartbeat CPU 0 instructions: 155500826 cycles: 92195546 heartbeat IPC: 1.648 cumulative IPC: 1.386 (Simulation time: 00 hr 18 min 33 sec)
Heartbeat CPU 0 instructions: 156000830 cycles: 92511760 heartbeat IPC: 1.581 cumulative IPC: 1.387 (Simulation time: 00 hr 18 min 37 sec)
Heartbeat CPU 0 instructions: 156500831 cycles: 92820838 heartbeat IPC: 1.618 cumulative IPC: 1.387 (Simulation time: 00 hr 18 min 41 sec)
Heartbeat CPU 0 instructions: 157000833 cycles: 93133847 heartbeat IPC: 1.597 cumulative IPC: 1.388 (Simulation time: 00 hr 18 min 45 sec)
Heartbeat CPU 0 instructions: 157500839 cycles: 93450095 heartbeat IPC: 1.581 cumulative IPC: 1.389 (Simulation time: 00 hr 18 min 49 sec)
Heartbeat CPU 0 instructions: 158000843 cycles: 93757790 heartbeat IPC: 1.625 cumulative IPC: 1.39 (Simulation time: 00 hr 18 min 53 sec)
Heartbeat CPU 0 instructions: 158500847 cycles: 94068630 heartbeat IPC: 1.609 cumulative IPC: 1.391 (Simulation time: 00 hr 18 min 57 sec)
Heartbeat CPU 0 instructions: 159000851 cycles: 94379804 heartbeat IPC: 1.607 cumulative IPC: 1.392 (Simulation time: 00 hr 19 min 01 sec)
Heartbeat CPU 0 instructions: 159500852 cycles: 94690667 heartbeat IPC: 1.608 cumulative IPC: 1.393 (Simulation time: 00 hr 19 min 05 sec)
Heartbeat CPU 0 instructions: 160000856 cycles: 95012184 heartbeat IPC: 1.555 cumulative IPC: 1.393 (Simulation time: 00 hr 19 min 09 sec)
Heartbeat CPU 0 instructions: 160500863 cycles: 95329454 heartbeat IPC: 1.576 cumulative IPC: 1.394 (Simulation time: 00 hr 19 min 13 sec)
Heartbeat CPU 0 instructions: 161000867 cycles: 95646397 heartbeat IPC: 1.578 cumulative IPC: 1.395 (Simulation time: 00 hr 19 min 17 sec)
Heartbeat CPU 0 instructions: 161500868 cycles: 95963041 heartbeat IPC: 1.579 cumulative IPC: 1.395 (Simulation time: 00 hr 19 min 21 sec)
Heartbeat CPU 0 instructions: 162000869 cycles: 96275984 heartbeat IPC: 1.598 cumulative IPC: 1.396 (Simulation time: 00 hr 19 min 25 sec)
Heartbeat CPU 0 instructions: 162500874 cycles: 96617149 heartbeat IPC: 1.466 cumulative IPC: 1.397 (Simulation time: 00 hr 19 min 29 sec)
Heartbeat CPU 0 instructions: 163000881 cycles: 96987352 heartbeat IPC: 1.351 cumulative IPC: 1.396 (Simulation time: 00 hr 19 min 33 sec)
Heartbeat CPU 0 instructions: 163500886 cycles: 97350755 heartbeat IPC: 1.376 cumulative IPC: 1.396 (Simulation time: 00 hr 19 min 38 sec)
Heartbeat CPU 0 instructions: 164000886 cycles: 97737146 heartbeat IPC: 1.294 cumulative IPC: 1.396 (Simulation time: 00 hr 19 min 42 sec)
Heartbeat CPU 0 instructions: 164500887 cycles: 98069031 heartbeat IPC: 1.507 cumulative IPC: 1.396 (Simulation time: 00 hr 19 min 46 sec)
Heartbeat CPU 0 instructions: 165000887 cycles: 98385610 heartbeat IPC: 1.579 cumulative IPC: 1.397 (Simulation time: 00 hr 19 min 50 sec)
Heartbeat CPU 0 instructions: 165500887 cycles: 98710869 heartbeat IPC: 1.537 cumulative IPC: 1.397 (Simulation time: 00 hr 19 min 54 sec)
Heartbeat CPU 0 instructions: 166000891 cycles: 99059217 heartbeat IPC: 1.435 cumulative IPC: 1.398 (Simulation time: 00 hr 19 min 58 sec)
Heartbeat CPU 0 instructions: 166500895 cycles: 99380223 heartbeat IPC: 1.558 cumulative IPC: 1.398 (Simulation time: 00 hr 20 min 02 sec)
Heartbeat CPU 0 instructions: 167000899 cycles: 99672868 heartbeat IPC: 1.709 cumulative IPC: 1.399 (Simulation time: 00 hr 20 min 05 sec)
Heartbeat CPU 0 instructions: 167500905 cycles: 99971101 heartbeat IPC: 1.677 cumulative IPC: 1.4 (Simulation time: 00 hr 20 min 09 sec)
Heartbeat CPU 0 instructions: 168000907 cycles: 100270774 heartbeat IPC: 1.668 cumulative IPC: 1.401 (Simulation time: 00 hr 20 min 13 sec)
Heartbeat CPU 0 instructions: 168500911 cycles: 100573004 heartbeat IPC: 1.654 cumulative IPC: 1.402 (Simulation time: 00 hr 20 min 17 sec)
Heartbeat CPU 0 instructions: 169000911 cycles: 100871446 heartbeat IPC: 1.675 cumulative IPC: 1.403 (Simulation time: 00 hr 20 min 20 sec)
Heartbeat CPU 0 instructions: 169500915 cycles: 101181346 heartbeat IPC: 1.613 cumulative IPC: 1.404 (Simulation time: 00 hr 20 min 24 sec)
Heartbeat CPU 0 instructions: 170000920 cycles: 101492601 heartbeat IPC: 1.606 cumulative IPC: 1.405 (Simulation time: 00 hr 20 min 28 sec)
Heartbeat CPU 0 instructions: 170500927 cycles: 101805006 heartbeat IPC: 1.601 cumulative IPC: 1.405 (Simulation time: 00 hr 20 min 32 sec)
Heartbeat CPU 0 instructions: 171000927 cycles: 102116310 heartbeat IPC: 1.606 cumulative IPC: 1.406 (Simulation time: 00 hr 20 min 36 sec)
Heartbeat CPU 0 instructions: 171500931 cycles: 102442368 heartbeat IPC: 1.533 cumulative IPC: 1.407 (Simulation time: 00 hr 20 min 40 sec)
Heartbeat CPU 0 instructions: 172000932 cycles: 102758386 heartbeat IPC: 1.582 cumulative IPC: 1.407 (Simulation time: 00 hr 20 min 44 sec)
Heartbeat CPU 0 instructions: 172500939 cycles: 103083864 heartbeat IPC: 1.536 cumulative IPC: 1.408 (Simulation time: 00 hr 20 min 48 sec)
Heartbeat CPU 0 instructions: 173000940 cycles: 103392398 heartbeat IPC: 1.621 cumulative IPC: 1.408 (Simulation time: 00 hr 20 min 52 sec)
Heartbeat CPU 0 instructions: 173500942 cycles: 103705156 heartbeat IPC: 1.599 cumulative IPC: 1.409 (Simulation time: 00 hr 20 min 56 sec)
Heartbeat CPU 0 instructions: 174000942 cycles: 104022404 heartbeat IPC: 1.576 cumulative IPC: 1.41 (Simulation time: 00 hr 21 min 00 sec)
Heartbeat CPU 0 instructions: 174500946 cycles: 104336900 heartbeat IPC: 1.59 cumulative IPC: 1.41 (Simulation time: 00 hr 21 min 04 sec)
Heartbeat CPU 0 instructions: 175000947 cycles: 104644787 heartbeat IPC: 1.624 cumulative IPC: 1.411 (Simulation time: 00 hr 21 min 07 sec)
Heartbeat CPU 0 instructions: 175500951 cycles: 104961465 heartbeat IPC: 1.579 cumulative IPC: 1.412 (Simulation time: 00 hr 21 min 11 sec)
Heartbeat CPU 0 instructions: 176000953 cycles: 105284836 heartbeat IPC: 1.546 cumulative IPC: 1.412 (Simulation time: 00 hr 21 min 15 sec)
Heartbeat CPU 0 instructions: 176500955 cycles: 105601433 heartbeat IPC: 1.579 cumulative IPC: 1.413 (Simulation time: 00 hr 21 min 19 sec)
Heartbeat CPU 0 instructions: 177000959 cycles: 105906795 heartbeat IPC: 1.637 cumulative IPC: 1.414 (Simulation time: 00 hr 21 min 23 sec)
Heartbeat CPU 0 instructions: 177500964 cycles: 106226470 heartbeat IPC: 1.564 cumulative IPC: 1.414 (Simulation time: 00 hr 21 min 27 sec)
Heartbeat CPU 0 instructions: 178000965 cycles: 106539949 heartbeat IPC: 1.595 cumulative IPC: 1.415 (Simulation time: 00 hr 21 min 31 sec)
Heartbeat CPU 0 instructions: 178500966 cycles: 106852789 heartbeat IPC: 1.598 cumulative IPC: 1.415 (Simulation time: 00 hr 21 min 35 sec)
Heartbeat CPU 0 instructions: 179000969 cycles: 107168696 heartbeat IPC: 1.583 cumulative IPC: 1.416 (Simulation time: 00 hr 21 min 39 sec)
Heartbeat CPU 0 instructions: 179500969 cycles: 107490812 heartbeat IPC: 1.552 cumulative IPC: 1.416 (Simulation time: 00 hr 21 min 43 sec)
Heartbeat CPU 0 instructions: 180000975 cycles: 107798774 heartbeat IPC: 1.624 cumulative IPC: 1.417 (Simulation time: 00 hr 21 min 47 sec)
Heartbeat CPU 0 instructions: 180500978 cycles: 108113750 heartbeat IPC: 1.587 cumulative IPC: 1.418 (Simulation time: 00 hr 21 min 51 sec)
Heartbeat CPU 0 instructions: 181000983 cycles: 108438898 heartbeat IPC: 1.538 cumulative IPC: 1.418 (Simulation time: 00 hr 21 min 55 sec)
Heartbeat CPU 0 instructions: 181500987 cycles: 108748861 heartbeat IPC: 1.613 cumulative IPC: 1.419 (Simulation time: 00 hr 21 min 59 sec)
Heartbeat CPU 0 instructions: 182000987 cycles: 109064670 heartbeat IPC: 1.583 cumulative IPC: 1.419 (Simulation time: 00 hr 22 min 03 sec)
Heartbeat CPU 0 instructions: 182500989 cycles: 109382361 heartbeat IPC: 1.574 cumulative IPC: 1.42 (Simulation time: 00 hr 22 min 07 sec)
Heartbeat CPU 0 instructions: 183000991 cycles: 109691208 heartbeat IPC: 1.619 cumulative IPC: 1.42 (Simulation time: 00 hr 22 min 10 sec)
Heartbeat CPU 0 instructions: 183500991 cycles: 110005899 heartbeat IPC: 1.589 cumulative IPC: 1.421 (Simulation time: 00 hr 22 min 14 sec)
Heartbeat CPU 0 instructions: 184000991 cycles: 110321287 heartbeat IPC: 1.585 cumulative IPC: 1.422 (Simulation time: 00 hr 22 min 18 sec)
Heartbeat CPU 0 instructions: 184500992 cycles: 110652077 heartbeat IPC: 1.512 cumulative IPC: 1.422 (Simulation time: 00 hr 22 min 22 sec)
Heartbeat CPU 0 instructions: 185000997 cycles: 110966542 heartbeat IPC: 1.59 cumulative IPC: 1.422 (Simulation time: 00 hr 22 min 26 sec)
Heartbeat CPU 0 instructions: 185501003 cycles: 111291294 heartbeat IPC: 1.54 cumulative IPC: 1.423 (Simulation time: 00 hr 22 min 30 sec)
Heartbeat CPU 0 instructions: 186001005 cycles: 111594078 heartbeat IPC: 1.651 cumulative IPC: 1.424 (Simulation time: 00 hr 22 min 34 sec)
Heartbeat CPU 0 instructions: 186501011 cycles: 111902444 heartbeat IPC: 1.621 cumulative IPC: 1.424 (Simulation time: 00 hr 22 min 38 sec)
Heartbeat CPU 0 instructions: 187001016 cycles: 112212752 heartbeat IPC: 1.611 cumulative IPC: 1.425 (Simulation time: 00 hr 22 min 42 sec)
Heartbeat CPU 0 instructions: 187501017 cycles: 112537680 heartbeat IPC: 1.539 cumulative IPC: 1.425 (Simulation time: 00 hr 22 min 46 sec)
Heartbeat CPU 0 instructions: 188001019 cycles: 112847560 heartbeat IPC: 1.614 cumulative IPC: 1.426 (Simulation time: 00 hr 22 min 49 sec)
Heartbeat CPU 0 instructions: 188501023 cycles: 113163034 heartbeat IPC: 1.585 cumulative IPC: 1.426 (Simulation time: 00 hr 22 min 53 sec)
Heartbeat CPU 0 instructions: 189001027 cycles: 113479439 heartbeat IPC: 1.58 cumulative IPC: 1.427 (Simulation time: 00 hr 22 min 57 sec)
Heartbeat CPU 0 instructions: 189501031 cycles: 113803007 heartbeat IPC: 1.545 cumulative IPC: 1.427 (Simulation time: 00 hr 23 min 01 sec)
Heartbeat CPU 0 instructions: 190001031 cycles: 114121819 heartbeat IPC: 1.568 cumulative IPC: 1.428 (Simulation time: 00 hr 23 min 05 sec)
Heartbeat CPU 0 instructions: 190501031 cycles: 114435683 heartbeat IPC: 1.593 cumulative IPC: 1.428 (Simulation time: 00 hr 23 min 09 sec)
Heartbeat CPU 0 instructions: 191001035 cycles: 114756711 heartbeat IPC: 1.558 cumulative IPC: 1.429 (Simulation time: 00 hr 23 min 13 sec)
Heartbeat CPU 0 instructions: 191501040 cycles: 115068616 heartbeat IPC: 1.603 cumulative IPC: 1.429 (Simulation time: 00 hr 23 min 17 sec)
Heartbeat CPU 0 instructions: 192001047 cycles: 115390289 heartbeat IPC: 1.554 cumulative IPC: 1.43 (Simulation time: 00 hr 23 min 21 sec)
Heartbeat CPU 0 instructions: 192501051 cycles: 115707409 heartbeat IPC: 1.577 cumulative IPC: 1.43 (Simulation time: 00 hr 23 min 25 sec)
Heartbeat CPU 0 instructions: 193001054 cycles: 116018862 heartbeat IPC: 1.605 cumulative IPC: 1.431 (Simulation time: 00 hr 23 min 28 sec)
Heartbeat CPU 0 instructions: 193501060 cycles: 116327834 heartbeat IPC: 1.618 cumulative IPC: 1.431 (Simulation time: 00 hr 23 min 32 sec)
Heartbeat CPU 0 instructions: 194001060 cycles: 116649328 heartbeat IPC: 1.555 cumulative IPC: 1.432 (Simulation time: 00 hr 23 min 36 sec)
Heartbeat CPU 0 instructions: 194501063 cycles: 116966085 heartbeat IPC: 1.579 cumulative IPC: 1.432 (Simulation time: 00 hr 23 min 40 sec)
Heartbeat CPU 0 instructions: 195001067 cycles: 117280743 heartbeat IPC: 1.589 cumulative IPC: 1.433 (Simulation time: 00 hr 23 min 44 sec)
Heartbeat CPU 0 instructions: 195501067 cycles: 117595153 heartbeat IPC: 1.59 cumulative IPC: 1.433 (Simulation time: 00 hr 23 min 48 sec)
Heartbeat CPU 0 instructions: 196001067 cycles: 117916695 heartbeat IPC: 1.555 cumulative IPC: 1.433 (Simulation time: 00 hr 23 min 52 sec)
Heartbeat CPU 0 instructions: 196501067 cycles: 118236512 heartbeat IPC: 1.563 cumulative IPC: 1.434 (Simulation time: 00 hr 23 min 56 sec)
Heartbeat CPU 0 instructions: 197001074 cycles: 118548541 heartbeat IPC: 1.602 cumulative IPC: 1.434 (Simulation time: 00 hr 23 min 59 sec)
Heartbeat CPU 0 instructions: 197501075 cycles: 118864446 heartbeat IPC: 1.583 cumulative IPC: 1.435 (Simulation time: 00 hr 24 min 03 sec)
Heartbeat CPU 0 instructions: 198001079 cycles: 119187670 heartbeat IPC: 1.547 cumulative IPC: 1.435 (Simulation time: 00 hr 24 min 07 sec)
Heartbeat CPU 0 instructions: 198501085 cycles: 119506591 heartbeat IPC: 1.568 cumulative IPC: 1.436 (Simulation time: 00 hr 24 min 11 sec)
Heartbeat CPU 0 instructions: 199001089 cycles: 119824101 heartbeat IPC: 1.575 cumulative IPC: 1.436 (Simulation time: 00 hr 24 min 15 sec)
Heartbeat CPU 0 instructions: 199501093 cycles: 120134886 heartbeat IPC: 1.609 cumulative IPC: 1.436 (Simulation time: 00 hr 24 min 19 sec)
Heartbeat CPU 0 instructions: 200001099 cycles: 120449550 heartbeat IPC: 1.589 cumulative IPC: 1.437 (Simulation time: 00 hr 24 min 22 sec)
Heartbeat CPU 0 instructions: 200501101 cycles: 120767000 heartbeat IPC: 1.575 cumulative IPC: 1.437 (Simulation time: 00 hr 24 min 26 sec)
Heartbeat CPU 0 instructions: 201001108 cycles: 121073959 heartbeat IPC: 1.629 cumulative IPC: 1.438 (Simulation time: 00 hr 24 min 30 sec)
Heartbeat CPU 0 instructions: 201501111 cycles: 121387668 heartbeat IPC: 1.594 cumulative IPC: 1.438 (Simulation time: 00 hr 24 min 34 sec)
Heartbeat CPU 0 instructions: 202001111 cycles: 121707163 heartbeat IPC: 1.565 cumulative IPC: 1.439 (Simulation time: 00 hr 24 min 38 sec)
Heartbeat CPU 0 instructions: 202501111 cycles: 122028714 heartbeat IPC: 1.555 cumulative IPC: 1.439 (Simulation time: 00 hr 24 min 41 sec)
Heartbeat CPU 0 instructions: 203001111 cycles: 122351264 heartbeat IPC: 1.55 cumulative IPC: 1.439 (Simulation time: 00 hr 24 min 45 sec)
Heartbeat CPU 0 instructions: 203501113 cycles: 122654740 heartbeat IPC: 1.648 cumulative IPC: 1.44 (Simulation time: 00 hr 24 min 49 sec)
Heartbeat CPU 0 instructions: 204001119 cycles: 122967094 heartbeat IPC: 1.601 cumulative IPC: 1.441 (Simulation time: 00 hr 24 min 53 sec)
Heartbeat CPU 0 instructions: 204501119 cycles: 123282082 heartbeat IPC: 1.587 cumulative IPC: 1.441 (Simulation time: 00 hr 24 min 57 sec)
Heartbeat CPU 0 instructions: 205001121 cycles: 123597603 heartbeat IPC: 1.585 cumulative IPC: 1.441 (Simulation time: 00 hr 25 min 00 sec)
Heartbeat CPU 0 instructions: 205501122 cycles: 123902066 heartbeat IPC: 1.642 cumulative IPC: 1.442 (Simulation time: 00 hr 25 min 04 sec)
Heartbeat CPU 0 instructions: 206001128 cycles: 124218859 heartbeat IPC: 1.578 cumulative IPC: 1.442 (Simulation time: 00 hr 25 min 08 sec)
Heartbeat CPU 0 instructions: 206501129 cycles: 124524014 heartbeat IPC: 1.639 cumulative IPC: 1.443 (Simulation time: 00 hr 25 min 11 sec)
Heartbeat CPU 0 instructions: 207001136 cycles: 124841301 heartbeat IPC: 1.576 cumulative IPC: 1.443 (Simulation time: 00 hr 25 min 15 sec)
Heartbeat CPU 0 instructions: 207501143 cycles: 125150968 heartbeat IPC: 1.615 cumulative IPC: 1.444 (Simulation time: 00 hr 25 min 19 sec)
Heartbeat CPU 0 instructions: 208001143 cycles: 125465470 heartbeat IPC: 1.59 cumulative IPC: 1.444 (Simulation time: 00 hr 25 min 23 sec)
Heartbeat CPU 0 instructions: 208501143 cycles: 125789826 heartbeat IPC: 1.542 cumulative IPC: 1.444 (Simulation time: 00 hr 25 min 27 sec)
Heartbeat CPU 0 instructions: 209001143 cycles: 126110062 heartbeat IPC: 1.561 cumulative IPC: 1.445 (Simulation time: 00 hr 25 min 30 sec)
Heartbeat CPU 0 instructions: 209501147 cycles: 126423121 heartbeat IPC: 1.597 cumulative IPC: 1.445 (Simulation time: 00 hr 25 min 34 sec)
Heartbeat CPU 0 instructions: 210001151 cycles: 126747079 heartbeat IPC: 1.543 cumulative IPC: 1.446 (Simulation time: 00 hr 25 min 38 sec)
Heartbeat CPU 0 instructions: 210501151 cycles: 127057761 heartbeat IPC: 1.609 cumulative IPC: 1.446 (Simulation time: 00 hr 25 min 42 sec)
Heartbeat CPU 0 instructions: 211001152 cycles: 127382358 heartbeat IPC: 1.54 cumulative IPC: 1.446 (Simulation time: 00 hr 25 min 45 sec)
Heartbeat CPU 0 instructions: 211501152 cycles: 127700372 heartbeat IPC: 1.572 cumulative IPC: 1.447 (Simulation time: 00 hr 25 min 49 sec)
Heartbeat CPU 0 instructions: 212001154 cycles: 128017703 heartbeat IPC: 1.576 cumulative IPC: 1.447 (Simulation time: 00 hr 25 min 53 sec)
Heartbeat CPU 0 instructions: 212501159 cycles: 128338328 heartbeat IPC: 1.559 cumulative IPC: 1.447 (Simulation time: 00 hr 25 min 57 sec)
Heartbeat CPU 0 instructions: 213001159 cycles: 128653346 heartbeat IPC: 1.587 cumulative IPC: 1.448 (Simulation time: 00 hr 26 min 01 sec)
Heartbeat CPU 0 instructions: 213501160 cycles: 128966004 heartbeat IPC: 1.599 cumulative IPC: 1.448 (Simulation time: 00 hr 26 min 04 sec)
Heartbeat CPU 0 instructions: 214001162 cycles: 129281058 heartbeat IPC: 1.587 cumulative IPC: 1.449 (Simulation time: 00 hr 26 min 08 sec)
Heartbeat CPU 0 instructions: 214501166 cycles: 129587140 heartbeat IPC: 1.634 cumulative IPC: 1.449 (Simulation time: 00 hr 26 min 12 sec)
Heartbeat CPU 0 instructions: 215001171 cycles: 129900182 heartbeat IPC: 1.597 cumulative IPC: 1.449 (Simulation time: 00 hr 26 min 15 sec)
Heartbeat CPU 0 instructions: 215501171 cycles: 130205749 heartbeat IPC: 1.636 cumulative IPC: 1.45 (Simulation time: 00 hr 26 min 19 sec)
Heartbeat CPU 0 instructions: 216001171 cycles: 130528223 heartbeat IPC: 1.551 cumulative IPC: 1.45 (Simulation time: 00 hr 26 min 23 sec)
Heartbeat CPU 0 instructions: 216501175 cycles: 130840063 heartbeat IPC: 1.603 cumulative IPC: 1.451 (Simulation time: 00 hr 26 min 26 sec)
Heartbeat CPU 0 instructions: 217001175 cycles: 131153194 heartbeat IPC: 1.597 cumulative IPC: 1.451 (Simulation time: 00 hr 26 min 30 sec)
Heartbeat CPU 0 instructions: 217501177 cycles: 131467494 heartbeat IPC: 1.591 cumulative IPC: 1.451 (Simulation time: 00 hr 26 min 34 sec)
Heartbeat CPU 0 instructions: 218001183 cycles: 131786789 heartbeat IPC: 1.566 cumulative IPC: 1.452 (Simulation time: 00 hr 26 min 37 sec)
Heartbeat CPU 0 instructions: 218501189 cycles: 132099870 heartbeat IPC: 1.597 cumulative IPC: 1.452 (Simulation time: 00 hr 26 min 41 sec)
Heartbeat CPU 0 instructions: 219001191 cycles: 132419231 heartbeat IPC: 1.566 cumulative IPC: 1.452 (Simulation time: 00 hr 26 min 45 sec)
Heartbeat CPU 0 instructions: 219501192 cycles: 132721298 heartbeat IPC: 1.655 cumulative IPC: 1.453 (Simulation time: 00 hr 26 min 48 sec)
Heartbeat CPU 0 instructions: 220001196 cycles: 133042386 heartbeat IPC: 1.557 cumulative IPC: 1.453 (Simulation time: 00 hr 26 min 52 sec)
Heartbeat CPU 0 instructions: 220501198 cycles: 133363140 heartbeat IPC: 1.559 cumulative IPC: 1.454 (Simulation time: 00 hr 26 min 56 sec)
Heartbeat CPU 0 instructions: 221001203 cycles: 133680626 heartbeat IPC: 1.575 cumulative IPC: 1.454 (Simulation time: 00 hr 27 min 00 sec)
Heartbeat CPU 0 instructions: 221501208 cycles: 133988621 heartbeat IPC: 1.623 cumulative IPC: 1.454 (Simulation time: 00 hr 27 min 03 sec)
Heartbeat CPU 0 instructions: 222001214 cycles: 134293692 heartbeat IPC: 1.639 cumulative IPC: 1.455 (Simulation time: 00 hr 27 min 07 sec)
Heartbeat CPU 0 instructions: 222501218 cycles: 134614025 heartbeat IPC: 1.561 cumulative IPC: 1.455 (Simulation time: 00 hr 27 min 10 sec)
Heartbeat CPU 0 instructions: 223001223 cycles: 134924381 heartbeat IPC: 1.611 cumulative IPC: 1.455 (Simulation time: 00 hr 27 min 14 sec)
Heartbeat CPU 0 instructions: 223501227 cycles: 135240786 heartbeat IPC: 1.58 cumulative IPC: 1.456 (Simulation time: 00 hr 27 min 18 sec)
Heartbeat CPU 0 instructions: 224001227 cycles: 135559785 heartbeat IPC: 1.567 cumulative IPC: 1.456 (Simulation time: 00 hr 27 min 21 sec)
Heartbeat CPU 0 instructions: 224501232 cycles: 135874876 heartbeat IPC: 1.587 cumulative IPC: 1.456 (Simulation time: 00 hr 27 min 25 sec)
Heartbeat CPU 0 instructions: 225001239 cycles: 136189223 heartbeat IPC: 1.591 cumulative IPC: 1.457 (Simulation time: 00 hr 27 min 29 sec)
Heartbeat CPU 0 instructions: 225501241 cycles: 136500251 heartbeat IPC: 1.608 cumulative IPC: 1.457 (Simulation time: 00 hr 27 min 32 sec)
Heartbeat CPU 0 instructions: 226001242 cycles: 136819346 heartbeat IPC: 1.567 cumulative IPC: 1.457 (Simulation time: 00 hr 27 min 36 sec)
Heartbeat CPU 0 instructions: 226501245 cycles: 137144318 heartbeat IPC: 1.539 cumulative IPC: 1.458 (Simulation time: 00 hr 27 min 39 sec)
Heartbeat CPU 0 instructions: 227001250 cycles: 137460097 heartbeat IPC: 1.583 cumulative IPC: 1.458 (Simulation time: 00 hr 27 min 43 sec)
Heartbeat CPU 0 instructions: 227501255 cycles: 137776781 heartbeat IPC: 1.579 cumulative IPC: 1.458 (Simulation time: 00 hr 27 min 47 sec)
Heartbeat CPU 0 instructions: 228001259 cycles: 138087591 heartbeat IPC: 1.609 cumulative IPC: 1.459 (Simulation time: 00 hr 27 min 50 sec)
Heartbeat CPU 0 instructions: 228501261 cycles: 138396031 heartbeat IPC: 1.621 cumulative IPC: 1.459 (Simulation time: 00 hr 27 min 54 sec)
Heartbeat CPU 0 instructions: 229001264 cycles: 138701956 heartbeat IPC: 1.634 cumulative IPC: 1.46 (Simulation time: 00 hr 27 min 57 sec)
Heartbeat CPU 0 instructions: 229501265 cycles: 139007332 heartbeat IPC: 1.637 cumulative IPC: 1.46 (Simulation time: 00 hr 28 min 01 sec)
Heartbeat CPU 0 instructions: 230001271 cycles: 139327432 heartbeat IPC: 1.562 cumulative IPC: 1.46 (Simulation time: 00 hr 28 min 04 sec)
Heartbeat CPU 0 instructions: 230501275 cycles: 139644970 heartbeat IPC: 1.575 cumulative IPC: 1.461 (Simulation time: 00 hr 28 min 08 sec)
Heartbeat CPU 0 instructions: 231001282 cycles: 139963604 heartbeat IPC: 1.569 cumulative IPC: 1.461 (Simulation time: 00 hr 28 min 12 sec)
Heartbeat CPU 0 instructions: 231501282 cycles: 140273998 heartbeat IPC: 1.611 cumulative IPC: 1.461 (Simulation time: 00 hr 28 min 15 sec)
Heartbeat CPU 0 instructions: 232001285 cycles: 140600160 heartbeat IPC: 1.533 cumulative IPC: 1.461 (Simulation time: 00 hr 28 min 19 sec)
Heartbeat CPU 0 instructions: 232501290 cycles: 140917159 heartbeat IPC: 1.577 cumulative IPC: 1.462 (Simulation time: 00 hr 28 min 22 sec)
Heartbeat CPU 0 instructions: 233001290 cycles: 141239769 heartbeat IPC: 1.55 cumulative IPC: 1.462 (Simulation time: 00 hr 28 min 26 sec)
Heartbeat CPU 0 instructions: 233501291 cycles: 141556620 heartbeat IPC: 1.578 cumulative IPC: 1.462 (Simulation time: 00 hr 28 min 29 sec)
Heartbeat CPU 0 instructions: 234001295 cycles: 141870580 heartbeat IPC: 1.593 cumulative IPC: 1.463 (Simulation time: 00 hr 28 min 33 sec)
Heartbeat CPU 0 instructions: 234501296 cycles: 142181734 heartbeat IPC: 1.607 cumulative IPC: 1.463 (Simulation time: 00 hr 28 min 37 sec)
Heartbeat CPU 0 instructions: 235001303 cycles: 142493977 heartbeat IPC: 1.601 cumulative IPC: 1.463 (Simulation time: 00 hr 28 min 40 sec)
Heartbeat CPU 0 instructions: 235501303 cycles: 142808737 heartbeat IPC: 1.589 cumulative IPC: 1.464 (Simulation time: 00 hr 28 min 44 sec)
Heartbeat CPU 0 instructions: 236001307 cycles: 143123608 heartbeat IPC: 1.588 cumulative IPC: 1.464 (Simulation time: 00 hr 28 min 47 sec)
Heartbeat CPU 0 instructions: 236501311 cycles: 143442690 heartbeat IPC: 1.567 cumulative IPC: 1.464 (Simulation time: 00 hr 28 min 51 sec)
Heartbeat CPU 0 instructions: 237001311 cycles: 143750262 heartbeat IPC: 1.626 cumulative IPC: 1.464 (Simulation time: 00 hr 28 min 54 sec)
Heartbeat CPU 0 instructions: 237501311 cycles: 144063848 heartbeat IPC: 1.594 cumulative IPC: 1.465 (Simulation time: 00 hr 28 min 58 sec)
Heartbeat CPU 0 instructions: 238001311 cycles: 144373197 heartbeat IPC: 1.616 cumulative IPC: 1.465 (Simulation time: 00 hr 29 min 01 sec)
Heartbeat CPU 0 instructions: 238501315 cycles: 144689866 heartbeat IPC: 1.579 cumulative IPC: 1.465 (Simulation time: 00 hr 29 min 05 sec)
Heartbeat CPU 0 instructions: 239001317 cycles: 145009150 heartbeat IPC: 1.566 cumulative IPC: 1.466 (Simulation time: 00 hr 29 min 08 sec)
Heartbeat CPU 0 instructions: 239501323 cycles: 145327383 heartbeat IPC: 1.571 cumulative IPC: 1.466 (Simulation time: 00 hr 29 min 12 sec)
Heartbeat CPU 0 instructions: 240001329 cycles: 145675562 heartbeat IPC: 1.436 cumulative IPC: 1.466 (Simulation time: 00 hr 29 min 15 sec)
Heartbeat CPU 0 instructions: 240501331 cycles: 145995835 heartbeat IPC: 1.561 cumulative IPC: 1.466 (Simulation time: 00 hr 29 min 19 sec)
Heartbeat CPU 0 instructions: 241001332 cycles: 146309741 heartbeat IPC: 1.593 cumulative IPC: 1.466 (Simulation time: 00 hr 29 min 23 sec)
Heartbeat CPU 0 instructions: 241501334 cycles: 146621422 heartbeat IPC: 1.604 cumulative IPC: 1.467 (Simulation time: 00 hr 29 min 26 sec)
Heartbeat CPU 0 instructions: 242001334 cycles: 146934890 heartbeat IPC: 1.595 cumulative IPC: 1.467 (Simulation time: 00 hr 29 min 30 sec)
Heartbeat CPU 0 instructions: 242501336 cycles: 147243846 heartbeat IPC: 1.618 cumulative IPC: 1.467 (Simulation time: 00 hr 29 min 33 sec)
Heartbeat CPU 0 instructions: 243001336 cycles: 147557613 heartbeat IPC: 1.594 cumulative IPC: 1.468 (Simulation time: 00 hr 29 min 37 sec)
Heartbeat CPU 0 instructions: 243501343 cycles: 147862941 heartbeat IPC: 1.638 cumulative IPC: 1.468 (Simulation time: 00 hr 29 min 40 sec)
Heartbeat CPU 0 instructions: 244001349 cycles: 148170327 heartbeat IPC: 1.627 cumulative IPC: 1.468 (Simulation time: 00 hr 29 min 43 sec)
Heartbeat CPU 0 instructions: 244501351 cycles: 148493644 heartbeat IPC: 1.546 cumulative IPC: 1.469 (Simulation time: 00 hr 29 min 47 sec)
Heartbeat CPU 0 instructions: 245001355 cycles: 148803081 heartbeat IPC: 1.616 cumulative IPC: 1.469 (Simulation time: 00 hr 29 min 51 sec)
Heartbeat CPU 0 instructions: 245501360 cycles: 149124252 heartbeat IPC: 1.557 cumulative IPC: 1.469 (Simulation time: 00 hr 29 min 54 sec)
Heartbeat CPU 0 instructions: 246001362 cycles: 149447546 heartbeat IPC: 1.547 cumulative IPC: 1.469 (Simulation time: 00 hr 29 min 58 sec)
Heartbeat CPU 0 instructions: 246501363 cycles: 149752105 heartbeat IPC: 1.642 cumulative IPC: 1.47 (Simulation time: 00 hr 30 min 01 sec)
Heartbeat CPU 0 instructions: 247001367 cycles: 150065325 heartbeat IPC: 1.596 cumulative IPC: 1.47 (Simulation time: 00 hr 30 min 05 sec)
Heartbeat CPU 0 instructions: 247501367 cycles: 150379632 heartbeat IPC: 1.591 cumulative IPC: 1.47 (Simulation time: 00 hr 30 min 08 sec)
Heartbeat CPU 0 instructions: 248001370 cycles: 150691290 heartbeat IPC: 1.604 cumulative IPC: 1.471 (Simulation time: 00 hr 30 min 12 sec)
Heartbeat CPU 0 instructions: 248501371 cycles: 151009772 heartbeat IPC: 1.57 cumulative IPC: 1.471 (Simulation time: 00 hr 30 min 15 sec)
Heartbeat CPU 0 instructions: 249001373 cycles: 151322558 heartbeat IPC: 1.599 cumulative IPC: 1.471 (Simulation time: 00 hr 30 min 19 sec)
Heartbeat CPU 0 instructions: 249501373 cycles: 151635773 heartbeat IPC: 1.596 cumulative IPC: 1.472 (Simulation time: 00 hr 30 min 22 sec)
*** Reached end of trace: (0, "/local-ssd/ben/dpc4-traces/Graph/Ligra/ligra_BFSCC.com-lj.ungraph.gcc_6.3.0_O3.drop_15500M.length_250M.champsimtrace.xz")
Simulation finished CPU 0 instructions: 200000005 cycles: 135886945 cumulative IPC: 1.472 (Simulation time: 00 hr 30 min 26 sec)
Simulation complete CPU 0 instructions: 200000005 cycles: 135886945 cumulative IPC: 1.472 (Simulation time: 00 hr 30 min 26 sec)

ChampSim completed all CPUs

=== Simulation ===
CPU 0 runs /local-ssd/ben/dpc4-traces/Graph/Ligra/ligra_BFSCC.com-lj.ungraph.gcc_6.3.0_O3.drop_15500M.length_250M.champsimtrace.xz

Region of Interest Statistics

CPU 0 cumulative IPC: 1.472 instructions: 200000005 cycles: 135886945
CPU 0 Branch Prediction Accuracy: 97.56% MPKI: 2.84 Average ROB Occupancy at Mispredict: 68.34
Branch type MPKI
BRANCH_DIRECT_JUMP: 1e-05
BRANCH_INDIRECT: 0
BRANCH_CONDITIONAL: 2.84
BRANCH_DIRECT_CALL: 1e-05
BRANCH_INDIRECT_CALL: 0
BRANCH_RETURN: 1e-05

cpu0->cpu0_STLB TOTAL        ACCESS:      70539 HIT:          0 MISS:      70539 MSHR_MERGE:          0
cpu0->cpu0_STLB LOAD         ACCESS:      70539 HIT:          0 MISS:      70539 MSHR_MERGE:          0
cpu0->cpu0_STLB RFO          ACCESS:          0 HIT:          0 MISS:          0 MSHR_MERGE:          0
cpu0->cpu0_STLB PREFETCH     ACCESS:          0 HIT:          0 MISS:          0 MSHR_MERGE:          0
cpu0->cpu0_STLB WRITE        ACCESS:          0 HIT:          0 MISS:          0 MSHR_MERGE:          0
cpu0->cpu0_STLB TRANSLATION  ACCESS:          0 HIT:          0 MISS:          0 MSHR_MERGE:          0
cpu0->cpu0_STLB PREFETCH REQUESTED:          0 ISSUED:          0 USEFUL:          0 USELESS:          0
cpu0->cpu0_STLB AVERAGE MISS LATENCY: 285 cycles
cpu0->cpu0_L2C TOTAL        ACCESS:   15257840 HIT:    9438861 MISS:    5818979 MSHR_MERGE:    1297101
cpu0->cpu0_L2C LOAD         ACCESS:     345397 HIT:     325464 MISS:      19933 MSHR_MERGE:      13484
cpu0->cpu0_L2C RFO          ACCESS:    2985633 HIT:          2 MISS:    2985631 MSHR_MERGE:          0
cpu0->cpu0_L2C PREFETCH     ACCESS:    8929453 HIT:    6125013 MISS:    2804440 MSHR_MERGE:    1283617
cpu0->cpu0_L2C WRITE        ACCESS:    2985857 HIT:    2985857 MISS:          0 MSHR_MERGE:          0
cpu0->cpu0_L2C TRANSLATION  ACCESS:      11500 HIT:       2525 MISS:       8975 MSHR_MERGE:          0
cpu0->cpu0_L2C PREFETCH REQUESTED:    7789865 ISSUED:    7733054 USEFUL:    1270199 USELESS:     169629
cpu0->cpu0_L2C AVERAGE MISS LATENCY: 538.7 cycles
cpu0->cpu0_L1I TOTAL        ACCESS:    9957466 HIT:    9957457 MISS:          9 MSHR_MERGE:          0
cpu0->cpu0_L1I LOAD         ACCESS:    9957466 HIT:    9957457 MISS:          9 MSHR_MERGE:          0
cpu0->cpu0_L1I RFO          ACCESS:          0 HIT:          0 MISS:          0 MSHR_MERGE:          0
cpu0->cpu0_L1I PREFETCH     ACCESS:          0 HIT:          0 MISS:          0 MSHR_MERGE:          0
cpu0->cpu0_L1I WRITE        ACCESS:          0 HIT:          0 MISS:          0 MSHR_MERGE:          0
cpu0->cpu0_L1I TRANSLATION  ACCESS:          0 HIT:          0 MISS:          0 MSHR_MERGE:          0
cpu0->cpu0_L1I PREFETCH REQUESTED:          0 ISSUED:          0 USEFUL:          0 USELESS:          0
cpu0->cpu0_L1I AVERAGE MISS LATENCY: 240.3 cycles
cpu0->cpu0_L1D TOTAL        ACCESS:   62846764 HIT:   16514518 MISS:   46332246 MSHR_MERGE:   41793325
cpu0->cpu0_L1D LOAD         ACCESS:   13038346 HIT:   11822036 MISS:    1216310 MSHR_MERGE:     870922
cpu0->cpu0_L1D RFO          ACCESS:          0 HIT:          0 MISS:          0 MSHR_MERGE:          0
cpu0->cpu0_L1D PREFETCH     ACCESS:    7740341 HIT:    4513122 MISS:    3227219 MSHR_MERGE:    2030820
cpu0->cpu0_L1D WRITE        ACCESS:   41926854 HIT:      49638 MISS:   41877216 MSHR_MERGE:   38891583
cpu0->cpu0_L1D TRANSLATION  ACCESS:     141223 HIT:     129722 MISS:      11501 MSHR_MERGE:          0
cpu0->cpu0_L1D PREFETCH REQUESTED:   19902481 ISSUED:    7740341 USEFUL:    1181824 USELESS:      14553
cpu0->cpu0_L1D AVERAGE MISS LATENCY: 494.1 cycles
cpu0->cpu0_ITLB TOTAL        ACCESS:    9957430 HIT:    9957430 MISS:          0 MSHR_MERGE:          0
cpu0->cpu0_ITLB LOAD         ACCESS:    9957430 HIT:    9957430 MISS:          0 MSHR_MERGE:          0
cpu0->cpu0_ITLB RFO          ACCESS:          0 HIT:          0 MISS:          0 MSHR_MERGE:          0
cpu0->cpu0_ITLB PREFETCH     ACCESS:          0 HIT:          0 MISS:          0 MSHR_MERGE:          0
cpu0->cpu0_ITLB WRITE        ACCESS:          0 HIT:          0 MISS:          0 MSHR_MERGE:          0
cpu0->cpu0_ITLB TRANSLATION  ACCESS:          0 HIT:          0 MISS:          0 MSHR_MERGE:          0
cpu0->cpu0_ITLB PREFETCH REQUESTED:          0 ISSUED:          0 USEFUL:          0 USELESS:          0
cpu0->cpu0_ITLB AVERAGE MISS LATENCY: - cycles
cpu0->cpu0_DTLB TOTAL        ACCESS:   53831171 HIT:   52883017 MISS:     948154 MSHR_MERGE:     877614
cpu0->cpu0_DTLB LOAD         ACCESS:   53831171 HIT:   52883017 MISS:     948154 MSHR_MERGE:     877614
cpu0->cpu0_DTLB RFO          ACCESS:          0 HIT:          0 MISS:          0 MSHR_MERGE:          0
cpu0->cpu0_DTLB PREFETCH     ACCESS:          0 HIT:          0 MISS:          0 MSHR_MERGE:          0
cpu0->cpu0_DTLB WRITE        ACCESS:          0 HIT:          0 MISS:          0 MSHR_MERGE:          0
cpu0->cpu0_DTLB TRANSLATION  ACCESS:          0 HIT:          0 MISS:          0 MSHR_MERGE:          0
cpu0->cpu0_DTLB PREFETCH REQUESTED:          0 ISSUED:          0 USEFUL:          0 USELESS:          0
cpu0->cpu0_DTLB AVERAGE MISS LATENCY: 291 cycles
cpu0->LLC TOTAL        ACCESS:    8994494 HIT:    1273666 MISS:    7720828 MSHR_MERGE:     405103
cpu0->LLC LOAD         ACCESS:       6449 HIT:        765 MISS:       5684 MSHR_MERGE:       2450
cpu0->LLC RFO          ACCESS:    2985630 HIT:         23 MISS:    2985607 MSHR_MERGE:          0
cpu0->LLC PREFETCH     ACCESS:    2999528 HIT:    1068679 MISS:    1930849 MSHR_MERGE:     402653
cpu0->LLC WRITE        ACCESS:    2993912 HIT:     204198 MISS:    2789714 MSHR_MERGE:          0
cpu0->LLC TRANSLATION  ACCESS:       8975 HIT:          1 MISS:       8974 MSHR_MERGE:          0
cpu0->LLC PREFETCH REQUESTED:    1486985 ISSUED:    1478705 USEFUL:    1071673 USELESS:     306875
cpu0->LLC AVERAGE MISS LATENCY: 275.4 cycles

DRAM Statistics

Channel 0 RQ ROW_BUFFER_HIT:     327255
  ROW_BUFFER_MISS:    4198747
  AVG DBUS CONGESTED CYCLE: 10.76
Channel 0 WQ ROW_BUFFER_HIT:     171144
  ROW_BUFFER_MISS:    2828977
  FULL:    1392376
Channel 0 REFRESHES ISSUED:      11323
