[VMEM] WARNING: physical memory size is smaller than virtual memory size.

*** ChampSim Multicore Out-of-Order Simulator ***
Warmup Instructions: 50000000
Simulation Instructions: 200000000
Number of CPUs: 1
Page size: 4096
Core 0: /local-ssd/ben/dpc4-traces/gtraces_v2/merced_0004.champsim.gz
Off-chip DRAM Size: 64 GiB Channels: 1 Width: 64-bit Data Rate: 4807 MT/s
Heartbeat CPU 0 instructions: 500001 cycles: 176602 heartbeat IPC: 2.831 cumulative IPC: 2.831 (Simulation time: 00 hr 00 min 03 sec)
[BTB] WARNING: target of return is a lower address than the corresponding call. This is usually a problem with your trace.
[BTB] WARNING: target of return is a lower address than the corresponding call. This is usually a problem with your trace.
Heartbeat CPU 0 instructions: 1000006 cycles: 307342 heartbeat IPC: 3.824 cumulative IPC: 3.254 (Simulation time: 00 hr 00 min 05 sec)
[BTB] WARNING: target of return is a lower address than the corresponding call. This is usually a problem with your trace.
[BTB] WARNING: target of return is a lower address than the corresponding call. This is usually a problem with your trace.
[BTB] WARNING: target of return is a lower address than the corresponding call. This is usually a problem with your trace.
Heartbeat CPU 0 instructions: 1500008 cycles: 423273 heartbeat IPC: 4.313 cumulative IPC: 3.544 (Simulation time: 00 hr 00 min 07 sec)
[BTB] WARNING: target of return is a lower address than the corresponding call. This is usually a problem with your trace.
[BTB] WARNING: target of return is a lower address than the corresponding call. This is usually a problem with your trace.
Heartbeat CPU 0 instructions: 2000008 cycles: 542720 heartbeat IPC: 4.186 cumulative IPC: 3.685 (Simulation time: 00 hr 00 min 08 sec)
[BTB] WARNING: target of return is a lower address than the corresponding call. This is usually a problem with your trace.
Heartbeat CPU 0 instructions: 2500008 cycles: 732175 heartbeat IPC: 2.639 cumulative IPC: 3.414 (Simulation time: 00 hr 00 min 12 sec)
[BTB] WARNING: target of return is a lower address than the corresponding call. This is usually a problem with your trace.
[BTB] WARNING: target of return is a lower address than the corresponding call. This is usually a problem with your trace.
Heartbeat CPU 0 instructions: 3000009 cycles: 930748 heartbeat IPC: 2.518 cumulative IPC: 3.223 (Simulation time: 00 hr 00 min 15 sec)
Heartbeat CPU 0 instructions: 3500015 cycles: 1166078 heartbeat IPC: 2.125 cumulative IPC: 3.002 (Simulation time: 00 hr 00 min 18 sec)
Heartbeat CPU 0 instructions: 4000019 cycles: 1350478 heartbeat IPC: 2.712 cumulative IPC: 2.962 (Simulation time: 00 hr 00 min 22 sec)
Heartbeat CPU 0 instructions: 4500025 cycles: 1505813 heartbeat IPC: 3.219 cumulative IPC: 2.988 (Simulation time: 00 hr 00 min 25 sec)
Heartbeat CPU 0 instructions: 5000031 cycles: 1628985 heartbeat IPC: 4.059 cumulative IPC: 3.069 (Simulation time: 00 hr 00 min 27 sec)
Heartbeat CPU 0 instructions: 5500035 cycles: 1748151 heartbeat IPC: 4.196 cumulative IPC: 3.146 (Simulation time: 00 hr 00 min 30 sec)
Heartbeat CPU 0 instructions: 6000037 cycles: 1922295 heartbeat IPC: 2.871 cumulative IPC: 3.121 (Simulation time: 00 hr 00 min 33 sec)
Heartbeat CPU 0 instructions: 6500037 cycles: 2090293 heartbeat IPC: 2.976 cumulative IPC: 3.11 (Simulation time: 00 hr 00 min 36 sec)
Heartbeat CPU 0 instructions: 7000037 cycles: 2213291 heartbeat IPC: 4.065 cumulative IPC: 3.163 (Simulation time: 00 hr 00 min 38 sec)
Heartbeat CPU 0 instructions: 7500043 cycles: 2343220 heartbeat IPC: 3.848 cumulative IPC: 3.201 (Simulation time: 00 hr 00 min 41 sec)
Heartbeat CPU 0 instructions: 8000047 cycles: 2476392 heartbeat IPC: 3.755 cumulative IPC: 3.231 (Simulation time: 00 hr 00 min 43 sec)
Heartbeat CPU 0 instructions: 8500051 cycles: 2621172 heartbeat IPC: 3.454 cumulative IPC: 3.243 (Simulation time: 00 hr 00 min 46 sec)
Heartbeat CPU 0 instructions: 9000056 cycles: 2728639 heartbeat IPC: 4.653 cumulative IPC: 3.298 (Simulation time: 00 hr 00 min 47 sec)
Heartbeat CPU 0 instructions: 9500063 cycles: 2834660 heartbeat IPC: 4.716 cumulative IPC: 3.351 (Simulation time: 00 hr 00 min 48 sec)
Heartbeat CPU 0 instructions: 10000070 cycles: 2970171 heartbeat IPC: 3.69 cumulative IPC: 3.367 (Simulation time: 00 hr 00 min 51 sec)
Heartbeat CPU 0 instructions: 10500070 cycles: 3073182 heartbeat IPC: 4.854 cumulative IPC: 3.417 (Simulation time: 00 hr 00 min 52 sec)
Heartbeat CPU 0 instructions: 11000073 cycles: 3209760 heartbeat IPC: 3.661 cumulative IPC: 3.427 (Simulation time: 00 hr 00 min 54 sec)
Heartbeat CPU 0 instructions: 11500080 cycles: 3360651 heartbeat IPC: 3.314 cumulative IPC: 3.422 (Simulation time: 00 hr 00 min 57 sec)
Heartbeat CPU 0 instructions: 12000084 cycles: 3514944 heartbeat IPC: 3.241 cumulative IPC: 3.414 (Simulation time: 00 hr 01 min 00 sec)
Heartbeat CPU 0 instructions: 12500089 cycles: 3674505 heartbeat IPC: 3.134 cumulative IPC: 3.402 (Simulation time: 00 hr 01 min 03 sec)
Heartbeat CPU 0 instructions: 13000092 cycles: 3853635 heartbeat IPC: 2.791 cumulative IPC: 3.373 (Simulation time: 00 hr 01 min 06 sec)
Heartbeat CPU 0 instructions: 13500098 cycles: 3980274 heartbeat IPC: 3.948 cumulative IPC: 3.392 (Simulation time: 00 hr 01 min 08 sec)
Heartbeat CPU 0 instructions: 14000098 cycles: 4119834 heartbeat IPC: 3.583 cumulative IPC: 3.398 (Simulation time: 00 hr 01 min 10 sec)
Heartbeat CPU 0 instructions: 14500099 cycles: 4282558 heartbeat IPC: 3.073 cumulative IPC: 3.386 (Simulation time: 00 hr 01 min 13 sec)
Heartbeat CPU 0 instructions: 15000099 cycles: 4444740 heartbeat IPC: 3.083 cumulative IPC: 3.375 (Simulation time: 00 hr 01 min 16 sec)
Heartbeat CPU 0 instructions: 15500100 cycles: 4584033 heartbeat IPC: 3.59 cumulative IPC: 3.381 (Simulation time: 00 hr 01 min 19 sec)
Heartbeat CPU 0 instructions: 16000107 cycles: 4690160 heartbeat IPC: 4.711 cumulative IPC: 3.411 (Simulation time: 00 hr 01 min 20 sec)
Heartbeat CPU 0 instructions: 16500111 cycles: 4838023 heartbeat IPC: 3.382 cumulative IPC: 3.411 (Simulation time: 00 hr 01 min 23 sec)
Heartbeat CPU 0 instructions: 17000116 cycles: 4965845 heartbeat IPC: 3.912 cumulative IPC: 3.423 (Simulation time: 00 hr 01 min 25 sec)
Heartbeat CPU 0 instructions: 17500120 cycles: 5090101 heartbeat IPC: 4.024 cumulative IPC: 3.438 (Simulation time: 00 hr 01 min 28 sec)
Heartbeat CPU 0 instructions: 18000127 cycles: 5220952 heartbeat IPC: 3.821 cumulative IPC: 3.448 (Simulation time: 00 hr 01 min 30 sec)
Heartbeat CPU 0 instructions: 18500129 cycles: 5375090 heartbeat IPC: 3.244 cumulative IPC: 3.442 (Simulation time: 00 hr 01 min 33 sec)
Heartbeat CPU 0 instructions: 19000133 cycles: 5490858 heartbeat IPC: 4.319 cumulative IPC: 3.46 (Simulation time: 00 hr 01 min 35 sec)
Heartbeat CPU 0 instructions: 19500136 cycles: 5645119 heartbeat IPC: 3.241 cumulative IPC: 3.454 (Simulation time: 00 hr 01 min 38 sec)
Heartbeat CPU 0 instructions: 20000138 cycles: 5755010 heartbeat IPC: 4.55 cumulative IPC: 3.475 (Simulation time: 00 hr 01 min 39 sec)
Heartbeat CPU 0 instructions: 20500138 cycles: 5864171 heartbeat IPC: 4.58 cumulative IPC: 3.496 (Simulation time: 00 hr 01 min 41 sec)
Heartbeat CPU 0 instructions: 21000144 cycles: 5973586 heartbeat IPC: 4.57 cumulative IPC: 3.516 (Simulation time: 00 hr 01 min 43 sec)
Heartbeat CPU 0 instructions: 21500146 cycles: 6127016 heartbeat IPC: 3.259 cumulative IPC: 3.509 (Simulation time: 00 hr 01 min 45 sec)
Heartbeat CPU 0 instructions: 22000152 cycles: 6287655 heartbeat IPC: 3.113 cumulative IPC: 3.499 (Simulation time: 00 hr 01 min 48 sec)
Heartbeat CPU 0 instructions: 22500152 cycles: 6429620 heartbeat IPC: 3.522 cumulative IPC: 3.499 (Simulation time: 00 hr 01 min 51 sec)
Heartbeat CPU 0 instructions: 23000156 cycles: 6557657 heartbeat IPC: 3.905 cumulative IPC: 3.507 (Simulation time: 00 hr 01 min 53 sec)
Heartbeat CPU 0 instructions: 23500160 cycles: 6680648 heartbeat IPC: 4.065 cumulative IPC: 3.518 (Simulation time: 00 hr 01 min 56 sec)
Heartbeat CPU 0 instructions: 24000163 cycles: 6794989 heartbeat IPC: 4.373 cumulative IPC: 3.532 (Simulation time: 00 hr 01 min 58 sec)
Heartbeat CPU 0 instructions: 24500166 cycles: 6923850 heartbeat IPC: 3.88 cumulative IPC: 3.539 (Simulation time: 00 hr 02 min 00 sec)
Heartbeat CPU 0 instructions: 25000166 cycles: 7063546 heartbeat IPC: 3.579 cumulative IPC: 3.539 (Simulation time: 00 hr 02 min 03 sec)
Heartbeat CPU 0 instructions: 25500167 cycles: 7220024 heartbeat IPC: 3.195 cumulative IPC: 3.532 (Simulation time: 00 hr 02 min 06 sec)
Heartbeat CPU 0 instructions: 26000167 cycles: 7350246 heartbeat IPC: 3.84 cumulative IPC: 3.537 (Simulation time: 00 hr 02 min 08 sec)
Heartbeat CPU 0 instructions: 26500167 cycles: 7455788 heartbeat IPC: 4.737 cumulative IPC: 3.554 (Simulation time: 00 hr 02 min 09 sec)
Heartbeat CPU 0 instructions: 27000171 cycles: 7580179 heartbeat IPC: 4.02 cumulative IPC: 3.562 (Simulation time: 00 hr 02 min 12 sec)
Heartbeat CPU 0 instructions: 27500175 cycles: 7732466 heartbeat IPC: 3.283 cumulative IPC: 3.556 (Simulation time: 00 hr 02 min 15 sec)
Heartbeat CPU 0 instructions: 28000179 cycles: 7861751 heartbeat IPC: 3.867 cumulative IPC: 3.562 (Simulation time: 00 hr 02 min 17 sec)
Heartbeat CPU 0 instructions: 28500186 cycles: 8004173 heartbeat IPC: 3.511 cumulative IPC: 3.561 (Simulation time: 00 hr 02 min 20 sec)
Heartbeat CPU 0 instructions: 29000193 cycles: 8124541 heartbeat IPC: 4.154 cumulative IPC: 3.569 (Simulation time: 00 hr 02 min 22 sec)
Heartbeat CPU 0 instructions: 29500196 cycles: 8250363 heartbeat IPC: 3.974 cumulative IPC: 3.576 (Simulation time: 00 hr 02 min 24 sec)
Heartbeat CPU 0 instructions: 30000199 cycles: 8366313 heartbeat IPC: 4.312 cumulative IPC: 3.586 (Simulation time: 00 hr 02 min 26 sec)
Heartbeat CPU 0 instructions: 30500202 cycles: 8473772 heartbeat IPC: 4.653 cumulative IPC: 3.599 (Simulation time: 00 hr 02 min 27 sec)
Heartbeat CPU 0 instructions: 31000202 cycles: 8623106 heartbeat IPC: 3.348 cumulative IPC: 3.595 (Simulation time: 00 hr 02 min 30 sec)
Heartbeat CPU 0 instructions: 31500209 cycles: 8738561 heartbeat IPC: 4.331 cumulative IPC: 3.605 (Simulation time: 00 hr 02 min 32 sec)
Heartbeat CPU 0 instructions: 32000212 cycles: 8860119 heartbeat IPC: 4.113 cumulative IPC: 3.612 (Simulation time: 00 hr 02 min 35 sec)
Heartbeat CPU 0 instructions: 32500215 cycles: 9011553 heartbeat IPC: 3.302 cumulative IPC: 3.607 (Simulation time: 00 hr 02 min 38 sec)
Heartbeat CPU 0 instructions: 33000218 cycles: 9119133 heartbeat IPC: 4.648 cumulative IPC: 3.619 (Simulation time: 00 hr 02 min 39 sec)
Heartbeat CPU 0 instructions: 33500222 cycles: 9277751 heartbeat IPC: 3.152 cumulative IPC: 3.611 (Simulation time: 00 hr 02 min 42 sec)
Heartbeat CPU 0 instructions: 34000226 cycles: 9400025 heartbeat IPC: 4.089 cumulative IPC: 3.617 (Simulation time: 00 hr 02 min 45 sec)
Heartbeat CPU 0 instructions: 34500227 cycles: 9541385 heartbeat IPC: 3.537 cumulative IPC: 3.616 (Simulation time: 00 hr 02 min 47 sec)
Heartbeat CPU 0 instructions: 35000233 cycles: 9648273 heartbeat IPC: 4.678 cumulative IPC: 3.628 (Simulation time: 00 hr 02 min 49 sec)
Heartbeat CPU 0 instructions: 35500234 cycles: 9757664 heartbeat IPC: 4.571 cumulative IPC: 3.638 (Simulation time: 00 hr 02 min 52 sec)
Heartbeat CPU 0 instructions: 36000239 cycles: 9861567 heartbeat IPC: 4.812 cumulative IPC: 3.651 (Simulation time: 00 hr 02 min 54 sec)
Heartbeat CPU 0 instructions: 36500240 cycles: 10013375 heartbeat IPC: 3.294 cumulative IPC: 3.645 (Simulation time: 00 hr 02 min 57 sec)
Heartbeat CPU 0 instructions: 37000240 cycles: 10176950 heartbeat IPC: 3.057 cumulative IPC: 3.636 (Simulation time: 00 hr 03 min 00 sec)
Heartbeat CPU 0 instructions: 37500244 cycles: 10345189 heartbeat IPC: 2.972 cumulative IPC: 3.625 (Simulation time: 00 hr 03 min 03 sec)
Heartbeat CPU 0 instructions: 38000248 cycles: 10490356 heartbeat IPC: 3.444 cumulative IPC: 3.622 (Simulation time: 00 hr 03 min 05 sec)
Heartbeat CPU 0 instructions: 38500255 cycles: 10630721 heartbeat IPC: 3.562 cumulative IPC: 3.622 (Simulation time: 00 hr 03 min 08 sec)
Heartbeat CPU 0 instructions: 39000261 cycles: 10767278 heartbeat IPC: 3.662 cumulative IPC: 3.622 (Simulation time: 00 hr 03 min 11 sec)
Heartbeat CPU 0 instructions: 39500268 cycles: 10873305 heartbeat IPC: 4.716 cumulative IPC: 3.633 (Simulation time: 00 hr 03 min 13 sec)
Heartbeat CPU 0 instructions: 40000271 cycles: 10988269 heartbeat IPC: 4.349 cumulative IPC: 3.64 (Simulation time: 00 hr 03 min 15 sec)
Heartbeat CPU 0 instructions: 40500275 cycles: 11115254 heartbeat IPC: 3.938 cumulative IPC: 3.644 (Simulation time: 00 hr 03 min 17 sec)
Heartbeat CPU 0 instructions: 41000275 cycles: 11245428 heartbeat IPC: 3.841 cumulative IPC: 3.646 (Simulation time: 00 hr 03 min 20 sec)
Heartbeat CPU 0 instructions: 41500276 cycles: 11373457 heartbeat IPC: 3.905 cumulative IPC: 3.649 (Simulation time: 00 hr 03 min 22 sec)
Heartbeat CPU 0 instructions: 42000276 cycles: 11513420 heartbeat IPC: 3.572 cumulative IPC: 3.648 (Simulation time: 00 hr 03 min 25 sec)
Heartbeat CPU 0 instructions: 42500281 cycles: 11670178 heartbeat IPC: 3.19 cumulative IPC: 3.642 (Simulation time: 00 hr 03 min 28 sec)
Heartbeat CPU 0 instructions: 43000288 cycles: 11812232 heartbeat IPC: 3.52 cumulative IPC: 3.64 (Simulation time: 00 hr 03 min 30 sec)
Heartbeat CPU 0 instructions: 43500291 cycles: 11953668 heartbeat IPC: 3.535 cumulative IPC: 3.639 (Simulation time: 00 hr 03 min 33 sec)
Heartbeat CPU 0 instructions: 44000291 cycles: 12080944 heartbeat IPC: 3.928 cumulative IPC: 3.642 (Simulation time: 00 hr 03 min 36 sec)
Heartbeat CPU 0 instructions: 44500296 cycles: 12194590 heartbeat IPC: 4.4 cumulative IPC: 3.649 (Simulation time: 00 hr 03 min 37 sec)
Heartbeat CPU 0 instructions: 45000297 cycles: 12304271 heartbeat IPC: 4.559 cumulative IPC: 3.657 (Simulation time: 00 hr 03 min 39 sec)
Heartbeat CPU 0 instructions: 45500302 cycles: 12434272 heartbeat IPC: 3.846 cumulative IPC: 3.659 (Simulation time: 00 hr 03 min 41 sec)
Heartbeat CPU 0 instructions: 46000307 cycles: 12541698 heartbeat IPC: 4.654 cumulative IPC: 3.668 (Simulation time: 00 hr 03 min 42 sec)
Heartbeat CPU 0 instructions: 46500311 cycles: 12673379 heartbeat IPC: 3.797 cumulative IPC: 3.669 (Simulation time: 00 hr 03 min 45 sec)
Heartbeat CPU 0 instructions: 47000315 cycles: 12802340 heartbeat IPC: 3.877 cumulative IPC: 3.671 (Simulation time: 00 hr 03 min 47 sec)
Heartbeat CPU 0 instructions: 47500321 cycles: 12977405 heartbeat IPC: 2.856 cumulative IPC: 3.66 (Simulation time: 00 hr 03 min 51 sec)
Heartbeat CPU 0 instructions: 48000321 cycles: 13105486 heartbeat IPC: 3.904 cumulative IPC: 3.663 (Simulation time: 00 hr 03 min 53 sec)
Heartbeat CPU 0 instructions: 48500322 cycles: 13234281 heartbeat IPC: 3.882 cumulative IPC: 3.665 (Simulation time: 00 hr 03 min 55 sec)
Heartbeat CPU 0 instructions: 49000329 cycles: 13347933 heartbeat IPC: 4.399 cumulative IPC: 3.671 (Simulation time: 00 hr 03 min 57 sec)
Heartbeat CPU 0 instructions: 49500331 cycles: 13451175 heartbeat IPC: 4.843 cumulative IPC: 3.68 (Simulation time: 00 hr 03 min 58 sec)
Warmup finished CPU 0 instructions: 50000007 cycles: 13570677 cumulative IPC: 3.684 (Simulation time: 00 hr 04 min 00 sec)
Warmup complete CPU 0 instructions: 50000007 cycles: 13570677 cumulative IPC: 3.684 (Simulation time: 00 hr 04 min 00 sec)
Heartbeat CPU 0 instructions: 50000335 cycles: 13570718 heartbeat IPC: 4.183 cumulative IPC: 8 (Simulation time: 00 hr 04 min 00 sec)
Heartbeat CPU 0 instructions: 50500335 cycles: 14423151 heartbeat IPC: 0.5866 cumulative IPC: 0.5869 (Simulation time: 00 hr 04 min 06 sec)
Heartbeat CPU 0 instructions: 51000335 cycles: 15257134 heartbeat IPC: 0.5995 cumulative IPC: 0.5932 (Simulation time: 00 hr 04 min 13 sec)
Heartbeat CPU 0 instructions: 51500335 cycles: 16926003 heartbeat IPC: 0.2996 cumulative IPC: 0.4471 (Simulation time: 00 hr 04 min 24 sec)
Heartbeat CPU 0 instructions: 52000338 cycles: 17795042 heartbeat IPC: 0.5754 cumulative IPC: 0.4735 (Simulation time: 00 hr 04 min 31 sec)
Heartbeat CPU 0 instructions: 52500339 cycles: 18114105 heartbeat IPC: 1.567 cumulative IPC: 0.5503 (Simulation time: 00 hr 04 min 33 sec)
Heartbeat CPU 0 instructions: 53000339 cycles: 18544905 heartbeat IPC: 1.161 cumulative IPC: 0.6032 (Simulation time: 00 hr 04 min 37 sec)
Heartbeat CPU 0 instructions: 53500340 cycles: 19380264 heartbeat IPC: 0.5985 cumulative IPC: 0.6025 (Simulation time: 00 hr 04 min 43 sec)
Heartbeat CPU 0 instructions: 54000340 cycles: 20301421 heartbeat IPC: 0.5428 cumulative IPC: 0.5943 (Simulation time: 00 hr 04 min 50 sec)
Heartbeat CPU 0 instructions: 54500340 cycles: 20859705 heartbeat IPC: 0.8956 cumulative IPC: 0.6174 (Simulation time: 00 hr 04 min 54 sec)
Heartbeat CPU 0 instructions: 55000341 cycles: 21482618 heartbeat IPC: 0.8027 cumulative IPC: 0.632 (Simulation time: 00 hr 04 min 59 sec)
Heartbeat CPU 0 instructions: 55500345 cycles: 22268560 heartbeat IPC: 0.6362 cumulative IPC: 0.6324 (Simulation time: 00 hr 05 min 05 sec)
Heartbeat CPU 0 instructions: 56000346 cycles: 22974228 heartbeat IPC: 0.7085 cumulative IPC: 0.6381 (Simulation time: 00 hr 05 min 11 sec)
Heartbeat CPU 0 instructions: 56500346 cycles: 23477565 heartbeat IPC: 0.9934 cumulative IPC: 0.6561 (Simulation time: 00 hr 05 min 16 sec)
Heartbeat CPU 0 instructions: 57000350 cycles: 23846744 heartbeat IPC: 1.354 cumulative IPC: 0.6812 (Simulation time: 00 hr 05 min 19 sec)
Heartbeat CPU 0 instructions: 57500352 cycles: 24015739 heartbeat IPC: 2.959 cumulative IPC: 0.7181 (Simulation time: 00 hr 05 min 21 sec)
Heartbeat CPU 0 instructions: 58000355 cycles: 24182016 heartbeat IPC: 3.007 cumulative IPC: 0.7539 (Simulation time: 00 hr 05 min 22 sec)
Heartbeat CPU 0 instructions: 58500356 cycles: 24336915 heartbeat IPC: 3.228 cumulative IPC: 0.7895 (Simulation time: 00 hr 05 min 24 sec)
Heartbeat CPU 0 instructions: 59000360 cycles: 24522159 heartbeat IPC: 2.699 cumulative IPC: 0.8218 (Simulation time: 00 hr 05 min 26 sec)
Heartbeat CPU 0 instructions: 59500363 cycles: 25410770 heartbeat IPC: 0.5627 cumulative IPC: 0.8024 (Simulation time: 00 hr 05 min 33 sec)
Heartbeat CPU 0 instructions: 60000370 cycles: 26017285 heartbeat IPC: 0.8244 cumulative IPC: 0.8035 (Simulation time: 00 hr 05 min 38 sec)
Heartbeat CPU 0 instructions: 60500372 cycles: 26647087 heartbeat IPC: 0.7939 cumulative IPC: 0.803 (Simulation time: 00 hr 05 min 43 sec)
Heartbeat CPU 0 instructions: 61000373 cycles: 27006700 heartbeat IPC: 1.39 cumulative IPC: 0.8187 (Simulation time: 00 hr 05 min 47 sec)
Heartbeat CPU 0 instructions: 61500375 cycles: 27361966 heartbeat IPC: 1.407 cumulative IPC: 0.8339 (Simulation time: 00 hr 05 min 50 sec)
Heartbeat CPU 0 instructions: 62000376 cycles: 27735264 heartbeat IPC: 1.339 cumulative IPC: 0.8472 (Simulation time: 00 hr 05 min 54 sec)
Heartbeat CPU 0 instructions: 62500379 cycles: 28562404 heartbeat IPC: 0.6045 cumulative IPC: 0.8338 (Simulation time: 00 hr 06 min 00 sec)
Heartbeat CPU 0 instructions: 63000381 cycles: 29795857 heartbeat IPC: 0.4054 cumulative IPC: 0.8012 (Simulation time: 00 hr 06 min 09 sec)
Heartbeat CPU 0 instructions: 63500381 cycles: 30924538 heartbeat IPC: 0.443 cumulative IPC: 0.7779 (Simulation time: 00 hr 06 min 17 sec)
Heartbeat CPU 0 instructions: 64000384 cycles: 32808820 heartbeat IPC: 0.2654 cumulative IPC: 0.7277 (Simulation time: 00 hr 06 min 30 sec)
Heartbeat CPU 0 instructions: 64500384 cycles: 34362748 heartbeat IPC: 0.3218 cumulative IPC: 0.6974 (Simulation time: 00 hr 06 min 41 sec)
Heartbeat CPU 0 instructions: 65000384 cycles: 35119373 heartbeat IPC: 0.6608 cumulative IPC: 0.6961 (Simulation time: 00 hr 06 min 48 sec)
Heartbeat CPU 0 instructions: 65500389 cycles: 35715967 heartbeat IPC: 0.8381 cumulative IPC: 0.6999 (Simulation time: 00 hr 06 min 53 sec)
Heartbeat CPU 0 instructions: 66000391 cycles: 36935586 heartbeat IPC: 0.41 cumulative IPC: 0.6848 (Simulation time: 00 hr 07 min 02 sec)
Heartbeat CPU 0 instructions: 66500391 cycles: 38332116 heartbeat IPC: 0.358 cumulative IPC: 0.6664 (Simulation time: 00 hr 07 min 12 sec)
Heartbeat CPU 0 instructions: 67000393 cycles: 39679372 heartbeat IPC: 0.3711 cumulative IPC: 0.6511 (Simulation time: 00 hr 07 min 21 sec)
Heartbeat CPU 0 instructions: 67500395 cycles: 41154949 heartbeat IPC: 0.3389 cumulative IPC: 0.6344 (Simulation time: 00 hr 07 min 32 sec)
Heartbeat CPU 0 instructions: 68000395 cycles: 41831708 heartbeat IPC: 0.7388 cumulative IPC: 0.6369 (Simulation time: 00 hr 07 min 38 sec)
Heartbeat CPU 0 instructions: 68500395 cycles: 43308116 heartbeat IPC: 0.3387 cumulative IPC: 0.6221 (Simulation time: 00 hr 07 min 48 sec)
Heartbeat CPU 0 instructions: 69000402 cycles: 43874942 heartbeat IPC: 0.8821 cumulative IPC: 0.627 (Simulation time: 00 hr 07 min 53 sec)
Heartbeat CPU 0 instructions: 69500405 cycles: 44271643 heartbeat IPC: 1.26 cumulative IPC: 0.6352 (Simulation time: 00 hr 07 min 57 sec)
Heartbeat CPU 0 instructions: 70000405 cycles: 44727574 heartbeat IPC: 1.097 cumulative IPC: 0.6419 (Simulation time: 00 hr 08 min 01 sec)
Heartbeat CPU 0 instructions: 70500406 cycles: 45059244 heartbeat IPC: 1.508 cumulative IPC: 0.651 (Simulation time: 00 hr 08 min 03 sec)
Heartbeat CPU 0 instructions: 71000410 cycles: 45398162 heartbeat IPC: 1.475 cumulative IPC: 0.6598 (Simulation time: 00 hr 08 min 06 sec)
Heartbeat CPU 0 instructions: 71500410 cycles: 46178581 heartbeat IPC: 0.6407 cumulative IPC: 0.6594 (Simulation time: 00 hr 08 min 12 sec)
Heartbeat CPU 0 instructions: 72000411 cycles: 46317818 heartbeat IPC: 3.591 cumulative IPC: 0.6718 (Simulation time: 00 hr 08 min 14 sec)
Heartbeat CPU 0 instructions: 72500413 cycles: 46467405 heartbeat IPC: 3.343 cumulative IPC: 0.684 (Simulation time: 00 hr 08 min 16 sec)
Heartbeat CPU 0 instructions: 73000419 cycles: 46609159 heartbeat IPC: 3.527 cumulative IPC: 0.6962 (Simulation time: 00 hr 08 min 17 sec)
Heartbeat CPU 0 instructions: 73500420 cycles: 46786319 heartbeat IPC: 2.822 cumulative IPC: 0.7075 (Simulation time: 00 hr 08 min 19 sec)
Heartbeat CPU 0 instructions: 74000422 cycles: 47606356 heartbeat IPC: 0.6097 cumulative IPC: 0.7052 (Simulation time: 00 hr 08 min 26 sec)
Heartbeat CPU 0 instructions: 74500424 cycles: 48363651 heartbeat IPC: 0.6602 cumulative IPC: 0.7042 (Simulation time: 00 hr 08 min 32 sec)
Heartbeat CPU 0 instructions: 75000424 cycles: 49276109 heartbeat IPC: 0.548 cumulative IPC: 0.7002 (Simulation time: 00 hr 08 min 39 sec)
Heartbeat CPU 0 instructions: 75500427 cycles: 50668126 heartbeat IPC: 0.3592 cumulative IPC: 0.6874 (Simulation time: 00 hr 08 min 49 sec)
Heartbeat CPU 0 instructions: 76000429 cycles: 51320558 heartbeat IPC: 0.7664 cumulative IPC: 0.6888 (Simulation time: 00 hr 08 min 55 sec)
Heartbeat CPU 0 instructions: 76500434 cycles: 51788361 heartbeat IPC: 1.069 cumulative IPC: 0.6934 (Simulation time: 00 hr 08 min 59 sec)
Heartbeat CPU 0 instructions: 77000440 cycles: 52076633 heartbeat IPC: 1.734 cumulative IPC: 0.7012 (Simulation time: 00 hr 09 min 01 sec)
Heartbeat CPU 0 instructions: 77500444 cycles: 52374593 heartbeat IPC: 1.678 cumulative IPC: 0.7087 (Simulation time: 00 hr 09 min 04 sec)
Heartbeat CPU 0 instructions: 78000446 cycles: 52593635 heartbeat IPC: 2.283 cumulative IPC: 0.7175 (Simulation time: 00 hr 09 min 07 sec)
Heartbeat CPU 0 instructions: 78500446 cycles: 53519512 heartbeat IPC: 0.54 cumulative IPC: 0.7134 (Simulation time: 00 hr 09 min 14 sec)
Heartbeat CPU 0 instructions: 79000446 cycles: 54682665 heartbeat IPC: 0.4299 cumulative IPC: 0.7054 (Simulation time: 00 hr 09 min 22 sec)
Heartbeat CPU 0 instructions: 79500446 cycles: 55267196 heartbeat IPC: 0.8554 cumulative IPC: 0.7075 (Simulation time: 00 hr 09 min 27 sec)
Heartbeat CPU 0 instructions: 80000446 cycles: 55823465 heartbeat IPC: 0.8988 cumulative IPC: 0.71 (Simulation time: 00 hr 09 min 32 sec)
Heartbeat CPU 0 instructions: 80500448 cycles: 57062541 heartbeat IPC: 0.4035 cumulative IPC: 0.7013 (Simulation time: 00 hr 09 min 41 sec)
Heartbeat CPU 0 instructions: 81000448 cycles: 57717608 heartbeat IPC: 0.7633 cumulative IPC: 0.7022 (Simulation time: 00 hr 09 min 47 sec)
Heartbeat CPU 0 instructions: 81500450 cycles: 58205605 heartbeat IPC: 1.025 cumulative IPC: 0.7057 (Simulation time: 00 hr 09 min 51 sec)
Heartbeat CPU 0 instructions: 82000450 cycles: 58634289 heartbeat IPC: 1.166 cumulative IPC: 0.7101 (Simulation time: 00 hr 09 min 55 sec)
Heartbeat CPU 0 instructions: 82500456 cycles: 59126673 heartbeat IPC: 1.015 cumulative IPC: 0.7134 (Simulation time: 00 hr 10 min 00 sec)
Heartbeat CPU 0 instructions: 83000457 cycles: 59546305 heartbeat IPC: 1.192 cumulative IPC: 0.7178 (Simulation time: 00 hr 10 min 04 sec)
Heartbeat CPU 0 instructions: 83500457 cycles: 60054544 heartbeat IPC: 0.9838 cumulative IPC: 0.7207 (Simulation time: 00 hr 10 min 09 sec)
Heartbeat CPU 0 instructions: 84000460 cycles: 61040984 heartbeat IPC: 0.5069 cumulative IPC: 0.7162 (Simulation time: 00 hr 10 min 16 sec)
Heartbeat CPU 0 instructions: 84500464 cycles: 62313469 heartbeat IPC: 0.3929 cumulative IPC: 0.7078 (Simulation time: 00 hr 10 min 25 sec)
Heartbeat CPU 0 instructions: 85000464 cycles: 63563494 heartbeat IPC: 0.4 cumulative IPC: 0.7001 (Simulation time: 00 hr 10 min 35 sec)
Heartbeat CPU 0 instructions: 85500464 cycles: 64755490 heartbeat IPC: 0.4195 cumulative IPC: 0.6936 (Simulation time: 00 hr 10 min 43 sec)
Heartbeat CPU 0 instructions: 86000464 cycles: 66370934 heartbeat IPC: 0.3095 cumulative IPC: 0.6818 (Simulation time: 00 hr 10 min 54 sec)
Heartbeat CPU 0 instructions: 86500466 cycles: 67443600 heartbeat IPC: 0.4661 cumulative IPC: 0.6775 (Simulation time: 00 hr 11 min 03 sec)
Heartbeat CPU 0 instructions: 87000473 cycles: 68429615 heartbeat IPC: 0.5071 cumulative IPC: 0.6745 (Simulation time: 00 hr 11 min 10 sec)
Heartbeat CPU 0 instructions: 87500473 cycles: 69351323 heartbeat IPC: 0.5425 cumulative IPC: 0.6723 (Simulation time: 00 hr 11 min 18 sec)
Heartbeat CPU 0 instructions: 88000474 cycles: 69991799 heartbeat IPC: 0.7807 cumulative IPC: 0.6735 (Simulation time: 00 hr 11 min 23 sec)
Heartbeat CPU 0 instructions: 88500477 cycles: 70352760 heartbeat IPC: 1.385 cumulative IPC: 0.678 (Simulation time: 00 hr 11 min 26 sec)
Heartbeat CPU 0 instructions: 89000477 cycles: 70709370 heartbeat IPC: 1.402 cumulative IPC: 0.6826 (Simulation time: 00 hr 11 min 29 sec)
Heartbeat CPU 0 instructions: 89500477 cycles: 71080704 heartbeat IPC: 1.346 cumulative IPC: 0.6868 (Simulation time: 00 hr 11 min 32 sec)
Heartbeat CPU 0 instructions: 90000479 cycles: 71332274 heartbeat IPC: 1.988 cumulative IPC: 0.6925 (Simulation time: 00 hr 11 min 35 sec)
Heartbeat CPU 0 instructions: 90500481 cycles: 71605441 heartbeat IPC: 1.83 cumulative IPC: 0.6979 (Simulation time: 00 hr 11 min 38 sec)
Heartbeat CPU 0 instructions: 91000481 cycles: 71911593 heartbeat IPC: 1.633 cumulative IPC: 0.7028 (Simulation time: 00 hr 11 min 42 sec)
Heartbeat CPU 0 instructions: 91500482 cycles: 72209204 heartbeat IPC: 1.68 cumulative IPC: 0.7077 (Simulation time: 00 hr 11 min 45 sec)
Heartbeat CPU 0 instructions: 92000482 cycles: 72520578 heartbeat IPC: 1.606 cumulative IPC: 0.7125 (Simulation time: 00 hr 11 min 49 sec)
Heartbeat CPU 0 instructions: 92500483 cycles: 72778258 heartbeat IPC: 1.94 cumulative IPC: 0.7178 (Simulation time: 00 hr 11 min 52 sec)
Heartbeat CPU 0 instructions: 93000483 cycles: 73109923 heartbeat IPC: 1.508 cumulative IPC: 0.7222 (Simulation time: 00 hr 11 min 55 sec)
Heartbeat CPU 0 instructions: 93500484 cycles: 73386918 heartbeat IPC: 1.805 cumulative IPC: 0.7272 (Simulation time: 00 hr 11 min 58 sec)
Heartbeat CPU 0 instructions: 94000486 cycles: 73657271 heartbeat IPC: 1.849 cumulative IPC: 0.7323 (Simulation time: 00 hr 12 min 01 sec)
Heartbeat CPU 0 instructions: 94500489 cycles: 74026029 heartbeat IPC: 1.356 cumulative IPC: 0.7361 (Simulation time: 00 hr 12 min 04 sec)
Heartbeat CPU 0 instructions: 95000495 cycles: 74347160 heartbeat IPC: 1.557 cumulative IPC: 0.7404 (Simulation time: 00 hr 12 min 08 sec)
Heartbeat CPU 0 instructions: 95500496 cycles: 74754771 heartbeat IPC: 1.227 cumulative IPC: 0.7437 (Simulation time: 00 hr 12 min 12 sec)
Heartbeat CPU 0 instructions: 96000499 cycles: 75711819 heartbeat IPC: 0.5224 cumulative IPC: 0.7403 (Simulation time: 00 hr 12 min 19 sec)
Heartbeat CPU 0 instructions: 96500501 cycles: 76292844 heartbeat IPC: 0.8606 cumulative IPC: 0.7414 (Simulation time: 00 hr 12 min 24 sec)
Heartbeat CPU 0 instructions: 97000505 cycles: 76537924 heartbeat IPC: 2.04 cumulative IPC: 0.7464 (Simulation time: 00 hr 12 min 27 sec)
Heartbeat CPU 0 instructions: 97500506 cycles: 76769117 heartbeat IPC: 2.163 cumulative IPC: 0.7516 (Simulation time: 00 hr 12 min 30 sec)
Heartbeat CPU 0 instructions: 98000507 cycles: 76999371 heartbeat IPC: 2.172 cumulative IPC: 0.7568 (Simulation time: 00 hr 12 min 33 sec)
Heartbeat CPU 0 instructions: 98500510 cycles: 77226478 heartbeat IPC: 2.202 cumulative IPC: 0.7619 (Simulation time: 00 hr 12 min 36 sec)
Heartbeat CPU 0 instructions: 99000511 cycles: 77453747 heartbeat IPC: 2.2 cumulative IPC: 0.767 (Simulation time: 00 hr 12 min 39 sec)
Heartbeat CPU 0 instructions: 99500513 cycles: 77683452 heartbeat IPC: 2.177 cumulative IPC: 0.7721 (Simulation time: 00 hr 12 min 42 sec)
Heartbeat CPU 0 instructions: 100000513 cycles: 78938083 heartbeat IPC: 0.3985 cumulative IPC: 0.7649 (Simulation time: 00 hr 12 min 52 sec)
Heartbeat CPU 0 instructions: 100500516 cycles: 80268821 heartbeat IPC: 0.3757 cumulative IPC: 0.7572 (Simulation time: 00 hr 13 min 01 sec)
Heartbeat CPU 0 instructions: 101000518 cycles: 81465652 heartbeat IPC: 0.4178 cumulative IPC: 0.7512 (Simulation time: 00 hr 13 min 10 sec)
Heartbeat CPU 0 instructions: 101500521 cycles: 82299683 heartbeat IPC: 0.5995 cumulative IPC: 0.7493 (Simulation time: 00 hr 13 min 16 sec)
Heartbeat CPU 0 instructions: 102000526 cycles: 83978504 heartbeat IPC: 0.2978 cumulative IPC: 0.7386 (Simulation time: 00 hr 13 min 28 sec)
Heartbeat CPU 0 instructions: 102500530 cycles: 85344077 heartbeat IPC: 0.3661 cumulative IPC: 0.7315 (Simulation time: 00 hr 13 min 38 sec)
Heartbeat CPU 0 instructions: 103000533 cycles: 86526755 heartbeat IPC: 0.4228 cumulative IPC: 0.7265 (Simulation time: 00 hr 13 min 47 sec)
Heartbeat CPU 0 instructions: 103500535 cycles: 87563037 heartbeat IPC: 0.4825 cumulative IPC: 0.7231 (Simulation time: 00 hr 13 min 55 sec)
Heartbeat CPU 0 instructions: 104000535 cycles: 88605493 heartbeat IPC: 0.4796 cumulative IPC: 0.7197 (Simulation time: 00 hr 14 min 03 sec)
Heartbeat CPU 0 instructions: 104500541 cycles: 89422502 heartbeat IPC: 0.612 cumulative IPC: 0.7185 (Simulation time: 00 hr 14 min 09 sec)
Heartbeat CPU 0 instructions: 105000542 cycles: 90404209 heartbeat IPC: 0.5093 cumulative IPC: 0.7158 (Simulation time: 00 hr 14 min 16 sec)
Heartbeat CPU 0 instructions: 105500543 cycles: 90713632 heartbeat IPC: 1.616 cumulative IPC: 0.7195 (Simulation time: 00 hr 14 min 19 sec)
Heartbeat CPU 0 instructions: 106000548 cycles: 91241838 heartbeat IPC: 0.9466 cumulative IPC: 0.721 (Simulation time: 00 hr 14 min 23 sec)
Heartbeat CPU 0 instructions: 106500548 cycles: 91489037 heartbeat IPC: 2.023 cumulative IPC: 0.7251 (Simulation time: 00 hr 14 min 26 sec)
Heartbeat CPU 0 instructions: 107000550 cycles: 91671972 heartbeat IPC: 2.733 cumulative IPC: 0.7298 (Simulation time: 00 hr 14 min 27 sec)
Heartbeat CPU 0 instructions: 107500553 cycles: 91886952 heartbeat IPC: 2.326 cumulative IPC: 0.7342 (Simulation time: 00 hr 14 min 29 sec)
Heartbeat CPU 0 instructions: 108000560 cycles: 93169160 heartbeat IPC: 0.39 cumulative IPC: 0.7287 (Simulation time: 00 hr 14 min 39 sec)
Heartbeat CPU 0 instructions: 108500561 cycles: 94017612 heartbeat IPC: 0.5893 cumulative IPC: 0.7272 (Simulation time: 00 hr 14 min 45 sec)
Heartbeat CPU 0 instructions: 109000565 cycles: 94248662 heartbeat IPC: 2.164 cumulative IPC: 0.7313 (Simulation time: 00 hr 14 min 47 sec)
Heartbeat CPU 0 instructions: 109500566 cycles: 94496283 heartbeat IPC: 2.019 cumulative IPC: 0.7353 (Simulation time: 00 hr 14 min 50 sec)
Heartbeat CPU 0 instructions: 110000568 cycles: 94721002 heartbeat IPC: 2.225 cumulative IPC: 0.7394 (Simulation time: 00 hr 14 min 52 sec)
Heartbeat CPU 0 instructions: 110500568 cycles: 94989144 heartbeat IPC: 1.865 cumulative IPC: 0.7431 (Simulation time: 00 hr 14 min 55 sec)
Heartbeat CPU 0 instructions: 111000572 cycles: 95845269 heartbeat IPC: 0.584 cumulative IPC: 0.7414 (Simulation time: 00 hr 15 min 02 sec)
Heartbeat CPU 0 instructions: 111500573 cycles: 96621396 heartbeat IPC: 0.6442 cumulative IPC: 0.7405 (Simulation time: 00 hr 15 min 08 sec)
Heartbeat CPU 0 instructions: 112000579 cycles: 96935293 heartbeat IPC: 1.593 cumulative IPC: 0.7437 (Simulation time: 00 hr 15 min 11 sec)
Heartbeat CPU 0 instructions: 112500581 cycles: 98122624 heartbeat IPC: 0.4211 cumulative IPC: 0.7392 (Simulation time: 00 hr 15 min 19 sec)
Heartbeat CPU 0 instructions: 113000581 cycles: 99253083 heartbeat IPC: 0.4423 cumulative IPC: 0.7353 (Simulation time: 00 hr 15 min 28 sec)
Heartbeat CPU 0 instructions: 113500581 cycles: 99689309 heartbeat IPC: 1.146 cumulative IPC: 0.7374 (Simulation time: 00 hr 15 min 31 sec)
Heartbeat CPU 0 instructions: 114000581 cycles: 100011896 heartbeat IPC: 1.55 cumulative IPC: 0.7404 (Simulation time: 00 hr 15 min 34 sec)
Heartbeat CPU 0 instructions: 114500583 cycles: 100844873 heartbeat IPC: 0.6003 cumulative IPC: 0.7391 (Simulation time: 00 hr 15 min 41 sec)
Heartbeat CPU 0 instructions: 115000590 cycles: 102264776 heartbeat IPC: 0.3521 cumulative IPC: 0.7329 (Simulation time: 00 hr 15 min 51 sec)
Heartbeat CPU 0 instructions: 115500592 cycles: 103055794 heartbeat IPC: 0.6321 cumulative IPC: 0.732 (Simulation time: 00 hr 15 min 57 sec)
Heartbeat CPU 0 instructions: 116000593 cycles: 103707224 heartbeat IPC: 0.7675 cumulative IPC: 0.7322 (Simulation time: 00 hr 16 min 03 sec)
Heartbeat CPU 0 instructions: 116500596 cycles: 104539669 heartbeat IPC: 0.6006 cumulative IPC: 0.731 (Simulation time: 00 hr 16 min 09 sec)
Heartbeat CPU 0 instructions: 117000596 cycles: 104900263 heartbeat IPC: 1.387 cumulative IPC: 0.7336 (Simulation time: 00 hr 16 min 12 sec)
Heartbeat CPU 0 instructions: 117500603 cycles: 105697554 heartbeat IPC: 0.6271 cumulative IPC: 0.7327 (Simulation time: 00 hr 16 min 18 sec)
Heartbeat CPU 0 instructions: 118000604 cycles: 106318586 heartbeat IPC: 0.8051 cumulative IPC: 0.7332 (Simulation time: 00 hr 16 min 24 sec)
Heartbeat CPU 0 instructions: 118500604 cycles: 106988668 heartbeat IPC: 0.7462 cumulative IPC: 0.7333 (Simulation time: 00 hr 16 min 30 sec)
Heartbeat CPU 0 instructions: 119000604 cycles: 108688310 heartbeat IPC: 0.2942 cumulative IPC: 0.7254 (Simulation time: 00 hr 16 min 42 sec)
Heartbeat CPU 0 instructions: 119500607 cycles: 109114009 heartbeat IPC: 1.175 cumulative IPC: 0.7274 (Simulation time: 00 hr 16 min 46 sec)
Heartbeat CPU 0 instructions: 120000612 cycles: 110298137 heartbeat IPC: 0.4223 cumulative IPC: 0.7237 (Simulation time: 00 hr 16 min 55 sec)
Heartbeat CPU 0 instructions: 120500614 cycles: 111238882 heartbeat IPC: 0.5315 cumulative IPC: 0.7218 (Simulation time: 00 hr 17 min 02 sec)
Heartbeat CPU 0 instructions: 121000615 cycles: 112208620 heartbeat IPC: 0.5156 cumulative IPC: 0.7198 (Simulation time: 00 hr 17 min 10 sec)
Heartbeat CPU 0 instructions: 121500617 cycles: 113186874 heartbeat IPC: 0.5111 cumulative IPC: 0.7178 (Simulation time: 00 hr 17 min 17 sec)
Heartbeat CPU 0 instructions: 122000620 cycles: 113739153 heartbeat IPC: 0.9053 cumulative IPC: 0.7188 (Simulation time: 00 hr 17 min 22 sec)
Heartbeat CPU 0 instructions: 122500621 cycles: 115189725 heartbeat IPC: 0.3447 cumulative IPC: 0.7135 (Simulation time: 00 hr 17 min 33 sec)
Heartbeat CPU 0 instructions: 123000621 cycles: 115987719 heartbeat IPC: 0.6266 cumulative IPC: 0.7128 (Simulation time: 00 hr 17 min 39 sec)
Heartbeat CPU 0 instructions: 123500621 cycles: 116946626 heartbeat IPC: 0.5214 cumulative IPC: 0.711 (Simulation time: 00 hr 17 min 46 sec)
Heartbeat CPU 0 instructions: 124000621 cycles: 118368581 heartbeat IPC: 0.3516 cumulative IPC: 0.7061 (Simulation time: 00 hr 17 min 56 sec)
Heartbeat CPU 0 instructions: 124500622 cycles: 119844270 heartbeat IPC: 0.3388 cumulative IPC: 0.701 (Simulation time: 00 hr 18 min 06 sec)
Heartbeat CPU 0 instructions: 125000624 cycles: 120592367 heartbeat IPC: 0.6684 cumulative IPC: 0.7008 (Simulation time: 00 hr 18 min 12 sec)
Heartbeat CPU 0 instructions: 125500624 cycles: 122632291 heartbeat IPC: 0.2451 cumulative IPC: 0.6923 (Simulation time: 00 hr 18 min 26 sec)
Heartbeat CPU 0 instructions: 126000624 cycles: 123715025 heartbeat IPC: 0.4618 cumulative IPC: 0.69 (Simulation time: 00 hr 18 min 34 sec)
Heartbeat CPU 0 instructions: 126500630 cycles: 124181782 heartbeat IPC: 1.071 cumulative IPC: 0.6916 (Simulation time: 00 hr 18 min 38 sec)
Heartbeat CPU 0 instructions: 127000630 cycles: 124596000 heartbeat IPC: 1.207 cumulative IPC: 0.6935 (Simulation time: 00 hr 18 min 42 sec)
Heartbeat CPU 0 instructions: 127500633 cycles: 124983068 heartbeat IPC: 1.292 cumulative IPC: 0.6956 (Simulation time: 00 hr 18 min 45 sec)
Heartbeat CPU 0 instructions: 128000633 cycles: 126279942 heartbeat IPC: 0.3855 cumulative IPC: 0.6921 (Simulation time: 00 hr 18 min 55 sec)
Heartbeat CPU 0 instructions: 128500633 cycles: 127687897 heartbeat IPC: 0.3551 cumulative IPC: 0.6879 (Simulation time: 00 hr 19 min 05 sec)
Heartbeat CPU 0 instructions: 129000633 cycles: 129003719 heartbeat IPC: 0.38 cumulative IPC: 0.6844 (Simulation time: 00 hr 19 min 15 sec)
Heartbeat CPU 0 instructions: 129500633 cycles: 129543839 heartbeat IPC: 0.9257 cumulative IPC: 0.6855 (Simulation time: 00 hr 19 min 19 sec)
Heartbeat CPU 0 instructions: 130000635 cycles: 129927968 heartbeat IPC: 1.302 cumulative IPC: 0.6875 (Simulation time: 00 hr 19 min 22 sec)
Heartbeat CPU 0 instructions: 130500638 cycles: 130268916 heartbeat IPC: 1.467 cumulative IPC: 0.6898 (Simulation time: 00 hr 19 min 25 sec)
Heartbeat CPU 0 instructions: 131000640 cycles: 130602957 heartbeat IPC: 1.497 cumulative IPC: 0.6921 (Simulation time: 00 hr 19 min 28 sec)
Heartbeat CPU 0 instructions: 131500643 cycles: 131353096 heartbeat IPC: 0.6665 cumulative IPC: 0.692 (Simulation time: 00 hr 19 min 34 sec)
Heartbeat CPU 0 instructions: 132000648 cycles: 132399820 heartbeat IPC: 0.4777 cumulative IPC: 0.6901 (Simulation time: 00 hr 19 min 42 sec)
Heartbeat CPU 0 instructions: 132500652 cycles: 133260931 heartbeat IPC: 0.5806 cumulative IPC: 0.6893 (Simulation time: 00 hr 19 min 49 sec)
Heartbeat CPU 0 instructions: 133000653 cycles: 134383515 heartbeat IPC: 0.4454 cumulative IPC: 0.687 (Simulation time: 00 hr 19 min 57 sec)
Heartbeat CPU 0 instructions: 133500658 cycles: 135334989 heartbeat IPC: 0.5255 cumulative IPC: 0.6858 (Simulation time: 00 hr 20 min 04 sec)
Heartbeat CPU 0 instructions: 134000663 cycles: 136707388 heartbeat IPC: 0.3643 cumulative IPC: 0.6822 (Simulation time: 00 hr 20 min 13 sec)
Heartbeat CPU 0 instructions: 134500665 cycles: 137799828 heartbeat IPC: 0.4577 cumulative IPC: 0.6802 (Simulation time: 00 hr 20 min 21 sec)
Heartbeat CPU 0 instructions: 135000669 cycles: 138701080 heartbeat IPC: 0.5548 cumulative IPC: 0.6793 (Simulation time: 00 hr 20 min 28 sec)
Heartbeat CPU 0 instructions: 135500675 cycles: 140174880 heartbeat IPC: 0.3393 cumulative IPC: 0.6753 (Simulation time: 00 hr 20 min 38 sec)
Heartbeat CPU 0 instructions: 136000677 cycles: 141576897 heartbeat IPC: 0.3566 cumulative IPC: 0.6718 (Simulation time: 00 hr 20 min 48 sec)
Heartbeat CPU 0 instructions: 136500677 cycles: 142144594 heartbeat IPC: 0.8808 cumulative IPC: 0.6728 (Simulation time: 00 hr 20 min 53 sec)
Heartbeat CPU 0 instructions: 137000681 cycles: 143207262 heartbeat IPC: 0.4705 cumulative IPC: 0.6711 (Simulation time: 00 hr 21 min 00 sec)
Heartbeat CPU 0 instructions: 137500685 cycles: 144128039 heartbeat IPC: 0.543 cumulative IPC: 0.6702 (Simulation time: 00 hr 21 min 07 sec)
Heartbeat CPU 0 instructions: 138000686 cycles: 145400180 heartbeat IPC: 0.393 cumulative IPC: 0.6675 (Simulation time: 00 hr 21 min 16 sec)
Heartbeat CPU 0 instructions: 138500689 cycles: 146765062 heartbeat IPC: 0.3663 cumulative IPC: 0.6644 (Simulation time: 00 hr 21 min 25 sec)
Heartbeat CPU 0 instructions: 139000692 cycles: 148227454 heartbeat IPC: 0.3419 cumulative IPC: 0.6609 (Simulation time: 00 hr 21 min 36 sec)
Heartbeat CPU 0 instructions: 139500695 cycles: 148606803 heartbeat IPC: 1.318 cumulative IPC: 0.6628 (Simulation time: 00 hr 21 min 39 sec)
Heartbeat CPU 0 instructions: 140000695 cycles: 148966887 heartbeat IPC: 1.389 cumulative IPC: 0.6647 (Simulation time: 00 hr 21 min 42 sec)
Heartbeat CPU 0 instructions: 140500695 cycles: 149608059 heartbeat IPC: 0.7798 cumulative IPC: 0.6653 (Simulation time: 00 hr 21 min 47 sec)
Heartbeat CPU 0 instructions: 141000696 cycles: 150337035 heartbeat IPC: 0.6859 cumulative IPC: 0.6654 (Simulation time: 00 hr 21 min 53 sec)
Heartbeat CPU 0 instructions: 141500699 cycles: 150690975 heartbeat IPC: 1.413 cumulative IPC: 0.6673 (Simulation time: 00 hr 21 min 57 sec)
Heartbeat CPU 0 instructions: 142000700 cycles: 151985535 heartbeat IPC: 0.3862 cumulative IPC: 0.6647 (Simulation time: 00 hr 22 min 06 sec)
Heartbeat CPU 0 instructions: 142500703 cycles: 152893318 heartbeat IPC: 0.5508 cumulative IPC: 0.6639 (Simulation time: 00 hr 22 min 13 sec)
Heartbeat CPU 0 instructions: 143000708 cycles: 153446241 heartbeat IPC: 0.9043 cumulative IPC: 0.6649 (Simulation time: 00 hr 22 min 17 sec)
Heartbeat CPU 0 instructions: 143500708 cycles: 153794168 heartbeat IPC: 1.437 cumulative IPC: 0.6668 (Simulation time: 00 hr 22 min 20 sec)
Heartbeat CPU 0 instructions: 144000715 cycles: 154565470 heartbeat IPC: 0.6483 cumulative IPC: 0.6667 (Simulation time: 00 hr 22 min 27 sec)
Heartbeat CPU 0 instructions: 144500718 cycles: 155122153 heartbeat IPC: 0.8982 cumulative IPC: 0.6676 (Simulation time: 00 hr 22 min 32 sec)
Heartbeat CPU 0 instructions: 145000720 cycles: 156026757 heartbeat IPC: 0.5527 cumulative IPC: 0.6669 (Simulation time: 00 hr 22 min 38 sec)
Heartbeat CPU 0 instructions: 145500725 cycles: 157533092 heartbeat IPC: 0.3319 cumulative IPC: 0.6634 (Simulation time: 00 hr 22 min 49 sec)
Heartbeat CPU 0 instructions: 146000725 cycles: 158313403 heartbeat IPC: 0.6408 cumulative IPC: 0.6633 (Simulation time: 00 hr 22 min 55 sec)
Heartbeat CPU 0 instructions: 146500729 cycles: 158914128 heartbeat IPC: 0.8323 cumulative IPC: 0.6639 (Simulation time: 00 hr 23 min 00 sec)
Heartbeat CPU 0 instructions: 147000733 cycles: 159500152 heartbeat IPC: 0.8532 cumulative IPC: 0.6647 (Simulation time: 00 hr 23 min 05 sec)
Heartbeat CPU 0 instructions: 147500734 cycles: 160898703 heartbeat IPC: 0.3575 cumulative IPC: 0.6618 (Simulation time: 00 hr 23 min 15 sec)
Heartbeat CPU 0 instructions: 148000734 cycles: 161578386 heartbeat IPC: 0.7356 cumulative IPC: 0.6621 (Simulation time: 00 hr 23 min 20 sec)
Heartbeat CPU 0 instructions: 148500738 cycles: 162976732 heartbeat IPC: 0.3576 cumulative IPC: 0.6593 (Simulation time: 00 hr 23 min 30 sec)
Heartbeat CPU 0 instructions: 149000738 cycles: 164250033 heartbeat IPC: 0.3927 cumulative IPC: 0.657 (Simulation time: 00 hr 23 min 39 sec)
Heartbeat CPU 0 instructions: 149500743 cycles: 164501134 heartbeat IPC: 1.991 cumulative IPC: 0.6592 (Simulation time: 00 hr 23 min 41 sec)
Heartbeat CPU 0 instructions: 150000743 cycles: 164777292 heartbeat IPC: 1.811 cumulative IPC: 0.6614 (Simulation time: 00 hr 23 min 44 sec)
Heartbeat CPU 0 instructions: 150500749 cycles: 165832471 heartbeat IPC: 0.4739 cumulative IPC: 0.6601 (Simulation time: 00 hr 23 min 51 sec)
Heartbeat CPU 0 instructions: 151000752 cycles: 166756279 heartbeat IPC: 0.5412 cumulative IPC: 0.6593 (Simulation time: 00 hr 23 min 58 sec)
Heartbeat CPU 0 instructions: 151500754 cycles: 168052298 heartbeat IPC: 0.3858 cumulative IPC: 0.657 (Simulation time: 00 hr 24 min 07 sec)
Heartbeat CPU 0 instructions: 152000754 cycles: 168495301 heartbeat IPC: 1.129 cumulative IPC: 0.6584 (Simulation time: 00 hr 24 min 11 sec)
Heartbeat CPU 0 instructions: 152500757 cycles: 168969012 heartbeat IPC: 1.056 cumulative IPC: 0.6596 (Simulation time: 00 hr 24 min 15 sec)
Heartbeat CPU 0 instructions: 153000757 cycles: 169597833 heartbeat IPC: 0.7951 cumulative IPC: 0.6601 (Simulation time: 00 hr 24 min 21 sec)
Heartbeat CPU 0 instructions: 153500760 cycles: 171313224 heartbeat IPC: 0.2915 cumulative IPC: 0.6561 (Simulation time: 00 hr 24 min 32 sec)
Heartbeat CPU 0 instructions: 154000764 cycles: 171445539 heartbeat IPC: 3.779 cumulative IPC: 0.6588 (Simulation time: 00 hr 24 min 34 sec)
Heartbeat CPU 0 instructions: 154500768 cycles: 171822824 heartbeat IPC: 1.325 cumulative IPC: 0.6603 (Simulation time: 00 hr 24 min 38 sec)
Heartbeat CPU 0 instructions: 155000768 cycles: 172151757 heartbeat IPC: 1.52 cumulative IPC: 0.6621 (Simulation time: 00 hr 24 min 41 sec)
Heartbeat CPU 0 instructions: 155500770 cycles: 172436021 heartbeat IPC: 1.759 cumulative IPC: 0.6641 (Simulation time: 00 hr 24 min 43 sec)
Heartbeat CPU 0 instructions: 156000771 cycles: 172712578 heartbeat IPC: 1.808 cumulative IPC: 0.6661 (Simulation time: 00 hr 24 min 46 sec)
Heartbeat CPU 0 instructions: 156500772 cycles: 173626170 heartbeat IPC: 0.5473 cumulative IPC: 0.6654 (Simulation time: 00 hr 24 min 53 sec)
Heartbeat CPU 0 instructions: 157000778 cycles: 173907775 heartbeat IPC: 1.776 cumulative IPC: 0.6673 (Simulation time: 00 hr 24 min 55 sec)
Heartbeat CPU 0 instructions: 157500779 cycles: 174359313 heartbeat IPC: 1.107 cumulative IPC: 0.6686 (Simulation time: 00 hr 24 min 59 sec)
Heartbeat CPU 0 instructions: 158000785 cycles: 174852473 heartbeat IPC: 1.014 cumulative IPC: 0.6696 (Simulation time: 00 hr 25 min 03 sec)
Heartbeat CPU 0 instructions: 158500787 cycles: 175170350 heartbeat IPC: 1.573 cumulative IPC: 0.6714 (Simulation time: 00 hr 25 min 06 sec)
Heartbeat CPU 0 instructions: 159000790 cycles: 176157853 heartbeat IPC: 0.5063 cumulative IPC: 0.6704 (Simulation time: 00 hr 25 min 13 sec)
Heartbeat CPU 0 instructions: 159500795 cycles: 176859522 heartbeat IPC: 0.7126 cumulative IPC: 0.6706 (Simulation time: 00 hr 25 min 18 sec)
Heartbeat CPU 0 instructions: 160000798 cycles: 177653464 heartbeat IPC: 0.6298 cumulative IPC: 0.6704 (Simulation time: 00 hr 25 min 24 sec)
Heartbeat CPU 0 instructions: 160500798 cycles: 178469088 heartbeat IPC: 0.613 cumulative IPC: 0.6701 (Simulation time: 00 hr 25 min 30 sec)
Heartbeat CPU 0 instructions: 161000799 cycles: 179285223 heartbeat IPC: 0.6126 cumulative IPC: 0.6698 (Simulation time: 00 hr 25 min 35 sec)
Heartbeat CPU 0 instructions: 161500803 cycles: 179804204 heartbeat IPC: 0.9634 cumulative IPC: 0.6707 (Simulation time: 00 hr 25 min 39 sec)
Heartbeat CPU 0 instructions: 162000805 cycles: 180671296 heartbeat IPC: 0.5766 cumulative IPC: 0.6703 (Simulation time: 00 hr 25 min 45 sec)
Heartbeat CPU 0 instructions: 162500805 cycles: 181805780 heartbeat IPC: 0.4407 cumulative IPC: 0.6687 (Simulation time: 00 hr 25 min 53 sec)
Heartbeat CPU 0 instructions: 163000811 cycles: 182390060 heartbeat IPC: 0.8558 cumulative IPC: 0.6694 (Simulation time: 00 hr 25 min 59 sec)
Heartbeat CPU 0 instructions: 163500817 cycles: 183103890 heartbeat IPC: 0.7005 cumulative IPC: 0.6695 (Simulation time: 00 hr 26 min 04 sec)
Heartbeat CPU 0 instructions: 164000819 cycles: 183998476 heartbeat IPC: 0.5589 cumulative IPC: 0.6689 (Simulation time: 00 hr 26 min 11 sec)
Heartbeat CPU 0 instructions: 164500819 cycles: 185108070 heartbeat IPC: 0.4506 cumulative IPC: 0.6675 (Simulation time: 00 hr 26 min 18 sec)
Heartbeat CPU 0 instructions: 165000820 cycles: 186000225 heartbeat IPC: 0.5604 cumulative IPC: 0.6669 (Simulation time: 00 hr 26 min 25 sec)
Heartbeat CPU 0 instructions: 165500821 cycles: 187153174 heartbeat IPC: 0.4337 cumulative IPC: 0.6654 (Simulation time: 00 hr 26 min 33 sec)
Heartbeat CPU 0 instructions: 166000828 cycles: 188442752 heartbeat IPC: 0.3877 cumulative IPC: 0.6633 (Simulation time: 00 hr 26 min 42 sec)
Heartbeat CPU 0 instructions: 166500829 cycles: 189264290 heartbeat IPC: 0.6086 cumulative IPC: 0.6631 (Simulation time: 00 hr 26 min 48 sec)
Heartbeat CPU 0 instructions: 167000831 cycles: 189817639 heartbeat IPC: 0.9036 cumulative IPC: 0.6638 (Simulation time: 00 hr 26 min 52 sec)
Heartbeat CPU 0 instructions: 167500832 cycles: 190459539 heartbeat IPC: 0.7789 cumulative IPC: 0.6643 (Simulation time: 00 hr 26 min 57 sec)
Heartbeat CPU 0 instructions: 168000833 cycles: 190759376 heartbeat IPC: 1.668 cumulative IPC: 0.666 (Simulation time: 00 hr 27 min 00 sec)
Heartbeat CPU 0 instructions: 168500834 cycles: 191120347 heartbeat IPC: 1.385 cumulative IPC: 0.6674 (Simulation time: 00 hr 27 min 03 sec)
Heartbeat CPU 0 instructions: 169000836 cycles: 191509463 heartbeat IPC: 1.285 cumulative IPC: 0.6688 (Simulation time: 00 hr 27 min 06 sec)
Heartbeat CPU 0 instructions: 169500837 cycles: 192078172 heartbeat IPC: 0.8792 cumulative IPC: 0.6694 (Simulation time: 00 hr 27 min 10 sec)
Heartbeat CPU 0 instructions: 170000837 cycles: 192664882 heartbeat IPC: 0.8522 cumulative IPC: 0.67 (Simulation time: 00 hr 27 min 15 sec)
Heartbeat CPU 0 instructions: 170500841 cycles: 193138527 heartbeat IPC: 1.056 cumulative IPC: 0.6711 (Simulation time: 00 hr 27 min 18 sec)
Heartbeat CPU 0 instructions: 171000841 cycles: 193561942 heartbeat IPC: 1.181 cumulative IPC: 0.6723 (Simulation time: 00 hr 27 min 22 sec)
Heartbeat CPU 0 instructions: 171500847 cycles: 193960592 heartbeat IPC: 1.254 cumulative IPC: 0.6735 (Simulation time: 00 hr 27 min 25 sec)
Heartbeat CPU 0 instructions: 172000847 cycles: 194611389 heartbeat IPC: 0.7683 cumulative IPC: 0.6739 (Simulation time: 00 hr 27 min 30 sec)
Heartbeat CPU 0 instructions: 172500849 cycles: 195173598 heartbeat IPC: 0.8894 cumulative IPC: 0.6746 (Simulation time: 00 hr 27 min 34 sec)
Heartbeat CPU 0 instructions: 173000851 cycles: 196080049 heartbeat IPC: 0.5516 cumulative IPC: 0.6739 (Simulation time: 00 hr 27 min 41 sec)
Heartbeat CPU 0 instructions: 173500851 cycles: 196754323 heartbeat IPC: 0.7415 cumulative IPC: 0.6742 (Simulation time: 00 hr 27 min 46 sec)
Heartbeat CPU 0 instructions: 174000851 cycles: 198351069 heartbeat IPC: 0.3131 cumulative IPC: 0.6711 (Simulation time: 00 hr 27 min 56 sec)
Heartbeat CPU 0 instructions: 174500857 cycles: 199083258 heartbeat IPC: 0.6829 cumulative IPC: 0.6711 (Simulation time: 00 hr 28 min 02 sec)
Heartbeat CPU 0 instructions: 175000857 cycles: 199640433 heartbeat IPC: 0.8974 cumulative IPC: 0.6718 (Simulation time: 00 hr 28 min 06 sec)
Heartbeat CPU 0 instructions: 175500858 cycles: 200291909 heartbeat IPC: 0.7675 cumulative IPC: 0.6721 (Simulation time: 00 hr 28 min 10 sec)
Heartbeat CPU 0 instructions: 176000858 cycles: 201484925 heartbeat IPC: 0.4191 cumulative IPC: 0.6705 (Simulation time: 00 hr 28 min 18 sec)
Heartbeat CPU 0 instructions: 176500863 cycles: 202553536 heartbeat IPC: 0.4679 cumulative IPC: 0.6694 (Simulation time: 00 hr 28 min 26 sec)
Heartbeat CPU 0 instructions: 177000863 cycles: 203609900 heartbeat IPC: 0.4733 cumulative IPC: 0.6683 (Simulation time: 00 hr 28 min 33 sec)
Heartbeat CPU 0 instructions: 177500867 cycles: 203923008 heartbeat IPC: 1.597 cumulative IPC: 0.6698 (Simulation time: 00 hr 28 min 35 sec)
Heartbeat CPU 0 instructions: 178000869 cycles: 205047372 heartbeat IPC: 0.4447 cumulative IPC: 0.6685 (Simulation time: 00 hr 28 min 43 sec)
Heartbeat CPU 0 instructions: 178500871 cycles: 206375146 heartbeat IPC: 0.3766 cumulative IPC: 0.6665 (Simulation time: 00 hr 28 min 51 sec)
Heartbeat CPU 0 instructions: 179000875 cycles: 206688105 heartbeat IPC: 1.598 cumulative IPC: 0.668 (Simulation time: 00 hr 28 min 54 sec)
Heartbeat CPU 0 instructions: 179500876 cycles: 206983087 heartbeat IPC: 1.695 cumulative IPC: 0.6696 (Simulation time: 00 hr 28 min 57 sec)
Heartbeat CPU 0 instructions: 180000876 cycles: 207277453 heartbeat IPC: 1.699 cumulative IPC: 0.6711 (Simulation time: 00 hr 29 min 00 sec)
Heartbeat CPU 0 instructions: 180500880 cycles: 208259034 heartbeat IPC: 0.5094 cumulative IPC: 0.6703 (Simulation time: 00 hr 29 min 06 sec)
Heartbeat CPU 0 instructions: 181000883 cycles: 209573645 heartbeat IPC: 0.3803 cumulative IPC: 0.6684 (Simulation time: 00 hr 29 min 15 sec)
Heartbeat CPU 0 instructions: 181500884 cycles: 210500965 heartbeat IPC: 0.5392 cumulative IPC: 0.6678 (Simulation time: 00 hr 29 min 21 sec)
Heartbeat CPU 0 instructions: 182000891 cycles: 211122544 heartbeat IPC: 0.8044 cumulative IPC: 0.6682 (Simulation time: 00 hr 29 min 26 sec)
Heartbeat CPU 0 instructions: 182500892 cycles: 211861349 heartbeat IPC: 0.6768 cumulative IPC: 0.6682 (Simulation time: 00 hr 29 min 31 sec)
Heartbeat CPU 0 instructions: 183000895 cycles: 213140136 heartbeat IPC: 0.391 cumulative IPC: 0.6664 (Simulation time: 00 hr 29 min 40 sec)
Heartbeat CPU 0 instructions: 183500896 cycles: 214316573 heartbeat IPC: 0.425 cumulative IPC: 0.665 (Simulation time: 00 hr 29 min 48 sec)
Heartbeat CPU 0 instructions: 184000900 cycles: 214705250 heartbeat IPC: 1.286 cumulative IPC: 0.6662 (Simulation time: 00 hr 29 min 50 sec)
Heartbeat CPU 0 instructions: 184500900 cycles: 216073678 heartbeat IPC: 0.3654 cumulative IPC: 0.6642 (Simulation time: 00 hr 29 min 59 sec)
Heartbeat CPU 0 instructions: 185000901 cycles: 216840278 heartbeat IPC: 0.6522 cumulative IPC: 0.6641 (Simulation time: 00 hr 30 min 05 sec)
Heartbeat CPU 0 instructions: 185500904 cycles: 217847747 heartbeat IPC: 0.4963 cumulative IPC: 0.6633 (Simulation time: 00 hr 30 min 12 sec)
Heartbeat CPU 0 instructions: 186000907 cycles: 218101627 heartbeat IPC: 1.969 cumulative IPC: 0.6649 (Simulation time: 00 hr 30 min 14 sec)
Heartbeat CPU 0 instructions: 186500909 cycles: 218902536 heartbeat IPC: 0.6243 cumulative IPC: 0.6648 (Simulation time: 00 hr 30 min 19 sec)
Heartbeat CPU 0 instructions: 187000909 cycles: 219310637 heartbeat IPC: 1.225 cumulative IPC: 0.6659 (Simulation time: 00 hr 30 min 23 sec)
Heartbeat CPU 0 instructions: 187500910 cycles: 219800768 heartbeat IPC: 1.02 cumulative IPC: 0.6667 (Simulation time: 00 hr 30 min 26 sec)
Heartbeat CPU 0 instructions: 188000912 cycles: 220615895 heartbeat IPC: 0.6134 cumulative IPC: 0.6665 (Simulation time: 00 hr 30 min 32 sec)
Heartbeat CPU 0 instructions: 188500914 cycles: 222248923 heartbeat IPC: 0.3062 cumulative IPC: 0.6637 (Simulation time: 00 hr 30 min 42 sec)
Heartbeat CPU 0 instructions: 189000914 cycles: 223962476 heartbeat IPC: 0.2918 cumulative IPC: 0.6607 (Simulation time: 00 hr 30 min 53 sec)
Heartbeat CPU 0 instructions: 189500918 cycles: 225181748 heartbeat IPC: 0.4101 cumulative IPC: 0.6592 (Simulation time: 00 hr 31 min 01 sec)
Heartbeat CPU 0 instructions: 190000924 cycles: 226210828 heartbeat IPC: 0.4859 cumulative IPC: 0.6584 (Simulation time: 00 hr 31 min 08 sec)
Heartbeat CPU 0 instructions: 190500928 cycles: 226932934 heartbeat IPC: 0.6924 cumulative IPC: 0.6585 (Simulation time: 00 hr 31 min 13 sec)
Heartbeat CPU 0 instructions: 191000933 cycles: 228222856 heartbeat IPC: 0.3876 cumulative IPC: 0.6569 (Simulation time: 00 hr 31 min 22 sec)
Heartbeat CPU 0 instructions: 191500933 cycles: 229444093 heartbeat IPC: 0.4094 cumulative IPC: 0.6555 (Simulation time: 00 hr 31 min 30 sec)
Heartbeat CPU 0 instructions: 192000935 cycles: 230542734 heartbeat IPC: 0.4551 cumulative IPC: 0.6545 (Simulation time: 00 hr 31 min 38 sec)
Heartbeat CPU 0 instructions: 192500935 cycles: 231180675 heartbeat IPC: 0.7838 cumulative IPC: 0.6548 (Simulation time: 00 hr 31 min 43 sec)
Heartbeat CPU 0 instructions: 193000935 cycles: 232076765 heartbeat IPC: 0.558 cumulative IPC: 0.6544 (Simulation time: 00 hr 31 min 49 sec)
Heartbeat CPU 0 instructions: 193500935 cycles: 232803118 heartbeat IPC: 0.6884 cumulative IPC: 0.6546 (Simulation time: 00 hr 31 min 54 sec)
Heartbeat CPU 0 instructions: 194000935 cycles: 233453858 heartbeat IPC: 0.7684 cumulative IPC: 0.6549 (Simulation time: 00 hr 31 min 59 sec)
Heartbeat CPU 0 instructions: 194500935 cycles: 234067932 heartbeat IPC: 0.8142 cumulative IPC: 0.6553 (Simulation time: 00 hr 32 min 03 sec)
Heartbeat CPU 0 instructions: 195000942 cycles: 234556337 heartbeat IPC: 1.024 cumulative IPC: 0.6562 (Simulation time: 00 hr 32 min 07 sec)
Heartbeat CPU 0 instructions: 195500948 cycles: 235544691 heartbeat IPC: 0.5059 cumulative IPC: 0.6555 (Simulation time: 00 hr 32 min 14 sec)
Heartbeat CPU 0 instructions: 196000954 cycles: 236105449 heartbeat IPC: 0.8917 cumulative IPC: 0.6561 (Simulation time: 00 hr 32 min 18 sec)
Heartbeat CPU 0 instructions: 196500955 cycles: 236423371 heartbeat IPC: 1.573 cumulative IPC: 0.6574 (Simulation time: 00 hr 32 min 21 sec)
Heartbeat CPU 0 instructions: 197000960 cycles: 236687841 heartbeat IPC: 1.891 cumulative IPC: 0.6589 (Simulation time: 00 hr 32 min 23 sec)
Heartbeat CPU 0 instructions: 197500960 cycles: 236972783 heartbeat IPC: 1.755 cumulative IPC: 0.6602 (Simulation time: 00 hr 32 min 26 sec)
Heartbeat CPU 0 instructions: 198000961 cycles: 237461328 heartbeat IPC: 1.023 cumulative IPC: 0.661 (Simulation time: 00 hr 32 min 30 sec)
Heartbeat CPU 0 instructions: 198500966 cycles: 237970733 heartbeat IPC: 0.9815 cumulative IPC: 0.6618 (Simulation time: 00 hr 32 min 34 sec)
Heartbeat CPU 0 instructions: 199000967 cycles: 238364939 heartbeat IPC: 1.268 cumulative IPC: 0.6628 (Simulation time: 00 hr 32 min 37 sec)
Heartbeat CPU 0 instructions: 199500967 cycles: 238716230 heartbeat IPC: 1.423 cumulative IPC: 0.664 (Simulation time: 00 hr 32 min 40 sec)
Heartbeat CPU 0 instructions: 200000967 cycles: 239486872 heartbeat IPC: 0.6488 cumulative IPC: 0.664 (Simulation time: 00 hr 32 min 46 sec)
Heartbeat CPU 0 instructions: 200500968 cycles: 240847506 heartbeat IPC: 0.3675 cumulative IPC: 0.6622 (Simulation time: 00 hr 32 min 54 sec)
Heartbeat CPU 0 instructions: 201000973 cycles: 241742883 heartbeat IPC: 0.5584 cumulative IPC: 0.6618 (Simulation time: 00 hr 33 min 00 sec)
Heartbeat CPU 0 instructions: 201500980 cycles: 242021854 heartbeat IPC: 1.792 cumulative IPC: 0.6632 (Simulation time: 00 hr 33 min 02 sec)
Heartbeat CPU 0 instructions: 202000981 cycles: 242690379 heartbeat IPC: 0.7479 cumulative IPC: 0.6634 (Simulation time: 00 hr 33 min 07 sec)
Heartbeat CPU 0 instructions: 202500986 cycles: 244248169 heartbeat IPC: 0.321 cumulative IPC: 0.6611 (Simulation time: 00 hr 33 min 17 sec)
Heartbeat CPU 0 instructions: 203000993 cycles: 245397653 heartbeat IPC: 0.435 cumulative IPC: 0.66 (Simulation time: 00 hr 33 min 24 sec)
Heartbeat CPU 0 instructions: 203500994 cycles: 245875568 heartbeat IPC: 1.046 cumulative IPC: 0.6608 (Simulation time: 00 hr 33 min 27 sec)
Heartbeat CPU 0 instructions: 204000994 cycles: 246201853 heartbeat IPC: 1.532 cumulative IPC: 0.662 (Simulation time: 00 hr 33 min 30 sec)
Heartbeat CPU 0 instructions: 204500997 cycles: 246914596 heartbeat IPC: 0.7015 cumulative IPC: 0.6621 (Simulation time: 00 hr 33 min 35 sec)
Heartbeat CPU 0 instructions: 205000997 cycles: 247592937 heartbeat IPC: 0.7371 cumulative IPC: 0.6623 (Simulation time: 00 hr 33 min 40 sec)
Heartbeat CPU 0 instructions: 205500998 cycles: 247982888 heartbeat IPC: 1.282 cumulative IPC: 0.6634 (Simulation time: 00 hr 33 min 43 sec)
Heartbeat CPU 0 instructions: 206000999 cycles: 248659433 heartbeat IPC: 0.7391 cumulative IPC: 0.6636 (Simulation time: 00 hr 33 min 48 sec)
Heartbeat CPU 0 instructions: 206501001 cycles: 249552227 heartbeat IPC: 0.56 cumulative IPC: 0.6632 (Simulation time: 00 hr 33 min 54 sec)
Heartbeat CPU 0 instructions: 207001002 cycles: 250303313 heartbeat IPC: 0.6657 cumulative IPC: 0.6632 (Simulation time: 00 hr 34 min 00 sec)
Heartbeat CPU 0 instructions: 207501002 cycles: 250976575 heartbeat IPC: 0.7427 cumulative IPC: 0.6634 (Simulation time: 00 hr 34 min 04 sec)
Heartbeat CPU 0 instructions: 208001002 cycles: 251301865 heartbeat IPC: 1.537 cumulative IPC: 0.6646 (Simulation time: 00 hr 34 min 07 sec)
Heartbeat CPU 0 instructions: 208501002 cycles: 252667162 heartbeat IPC: 0.3662 cumulative IPC: 0.6629 (Simulation time: 00 hr 34 min 16 sec)
Heartbeat CPU 0 instructions: 209001003 cycles: 253839349 heartbeat IPC: 0.4266 cumulative IPC: 0.6618 (Simulation time: 00 hr 34 min 23 sec)
Heartbeat CPU 0 instructions: 209501003 cycles: 254951384 heartbeat IPC: 0.4496 cumulative IPC: 0.6608 (Simulation time: 00 hr 34 min 31 sec)
Heartbeat CPU 0 instructions: 210001006 cycles: 255774144 heartbeat IPC: 0.6077 cumulative IPC: 0.6606 (Simulation time: 00 hr 34 min 37 sec)
Heartbeat CPU 0 instructions: 210501007 cycles: 257135529 heartbeat IPC: 0.3673 cumulative IPC: 0.659 (Simulation time: 00 hr 34 min 46 sec)
Heartbeat CPU 0 instructions: 211001008 cycles: 257854601 heartbeat IPC: 0.6953 cumulative IPC: 0.6591 (Simulation time: 00 hr 34 min 51 sec)
Heartbeat CPU 0 instructions: 211501008 cycles: 258871540 heartbeat IPC: 0.4917 cumulative IPC: 0.6584 (Simulation time: 00 hr 34 min 57 sec)
Heartbeat CPU 0 instructions: 212001008 cycles: 259320054 heartbeat IPC: 1.115 cumulative IPC: 0.6592 (Simulation time: 00 hr 35 min 01 sec)
Heartbeat CPU 0 instructions: 212501012 cycles: 259912168 heartbeat IPC: 0.8444 cumulative IPC: 0.6597 (Simulation time: 00 hr 35 min 06 sec)
Heartbeat CPU 0 instructions: 213001017 cycles: 261218774 heartbeat IPC: 0.3827 cumulative IPC: 0.6582 (Simulation time: 00 hr 35 min 14 sec)
Heartbeat CPU 0 instructions: 213501019 cycles: 262352786 heartbeat IPC: 0.4409 cumulative IPC: 0.6572 (Simulation time: 00 hr 35 min 21 sec)
Heartbeat CPU 0 instructions: 214001021 cycles: 262759878 heartbeat IPC: 1.228 cumulative IPC: 0.6581 (Simulation time: 00 hr 35 min 25 sec)
Heartbeat CPU 0 instructions: 214501026 cycles: 263155197 heartbeat IPC: 1.265 cumulative IPC: 0.6591 (Simulation time: 00 hr 35 min 28 sec)
Heartbeat CPU 0 instructions: 215001029 cycles: 263584854 heartbeat IPC: 1.164 cumulative IPC: 0.66 (Simulation time: 00 hr 35 min 31 sec)
Heartbeat CPU 0 instructions: 215501030 cycles: 263901611 heartbeat IPC: 1.579 cumulative IPC: 0.6611 (Simulation time: 00 hr 35 min 34 sec)
Heartbeat CPU 0 instructions: 216001031 cycles: 264232019 heartbeat IPC: 1.513 cumulative IPC: 0.6623 (Simulation time: 00 hr 35 min 37 sec)
Heartbeat CPU 0 instructions: 216501032 cycles: 264663901 heartbeat IPC: 1.158 cumulative IPC: 0.6631 (Simulation time: 00 hr 35 min 40 sec)
Heartbeat CPU 0 instructions: 217001034 cycles: 265050611 heartbeat IPC: 1.293 cumulative IPC: 0.6641 (Simulation time: 00 hr 35 min 44 sec)
Heartbeat CPU 0 instructions: 217501035 cycles: 265354409 heartbeat IPC: 1.646 cumulative IPC: 0.6653 (Simulation time: 00 hr 35 min 47 sec)
Heartbeat CPU 0 instructions: 218001035 cycles: 265505428 heartbeat IPC: 3.311 cumulative IPC: 0.6668 (Simulation time: 00 hr 35 min 48 sec)
Heartbeat CPU 0 instructions: 218501037 cycles: 266722474 heartbeat IPC: 0.4108 cumulative IPC: 0.6656 (Simulation time: 00 hr 35 min 56 sec)
Heartbeat CPU 0 instructions: 219001037 cycles: 267693074 heartbeat IPC: 0.5151 cumulative IPC: 0.665 (Simulation time: 00 hr 36 min 03 sec)
Heartbeat CPU 0 instructions: 219501038 cycles: 269024580 heartbeat IPC: 0.3755 cumulative IPC: 0.6635 (Simulation time: 00 hr 36 min 11 sec)
Heartbeat CPU 0 instructions: 220001043 cycles: 269288185 heartbeat IPC: 1.897 cumulative IPC: 0.6648 (Simulation time: 00 hr 36 min 13 sec)
Heartbeat CPU 0 instructions: 220501044 cycles: 269978227 heartbeat IPC: 0.7246 cumulative IPC: 0.665 (Simulation time: 00 hr 36 min 18 sec)
Heartbeat CPU 0 instructions: 221001044 cycles: 270734656 heartbeat IPC: 0.661 cumulative IPC: 0.6649 (Simulation time: 00 hr 36 min 23 sec)
Heartbeat CPU 0 instructions: 221501046 cycles: 271670792 heartbeat IPC: 0.5341 cumulative IPC: 0.6645 (Simulation time: 00 hr 36 min 29 sec)
Heartbeat CPU 0 instructions: 222001047 cycles: 272850016 heartbeat IPC: 0.424 cumulative IPC: 0.6634 (Simulation time: 00 hr 36 min 37 sec)
Heartbeat CPU 0 instructions: 222501048 cycles: 273240895 heartbeat IPC: 1.279 cumulative IPC: 0.6643 (Simulation time: 00 hr 36 min 41 sec)
Heartbeat CPU 0 instructions: 223001049 cycles: 274020156 heartbeat IPC: 0.6416 cumulative IPC: 0.6642 (Simulation time: 00 hr 36 min 47 sec)
Heartbeat CPU 0 instructions: 223501050 cycles: 275339980 heartbeat IPC: 0.3788 cumulative IPC: 0.6628 (Simulation time: 00 hr 36 min 55 sec)
Heartbeat CPU 0 instructions: 224001057 cycles: 276668550 heartbeat IPC: 0.3763 cumulative IPC: 0.6614 (Simulation time: 00 hr 37 min 03 sec)
Heartbeat CPU 0 instructions: 224501057 cycles: 277672099 heartbeat IPC: 0.4982 cumulative IPC: 0.6607 (Simulation time: 00 hr 37 min 10 sec)
Heartbeat CPU 0 instructions: 225001058 cycles: 278861579 heartbeat IPC: 0.4204 cumulative IPC: 0.6597 (Simulation time: 00 hr 37 min 17 sec)
Heartbeat CPU 0 instructions: 225501059 cycles: 280288155 heartbeat IPC: 0.3505 cumulative IPC: 0.658 (Simulation time: 00 hr 37 min 27 sec)
Heartbeat CPU 0 instructions: 226001063 cycles: 281091748 heartbeat IPC: 0.6222 cumulative IPC: 0.6579 (Simulation time: 00 hr 37 min 32 sec)
Heartbeat CPU 0 instructions: 226501063 cycles: 282634557 heartbeat IPC: 0.3241 cumulative IPC: 0.656 (Simulation time: 00 hr 37 min 42 sec)
Heartbeat CPU 0 instructions: 227001063 cycles: 284368744 heartbeat IPC: 0.2883 cumulative IPC: 0.6536 (Simulation time: 00 hr 37 min 53 sec)
Heartbeat CPU 0 instructions: 227501065 cycles: 285275671 heartbeat IPC: 0.5513 cumulative IPC: 0.6533 (Simulation time: 00 hr 37 min 59 sec)
Heartbeat CPU 0 instructions: 228001066 cycles: 285879888 heartbeat IPC: 0.8275 cumulative IPC: 0.6537 (Simulation time: 00 hr 38 min 04 sec)
Heartbeat CPU 0 instructions: 228501069 cycles: 286565115 heartbeat IPC: 0.7297 cumulative IPC: 0.6539 (Simulation time: 00 hr 38 min 09 sec)
Heartbeat CPU 0 instructions: 229001071 cycles: 287595376 heartbeat IPC: 0.4853 cumulative IPC: 0.6532 (Simulation time: 00 hr 38 min 16 sec)
Heartbeat CPU 0 instructions: 229501071 cycles: 288384924 heartbeat IPC: 0.6333 cumulative IPC: 0.6532 (Simulation time: 00 hr 38 min 21 sec)
Heartbeat CPU 0 instructions: 230001071 cycles: 288884528 heartbeat IPC: 1.001 cumulative IPC: 0.6538 (Simulation time: 00 hr 38 min 25 sec)
Heartbeat CPU 0 instructions: 230501071 cycles: 290453260 heartbeat IPC: 0.3187 cumulative IPC: 0.6519 (Simulation time: 00 hr 38 min 34 sec)
Heartbeat CPU 0 instructions: 231001071 cycles: 291018380 heartbeat IPC: 0.8848 cumulative IPC: 0.6524 (Simulation time: 00 hr 38 min 39 sec)
Heartbeat CPU 0 instructions: 231501073 cycles: 291263488 heartbeat IPC: 2.04 cumulative IPC: 0.6536 (Simulation time: 00 hr 38 min 41 sec)
Heartbeat CPU 0 instructions: 232001074 cycles: 291526481 heartbeat IPC: 1.901 cumulative IPC: 0.6548 (Simulation time: 00 hr 38 min 43 sec)
Heartbeat CPU 0 instructions: 232501075 cycles: 292474496 heartbeat IPC: 0.5274 cumulative IPC: 0.6544 (Simulation time: 00 hr 38 min 49 sec)
Heartbeat CPU 0 instructions: 233001075 cycles: 294008444 heartbeat IPC: 0.326 cumulative IPC: 0.6526 (Simulation time: 00 hr 38 min 59 sec)
Heartbeat CPU 0 instructions: 233501080 cycles: 294509519 heartbeat IPC: 0.9979 cumulative IPC: 0.6532 (Simulation time: 00 hr 39 min 03 sec)
Heartbeat CPU 0 instructions: 234001081 cycles: 295364284 heartbeat IPC: 0.585 cumulative IPC: 0.653 (Simulation time: 00 hr 39 min 10 sec)
Heartbeat CPU 0 instructions: 234501086 cycles: 296488909 heartbeat IPC: 0.4446 cumulative IPC: 0.6521 (Simulation time: 00 hr 39 min 17 sec)
Heartbeat CPU 0 instructions: 235001087 cycles: 297271993 heartbeat IPC: 0.6385 cumulative IPC: 0.6521 (Simulation time: 00 hr 39 min 22 sec)
Heartbeat CPU 0 instructions: 235501087 cycles: 298220703 heartbeat IPC: 0.527 cumulative IPC: 0.6517 (Simulation time: 00 hr 39 min 29 sec)
Heartbeat CPU 0 instructions: 236001092 cycles: 298889231 heartbeat IPC: 0.7479 cumulative IPC: 0.6519 (Simulation time: 00 hr 39 min 34 sec)
Heartbeat CPU 0 instructions: 236501093 cycles: 299228826 heartbeat IPC: 1.472 cumulative IPC: 0.6529 (Simulation time: 00 hr 39 min 37 sec)
Heartbeat CPU 0 instructions: 237001093 cycles: 299526196 heartbeat IPC: 1.681 cumulative IPC: 0.654 (Simulation time: 00 hr 39 min 40 sec)
Heartbeat CPU 0 instructions: 237501093 cycles: 299902349 heartbeat IPC: 1.329 cumulative IPC: 0.6548 (Simulation time: 00 hr 39 min 43 sec)
Heartbeat CPU 0 instructions: 238001093 cycles: 300588741 heartbeat IPC: 0.7284 cumulative IPC: 0.655 (Simulation time: 00 hr 39 min 48 sec)
Heartbeat CPU 0 instructions: 238501093 cycles: 301640532 heartbeat IPC: 0.4754 cumulative IPC: 0.6544 (Simulation time: 00 hr 39 min 55 sec)
Heartbeat CPU 0 instructions: 239001095 cycles: 302436962 heartbeat IPC: 0.6278 cumulative IPC: 0.6543 (Simulation time: 00 hr 40 min 00 sec)
Heartbeat CPU 0 instructions: 239501096 cycles: 303492588 heartbeat IPC: 0.4737 cumulative IPC: 0.6536 (Simulation time: 00 hr 40 min 08 sec)
Heartbeat CPU 0 instructions: 240001096 cycles: 304288181 heartbeat IPC: 0.6285 cumulative IPC: 0.6536 (Simulation time: 00 hr 40 min 14 sec)
Heartbeat CPU 0 instructions: 240501097 cycles: 305280794 heartbeat IPC: 0.5037 cumulative IPC: 0.653 (Simulation time: 00 hr 40 min 20 sec)
Heartbeat CPU 0 instructions: 241001097 cycles: 306405905 heartbeat IPC: 0.4444 cumulative IPC: 0.6522 (Simulation time: 00 hr 40 min 28 sec)
Heartbeat CPU 0 instructions: 241501099 cycles: 307169012 heartbeat IPC: 0.6552 cumulative IPC: 0.6523 (Simulation time: 00 hr 40 min 33 sec)
Heartbeat CPU 0 instructions: 242001099 cycles: 307474882 heartbeat IPC: 1.635 cumulative IPC: 0.6533 (Simulation time: 00 hr 40 min 35 sec)
Heartbeat CPU 0 instructions: 242501103 cycles: 308478262 heartbeat IPC: 0.4983 cumulative IPC: 0.6528 (Simulation time: 00 hr 40 min 42 sec)
Heartbeat CPU 0 instructions: 243001108 cycles: 310177569 heartbeat IPC: 0.2942 cumulative IPC: 0.6507 (Simulation time: 00 hr 40 min 53 sec)
Heartbeat CPU 0 instructions: 243501112 cycles: 310722969 heartbeat IPC: 0.9168 cumulative IPC: 0.6512 (Simulation time: 00 hr 40 min 57 sec)
Heartbeat CPU 0 instructions: 244001112 cycles: 311496546 heartbeat IPC: 0.6463 cumulative IPC: 0.6512 (Simulation time: 00 hr 41 min 02 sec)
Heartbeat CPU 0 instructions: 244501118 cycles: 312249251 heartbeat IPC: 0.6643 cumulative IPC: 0.6512 (Simulation time: 00 hr 41 min 07 sec)
Heartbeat CPU 0 instructions: 245001119 cycles: 313662419 heartbeat IPC: 0.3538 cumulative IPC: 0.6498 (Simulation time: 00 hr 41 min 16 sec)
Heartbeat CPU 0 instructions: 245501119 cycles: 314427308 heartbeat IPC: 0.6537 cumulative IPC: 0.6498 (Simulation time: 00 hr 41 min 22 sec)
Heartbeat CPU 0 instructions: 246001120 cycles: 315665324 heartbeat IPC: 0.4039 cumulative IPC: 0.6488 (Simulation time: 00 hr 41 min 30 sec)
Heartbeat CPU 0 instructions: 246501123 cycles: 316655601 heartbeat IPC: 0.5049 cumulative IPC: 0.6483 (Simulation time: 00 hr 41 min 36 sec)
Heartbeat CPU 0 instructions: 247001123 cycles: 316895561 heartbeat IPC: 2.084 cumulative IPC: 0.6495 (Simulation time: 00 hr 41 min 38 sec)
Heartbeat CPU 0 instructions: 247501124 cycles: 317276836 heartbeat IPC: 1.311 cumulative IPC: 0.6503 (Simulation time: 00 hr 41 min 41 sec)
Heartbeat CPU 0 instructions: 248001124 cycles: 317532915 heartbeat IPC: 1.953 cumulative IPC: 0.6514 (Simulation time: 00 hr 41 min 43 sec)
Heartbeat CPU 0 instructions: 248501125 cycles: 317734574 heartbeat IPC: 2.479 cumulative IPC: 0.6526 (Simulation time: 00 hr 41 min 45 sec)
Heartbeat CPU 0 instructions: 249001132 cycles: 318538363 heartbeat IPC: 0.6221 cumulative IPC: 0.6525 (Simulation time: 00 hr 41 min 50 sec)
Heartbeat CPU 0 instructions: 249501139 cycles: 319775480 heartbeat IPC: 0.4042 cumulative IPC: 0.6515 (Simulation time: 00 hr 41 min 58 sec)
Simulation finished CPU 0 instructions: 200000001 cycles: 306810705 cumulative IPC: 0.6519 (Simulation time: 00 hr 42 min 03 sec)
Simulation complete CPU 0 instructions: 200000001 cycles: 306810705 cumulative IPC: 0.6519 (Simulation time: 00 hr 42 min 03 sec)

ChampSim completed all CPUs

=== Simulation ===
CPU 0 runs /local-ssd/ben/dpc4-traces/gtraces_v2/merced_0004.champsim.gz

Region of Interest Statistics

CPU 0 cumulative IPC: 0.6519 instructions: 200000001 cycles: 306810705
CPU 0 Branch Prediction Accuracy: 90.21% MPKI: 16.51 Average ROB Occupancy at Mispredict: 23.79
Branch type MPKI
BRANCH_DIRECT_JUMP: 1.288
BRANCH_INDIRECT: 0.2266
BRANCH_CONDITIONAL: 13.52
BRANCH_DIRECT_CALL: 0.709
BRANCH_INDIRECT_CALL: 0.2726
BRANCH_RETURN: 0.4968

cpu0->cpu0_STLB TOTAL        ACCESS:    1841704 HIT:    1400274 MISS:     441430 MSHR_MERGE:          0
cpu0->cpu0_STLB LOAD         ACCESS:    1841704 HIT:    1400274 MISS:     441430 MSHR_MERGE:          0
cpu0->cpu0_STLB RFO          ACCESS:          0 HIT:          0 MISS:          0 MSHR_MERGE:          0
cpu0->cpu0_STLB PREFETCH     ACCESS:          0 HIT:          0 MISS:          0 MSHR_MERGE:          0
cpu0->cpu0_STLB WRITE        ACCESS:          0 HIT:          0 MISS:          0 MSHR_MERGE:          0
cpu0->cpu0_STLB TRANSLATION  ACCESS:          0 HIT:          0 MISS:          0 MSHR_MERGE:          0
cpu0->cpu0_STLB PREFETCH REQUESTED:          0 ISSUED:          0 USEFUL:          0 USELESS:          0
cpu0->cpu0_STLB AVERAGE MISS LATENCY: 215.7 cycles
cpu0->cpu0_L2C TOTAL        ACCESS:   20520444 HIT:   14205050 MISS:    6315394 MSHR_MERGE:    1969752
cpu0->cpu0_L2C LOAD         ACCESS:    3433122 HIT:    2498677 MISS:     934445 MSHR_MERGE:     128034
cpu0->cpu0_L2C RFO          ACCESS:     594005 HIT:     264351 MISS:     329654 MSHR_MERGE:       2675
cpu0->cpu0_L2C PREFETCH     ACCESS:   14983613 HIT:   10178900 MISS:    4804713 MSHR_MERGE:    1839043
cpu0->cpu0_L2C WRITE        ACCESS:    1009551 HIT:    1009540 MISS:         11 MSHR_MERGE:          0
cpu0->cpu0_L2C TRANSLATION  ACCESS:     500153 HIT:     253582 MISS:     246571 MSHR_MERGE:          0
cpu0->cpu0_L2C PREFETCH REQUESTED:   14074009 ISSUED:   13103348 USEFUL:    1226073 USELESS:    1221344
cpu0->cpu0_L2C AVERAGE MISS LATENCY: 219 cycles
cpu0->cpu0_L1I TOTAL        ACCESS:   15956153 HIT:   13971815 MISS:    1984338 MSHR_MERGE:     462569
cpu0->cpu0_L1I LOAD         ACCESS:   15956153 HIT:   13971815 MISS:    1984338 MSHR_MERGE:     462569
cpu0->cpu0_L1I RFO          ACCESS:          0 HIT:          0 MISS:          0 MSHR_MERGE:          0
cpu0->cpu0_L1I PREFETCH     ACCESS:          0 HIT:          0 MISS:          0 MSHR_MERGE:          0
cpu0->cpu0_L1I WRITE        ACCESS:          0 HIT:          0 MISS:          0 MSHR_MERGE:          0
cpu0->cpu0_L1I TRANSLATION  ACCESS:          0 HIT:          0 MISS:          0 MSHR_MERGE:          0
cpu0->cpu0_L1I PREFETCH REQUESTED:          0 ISSUED:          0 USEFUL:          0 USELESS:          0
cpu0->cpu0_L1I AVERAGE MISS LATENCY: 59.08 cycles
cpu0->cpu0_L1D TOTAL        ACCESS:   63481938 HIT:   55547413 MISS:    7934525 MSHR_MERGE:    3048671
cpu0->cpu0_L1D LOAD         ACCESS:   28671062 HIT:   26058994 MISS:    2612068 MSHR_MERGE:     700690
cpu0->cpu0_L1D RFO          ACCESS:          0 HIT:          0 MISS:          0 MSHR_MERGE:          0
cpu0->cpu0_L1D PREFETCH     ACCESS:   17020160 HIT:   14363006 MISS:    2657154 MSHR_MERGE:     776876
cpu0->cpu0_L1D WRITE        ACCESS:   16657320 HIT:   14498860 MISS:    2158460 MSHR_MERGE:    1564415
cpu0->cpu0_L1D TRANSLATION  ACCESS:    1133396 HIT:     626553 MISS:     506843 MSHR_MERGE:       6690
cpu0->cpu0_L1D PREFETCH REQUESTED:   18620773 ISSUED:   17020154 USEFUL:     745654 USELESS:    1134543
cpu0->cpu0_L1D AVERAGE MISS LATENCY: 92.56 cycles
cpu0->cpu0_ITLB TOTAL        ACCESS:   13247025 HIT:   13033993 MISS:     213032 MSHR_MERGE:     108519
cpu0->cpu0_ITLB LOAD         ACCESS:   13247025 HIT:   13033993 MISS:     213032 MSHR_MERGE:     108519
cpu0->cpu0_ITLB RFO          ACCESS:          0 HIT:          0 MISS:          0 MSHR_MERGE:          0
cpu0->cpu0_ITLB PREFETCH     ACCESS:          0 HIT:          0 MISS:          0 MSHR_MERGE:          0
cpu0->cpu0_ITLB WRITE        ACCESS:          0 HIT:          0 MISS:          0 MSHR_MERGE:          0
cpu0->cpu0_ITLB TRANSLATION  ACCESS:          0 HIT:          0 MISS:          0 MSHR_MERGE:          0
cpu0->cpu0_ITLB PREFETCH REQUESTED:          0 ISSUED:          0 USEFUL:          0 USELESS:          0
cpu0->cpu0_ITLB AVERAGE MISS LATENCY: 43.48 cycles
cpu0->cpu0_DTLB TOTAL        ACCESS:   57575486 HIT:   54829152 MISS:    2746334 MSHR_MERGE:    1009143
cpu0->cpu0_DTLB LOAD         ACCESS:   57575486 HIT:   54829152 MISS:    2746334 MSHR_MERGE:    1009143
cpu0->cpu0_DTLB RFO          ACCESS:          0 HIT:          0 MISS:          0 MSHR_MERGE:          0
cpu0->cpu0_DTLB PREFETCH     ACCESS:          0 HIT:          0 MISS:          0 MSHR_MERGE:          0
cpu0->cpu0_DTLB WRITE        ACCESS:          0 HIT:          0 MISS:          0 MSHR_MERGE:          0
cpu0->cpu0_DTLB TRANSLATION  ACCESS:          0 HIT:          0 MISS:          0 MSHR_MERGE:          0
cpu0->cpu0_DTLB PREFETCH REQUESTED:          0 ISSUED:          0 USEFUL:          0 USELESS:          0
cpu0->cpu0_DTLB AVERAGE MISS LATENCY: 57.75 cycles
cpu0->LLC TOTAL        ACCESS:    6645631 HIT:    1169291 MISS:    5476340 MSHR_MERGE:     354839
cpu0->LLC LOAD         ACCESS:     806411 HIT:     139372 MISS:     667039 MSHR_MERGE:       3787
cpu0->LLC RFO          ACCESS:     326979 HIT:      18048 MISS:     308931 MSHR_MERGE:        189
cpu0->LLC PREFETCH     ACCESS:    4691098 HIT:     871919 MISS:    3819179 MSHR_MERGE:     350863
cpu0->LLC WRITE        ACCESS:     574572 HIT:     125514 MISS:     449058 MSHR_MERGE:          0
cpu0->LLC TRANSLATION  ACCESS:     246571 HIT:      14438 MISS:     232133 MSHR_MERGE:          0
cpu0->LLC PREFETCH REQUESTED:    1780178 ISSUED:    1725428 USEFUL:     289780 USELESS:     877221
cpu0->LLC AVERAGE MISS LATENCY: 173.9 cycles

DRAM Statistics

Channel 0 RQ ROW_BUFFER_HIT:     265919
  ROW_BUFFER_MISS:    4406437
  AVG DBUS CONGESTED CYCLE: 16.59
Channel 0 WQ ROW_BUFFER_HIT:     134090
  ROW_BUFFER_MISS:     389219
  FULL:          0
Channel 0 REFRESHES ISSUED:      25566
