[VMEM] WARNING: physical memory size is smaller than virtual memory size.

*** ChampSim Multicore Out-of-Order Simulator ***
Warmup Instructions: 50000000
Simulation Instructions: 200000000
Number of CPUs: 1
Page size: 4096
Core 0: /local-ssd/ben/dpc4-traces/gtraces_v2/charlie_0003.champsim.gz
Off-chip DRAM Size: 64 GiB Channels: 1 Width: 64-bit Data Rate: 4807 MT/s
[BTB] WARNING: target of return is a lower address than the corresponding call. This is usually a problem with your trace.
Heartbeat CPU 0 instructions: 500002 cycles: 249261 heartbeat IPC: 2.006 cumulative IPC: 2.006 (Simulation time: 00 hr 00 min 04 sec)
Heartbeat CPU 0 instructions: 1000006 cycles: 507489 heartbeat IPC: 1.936 cumulative IPC: 1.97 (Simulation time: 00 hr 00 min 08 sec)
[BTB] WARNING: target of return is a lower address than the corresponding call. This is usually a problem with your trace.
Heartbeat CPU 0 instructions: 1500013 cycles: 687041 heartbeat IPC: 2.785 cumulative IPC: 2.183 (Simulation time: 00 hr 00 min 11 sec)
[BTB] WARNING: target of return is a lower address than the corresponding call. This is usually a problem with your trace.
Heartbeat CPU 0 instructions: 2000018 cycles: 832978 heartbeat IPC: 3.426 cumulative IPC: 2.401 (Simulation time: 00 hr 00 min 13 sec)
[BTB] WARNING: target of return is a lower address than the corresponding call. This is usually a problem with your trace.
Heartbeat CPU 0 instructions: 2500018 cycles: 980164 heartbeat IPC: 3.397 cumulative IPC: 2.551 (Simulation time: 00 hr 00 min 16 sec)
[BTB] WARNING: target of return is a lower address than the corresponding call. This is usually a problem with your trace.
Heartbeat CPU 0 instructions: 3000021 cycles: 1093409 heartbeat IPC: 4.415 cumulative IPC: 2.744 (Simulation time: 00 hr 00 min 18 sec)
[BTB] WARNING: target of return is a lower address than the corresponding call. This is usually a problem with your trace.
[BTB] WARNING: target of return is a lower address than the corresponding call. This is usually a problem with your trace.
[BTB] WARNING: target of return is a lower address than the corresponding call. This is usually a problem with your trace.
[BTB] WARNING: target of return is a lower address than the corresponding call. This is usually a problem with your trace.
[BTB] WARNING: target of return is a lower address than the corresponding call. This is usually a problem with your trace.
Heartbeat CPU 0 instructions: 3500024 cycles: 1211447 heartbeat IPC: 4.236 cumulative IPC: 2.889 (Simulation time: 00 hr 00 min 20 sec)
Heartbeat CPU 0 instructions: 4000027 cycles: 1317542 heartbeat IPC: 4.713 cumulative IPC: 3.036 (Simulation time: 00 hr 00 min 21 sec)
Heartbeat CPU 0 instructions: 4500027 cycles: 1453563 heartbeat IPC: 3.676 cumulative IPC: 3.096 (Simulation time: 00 hr 00 min 24 sec)
Heartbeat CPU 0 instructions: 5000032 cycles: 1653696 heartbeat IPC: 2.498 cumulative IPC: 3.024 (Simulation time: 00 hr 00 min 27 sec)
Heartbeat CPU 0 instructions: 5500034 cycles: 1798080 heartbeat IPC: 3.463 cumulative IPC: 3.059 (Simulation time: 00 hr 00 min 30 sec)
Heartbeat CPU 0 instructions: 6000035 cycles: 1904067 heartbeat IPC: 4.718 cumulative IPC: 3.151 (Simulation time: 00 hr 00 min 32 sec)
Heartbeat CPU 0 instructions: 6500038 cycles: 2008259 heartbeat IPC: 4.799 cumulative IPC: 3.237 (Simulation time: 00 hr 00 min 34 sec)
Heartbeat CPU 0 instructions: 7000045 cycles: 2113921 heartbeat IPC: 4.732 cumulative IPC: 3.311 (Simulation time: 00 hr 00 min 36 sec)
Heartbeat CPU 0 instructions: 7500049 cycles: 2218841 heartbeat IPC: 4.766 cumulative IPC: 3.38 (Simulation time: 00 hr 00 min 39 sec)
Heartbeat CPU 0 instructions: 8000052 cycles: 2323723 heartbeat IPC: 4.767 cumulative IPC: 3.443 (Simulation time: 00 hr 00 min 41 sec)
Heartbeat CPU 0 instructions: 8500055 cycles: 2427949 heartbeat IPC: 4.797 cumulative IPC: 3.501 (Simulation time: 00 hr 00 min 44 sec)
Heartbeat CPU 0 instructions: 9000058 cycles: 2531704 heartbeat IPC: 4.819 cumulative IPC: 3.555 (Simulation time: 00 hr 00 min 46 sec)
Heartbeat CPU 0 instructions: 9500060 cycles: 2636116 heartbeat IPC: 4.789 cumulative IPC: 3.604 (Simulation time: 00 hr 00 min 49 sec)
Heartbeat CPU 0 instructions: 10000067 cycles: 2740274 heartbeat IPC: 4.8 cumulative IPC: 3.649 (Simulation time: 00 hr 00 min 51 sec)
Heartbeat CPU 0 instructions: 10500070 cycles: 2845217 heartbeat IPC: 4.765 cumulative IPC: 3.69 (Simulation time: 00 hr 00 min 53 sec)
Heartbeat CPU 0 instructions: 11000075 cycles: 2948929 heartbeat IPC: 4.821 cumulative IPC: 3.73 (Simulation time: 00 hr 00 min 56 sec)
Heartbeat CPU 0 instructions: 11500075 cycles: 3052893 heartbeat IPC: 4.809 cumulative IPC: 3.767 (Simulation time: 00 hr 00 min 58 sec)
Heartbeat CPU 0 instructions: 12000081 cycles: 3156661 heartbeat IPC: 4.818 cumulative IPC: 3.802 (Simulation time: 00 hr 01 min 00 sec)
Heartbeat CPU 0 instructions: 12500083 cycles: 3261349 heartbeat IPC: 4.776 cumulative IPC: 3.833 (Simulation time: 00 hr 01 min 02 sec)
Heartbeat CPU 0 instructions: 13000086 cycles: 3365957 heartbeat IPC: 4.78 cumulative IPC: 3.862 (Simulation time: 00 hr 01 min 04 sec)
Heartbeat CPU 0 instructions: 13500086 cycles: 3469440 heartbeat IPC: 4.832 cumulative IPC: 3.891 (Simulation time: 00 hr 01 min 07 sec)
Heartbeat CPU 0 instructions: 14000087 cycles: 3573137 heartbeat IPC: 4.822 cumulative IPC: 3.918 (Simulation time: 00 hr 01 min 09 sec)
Heartbeat CPU 0 instructions: 14500094 cycles: 3676329 heartbeat IPC: 4.845 cumulative IPC: 3.944 (Simulation time: 00 hr 01 min 11 sec)
Heartbeat CPU 0 instructions: 15000096 cycles: 3823340 heartbeat IPC: 3.401 cumulative IPC: 3.923 (Simulation time: 00 hr 01 min 13 sec)
Heartbeat CPU 0 instructions: 15500096 cycles: 3930990 heartbeat IPC: 4.645 cumulative IPC: 3.943 (Simulation time: 00 hr 01 min 15 sec)
Heartbeat CPU 0 instructions: 16000100 cycles: 4043651 heartbeat IPC: 4.438 cumulative IPC: 3.957 (Simulation time: 00 hr 01 min 17 sec)
Heartbeat CPU 0 instructions: 16500105 cycles: 4148468 heartbeat IPC: 4.77 cumulative IPC: 3.977 (Simulation time: 00 hr 01 min 19 sec)
Heartbeat CPU 0 instructions: 17000106 cycles: 4253492 heartbeat IPC: 4.761 cumulative IPC: 3.997 (Simulation time: 00 hr 01 min 20 sec)
Heartbeat CPU 0 instructions: 17500107 cycles: 4357769 heartbeat IPC: 4.795 cumulative IPC: 4.016 (Simulation time: 00 hr 01 min 22 sec)
Heartbeat CPU 0 instructions: 18000114 cycles: 4464705 heartbeat IPC: 4.676 cumulative IPC: 4.032 (Simulation time: 00 hr 01 min 24 sec)
Heartbeat CPU 0 instructions: 18500114 cycles: 4569150 heartbeat IPC: 4.787 cumulative IPC: 4.049 (Simulation time: 00 hr 01 min 26 sec)
Heartbeat CPU 0 instructions: 19000117 cycles: 4671970 heartbeat IPC: 4.863 cumulative IPC: 4.067 (Simulation time: 00 hr 01 min 28 sec)
Heartbeat CPU 0 instructions: 19500124 cycles: 4777527 heartbeat IPC: 4.737 cumulative IPC: 4.082 (Simulation time: 00 hr 01 min 29 sec)
Heartbeat CPU 0 instructions: 20000131 cycles: 4881575 heartbeat IPC: 4.806 cumulative IPC: 4.097 (Simulation time: 00 hr 01 min 31 sec)
Heartbeat CPU 0 instructions: 20500137 cycles: 4988114 heartbeat IPC: 4.693 cumulative IPC: 4.11 (Simulation time: 00 hr 01 min 33 sec)
Heartbeat CPU 0 instructions: 21000140 cycles: 5092701 heartbeat IPC: 4.781 cumulative IPC: 4.124 (Simulation time: 00 hr 01 min 35 sec)
Heartbeat CPU 0 instructions: 21500140 cycles: 5197165 heartbeat IPC: 4.786 cumulative IPC: 4.137 (Simulation time: 00 hr 01 min 37 sec)
Heartbeat CPU 0 instructions: 22000143 cycles: 5304836 heartbeat IPC: 4.644 cumulative IPC: 4.147 (Simulation time: 00 hr 01 min 39 sec)
Heartbeat CPU 0 instructions: 22500143 cycles: 5407414 heartbeat IPC: 4.874 cumulative IPC: 4.161 (Simulation time: 00 hr 01 min 40 sec)
Heartbeat CPU 0 instructions: 23000146 cycles: 5510323 heartbeat IPC: 4.859 cumulative IPC: 4.174 (Simulation time: 00 hr 01 min 42 sec)
Heartbeat CPU 0 instructions: 23500148 cycles: 5615083 heartbeat IPC: 4.773 cumulative IPC: 4.185 (Simulation time: 00 hr 01 min 44 sec)
Heartbeat CPU 0 instructions: 24000151 cycles: 5718424 heartbeat IPC: 4.838 cumulative IPC: 4.197 (Simulation time: 00 hr 01 min 46 sec)
Heartbeat CPU 0 instructions: 24500156 cycles: 5822545 heartbeat IPC: 4.802 cumulative IPC: 4.208 (Simulation time: 00 hr 01 min 48 sec)
Heartbeat CPU 0 instructions: 25000163 cycles: 5926786 heartbeat IPC: 4.797 cumulative IPC: 4.218 (Simulation time: 00 hr 01 min 49 sec)
Heartbeat CPU 0 instructions: 25500167 cycles: 6029670 heartbeat IPC: 4.86 cumulative IPC: 4.229 (Simulation time: 00 hr 01 min 51 sec)
Heartbeat CPU 0 instructions: 26000173 cycles: 6138456 heartbeat IPC: 4.596 cumulative IPC: 4.236 (Simulation time: 00 hr 01 min 53 sec)
Heartbeat CPU 0 instructions: 26500174 cycles: 6248100 heartbeat IPC: 4.56 cumulative IPC: 4.241 (Simulation time: 00 hr 01 min 55 sec)
Heartbeat CPU 0 instructions: 27000177 cycles: 6355716 heartbeat IPC: 4.646 cumulative IPC: 4.248 (Simulation time: 00 hr 01 min 57 sec)
Heartbeat CPU 0 instructions: 27500181 cycles: 6466973 heartbeat IPC: 4.494 cumulative IPC: 4.252 (Simulation time: 00 hr 01 min 59 sec)
Heartbeat CPU 0 instructions: 28000186 cycles: 6577862 heartbeat IPC: 4.509 cumulative IPC: 4.257 (Simulation time: 00 hr 02 min 01 sec)
Heartbeat CPU 0 instructions: 28500193 cycles: 6686210 heartbeat IPC: 4.615 cumulative IPC: 4.263 (Simulation time: 00 hr 02 min 03 sec)
Heartbeat CPU 0 instructions: 29000195 cycles: 6791570 heartbeat IPC: 4.746 cumulative IPC: 4.27 (Simulation time: 00 hr 02 min 04 sec)
Heartbeat CPU 0 instructions: 29500195 cycles: 7045257 heartbeat IPC: 1.971 cumulative IPC: 4.187 (Simulation time: 00 hr 02 min 09 sec)
Heartbeat CPU 0 instructions: 30000199 cycles: 7152710 heartbeat IPC: 4.653 cumulative IPC: 4.194 (Simulation time: 00 hr 02 min 11 sec)
Heartbeat CPU 0 instructions: 30500203 cycles: 7256416 heartbeat IPC: 4.821 cumulative IPC: 4.203 (Simulation time: 00 hr 02 min 13 sec)
Heartbeat CPU 0 instructions: 31000206 cycles: 7358153 heartbeat IPC: 4.915 cumulative IPC: 4.213 (Simulation time: 00 hr 02 min 15 sec)
Heartbeat CPU 0 instructions: 31500207 cycles: 7459338 heartbeat IPC: 4.941 cumulative IPC: 4.223 (Simulation time: 00 hr 02 min 18 sec)
Heartbeat CPU 0 instructions: 32000208 cycles: 7559438 heartbeat IPC: 4.995 cumulative IPC: 4.233 (Simulation time: 00 hr 02 min 20 sec)
Heartbeat CPU 0 instructions: 32500215 cycles: 7659674 heartbeat IPC: 4.988 cumulative IPC: 4.243 (Simulation time: 00 hr 02 min 23 sec)
Heartbeat CPU 0 instructions: 33000222 cycles: 7759866 heartbeat IPC: 4.99 cumulative IPC: 4.253 (Simulation time: 00 hr 02 min 26 sec)
Heartbeat CPU 0 instructions: 33500225 cycles: 7859866 heartbeat IPC: 5 cumulative IPC: 4.262 (Simulation time: 00 hr 02 min 28 sec)
Heartbeat CPU 0 instructions: 34000225 cycles: 7959962 heartbeat IPC: 4.995 cumulative IPC: 4.271 (Simulation time: 00 hr 02 min 31 sec)
Heartbeat CPU 0 instructions: 34500227 cycles: 8060059 heartbeat IPC: 4.995 cumulative IPC: 4.28 (Simulation time: 00 hr 02 min 34 sec)
Heartbeat CPU 0 instructions: 35000232 cycles: 8160249 heartbeat IPC: 4.991 cumulative IPC: 4.289 (Simulation time: 00 hr 02 min 36 sec)
Heartbeat CPU 0 instructions: 35500232 cycles: 8260449 heartbeat IPC: 4.99 cumulative IPC: 4.298 (Simulation time: 00 hr 02 min 39 sec)
Heartbeat CPU 0 instructions: 36000237 cycles: 8360449 heartbeat IPC: 5 cumulative IPC: 4.306 (Simulation time: 00 hr 02 min 42 sec)
Heartbeat CPU 0 instructions: 36500238 cycles: 8460450 heartbeat IPC: 5 cumulative IPC: 4.314 (Simulation time: 00 hr 02 min 44 sec)
Heartbeat CPU 0 instructions: 37000244 cycles: 8560556 heartbeat IPC: 4.995 cumulative IPC: 4.322 (Simulation time: 00 hr 02 min 47 sec)
Heartbeat CPU 0 instructions: 37500249 cycles: 8660558 heartbeat IPC: 5 cumulative IPC: 4.33 (Simulation time: 00 hr 02 min 50 sec)
Heartbeat CPU 0 instructions: 38000255 cycles: 8760654 heartbeat IPC: 4.995 cumulative IPC: 4.338 (Simulation time: 00 hr 02 min 52 sec)
Heartbeat CPU 0 instructions: 38500259 cycles: 8860753 heartbeat IPC: 4.995 cumulative IPC: 4.345 (Simulation time: 00 hr 02 min 55 sec)
Heartbeat CPU 0 instructions: 39000265 cycles: 8960755 heartbeat IPC: 5 cumulative IPC: 4.352 (Simulation time: 00 hr 02 min 58 sec)
Heartbeat CPU 0 instructions: 39500266 cycles: 9062100 heartbeat IPC: 4.934 cumulative IPC: 4.359 (Simulation time: 00 hr 03 min 00 sec)
Heartbeat CPU 0 instructions: 40000269 cycles: 9176242 heartbeat IPC: 4.381 cumulative IPC: 4.359 (Simulation time: 00 hr 03 min 02 sec)
Heartbeat CPU 0 instructions: 40500272 cycles: 9278139 heartbeat IPC: 4.907 cumulative IPC: 4.365 (Simulation time: 00 hr 03 min 05 sec)
Heartbeat CPU 0 instructions: 41000274 cycles: 9381127 heartbeat IPC: 4.855 cumulative IPC: 4.371 (Simulation time: 00 hr 03 min 07 sec)
Heartbeat CPU 0 instructions: 41500277 cycles: 9482019 heartbeat IPC: 4.956 cumulative IPC: 4.377 (Simulation time: 00 hr 03 min 10 sec)
Heartbeat CPU 0 instructions: 42000280 cycles: 9585267 heartbeat IPC: 4.843 cumulative IPC: 4.382 (Simulation time: 00 hr 03 min 13 sec)
Heartbeat CPU 0 instructions: 42500286 cycles: 9688004 heartbeat IPC: 4.867 cumulative IPC: 4.387 (Simulation time: 00 hr 03 min 15 sec)
Heartbeat CPU 0 instructions: 43000286 cycles: 9790866 heartbeat IPC: 4.861 cumulative IPC: 4.392 (Simulation time: 00 hr 03 min 17 sec)
Heartbeat CPU 0 instructions: 43500289 cycles: 9892809 heartbeat IPC: 4.905 cumulative IPC: 4.397 (Simulation time: 00 hr 03 min 19 sec)
Heartbeat CPU 0 instructions: 44000294 cycles: 9995075 heartbeat IPC: 4.889 cumulative IPC: 4.402 (Simulation time: 00 hr 03 min 21 sec)
Heartbeat CPU 0 instructions: 44500301 cycles: 10097307 heartbeat IPC: 4.891 cumulative IPC: 4.407 (Simulation time: 00 hr 03 min 23 sec)
Heartbeat CPU 0 instructions: 45000306 cycles: 10199078 heartbeat IPC: 4.913 cumulative IPC: 4.412 (Simulation time: 00 hr 03 min 26 sec)
Heartbeat CPU 0 instructions: 45500306 cycles: 10300078 heartbeat IPC: 4.95 cumulative IPC: 4.417 (Simulation time: 00 hr 03 min 29 sec)
Heartbeat CPU 0 instructions: 46000312 cycles: 10401078 heartbeat IPC: 4.951 cumulative IPC: 4.423 (Simulation time: 00 hr 03 min 31 sec)
Heartbeat CPU 0 instructions: 46500319 cycles: 10502056 heartbeat IPC: 4.952 cumulative IPC: 4.428 (Simulation time: 00 hr 03 min 34 sec)
Heartbeat CPU 0 instructions: 47000319 cycles: 10603357 heartbeat IPC: 4.936 cumulative IPC: 4.433 (Simulation time: 00 hr 03 min 36 sec)
Heartbeat CPU 0 instructions: 47500323 cycles: 10704968 heartbeat IPC: 4.921 cumulative IPC: 4.437 (Simulation time: 00 hr 03 min 39 sec)
Heartbeat CPU 0 instructions: 48000323 cycles: 10806502 heartbeat IPC: 4.924 cumulative IPC: 4.442 (Simulation time: 00 hr 03 min 41 sec)
Heartbeat CPU 0 instructions: 48500323 cycles: 10907003 heartbeat IPC: 4.975 cumulative IPC: 4.447 (Simulation time: 00 hr 03 min 44 sec)
Heartbeat CPU 0 instructions: 49000325 cycles: 11008603 heartbeat IPC: 4.921 cumulative IPC: 4.451 (Simulation time: 00 hr 03 min 47 sec)
Heartbeat CPU 0 instructions: 49500326 cycles: 11111111 heartbeat IPC: 4.878 cumulative IPC: 4.455 (Simulation time: 00 hr 03 min 50 sec)
Warmup finished CPU 0 instructions: 50000004 cycles: 11225649 cumulative IPC: 4.454 (Simulation time: 00 hr 03 min 52 sec)
Warmup complete CPU 0 instructions: 50000004 cycles: 11225649 cumulative IPC: 4.454 (Simulation time: 00 hr 03 min 52 sec)
Heartbeat CPU 0 instructions: 50000327 cycles: 11225803 heartbeat IPC: 4.36 cumulative IPC: 2.097 (Simulation time: 00 hr 03 min 52 sec)
Heartbeat CPU 0 instructions: 50500332 cycles: 11678724 heartbeat IPC: 1.104 cumulative IPC: 1.104 (Simulation time: 00 hr 03 min 57 sec)
Heartbeat CPU 0 instructions: 51000334 cycles: 12101360 heartbeat IPC: 1.183 cumulative IPC: 1.142 (Simulation time: 00 hr 04 min 01 sec)
Heartbeat CPU 0 instructions: 51500335 cycles: 12536601 heartbeat IPC: 1.149 cumulative IPC: 1.144 (Simulation time: 00 hr 04 min 05 sec)
Heartbeat CPU 0 instructions: 52000339 cycles: 12947994 heartbeat IPC: 1.215 cumulative IPC: 1.161 (Simulation time: 00 hr 04 min 09 sec)
Heartbeat CPU 0 instructions: 52500339 cycles: 13363330 heartbeat IPC: 1.204 cumulative IPC: 1.17 (Simulation time: 00 hr 04 min 13 sec)
Heartbeat CPU 0 instructions: 53000342 cycles: 13766268 heartbeat IPC: 1.241 cumulative IPC: 1.181 (Simulation time: 00 hr 04 min 17 sec)
Heartbeat CPU 0 instructions: 53500342 cycles: 14177198 heartbeat IPC: 1.217 cumulative IPC: 1.186 (Simulation time: 00 hr 04 min 21 sec)
Heartbeat CPU 0 instructions: 54000345 cycles: 14625502 heartbeat IPC: 1.115 cumulative IPC: 1.177 (Simulation time: 00 hr 04 min 26 sec)
Heartbeat CPU 0 instructions: 54500345 cycles: 15069643 heartbeat IPC: 1.126 cumulative IPC: 1.171 (Simulation time: 00 hr 04 min 31 sec)
Heartbeat CPU 0 instructions: 55000348 cycles: 15519369 heartbeat IPC: 1.112 cumulative IPC: 1.165 (Simulation time: 00 hr 04 min 35 sec)
Heartbeat CPU 0 instructions: 55500352 cycles: 15930152 heartbeat IPC: 1.217 cumulative IPC: 1.169 (Simulation time: 00 hr 04 min 39 sec)
Heartbeat CPU 0 instructions: 56000355 cycles: 17084228 heartbeat IPC: 0.4332 cumulative IPC: 1.024 (Simulation time: 00 hr 04 min 50 sec)
Heartbeat CPU 0 instructions: 56500360 cycles: 19916094 heartbeat IPC: 0.1766 cumulative IPC: 0.748 (Simulation time: 00 hr 05 min 12 sec)
Heartbeat CPU 0 instructions: 57000360 cycles: 20341635 heartbeat IPC: 1.175 cumulative IPC: 0.7679 (Simulation time: 00 hr 05 min 17 sec)
Heartbeat CPU 0 instructions: 57500363 cycles: 20773869 heartbeat IPC: 1.157 cumulative IPC: 0.7855 (Simulation time: 00 hr 05 min 21 sec)
Heartbeat CPU 0 instructions: 58000364 cycles: 21174807 heartbeat IPC: 1.247 cumulative IPC: 0.8041 (Simulation time: 00 hr 05 min 25 sec)
Heartbeat CPU 0 instructions: 58500368 cycles: 21597429 heartbeat IPC: 1.183 cumulative IPC: 0.8196 (Simulation time: 00 hr 05 min 29 sec)
Heartbeat CPU 0 instructions: 59000368 cycles: 22026105 heartbeat IPC: 1.166 cumulative IPC: 0.8333 (Simulation time: 00 hr 05 min 33 sec)
Heartbeat CPU 0 instructions: 59500370 cycles: 22438693 heartbeat IPC: 1.212 cumulative IPC: 0.8473 (Simulation time: 00 hr 05 min 37 sec)
Heartbeat CPU 0 instructions: 60000372 cycles: 22858389 heartbeat IPC: 1.191 cumulative IPC: 0.8597 (Simulation time: 00 hr 05 min 41 sec)
Heartbeat CPU 0 instructions: 60500372 cycles: 23279129 heartbeat IPC: 1.188 cumulative IPC: 0.8711 (Simulation time: 00 hr 05 min 46 sec)
Heartbeat CPU 0 instructions: 61000372 cycles: 23785156 heartbeat IPC: 0.9881 cumulative IPC: 0.8759 (Simulation time: 00 hr 05 min 51 sec)
Heartbeat CPU 0 instructions: 61500375 cycles: 24264305 heartbeat IPC: 1.044 cumulative IPC: 0.882 (Simulation time: 00 hr 05 min 56 sec)
Heartbeat CPU 0 instructions: 62000381 cycles: 25471072 heartbeat IPC: 0.4143 cumulative IPC: 0.8424 (Simulation time: 00 hr 06 min 06 sec)
Heartbeat CPU 0 instructions: 62500383 cycles: 26848066 heartbeat IPC: 0.3631 cumulative IPC: 0.8002 (Simulation time: 00 hr 06 min 16 sec)
Heartbeat CPU 0 instructions: 63000383 cycles: 28086229 heartbeat IPC: 0.4038 cumulative IPC: 0.7711 (Simulation time: 00 hr 06 min 25 sec)
Heartbeat CPU 0 instructions: 63500386 cycles: 29640816 heartbeat IPC: 0.3216 cumulative IPC: 0.7331 (Simulation time: 00 hr 06 min 36 sec)
Heartbeat CPU 0 instructions: 64000387 cycles: 30425889 heartbeat IPC: 0.6369 cumulative IPC: 0.7292 (Simulation time: 00 hr 06 min 42 sec)
Heartbeat CPU 0 instructions: 64500391 cycles: 31079398 heartbeat IPC: 0.7651 cumulative IPC: 0.7304 (Simulation time: 00 hr 06 min 48 sec)
Heartbeat CPU 0 instructions: 65000392 cycles: 31976780 heartbeat IPC: 0.5572 cumulative IPC: 0.7229 (Simulation time: 00 hr 06 min 56 sec)
Heartbeat CPU 0 instructions: 65500392 cycles: 32133251 heartbeat IPC: 3.195 cumulative IPC: 0.7414 (Simulation time: 00 hr 06 min 59 sec)
Heartbeat CPU 0 instructions: 66000392 cycles: 32304907 heartbeat IPC: 2.913 cumulative IPC: 0.7591 (Simulation time: 00 hr 07 min 03 sec)
Heartbeat CPU 0 instructions: 66500393 cycles: 32542512 heartbeat IPC: 2.104 cumulative IPC: 0.7741 (Simulation time: 00 hr 07 min 07 sec)
Heartbeat CPU 0 instructions: 67000394 cycles: 32757467 heartbeat IPC: 2.326 cumulative IPC: 0.7895 (Simulation time: 00 hr 07 min 10 sec)
Heartbeat CPU 0 instructions: 67500394 cycles: 32909015 heartbeat IPC: 3.299 cumulative IPC: 0.8071 (Simulation time: 00 hr 07 min 14 sec)
Heartbeat CPU 0 instructions: 68000397 cycles: 33064805 heartbeat IPC: 3.209 cumulative IPC: 0.8242 (Simulation time: 00 hr 07 min 17 sec)
Heartbeat CPU 0 instructions: 68500398 cycles: 33255472 heartbeat IPC: 2.622 cumulative IPC: 0.8398 (Simulation time: 00 hr 07 min 21 sec)
Heartbeat CPU 0 instructions: 69000401 cycles: 33432208 heartbeat IPC: 2.829 cumulative IPC: 0.8556 (Simulation time: 00 hr 07 min 25 sec)
Heartbeat CPU 0 instructions: 69500408 cycles: 33612670 heartbeat IPC: 2.771 cumulative IPC: 0.8711 (Simulation time: 00 hr 07 min 28 sec)
Heartbeat CPU 0 instructions: 70000408 cycles: 33804849 heartbeat IPC: 2.602 cumulative IPC: 0.8858 (Simulation time: 00 hr 07 min 32 sec)
Heartbeat CPU 0 instructions: 70500412 cycles: 33964966 heartbeat IPC: 3.123 cumulative IPC: 0.9015 (Simulation time: 00 hr 07 min 35 sec)
Heartbeat CPU 0 instructions: 71000416 cycles: 34077519 heartbeat IPC: 4.442 cumulative IPC: 0.919 (Simulation time: 00 hr 07 min 39 sec)
Heartbeat CPU 0 instructions: 71500416 cycles: 34274124 heartbeat IPC: 2.543 cumulative IPC: 0.9328 (Simulation time: 00 hr 07 min 42 sec)
Heartbeat CPU 0 instructions: 72000420 cycles: 34493966 heartbeat IPC: 2.274 cumulative IPC: 0.9455 (Simulation time: 00 hr 07 min 46 sec)
Heartbeat CPU 0 instructions: 72500423 cycles: 34645115 heartbeat IPC: 3.308 cumulative IPC: 0.9608 (Simulation time: 00 hr 07 min 50 sec)
Heartbeat CPU 0 instructions: 73000424 cycles: 34830403 heartbeat IPC: 2.699 cumulative IPC: 0.9744 (Simulation time: 00 hr 07 min 53 sec)
Heartbeat CPU 0 instructions: 73500431 cycles: 35013050 heartbeat IPC: 2.738 cumulative IPC: 0.9879 (Simulation time: 00 hr 07 min 57 sec)
Heartbeat CPU 0 instructions: 74000434 cycles: 35182559 heartbeat IPC: 2.95 cumulative IPC: 1.002 (Simulation time: 00 hr 08 min 00 sec)
Heartbeat CPU 0 instructions: 74500435 cycles: 35388258 heartbeat IPC: 2.431 cumulative IPC: 1.014 (Simulation time: 00 hr 08 min 04 sec)
Heartbeat CPU 0 instructions: 75000435 cycles: 36930989 heartbeat IPC: 0.3241 cumulative IPC: 0.9726 (Simulation time: 00 hr 08 min 16 sec)
Heartbeat CPU 0 instructions: 75500440 cycles: 38963778 heartbeat IPC: 0.246 cumulative IPC: 0.9193 (Simulation time: 00 hr 08 min 31 sec)
Heartbeat CPU 0 instructions: 76000440 cycles: 40089878 heartbeat IPC: 0.444 cumulative IPC: 0.9008 (Simulation time: 00 hr 08 min 39 sec)
Heartbeat CPU 0 instructions: 76500442 cycles: 41621810 heartbeat IPC: 0.3264 cumulative IPC: 0.8718 (Simulation time: 00 hr 08 min 50 sec)
Heartbeat CPU 0 instructions: 77000445 cycles: 42801259 heartbeat IPC: 0.4239 cumulative IPC: 0.8551 (Simulation time: 00 hr 08 min 59 sec)
Heartbeat CPU 0 instructions: 77500445 cycles: 44234240 heartbeat IPC: 0.3489 cumulative IPC: 0.8331 (Simulation time: 00 hr 09 min 09 sec)
Heartbeat CPU 0 instructions: 78000447 cycles: 45615038 heartbeat IPC: 0.3621 cumulative IPC: 0.8142 (Simulation time: 00 hr 09 min 20 sec)
Heartbeat CPU 0 instructions: 78500449 cycles: 47257627 heartbeat IPC: 0.3044 cumulative IPC: 0.791 (Simulation time: 00 hr 09 min 31 sec)
Heartbeat CPU 0 instructions: 79000449 cycles: 48588716 heartbeat IPC: 0.3756 cumulative IPC: 0.7762 (Simulation time: 00 hr 09 min 41 sec)
Heartbeat CPU 0 instructions: 79500451 cycles: 49633662 heartbeat IPC: 0.4785 cumulative IPC: 0.7681 (Simulation time: 00 hr 09 min 50 sec)
Heartbeat CPU 0 instructions: 80000452 cycles: 50123683 heartbeat IPC: 1.02 cumulative IPC: 0.7713 (Simulation time: 00 hr 09 min 55 sec)
Heartbeat CPU 0 instructions: 80500454 cycles: 50605784 heartbeat IPC: 1.037 cumulative IPC: 0.7745 (Simulation time: 00 hr 09 min 59 sec)
Heartbeat CPU 0 instructions: 81000454 cycles: 51080757 heartbeat IPC: 1.053 cumulative IPC: 0.7778 (Simulation time: 00 hr 10 min 04 sec)
Heartbeat CPU 0 instructions: 81500454 cycles: 51559373 heartbeat IPC: 1.045 cumulative IPC: 0.781 (Simulation time: 00 hr 10 min 09 sec)
Heartbeat CPU 0 instructions: 82000455 cycles: 51993209 heartbeat IPC: 1.153 cumulative IPC: 0.7849 (Simulation time: 00 hr 10 min 13 sec)
Heartbeat CPU 0 instructions: 82500457 cycles: 52427136 heartbeat IPC: 1.152 cumulative IPC: 0.7888 (Simulation time: 00 hr 10 min 18 sec)
Heartbeat CPU 0 instructions: 83000460 cycles: 52843673 heartbeat IPC: 1.2 cumulative IPC: 0.7929 (Simulation time: 00 hr 10 min 23 sec)
Heartbeat CPU 0 instructions: 83500466 cycles: 53242148 heartbeat IPC: 1.255 cumulative IPC: 0.7973 (Simulation time: 00 hr 10 min 28 sec)
Heartbeat CPU 0 instructions: 84000471 cycles: 53651561 heartbeat IPC: 1.221 cumulative IPC: 0.8014 (Simulation time: 00 hr 10 min 32 sec)
Heartbeat CPU 0 instructions: 84500471 cycles: 54051116 heartbeat IPC: 1.251 cumulative IPC: 0.8056 (Simulation time: 00 hr 10 min 37 sec)
Heartbeat CPU 0 instructions: 85000474 cycles: 54477671 heartbeat IPC: 1.172 cumulative IPC: 0.8092 (Simulation time: 00 hr 10 min 42 sec)
Heartbeat CPU 0 instructions: 85500474 cycles: 56790679 heartbeat IPC: 0.2162 cumulative IPC: 0.7791 (Simulation time: 00 hr 11 min 00 sec)
Heartbeat CPU 0 instructions: 86000480 cycles: 59136206 heartbeat IPC: 0.2132 cumulative IPC: 0.7514 (Simulation time: 00 hr 11 min 17 sec)
Heartbeat CPU 0 instructions: 86500482 cycles: 60731750 heartbeat IPC: 0.3134 cumulative IPC: 0.7373 (Simulation time: 00 hr 11 min 29 sec)
Heartbeat CPU 0 instructions: 87000488 cycles: 62075913 heartbeat IPC: 0.372 cumulative IPC: 0.7276 (Simulation time: 00 hr 11 min 39 sec)
Heartbeat CPU 0 instructions: 87500489 cycles: 63069823 heartbeat IPC: 0.5031 cumulative IPC: 0.7233 (Simulation time: 00 hr 11 min 46 sec)
Heartbeat CPU 0 instructions: 88000491 cycles: 64088708 heartbeat IPC: 0.4907 cumulative IPC: 0.7188 (Simulation time: 00 hr 11 min 53 sec)
Heartbeat CPU 0 instructions: 88500491 cycles: 65806552 heartbeat IPC: 0.2911 cumulative IPC: 0.7054 (Simulation time: 00 hr 12 min 06 sec)
Heartbeat CPU 0 instructions: 89000495 cycles: 66656507 heartbeat IPC: 0.5883 cumulative IPC: 0.7036 (Simulation time: 00 hr 12 min 14 sec)
Heartbeat CPU 0 instructions: 89500502 cycles: 69920012 heartbeat IPC: 0.1532 cumulative IPC: 0.673 (Simulation time: 00 hr 12 min 38 sec)
Heartbeat CPU 0 instructions: 90000504 cycles: 70412478 heartbeat IPC: 1.015 cumulative IPC: 0.6758 (Simulation time: 00 hr 12 min 43 sec)
Heartbeat CPU 0 instructions: 90500504 cycles: 70840344 heartbeat IPC: 1.169 cumulative IPC: 0.6794 (Simulation time: 00 hr 12 min 47 sec)
Heartbeat CPU 0 instructions: 91000505 cycles: 71252066 heartbeat IPC: 1.214 cumulative IPC: 0.683 (Simulation time: 00 hr 12 min 51 sec)
Heartbeat CPU 0 instructions: 91500506 cycles: 71698519 heartbeat IPC: 1.12 cumulative IPC: 0.6863 (Simulation time: 00 hr 12 min 55 sec)
Heartbeat CPU 0 instructions: 92000506 cycles: 72141797 heartbeat IPC: 1.128 cumulative IPC: 0.6895 (Simulation time: 00 hr 13 min 00 sec)
Heartbeat CPU 0 instructions: 92500506 cycles: 72583407 heartbeat IPC: 1.132 cumulative IPC: 0.6927 (Simulation time: 00 hr 13 min 04 sec)
Heartbeat CPU 0 instructions: 93000513 cycles: 73662814 heartbeat IPC: 0.4632 cumulative IPC: 0.6887 (Simulation time: 00 hr 13 min 13 sec)
Heartbeat CPU 0 instructions: 93500516 cycles: 75970420 heartbeat IPC: 0.2167 cumulative IPC: 0.6719 (Simulation time: 00 hr 13 min 33 sec)
Heartbeat CPU 0 instructions: 94000516 cycles: 76094852 heartbeat IPC: 4.018 cumulative IPC: 0.6783 (Simulation time: 00 hr 13 min 37 sec)
Heartbeat CPU 0 instructions: 94500522 cycles: 76217555 heartbeat IPC: 4.075 cumulative IPC: 0.6847 (Simulation time: 00 hr 13 min 40 sec)
Heartbeat CPU 0 instructions: 95000527 cycles: 76346088 heartbeat IPC: 3.89 cumulative IPC: 0.691 (Simulation time: 00 hr 13 min 44 sec)
Heartbeat CPU 0 instructions: 95500527 cycles: 76552360 heartbeat IPC: 2.424 cumulative IPC: 0.6965 (Simulation time: 00 hr 13 min 47 sec)
Heartbeat CPU 0 instructions: 96000528 cycles: 76712252 heartbeat IPC: 3.127 cumulative IPC: 0.7024 (Simulation time: 00 hr 13 min 51 sec)
Heartbeat CPU 0 instructions: 96500532 cycles: 76846085 heartbeat IPC: 3.736 cumulative IPC: 0.7086 (Simulation time: 00 hr 13 min 54 sec)
Heartbeat CPU 0 instructions: 97000539 cycles: 76981869 heartbeat IPC: 3.682 cumulative IPC: 0.7148 (Simulation time: 00 hr 13 min 58 sec)
Heartbeat CPU 0 instructions: 97500539 cycles: 77110395 heartbeat IPC: 3.89 cumulative IPC: 0.721 (Simulation time: 00 hr 14 min 01 sec)
Heartbeat CPU 0 instructions: 98000546 cycles: 77249371 heartbeat IPC: 3.598 cumulative IPC: 0.727 (Simulation time: 00 hr 14 min 05 sec)
Heartbeat CPU 0 instructions: 98500546 cycles: 77384145 heartbeat IPC: 3.71 cumulative IPC: 0.7331 (Simulation time: 00 hr 14 min 08 sec)
Heartbeat CPU 0 instructions: 99000549 cycles: 77548735 heartbeat IPC: 3.038 cumulative IPC: 0.7388 (Simulation time: 00 hr 14 min 12 sec)
Heartbeat CPU 0 instructions: 99500551 cycles: 77749852 heartbeat IPC: 2.486 cumulative IPC: 0.7441 (Simulation time: 00 hr 14 min 15 sec)
Heartbeat CPU 0 instructions: 100000558 cycles: 77942267 heartbeat IPC: 2.599 cumulative IPC: 0.7494 (Simulation time: 00 hr 14 min 19 sec)
Heartbeat CPU 0 instructions: 100500561 cycles: 78145596 heartbeat IPC: 2.459 cumulative IPC: 0.7546 (Simulation time: 00 hr 14 min 23 sec)
Heartbeat CPU 0 instructions: 101000566 cycles: 78296280 heartbeat IPC: 3.318 cumulative IPC: 0.7604 (Simulation time: 00 hr 14 min 26 sec)
Heartbeat CPU 0 instructions: 101500573 cycles: 78496899 heartbeat IPC: 2.492 cumulative IPC: 0.7656 (Simulation time: 00 hr 14 min 30 sec)
Heartbeat CPU 0 instructions: 102000578 cycles: 78677931 heartbeat IPC: 2.762 cumulative IPC: 0.7709 (Simulation time: 00 hr 14 min 33 sec)
Heartbeat CPU 0 instructions: 102500579 cycles: 78873802 heartbeat IPC: 2.553 cumulative IPC: 0.7761 (Simulation time: 00 hr 14 min 37 sec)
Heartbeat CPU 0 instructions: 103000583 cycles: 79041940 heartbeat IPC: 2.974 cumulative IPC: 0.7815 (Simulation time: 00 hr 14 min 41 sec)
Heartbeat CPU 0 instructions: 103500587 cycles: 79809434 heartbeat IPC: 0.6515 cumulative IPC: 0.7801 (Simulation time: 00 hr 14 min 47 sec)
Heartbeat CPU 0 instructions: 104000587 cycles: 80421011 heartbeat IPC: 0.8176 cumulative IPC: 0.7804 (Simulation time: 00 hr 14 min 52 sec)
Heartbeat CPU 0 instructions: 104500593 cycles: 80773805 heartbeat IPC: 1.417 cumulative IPC: 0.7836 (Simulation time: 00 hr 14 min 56 sec)
Heartbeat CPU 0 instructions: 105000595 cycles: 81180896 heartbeat IPC: 1.228 cumulative IPC: 0.7862 (Simulation time: 00 hr 15 min 00 sec)
Heartbeat CPU 0 instructions: 105500595 cycles: 81549300 heartbeat IPC: 1.357 cumulative IPC: 0.7892 (Simulation time: 00 hr 15 min 03 sec)
Heartbeat CPU 0 instructions: 106000595 cycles: 81924026 heartbeat IPC: 1.334 cumulative IPC: 0.7921 (Simulation time: 00 hr 15 min 07 sec)
Heartbeat CPU 0 instructions: 106500598 cycles: 82250792 heartbeat IPC: 1.53 cumulative IPC: 0.7955 (Simulation time: 00 hr 15 min 10 sec)
Heartbeat CPU 0 instructions: 107000599 cycles: 82639333 heartbeat IPC: 1.287 cumulative IPC: 0.7982 (Simulation time: 00 hr 15 min 13 sec)
Heartbeat CPU 0 instructions: 107500600 cycles: 82972682 heartbeat IPC: 1.5 cumulative IPC: 0.8014 (Simulation time: 00 hr 15 min 17 sec)
Heartbeat CPU 0 instructions: 108000600 cycles: 83303693 heartbeat IPC: 1.511 cumulative IPC: 0.8047 (Simulation time: 00 hr 15 min 20 sec)
Heartbeat CPU 0 instructions: 108500603 cycles: 83645681 heartbeat IPC: 1.462 cumulative IPC: 0.8078 (Simulation time: 00 hr 15 min 23 sec)
Heartbeat CPU 0 instructions: 109000603 cycles: 83926920 heartbeat IPC: 1.778 cumulative IPC: 0.8115 (Simulation time: 00 hr 15 min 26 sec)
Heartbeat CPU 0 instructions: 109500603 cycles: 84246905 heartbeat IPC: 1.563 cumulative IPC: 0.8148 (Simulation time: 00 hr 15 min 29 sec)
Heartbeat CPU 0 instructions: 110000606 cycles: 84502464 heartbeat IPC: 1.957 cumulative IPC: 0.8188 (Simulation time: 00 hr 15 min 32 sec)
Heartbeat CPU 0 instructions: 110500609 cycles: 84880319 heartbeat IPC: 1.323 cumulative IPC: 0.8214 (Simulation time: 00 hr 15 min 36 sec)
Heartbeat CPU 0 instructions: 111000612 cycles: 85191819 heartbeat IPC: 1.605 cumulative IPC: 0.8247 (Simulation time: 00 hr 15 min 39 sec)
Heartbeat CPU 0 instructions: 111500613 cycles: 85477837 heartbeat IPC: 1.748 cumulative IPC: 0.8283 (Simulation time: 00 hr 15 min 42 sec)
Heartbeat CPU 0 instructions: 112000615 cycles: 85827040 heartbeat IPC: 1.432 cumulative IPC: 0.8311 (Simulation time: 00 hr 15 min 45 sec)
Heartbeat CPU 0 instructions: 112500622 cycles: 86116445 heartbeat IPC: 1.728 cumulative IPC: 0.8346 (Simulation time: 00 hr 15 min 48 sec)
Heartbeat CPU 0 instructions: 113000622 cycles: 86419364 heartbeat IPC: 1.651 cumulative IPC: 0.8378 (Simulation time: 00 hr 15 min 51 sec)
Heartbeat CPU 0 instructions: 113500629 cycles: 87368935 heartbeat IPC: 0.5266 cumulative IPC: 0.834 (Simulation time: 00 hr 15 min 59 sec)
Heartbeat CPU 0 instructions: 114000630 cycles: 90048198 heartbeat IPC: 0.1866 cumulative IPC: 0.812 (Simulation time: 00 hr 16 min 21 sec)
Heartbeat CPU 0 instructions: 114500632 cycles: 90875000 heartbeat IPC: 0.6047 cumulative IPC: 0.8098 (Simulation time: 00 hr 16 min 28 sec)
Heartbeat CPU 0 instructions: 115000639 cycles: 92086571 heartbeat IPC: 0.4127 cumulative IPC: 0.8039 (Simulation time: 00 hr 16 min 38 sec)
Heartbeat CPU 0 instructions: 115500646 cycles: 92323187 heartbeat IPC: 2.113 cumulative IPC: 0.8077 (Simulation time: 00 hr 16 min 41 sec)
Heartbeat CPU 0 instructions: 116000653 cycles: 92525776 heartbeat IPC: 2.468 cumulative IPC: 0.8118 (Simulation time: 00 hr 16 min 45 sec)
Heartbeat CPU 0 instructions: 116500656 cycles: 92757048 heartbeat IPC: 2.162 cumulative IPC: 0.8156 (Simulation time: 00 hr 16 min 49 sec)
Heartbeat CPU 0 instructions: 117000658 cycles: 93016647 heartbeat IPC: 1.926 cumulative IPC: 0.8192 (Simulation time: 00 hr 16 min 52 sec)
Heartbeat CPU 0 instructions: 117500663 cycles: 93319229 heartbeat IPC: 1.652 cumulative IPC: 0.8222 (Simulation time: 00 hr 16 min 56 sec)
Heartbeat CPU 0 instructions: 118000664 cycles: 93612477 heartbeat IPC: 1.705 cumulative IPC: 0.8254 (Simulation time: 00 hr 16 min 59 sec)
Heartbeat CPU 0 instructions: 118500664 cycles: 93821725 heartbeat IPC: 2.39 cumulative IPC: 0.8293 (Simulation time: 00 hr 17 min 03 sec)
Heartbeat CPU 0 instructions: 119000666 cycles: 93970276 heartbeat IPC: 3.366 cumulative IPC: 0.8339 (Simulation time: 00 hr 17 min 07 sec)
Heartbeat CPU 0 instructions: 119500668 cycles: 94091363 heartbeat IPC: 4.129 cumulative IPC: 0.8387 (Simulation time: 00 hr 17 min 10 sec)
Heartbeat CPU 0 instructions: 120000670 cycles: 94218099 heartbeat IPC: 3.945 cumulative IPC: 0.8435 (Simulation time: 00 hr 17 min 14 sec)
Heartbeat CPU 0 instructions: 120500677 cycles: 94420530 heartbeat IPC: 2.47 cumulative IPC: 0.8474 (Simulation time: 00 hr 17 min 17 sec)
Heartbeat CPU 0 instructions: 121000677 cycles: 94560608 heartbeat IPC: 3.569 cumulative IPC: 0.852 (Simulation time: 00 hr 17 min 21 sec)
Heartbeat CPU 0 instructions: 121500683 cycles: 94703595 heartbeat IPC: 3.497 cumulative IPC: 0.8565 (Simulation time: 00 hr 17 min 24 sec)
Heartbeat CPU 0 instructions: 122000684 cycles: 94832778 heartbeat IPC: 3.87 cumulative IPC: 0.8612 (Simulation time: 00 hr 17 min 28 sec)
Heartbeat CPU 0 instructions: 122500686 cycles: 94962010 heartbeat IPC: 3.869 cumulative IPC: 0.8658 (Simulation time: 00 hr 17 min 31 sec)
Heartbeat CPU 0 instructions: 123000691 cycles: 95078977 heartbeat IPC: 4.275 cumulative IPC: 0.8706 (Simulation time: 00 hr 17 min 34 sec)
Heartbeat CPU 0 instructions: 123500698 cycles: 95210904 heartbeat IPC: 3.79 cumulative IPC: 0.8752 (Simulation time: 00 hr 17 min 38 sec)
Heartbeat CPU 0 instructions: 124000700 cycles: 95346800 heartbeat IPC: 3.679 cumulative IPC: 0.8797 (Simulation time: 00 hr 17 min 41 sec)
Heartbeat CPU 0 instructions: 124500704 cycles: 95480340 heartbeat IPC: 3.744 cumulative IPC: 0.8842 (Simulation time: 00 hr 17 min 45 sec)
Heartbeat CPU 0 instructions: 125000704 cycles: 96768656 heartbeat IPC: 0.3881 cumulative IPC: 0.8768 (Simulation time: 00 hr 17 min 56 sec)
Heartbeat CPU 0 instructions: 125500704 cycles: 98438152 heartbeat IPC: 0.2995 cumulative IPC: 0.8657 (Simulation time: 00 hr 18 min 09 sec)
Heartbeat CPU 0 instructions: 126000704 cycles: 98905462 heartbeat IPC: 1.07 cumulative IPC: 0.8668 (Simulation time: 00 hr 18 min 13 sec)
Heartbeat CPU 0 instructions: 126500705 cycles: 99187899 heartbeat IPC: 1.77 cumulative IPC: 0.8697 (Simulation time: 00 hr 18 min 16 sec)
Heartbeat CPU 0 instructions: 127000706 cycles: 99465700 heartbeat IPC: 1.8 cumulative IPC: 0.8726 (Simulation time: 00 hr 18 min 19 sec)
Heartbeat CPU 0 instructions: 127500707 cycles: 99747959 heartbeat IPC: 1.771 cumulative IPC: 0.8755 (Simulation time: 00 hr 18 min 22 sec)
Heartbeat CPU 0 instructions: 128000708 cycles: 100054143 heartbeat IPC: 1.633 cumulative IPC: 0.8781 (Simulation time: 00 hr 18 min 25 sec)
Heartbeat CPU 0 instructions: 128500710 cycles: 100360295 heartbeat IPC: 1.633 cumulative IPC: 0.8807 (Simulation time: 00 hr 18 min 28 sec)
Heartbeat CPU 0 instructions: 129000710 cycles: 100708498 heartbeat IPC: 1.436 cumulative IPC: 0.8829 (Simulation time: 00 hr 18 min 32 sec)
Heartbeat CPU 0 instructions: 129500716 cycles: 101001194 heartbeat IPC: 1.708 cumulative IPC: 0.8855 (Simulation time: 00 hr 18 min 35 sec)
Heartbeat CPU 0 instructions: 130000720 cycles: 101337223 heartbeat IPC: 1.488 cumulative IPC: 0.8878 (Simulation time: 00 hr 18 min 38 sec)
Heartbeat CPU 0 instructions: 130500726 cycles: 101652762 heartbeat IPC: 1.585 cumulative IPC: 0.8902 (Simulation time: 00 hr 18 min 41 sec)
Heartbeat CPU 0 instructions: 131000726 cycles: 101932302 heartbeat IPC: 1.789 cumulative IPC: 0.893 (Simulation time: 00 hr 18 min 44 sec)
Heartbeat CPU 0 instructions: 131500726 cycles: 102268029 heartbeat IPC: 1.489 cumulative IPC: 0.8952 (Simulation time: 00 hr 18 min 47 sec)
Heartbeat CPU 0 instructions: 132000729 cycles: 102560570 heartbeat IPC: 1.709 cumulative IPC: 0.8978 (Simulation time: 00 hr 18 min 50 sec)
Heartbeat CPU 0 instructions: 132500733 cycles: 102898916 heartbeat IPC: 1.478 cumulative IPC: 0.8999 (Simulation time: 00 hr 18 min 54 sec)
Heartbeat CPU 0 instructions: 133000740 cycles: 103258814 heartbeat IPC: 1.389 cumulative IPC: 0.9019 (Simulation time: 00 hr 18 min 57 sec)
Heartbeat CPU 0 instructions: 133500745 cycles: 103520559 heartbeat IPC: 1.91 cumulative IPC: 0.9047 (Simulation time: 00 hr 19 min 00 sec)
Heartbeat CPU 0 instructions: 134000751 cycles: 103839771 heartbeat IPC: 1.566 cumulative IPC: 0.907 (Simulation time: 00 hr 19 min 03 sec)
Heartbeat CPU 0 instructions: 134500752 cycles: 104226357 heartbeat IPC: 1.293 cumulative IPC: 0.9086 (Simulation time: 00 hr 19 min 07 sec)
Heartbeat CPU 0 instructions: 135000752 cycles: 104615759 heartbeat IPC: 1.284 cumulative IPC: 0.9102 (Simulation time: 00 hr 19 min 11 sec)
Heartbeat CPU 0 instructions: 135500754 cycles: 107284722 heartbeat IPC: 0.1873 cumulative IPC: 0.8901 (Simulation time: 00 hr 19 min 33 sec)
Heartbeat CPU 0 instructions: 136000757 cycles: 107569720 heartbeat IPC: 1.754 cumulative IPC: 0.8926 (Simulation time: 00 hr 19 min 37 sec)
Heartbeat CPU 0 instructions: 136500759 cycles: 107704665 heartbeat IPC: 3.705 cumulative IPC: 0.8966 (Simulation time: 00 hr 19 min 41 sec)
Heartbeat CPU 0 instructions: 137000760 cycles: 107834492 heartbeat IPC: 3.851 cumulative IPC: 0.9005 (Simulation time: 00 hr 19 min 44 sec)
Heartbeat CPU 0 instructions: 137500767 cycles: 107973083 heartbeat IPC: 3.608 cumulative IPC: 0.9044 (Simulation time: 00 hr 19 min 48 sec)
Heartbeat CPU 0 instructions: 138000768 cycles: 108214244 heartbeat IPC: 2.073 cumulative IPC: 0.9073 (Simulation time: 00 hr 19 min 51 sec)
Heartbeat CPU 0 instructions: 138500770 cycles: 108547387 heartbeat IPC: 1.501 cumulative IPC: 0.9094 (Simulation time: 00 hr 19 min 55 sec)
Heartbeat CPU 0 instructions: 139000770 cycles: 108870920 heartbeat IPC: 1.545 cumulative IPC: 0.9115 (Simulation time: 00 hr 19 min 59 sec)
Heartbeat CPU 0 instructions: 139500770 cycles: 109158398 heartbeat IPC: 1.739 cumulative IPC: 0.9139 (Simulation time: 00 hr 20 min 02 sec)
Heartbeat CPU 0 instructions: 140000770 cycles: 109462735 heartbeat IPC: 1.643 cumulative IPC: 0.9162 (Simulation time: 00 hr 20 min 06 sec)
Heartbeat CPU 0 instructions: 140500773 cycles: 109761432 heartbeat IPC: 1.674 cumulative IPC: 0.9185 (Simulation time: 00 hr 20 min 09 sec)
Heartbeat CPU 0 instructions: 141000774 cycles: 110059414 heartbeat IPC: 1.678 cumulative IPC: 0.9207 (Simulation time: 00 hr 20 min 13 sec)
Heartbeat CPU 0 instructions: 141500774 cycles: 110401688 heartbeat IPC: 1.461 cumulative IPC: 0.9226 (Simulation time: 00 hr 20 min 16 sec)
Heartbeat CPU 0 instructions: 142000781 cycles: 110715102 heartbeat IPC: 1.595 cumulative IPC: 0.9247 (Simulation time: 00 hr 20 min 20 sec)
Heartbeat CPU 0 instructions: 142500781 cycles: 110969690 heartbeat IPC: 1.964 cumulative IPC: 0.9274 (Simulation time: 00 hr 20 min 24 sec)
Heartbeat CPU 0 instructions: 143000784 cycles: 111203002 heartbeat IPC: 2.143 cumulative IPC: 0.9302 (Simulation time: 00 hr 20 min 27 sec)
Heartbeat CPU 0 instructions: 143500784 cycles: 111512822 heartbeat IPC: 1.614 cumulative IPC: 0.9323 (Simulation time: 00 hr 20 min 31 sec)
Heartbeat CPU 0 instructions: 144000785 cycles: 111857104 heartbeat IPC: 1.452 cumulative IPC: 0.9341 (Simulation time: 00 hr 20 min 34 sec)
Heartbeat CPU 0 instructions: 144500785 cycles: 112189559 heartbeat IPC: 1.504 cumulative IPC: 0.936 (Simulation time: 00 hr 20 min 38 sec)
Heartbeat CPU 0 instructions: 145000788 cycles: 112457297 heartbeat IPC: 1.868 cumulative IPC: 0.9384 (Simulation time: 00 hr 20 min 41 sec)
Heartbeat CPU 0 instructions: 145500788 cycles: 112765242 heartbeat IPC: 1.624 cumulative IPC: 0.9405 (Simulation time: 00 hr 20 min 45 sec)
Heartbeat CPU 0 instructions: 146000794 cycles: 113346521 heartbeat IPC: 0.8602 cumulative IPC: 0.9401 (Simulation time: 00 hr 20 min 50 sec)
Heartbeat CPU 0 instructions: 146500800 cycles: 113866387 heartbeat IPC: 0.9618 cumulative IPC: 0.9402 (Simulation time: 00 hr 20 min 54 sec)
Heartbeat CPU 0 instructions: 147000804 cycles: 114203569 heartbeat IPC: 1.483 cumulative IPC: 0.942 (Simulation time: 00 hr 20 min 58 sec)
Heartbeat CPU 0 instructions: 147500804 cycles: 114537154 heartbeat IPC: 1.499 cumulative IPC: 0.9438 (Simulation time: 00 hr 21 min 01 sec)
Heartbeat CPU 0 instructions: 148000806 cycles: 114853043 heartbeat IPC: 1.583 cumulative IPC: 0.9457 (Simulation time: 00 hr 21 min 04 sec)
Heartbeat CPU 0 instructions: 148500806 cycles: 115229670 heartbeat IPC: 1.328 cumulative IPC: 0.9471 (Simulation time: 00 hr 21 min 08 sec)
Heartbeat CPU 0 instructions: 149000806 cycles: 115553921 heartbeat IPC: 1.542 cumulative IPC: 0.9489 (Simulation time: 00 hr 21 min 11 sec)
Heartbeat CPU 0 instructions: 149500810 cycles: 115878353 heartbeat IPC: 1.541 cumulative IPC: 0.9508 (Simulation time: 00 hr 21 min 14 sec)
Heartbeat CPU 0 instructions: 150000813 cycles: 116166705 heartbeat IPC: 1.734 cumulative IPC: 0.9529 (Simulation time: 00 hr 21 min 17 sec)
Heartbeat CPU 0 instructions: 150500814 cycles: 116498934 heartbeat IPC: 1.505 cumulative IPC: 0.9547 (Simulation time: 00 hr 21 min 21 sec)
Heartbeat CPU 0 instructions: 151000820 cycles: 116818801 heartbeat IPC: 1.563 cumulative IPC: 0.9565 (Simulation time: 00 hr 21 min 24 sec)
Heartbeat CPU 0 instructions: 151500827 cycles: 117126877 heartbeat IPC: 1.623 cumulative IPC: 0.9584 (Simulation time: 00 hr 21 min 27 sec)
Heartbeat CPU 0 instructions: 152000827 cycles: 117315041 heartbeat IPC: 2.657 cumulative IPC: 0.9615 (Simulation time: 00 hr 21 min 29 sec)
Heartbeat CPU 0 instructions: 152500828 cycles: 117588346 heartbeat IPC: 1.829 cumulative IPC: 0.9637 (Simulation time: 00 hr 21 min 32 sec)
Heartbeat CPU 0 instructions: 153000832 cycles: 118056851 heartbeat IPC: 1.067 cumulative IPC: 0.9641 (Simulation time: 00 hr 21 min 36 sec)
Heartbeat CPU 0 instructions: 153500834 cycles: 121129552 heartbeat IPC: 0.1627 cumulative IPC: 0.9417 (Simulation time: 00 hr 22 min 00 sec)
Heartbeat CPU 0 instructions: 154000835 cycles: 121492445 heartbeat IPC: 1.378 cumulative IPC: 0.9432 (Simulation time: 00 hr 22 min 04 sec)
Heartbeat CPU 0 instructions: 154500835 cycles: 121850232 heartbeat IPC: 1.397 cumulative IPC: 0.9446 (Simulation time: 00 hr 22 min 08 sec)
Heartbeat CPU 0 instructions: 155000842 cycles: 122265328 heartbeat IPC: 1.205 cumulative IPC: 0.9456 (Simulation time: 00 hr 22 min 11 sec)
Heartbeat CPU 0 instructions: 155500843 cycles: 122610616 heartbeat IPC: 1.448 cumulative IPC: 0.9472 (Simulation time: 00 hr 22 min 15 sec)
Heartbeat CPU 0 instructions: 156000843 cycles: 122927625 heartbeat IPC: 1.577 cumulative IPC: 0.949 (Simulation time: 00 hr 22 min 18 sec)
Heartbeat CPU 0 instructions: 156500843 cycles: 123550557 heartbeat IPC: 0.8027 cumulative IPC: 0.9481 (Simulation time: 00 hr 22 min 23 sec)
Heartbeat CPU 0 instructions: 157000843 cycles: 124149493 heartbeat IPC: 0.8348 cumulative IPC: 0.9475 (Simulation time: 00 hr 22 min 28 sec)
Heartbeat CPU 0 instructions: 157500843 cycles: 124841518 heartbeat IPC: 0.7225 cumulative IPC: 0.9462 (Simulation time: 00 hr 22 min 34 sec)
Heartbeat CPU 0 instructions: 158000843 cycles: 125906984 heartbeat IPC: 0.4693 cumulative IPC: 0.9417 (Simulation time: 00 hr 22 min 42 sec)
Heartbeat CPU 0 instructions: 158500844 cycles: 127952289 heartbeat IPC: 0.2445 cumulative IPC: 0.9295 (Simulation time: 00 hr 22 min 57 sec)
Heartbeat CPU 0 instructions: 159000845 cycles: 128873112 heartbeat IPC: 0.543 cumulative IPC: 0.9265 (Simulation time: 00 hr 23 min 04 sec)
Heartbeat CPU 0 instructions: 159500850 cycles: 129415130 heartbeat IPC: 0.9225 cumulative IPC: 0.9265 (Simulation time: 00 hr 23 min 09 sec)
Heartbeat CPU 0 instructions: 160000851 cycles: 129780779 heartbeat IPC: 1.367 cumulative IPC: 0.9278 (Simulation time: 00 hr 23 min 12 sec)
Heartbeat CPU 0 instructions: 160500856 cycles: 130115533 heartbeat IPC: 1.494 cumulative IPC: 0.9294 (Simulation time: 00 hr 23 min 15 sec)
Heartbeat CPU 0 instructions: 161000863 cycles: 130431762 heartbeat IPC: 1.581 cumulative IPC: 0.9312 (Simulation time: 00 hr 23 min 18 sec)
Heartbeat CPU 0 instructions: 161500867 cycles: 130711199 heartbeat IPC: 1.789 cumulative IPC: 0.9332 (Simulation time: 00 hr 23 min 21 sec)
Heartbeat CPU 0 instructions: 162000869 cycles: 131135108 heartbeat IPC: 1.18 cumulative IPC: 0.934 (Simulation time: 00 hr 23 min 25 sec)
Heartbeat CPU 0 instructions: 162500871 cycles: 131661885 heartbeat IPC: 0.9492 cumulative IPC: 0.9341 (Simulation time: 00 hr 23 min 29 sec)
Heartbeat CPU 0 instructions: 163000872 cycles: 132025151 heartbeat IPC: 1.376 cumulative IPC: 0.9354 (Simulation time: 00 hr 23 min 33 sec)
Heartbeat CPU 0 instructions: 163500872 cycles: 132438068 heartbeat IPC: 1.211 cumulative IPC: 0.9364 (Simulation time: 00 hr 23 min 37 sec)
Heartbeat CPU 0 instructions: 164000878 cycles: 132672711 heartbeat IPC: 2.131 cumulative IPC: 0.9387 (Simulation time: 00 hr 23 min 39 sec)
Heartbeat CPU 0 instructions: 164500882 cycles: 132944569 heartbeat IPC: 1.839 cumulative IPC: 0.9407 (Simulation time: 00 hr 23 min 42 sec)
Heartbeat CPU 0 instructions: 165000885 cycles: 133265763 heartbeat IPC: 1.557 cumulative IPC: 0.9423 (Simulation time: 00 hr 23 min 45 sec)
Heartbeat CPU 0 instructions: 165500888 cycles: 133564608 heartbeat IPC: 1.673 cumulative IPC: 0.9441 (Simulation time: 00 hr 23 min 48 sec)
Heartbeat CPU 0 instructions: 166000889 cycles: 133913031 heartbeat IPC: 1.435 cumulative IPC: 0.9455 (Simulation time: 00 hr 23 min 51 sec)
Heartbeat CPU 0 instructions: 166500891 cycles: 134247349 heartbeat IPC: 1.496 cumulative IPC: 0.947 (Simulation time: 00 hr 23 min 54 sec)
Heartbeat CPU 0 instructions: 167000895 cycles: 134563634 heartbeat IPC: 1.581 cumulative IPC: 0.9486 (Simulation time: 00 hr 23 min 57 sec)
Heartbeat CPU 0 instructions: 167500900 cycles: 134885599 heartbeat IPC: 1.553 cumulative IPC: 0.9502 (Simulation time: 00 hr 24 min 00 sec)
Heartbeat CPU 0 instructions: 168000907 cycles: 135264904 heartbeat IPC: 1.318 cumulative IPC: 0.9513 (Simulation time: 00 hr 24 min 03 sec)
Heartbeat CPU 0 instructions: 168500908 cycles: 135549965 heartbeat IPC: 1.754 cumulative IPC: 0.9532 (Simulation time: 00 hr 24 min 06 sec)
Heartbeat CPU 0 instructions: 169000909 cycles: 135867269 heartbeat IPC: 1.576 cumulative IPC: 0.9547 (Simulation time: 00 hr 24 min 09 sec)
Heartbeat CPU 0 instructions: 169500910 cycles: 136164142 heartbeat IPC: 1.684 cumulative IPC: 0.9565 (Simulation time: 00 hr 24 min 12 sec)
Heartbeat CPU 0 instructions: 170000915 cycles: 136507341 heartbeat IPC: 1.457 cumulative IPC: 0.9578 (Simulation time: 00 hr 24 min 15 sec)
Heartbeat CPU 0 instructions: 170500920 cycles: 136803824 heartbeat IPC: 1.686 cumulative IPC: 0.9596 (Simulation time: 00 hr 24 min 18 sec)
Heartbeat CPU 0 instructions: 171000920 cycles: 137163190 heartbeat IPC: 1.391 cumulative IPC: 0.9608 (Simulation time: 00 hr 24 min 22 sec)
Heartbeat CPU 0 instructions: 171500920 cycles: 137439174 heartbeat IPC: 1.812 cumulative IPC: 0.9627 (Simulation time: 00 hr 24 min 24 sec)
Heartbeat CPU 0 instructions: 172000925 cycles: 137739309 heartbeat IPC: 1.666 cumulative IPC: 0.9643 (Simulation time: 00 hr 24 min 28 sec)
Heartbeat CPU 0 instructions: 172500925 cycles: 138201140 heartbeat IPC: 1.083 cumulative IPC: 0.9648 (Simulation time: 00 hr 24 min 31 sec)
Heartbeat CPU 0 instructions: 173000927 cycles: 140671821 heartbeat IPC: 0.2024 cumulative IPC: 0.9502 (Simulation time: 00 hr 24 min 52 sec)
Heartbeat CPU 0 instructions: 173500927 cycles: 141048440 heartbeat IPC: 1.328 cumulative IPC: 0.9513 (Simulation time: 00 hr 24 min 55 sec)
Heartbeat CPU 0 instructions: 174000932 cycles: 141426747 heartbeat IPC: 1.322 cumulative IPC: 0.9524 (Simulation time: 00 hr 24 min 58 sec)
Heartbeat CPU 0 instructions: 174500932 cycles: 141774293 heartbeat IPC: 1.439 cumulative IPC: 0.9537 (Simulation time: 00 hr 25 min 02 sec)
Heartbeat CPU 0 instructions: 175000933 cycles: 142104766 heartbeat IPC: 1.513 cumulative IPC: 0.9551 (Simulation time: 00 hr 25 min 05 sec)
Heartbeat CPU 0 instructions: 175500935 cycles: 142462047 heartbeat IPC: 1.399 cumulative IPC: 0.9563 (Simulation time: 00 hr 25 min 08 sec)
Heartbeat CPU 0 instructions: 176000936 cycles: 142779324 heartbeat IPC: 1.576 cumulative IPC: 0.9578 (Simulation time: 00 hr 25 min 11 sec)
Heartbeat CPU 0 instructions: 176500942 cycles: 143192647 heartbeat IPC: 1.21 cumulative IPC: 0.9586 (Simulation time: 00 hr 25 min 14 sec)
Heartbeat CPU 0 instructions: 177000943 cycles: 143475182 heartbeat IPC: 1.77 cumulative IPC: 0.9603 (Simulation time: 00 hr 25 min 17 sec)
Heartbeat CPU 0 instructions: 177500943 cycles: 144108967 heartbeat IPC: 0.7889 cumulative IPC: 0.9595 (Simulation time: 00 hr 25 min 22 sec)
Heartbeat CPU 0 instructions: 178000944 cycles: 146274858 heartbeat IPC: 0.2309 cumulative IPC: 0.9478 (Simulation time: 00 hr 25 min 40 sec)
Heartbeat CPU 0 instructions: 178500944 cycles: 146931482 heartbeat IPC: 0.7615 cumulative IPC: 0.9469 (Simulation time: 00 hr 25 min 45 sec)
Heartbeat CPU 0 instructions: 179000950 cycles: 148475195 heartbeat IPC: 0.3239 cumulative IPC: 0.9399 (Simulation time: 00 hr 25 min 55 sec)
Heartbeat CPU 0 instructions: 179500952 cycles: 149774942 heartbeat IPC: 0.3847 cumulative IPC: 0.9347 (Simulation time: 00 hr 26 min 06 sec)
Heartbeat CPU 0 instructions: 180000952 cycles: 150606824 heartbeat IPC: 0.601 cumulative IPC: 0.9327 (Simulation time: 00 hr 26 min 13 sec)
Heartbeat CPU 0 instructions: 180500952 cycles: 151010765 heartbeat IPC: 1.238 cumulative IPC: 0.9336 (Simulation time: 00 hr 26 min 17 sec)
Heartbeat CPU 0 instructions: 181000952 cycles: 151389279 heartbeat IPC: 1.321 cumulative IPC: 0.9346 (Simulation time: 00 hr 26 min 21 sec)
Heartbeat CPU 0 instructions: 181500954 cycles: 151767196 heartbeat IPC: 1.323 cumulative IPC: 0.9357 (Simulation time: 00 hr 26 min 25 sec)
Heartbeat CPU 0 instructions: 182000955 cycles: 152183836 heartbeat IPC: 1.2 cumulative IPC: 0.9365 (Simulation time: 00 hr 26 min 30 sec)
Heartbeat CPU 0 instructions: 182500955 cycles: 152630463 heartbeat IPC: 1.12 cumulative IPC: 0.937 (Simulation time: 00 hr 26 min 34 sec)
Heartbeat CPU 0 instructions: 183000955 cycles: 152930540 heartbeat IPC: 1.666 cumulative IPC: 0.9386 (Simulation time: 00 hr 26 min 38 sec)
Heartbeat CPU 0 instructions: 183500956 cycles: 153232939 heartbeat IPC: 1.653 cumulative IPC: 0.9401 (Simulation time: 00 hr 26 min 41 sec)
Heartbeat CPU 0 instructions: 184000957 cycles: 153540541 heartbeat IPC: 1.625 cumulative IPC: 0.9416 (Simulation time: 00 hr 26 min 45 sec)
Heartbeat CPU 0 instructions: 184500960 cycles: 153851121 heartbeat IPC: 1.61 cumulative IPC: 0.943 (Simulation time: 00 hr 26 min 48 sec)
Heartbeat CPU 0 instructions: 185000960 cycles: 154456173 heartbeat IPC: 0.8264 cumulative IPC: 0.9425 (Simulation time: 00 hr 26 min 53 sec)
Heartbeat CPU 0 instructions: 185500960 cycles: 155437725 heartbeat IPC: 0.5094 cumulative IPC: 0.9396 (Simulation time: 00 hr 27 min 00 sec)
Heartbeat CPU 0 instructions: 186000964 cycles: 157620228 heartbeat IPC: 0.2291 cumulative IPC: 0.929 (Simulation time: 00 hr 27 min 16 sec)
Heartbeat CPU 0 instructions: 186500965 cycles: 157976686 heartbeat IPC: 1.403 cumulative IPC: 0.9302 (Simulation time: 00 hr 27 min 19 sec)
Heartbeat CPU 0 instructions: 187000965 cycles: 158289230 heartbeat IPC: 1.6 cumulative IPC: 0.9316 (Simulation time: 00 hr 27 min 21 sec)
Heartbeat CPU 0 instructions: 187500972 cycles: 158587058 heartbeat IPC: 1.679 cumulative IPC: 0.9331 (Simulation time: 00 hr 27 min 24 sec)
Heartbeat CPU 0 instructions: 188000973 cycles: 160033135 heartbeat IPC: 0.3458 cumulative IPC: 0.9274 (Simulation time: 00 hr 27 min 33 sec)
Heartbeat CPU 0 instructions: 188500974 cycles: 161838458 heartbeat IPC: 0.277 cumulative IPC: 0.9196 (Simulation time: 00 hr 27 min 43 sec)
Heartbeat CPU 0 instructions: 189000974 cycles: 163110898 heartbeat IPC: 0.3929 cumulative IPC: 0.9152 (Simulation time: 00 hr 27 min 51 sec)
Heartbeat CPU 0 instructions: 189500974 cycles: 164110182 heartbeat IPC: 0.5004 cumulative IPC: 0.9125 (Simulation time: 00 hr 27 min 58 sec)
Heartbeat CPU 0 instructions: 190000974 cycles: 165086099 heartbeat IPC: 0.5123 cumulative IPC: 0.9099 (Simulation time: 00 hr 28 min 05 sec)
Heartbeat CPU 0 instructions: 190500981 cycles: 166473469 heartbeat IPC: 0.3604 cumulative IPC: 0.905 (Simulation time: 00 hr 28 min 14 sec)
Heartbeat CPU 0 instructions: 191000983 cycles: 167482766 heartbeat IPC: 0.4954 cumulative IPC: 0.9024 (Simulation time: 00 hr 28 min 20 sec)
Heartbeat CPU 0 instructions: 191500983 cycles: 168996029 heartbeat IPC: 0.3304 cumulative IPC: 0.8969 (Simulation time: 00 hr 28 min 30 sec)
Heartbeat CPU 0 instructions: 192000983 cycles: 170418558 heartbeat IPC: 0.3515 cumulative IPC: 0.892 (Simulation time: 00 hr 28 min 39 sec)
Heartbeat CPU 0 instructions: 192500984 cycles: 172360932 heartbeat IPC: 0.2574 cumulative IPC: 0.8844 (Simulation time: 00 hr 28 min 53 sec)
Heartbeat CPU 0 instructions: 193000984 cycles: 172750112 heartbeat IPC: 1.285 cumulative IPC: 0.8853 (Simulation time: 00 hr 28 min 56 sec)
Heartbeat CPU 0 instructions: 193500988 cycles: 173097061 heartbeat IPC: 1.441 cumulative IPC: 0.8865 (Simulation time: 00 hr 28 min 59 sec)
Heartbeat CPU 0 instructions: 194000990 cycles: 173695462 heartbeat IPC: 0.8356 cumulative IPC: 0.8863 (Simulation time: 00 hr 29 min 04 sec)
Heartbeat CPU 0 instructions: 194500996 cycles: 174613436 heartbeat IPC: 0.5447 cumulative IPC: 0.8844 (Simulation time: 00 hr 29 min 10 sec)
Heartbeat CPU 0 instructions: 195000996 cycles: 175221185 heartbeat IPC: 0.8227 cumulative IPC: 0.8842 (Simulation time: 00 hr 29 min 15 sec)
Heartbeat CPU 0 instructions: 195501001 cycles: 175804691 heartbeat IPC: 0.8569 cumulative IPC: 0.8841 (Simulation time: 00 hr 29 min 19 sec)
Heartbeat CPU 0 instructions: 196001003 cycles: 176311864 heartbeat IPC: 0.9859 cumulative IPC: 0.8844 (Simulation time: 00 hr 29 min 24 sec)
Heartbeat CPU 0 instructions: 196501006 cycles: 176879361 heartbeat IPC: 0.8811 cumulative IPC: 0.8844 (Simulation time: 00 hr 29 min 28 sec)
Heartbeat CPU 0 instructions: 197001010 cycles: 177304490 heartbeat IPC: 1.176 cumulative IPC: 0.8851 (Simulation time: 00 hr 29 min 32 sec)
Heartbeat CPU 0 instructions: 197501010 cycles: 177830462 heartbeat IPC: 0.9506 cumulative IPC: 0.8853 (Simulation time: 00 hr 29 min 37 sec)
Heartbeat CPU 0 instructions: 198001012 cycles: 178385211 heartbeat IPC: 0.9013 cumulative IPC: 0.8854 (Simulation time: 00 hr 29 min 41 sec)
Heartbeat CPU 0 instructions: 198501014 cycles: 179564284 heartbeat IPC: 0.4241 cumulative IPC: 0.8822 (Simulation time: 00 hr 29 min 49 sec)
Heartbeat CPU 0 instructions: 199001016 cycles: 180104690 heartbeat IPC: 0.9252 cumulative IPC: 0.8823 (Simulation time: 00 hr 29 min 53 sec)
Heartbeat CPU 0 instructions: 199501016 cycles: 180955824 heartbeat IPC: 0.5875 cumulative IPC: 0.8808 (Simulation time: 00 hr 29 min 59 sec)
Heartbeat CPU 0 instructions: 200001019 cycles: 181938562 heartbeat IPC: 0.5088 cumulative IPC: 0.8787 (Simulation time: 00 hr 30 min 07 sec)
Heartbeat CPU 0 instructions: 200501019 cycles: 182752309 heartbeat IPC: 0.6144 cumulative IPC: 0.8774 (Simulation time: 00 hr 30 min 15 sec)
Heartbeat CPU 0 instructions: 201001019 cycles: 183451498 heartbeat IPC: 0.7151 cumulative IPC: 0.8768 (Simulation time: 00 hr 30 min 21 sec)
Heartbeat CPU 0 instructions: 201501026 cycles: 184465861 heartbeat IPC: 0.4929 cumulative IPC: 0.8745 (Simulation time: 00 hr 30 min 28 sec)
Heartbeat CPU 0 instructions: 202001026 cycles: 184832607 heartbeat IPC: 1.363 cumulative IPC: 0.8755 (Simulation time: 00 hr 30 min 31 sec)
Heartbeat CPU 0 instructions: 202501028 cycles: 187012439 heartbeat IPC: 0.2294 cumulative IPC: 0.8675 (Simulation time: 00 hr 30 min 47 sec)
Heartbeat CPU 0 instructions: 203001033 cycles: 188288167 heartbeat IPC: 0.3919 cumulative IPC: 0.8641 (Simulation time: 00 hr 30 min 55 sec)
Heartbeat CPU 0 instructions: 203501036 cycles: 188539084 heartbeat IPC: 1.993 cumulative IPC: 0.8657 (Simulation time: 00 hr 30 min 58 sec)
Heartbeat CPU 0 instructions: 204001036 cycles: 188782085 heartbeat IPC: 2.058 cumulative IPC: 0.8673 (Simulation time: 00 hr 31 min 00 sec)
Heartbeat CPU 0 instructions: 204501038 cycles: 188998008 heartbeat IPC: 2.316 cumulative IPC: 0.8691 (Simulation time: 00 hr 31 min 03 sec)
Heartbeat CPU 0 instructions: 205001041 cycles: 189231045 heartbeat IPC: 2.146 cumulative IPC: 0.8708 (Simulation time: 00 hr 31 min 05 sec)
Heartbeat CPU 0 instructions: 205501043 cycles: 189811940 heartbeat IPC: 0.8607 cumulative IPC: 0.8707 (Simulation time: 00 hr 31 min 09 sec)
Heartbeat CPU 0 instructions: 206001045 cycles: 191275115 heartbeat IPC: 0.3417 cumulative IPC: 0.8664 (Simulation time: 00 hr 31 min 20 sec)
Heartbeat CPU 0 instructions: 206501045 cycles: 191889171 heartbeat IPC: 0.8143 cumulative IPC: 0.8663 (Simulation time: 00 hr 31 min 25 sec)
Heartbeat CPU 0 instructions: 207001047 cycles: 193199767 heartbeat IPC: 0.3815 cumulative IPC: 0.8628 (Simulation time: 00 hr 31 min 33 sec)
Heartbeat CPU 0 instructions: 207501052 cycles: 193686368 heartbeat IPC: 1.028 cumulative IPC: 0.8632 (Simulation time: 00 hr 31 min 37 sec)
Heartbeat CPU 0 instructions: 208001052 cycles: 194525339 heartbeat IPC: 0.596 cumulative IPC: 0.862 (Simulation time: 00 hr 31 min 43 sec)
Heartbeat CPU 0 instructions: 208501057 cycles: 196777790 heartbeat IPC: 0.222 cumulative IPC: 0.8542 (Simulation time: 00 hr 31 min 57 sec)
Heartbeat CPU 0 instructions: 209001064 cycles: 198544510 heartbeat IPC: 0.283 cumulative IPC: 0.8488 (Simulation time: 00 hr 32 min 12 sec)
Heartbeat CPU 0 instructions: 209501064 cycles: 199943028 heartbeat IPC: 0.3575 cumulative IPC: 0.8452 (Simulation time: 00 hr 32 min 25 sec)
Heartbeat CPU 0 instructions: 210001068 cycles: 200380654 heartbeat IPC: 1.143 cumulative IPC: 0.8459 (Simulation time: 00 hr 32 min 29 sec)
Heartbeat CPU 0 instructions: 210501075 cycles: 200809833 heartbeat IPC: 1.165 cumulative IPC: 0.8466 (Simulation time: 00 hr 32 min 33 sec)
Heartbeat CPU 0 instructions: 211001077 cycles: 201263633 heartbeat IPC: 1.102 cumulative IPC: 0.8472 (Simulation time: 00 hr 32 min 37 sec)
Heartbeat CPU 0 instructions: 211501081 cycles: 201671289 heartbeat IPC: 1.227 cumulative IPC: 0.848 (Simulation time: 00 hr 32 min 41 sec)
Heartbeat CPU 0 instructions: 212001083 cycles: 202523269 heartbeat IPC: 0.5869 cumulative IPC: 0.8469 (Simulation time: 00 hr 32 min 48 sec)
Heartbeat CPU 0 instructions: 212501087 cycles: 203070277 heartbeat IPC: 0.9141 cumulative IPC: 0.847 (Simulation time: 00 hr 32 min 52 sec)
Heartbeat CPU 0 instructions: 213001088 cycles: 203945719 heartbeat IPC: 0.5711 cumulative IPC: 0.8458 (Simulation time: 00 hr 32 min 57 sec)
Heartbeat CPU 0 instructions: 213501089 cycles: 205167983 heartbeat IPC: 0.4091 cumulative IPC: 0.843 (Simulation time: 00 hr 33 min 05 sec)
Heartbeat CPU 0 instructions: 214001094 cycles: 206368067 heartbeat IPC: 0.4166 cumulative IPC: 0.8404 (Simulation time: 00 hr 33 min 13 sec)
Heartbeat CPU 0 instructions: 214501094 cycles: 207492470 heartbeat IPC: 0.4447 cumulative IPC: 0.8382 (Simulation time: 00 hr 33 min 20 sec)
Heartbeat CPU 0 instructions: 215001101 cycles: 209175281 heartbeat IPC: 0.2971 cumulative IPC: 0.8336 (Simulation time: 00 hr 33 min 30 sec)
Heartbeat CPU 0 instructions: 215501102 cycles: 210509371 heartbeat IPC: 0.3748 cumulative IPC: 0.8305 (Simulation time: 00 hr 33 min 40 sec)
Heartbeat CPU 0 instructions: 216001104 cycles: 211865537 heartbeat IPC: 0.3687 cumulative IPC: 0.8274 (Simulation time: 00 hr 33 min 50 sec)
Heartbeat CPU 0 instructions: 216501105 cycles: 214584277 heartbeat IPC: 0.1839 cumulative IPC: 0.8188 (Simulation time: 00 hr 34 min 05 sec)
Heartbeat CPU 0 instructions: 217001111 cycles: 216939928 heartbeat IPC: 0.2123 cumulative IPC: 0.8118 (Simulation time: 00 hr 34 min 20 sec)
Heartbeat CPU 0 instructions: 217501112 cycles: 218407548 heartbeat IPC: 0.3407 cumulative IPC: 0.8085 (Simulation time: 00 hr 34 min 29 sec)
Heartbeat CPU 0 instructions: 218001113 cycles: 218841834 heartbeat IPC: 1.151 cumulative IPC: 0.8092 (Simulation time: 00 hr 34 min 34 sec)
Heartbeat CPU 0 instructions: 218501113 cycles: 219268822 heartbeat IPC: 1.171 cumulative IPC: 0.8099 (Simulation time: 00 hr 34 min 38 sec)
Heartbeat CPU 0 instructions: 219001114 cycles: 219689032 heartbeat IPC: 1.19 cumulative IPC: 0.8107 (Simulation time: 00 hr 34 min 42 sec)
Heartbeat CPU 0 instructions: 219501116 cycles: 220101178 heartbeat IPC: 1.213 cumulative IPC: 0.8115 (Simulation time: 00 hr 34 min 46 sec)
Heartbeat CPU 0 instructions: 220001116 cycles: 220518686 heartbeat IPC: 1.198 cumulative IPC: 0.8123 (Simulation time: 00 hr 34 min 50 sec)
Heartbeat CPU 0 instructions: 220501117 cycles: 220920441 heartbeat IPC: 1.245 cumulative IPC: 0.8131 (Simulation time: 00 hr 34 min 54 sec)
Heartbeat CPU 0 instructions: 221001120 cycles: 222150478 heartbeat IPC: 0.4065 cumulative IPC: 0.8107 (Simulation time: 00 hr 35 min 06 sec)
Heartbeat CPU 0 instructions: 221501122 cycles: 222481199 heartbeat IPC: 1.512 cumulative IPC: 0.8118 (Simulation time: 00 hr 35 min 10 sec)
Heartbeat CPU 0 instructions: 222001127 cycles: 222806442 heartbeat IPC: 1.537 cumulative IPC: 0.8129 (Simulation time: 00 hr 35 min 14 sec)
Heartbeat CPU 0 instructions: 222501129 cycles: 223130514 heartbeat IPC: 1.543 cumulative IPC: 0.814 (Simulation time: 00 hr 35 min 17 sec)
Heartbeat CPU 0 instructions: 223001134 cycles: 223908724 heartbeat IPC: 0.6425 cumulative IPC: 0.8134 (Simulation time: 00 hr 35 min 24 sec)
Heartbeat CPU 0 instructions: 223501134 cycles: 224699135 heartbeat IPC: 0.6326 cumulative IPC: 0.8128 (Simulation time: 00 hr 35 min 30 sec)
Heartbeat CPU 0 instructions: 224001134 cycles: 225271532 heartbeat IPC: 0.8735 cumulative IPC: 0.8129 (Simulation time: 00 hr 35 min 34 sec)
Heartbeat CPU 0 instructions: 224501134 cycles: 225779377 heartbeat IPC: 0.9846 cumulative IPC: 0.8133 (Simulation time: 00 hr 35 min 38 sec)
Heartbeat CPU 0 instructions: 225001137 cycles: 226360404 heartbeat IPC: 0.8606 cumulative IPC: 0.8134 (Simulation time: 00 hr 35 min 43 sec)
Heartbeat CPU 0 instructions: 225501143 cycles: 227552009 heartbeat IPC: 0.4196 cumulative IPC: 0.8113 (Simulation time: 00 hr 35 min 53 sec)
Heartbeat CPU 0 instructions: 226001143 cycles: 228234968 heartbeat IPC: 0.7321 cumulative IPC: 0.811 (Simulation time: 00 hr 35 min 59 sec)
Heartbeat CPU 0 instructions: 226501143 cycles: 229026329 heartbeat IPC: 0.6318 cumulative IPC: 0.8104 (Simulation time: 00 hr 36 min 05 sec)
Heartbeat CPU 0 instructions: 227001148 cycles: 230164822 heartbeat IPC: 0.4392 cumulative IPC: 0.8084 (Simulation time: 00 hr 36 min 16 sec)
Heartbeat CPU 0 instructions: 227501148 cycles: 231153136 heartbeat IPC: 0.5059 cumulative IPC: 0.8071 (Simulation time: 00 hr 36 min 24 sec)
Heartbeat CPU 0 instructions: 228001149 cycles: 232438719 heartbeat IPC: 0.3889 cumulative IPC: 0.8047 (Simulation time: 00 hr 36 min 32 sec)
Heartbeat CPU 0 instructions: 228501149 cycles: 232719474 heartbeat IPC: 1.781 cumulative IPC: 0.8059 (Simulation time: 00 hr 36 min 34 sec)
Heartbeat CPU 0 instructions: 229001150 cycles: 232973881 heartbeat IPC: 1.965 cumulative IPC: 0.8072 (Simulation time: 00 hr 36 min 37 sec)
Heartbeat CPU 0 instructions: 229501153 cycles: 233204004 heartbeat IPC: 2.173 cumulative IPC: 0.8086 (Simulation time: 00 hr 36 min 39 sec)
Heartbeat CPU 0 instructions: 230001159 cycles: 233434540 heartbeat IPC: 2.169 cumulative IPC: 0.8101 (Simulation time: 00 hr 36 min 41 sec)
Heartbeat CPU 0 instructions: 230501159 cycles: 233647008 heartbeat IPC: 2.353 cumulative IPC: 0.8115 (Simulation time: 00 hr 36 min 44 sec)
Heartbeat CPU 0 instructions: 231001159 cycles: 233872523 heartbeat IPC: 2.217 cumulative IPC: 0.813 (Simulation time: 00 hr 36 min 46 sec)
Heartbeat CPU 0 instructions: 231501162 cycles: 234095628 heartbeat IPC: 2.241 cumulative IPC: 0.8144 (Simulation time: 00 hr 36 min 48 sec)
Heartbeat CPU 0 instructions: 232001166 cycles: 234325320 heartbeat IPC: 2.177 cumulative IPC: 0.8158 (Simulation time: 00 hr 36 min 51 sec)
Heartbeat CPU 0 instructions: 232501172 cycles: 234547379 heartbeat IPC: 2.252 cumulative IPC: 0.8172 (Simulation time: 00 hr 36 min 53 sec)
Heartbeat CPU 0 instructions: 233001174 cycles: 234772183 heartbeat IPC: 2.224 cumulative IPC: 0.8186 (Simulation time: 00 hr 36 min 55 sec)
Heartbeat CPU 0 instructions: 233501176 cycles: 234993070 heartbeat IPC: 2.264 cumulative IPC: 0.8201 (Simulation time: 00 hr 36 min 58 sec)
Heartbeat CPU 0 instructions: 234001177 cycles: 235215302 heartbeat IPC: 2.25 cumulative IPC: 0.8215 (Simulation time: 00 hr 37 min 00 sec)
Heartbeat CPU 0 instructions: 234501180 cycles: 235737374 heartbeat IPC: 0.9577 cumulative IPC: 0.8218 (Simulation time: 00 hr 37 min 04 sec)
Heartbeat CPU 0 instructions: 235001180 cycles: 238795198 heartbeat IPC: 0.1635 cumulative IPC: 0.8129 (Simulation time: 00 hr 37 min 24 sec)
Heartbeat CPU 0 instructions: 235501180 cycles: 240326116 heartbeat IPC: 0.3266 cumulative IPC: 0.8097 (Simulation time: 00 hr 37 min 34 sec)
Heartbeat CPU 0 instructions: 236001186 cycles: 241582048 heartbeat IPC: 0.3981 cumulative IPC: 0.8074 (Simulation time: 00 hr 37 min 42 sec)
Heartbeat CPU 0 instructions: 236501190 cycles: 242625923 heartbeat IPC: 0.479 cumulative IPC: 0.806 (Simulation time: 00 hr 37 min 49 sec)
Heartbeat CPU 0 instructions: 237001194 cycles: 243220833 heartbeat IPC: 0.8405 cumulative IPC: 0.8061 (Simulation time: 00 hr 37 min 53 sec)
Heartbeat CPU 0 instructions: 237501194 cycles: 245292379 heartbeat IPC: 0.2414 cumulative IPC: 0.8011 (Simulation time: 00 hr 38 min 07 sec)
Heartbeat CPU 0 instructions: 238001194 cycles: 248208962 heartbeat IPC: 0.1714 cumulative IPC: 0.7933 (Simulation time: 00 hr 38 min 30 sec)
Heartbeat CPU 0 instructions: 238501196 cycles: 248900887 heartbeat IPC: 0.7226 cumulative IPC: 0.7931 (Simulation time: 00 hr 38 min 36 sec)
Heartbeat CPU 0 instructions: 239001200 cycles: 249477144 heartbeat IPC: 0.8677 cumulative IPC: 0.7933 (Simulation time: 00 hr 38 min 41 sec)
Heartbeat CPU 0 instructions: 239501202 cycles: 250078188 heartbeat IPC: 0.8319 cumulative IPC: 0.7934 (Simulation time: 00 hr 38 min 47 sec)
Heartbeat CPU 0 instructions: 240001203 cycles: 250689667 heartbeat IPC: 0.8177 cumulative IPC: 0.7934 (Simulation time: 00 hr 38 min 53 sec)
Heartbeat CPU 0 instructions: 240501207 cycles: 251323669 heartbeat IPC: 0.7886 cumulative IPC: 0.7934 (Simulation time: 00 hr 38 min 59 sec)
Heartbeat CPU 0 instructions: 241001210 cycles: 252234441 heartbeat IPC: 0.549 cumulative IPC: 0.7925 (Simulation time: 00 hr 39 min 08 sec)
Heartbeat CPU 0 instructions: 241501216 cycles: 254364835 heartbeat IPC: 0.2347 cumulative IPC: 0.7876 (Simulation time: 00 hr 39 min 24 sec)
Heartbeat CPU 0 instructions: 242001218 cycles: 254971956 heartbeat IPC: 0.8236 cumulative IPC: 0.7877 (Simulation time: 00 hr 39 min 30 sec)
Heartbeat CPU 0 instructions: 242501218 cycles: 255503533 heartbeat IPC: 0.9406 cumulative IPC: 0.788 (Simulation time: 00 hr 39 min 35 sec)
Heartbeat CPU 0 instructions: 243001218 cycles: 256074860 heartbeat IPC: 0.8752 cumulative IPC: 0.7882 (Simulation time: 00 hr 39 min 40 sec)
Heartbeat CPU 0 instructions: 243501224 cycles: 256611738 heartbeat IPC: 0.9313 cumulative IPC: 0.7886 (Simulation time: 00 hr 39 min 46 sec)
Heartbeat CPU 0 instructions: 244001225 cycles: 257192848 heartbeat IPC: 0.8604 cumulative IPC: 0.7887 (Simulation time: 00 hr 39 min 52 sec)
Heartbeat CPU 0 instructions: 244501232 cycles: 257778224 heartbeat IPC: 0.8542 cumulative IPC: 0.7889 (Simulation time: 00 hr 39 min 57 sec)
Heartbeat CPU 0 instructions: 245001232 cycles: 258832699 heartbeat IPC: 0.4742 cumulative IPC: 0.7875 (Simulation time: 00 hr 40 min 06 sec)
Heartbeat CPU 0 instructions: 245501238 cycles: 259487280 heartbeat IPC: 0.7639 cumulative IPC: 0.7875 (Simulation time: 00 hr 40 min 12 sec)
Heartbeat CPU 0 instructions: 246001244 cycles: 260052200 heartbeat IPC: 0.8851 cumulative IPC: 0.7877 (Simulation time: 00 hr 40 min 17 sec)
Heartbeat CPU 0 instructions: 246501251 cycles: 260642578 heartbeat IPC: 0.8469 cumulative IPC: 0.7878 (Simulation time: 00 hr 40 min 23 sec)
Heartbeat CPU 0 instructions: 247001251 cycles: 261217691 heartbeat IPC: 0.8694 cumulative IPC: 0.788 (Simulation time: 00 hr 40 min 29 sec)
Heartbeat CPU 0 instructions: 247501253 cycles: 261838757 heartbeat IPC: 0.8051 cumulative IPC: 0.7881 (Simulation time: 00 hr 40 min 35 sec)
Heartbeat CPU 0 instructions: 248001257 cycles: 262395732 heartbeat IPC: 0.8977 cumulative IPC: 0.7883 (Simulation time: 00 hr 40 min 40 sec)
Heartbeat CPU 0 instructions: 248501261 cycles: 262925030 heartbeat IPC: 0.9447 cumulative IPC: 0.7886 (Simulation time: 00 hr 40 min 46 sec)
Heartbeat CPU 0 instructions: 249001261 cycles: 263655685 heartbeat IPC: 0.6843 cumulative IPC: 0.7883 (Simulation time: 00 hr 40 min 53 sec)
Heartbeat CPU 0 instructions: 249501264 cycles: 264485035 heartbeat IPC: 0.6029 cumulative IPC: 0.7877 (Simulation time: 00 hr 41 min 00 sec)
Simulation finished CPU 0 instructions: 200000007 cycles: 253668047 cumulative IPC: 0.7884 (Simulation time: 00 hr 41 min 04 sec)
Simulation complete CPU 0 instructions: 200000007 cycles: 253668047 cumulative IPC: 0.7884 (Simulation time: 00 hr 41 min 04 sec)

ChampSim completed all CPUs

=== Simulation ===
CPU 0 runs /local-ssd/ben/dpc4-traces/gtraces_v2/charlie_0003.champsim.gz

Region of Interest Statistics

CPU 0 cumulative IPC: 0.7884 instructions: 200000007 cycles: 253668047
CPU 0 Branch Prediction Accuracy: 94.89% MPKI: 11.91 Average ROB Occupancy at Mispredict: 37.59
Branch type MPKI
BRANCH_DIRECT_JUMP: 0.3264
BRANCH_INDIRECT: 0.3452
BRANCH_CONDITIONAL: 10.36
BRANCH_DIRECT_CALL: 0.2826
BRANCH_INDIRECT_CALL: 0.3201
BRANCH_RETURN: 0.2747

cpu0->cpu0_STLB TOTAL        ACCESS:    3931807 HIT:    3577884 MISS:     353923 MSHR_MERGE:          0
cpu0->cpu0_STLB LOAD         ACCESS:    3931807 HIT:    3577884 MISS:     353923 MSHR_MERGE:          0
cpu0->cpu0_STLB RFO          ACCESS:          0 HIT:          0 MISS:          0 MSHR_MERGE:          0
cpu0->cpu0_STLB PREFETCH     ACCESS:          0 HIT:          0 MISS:          0 MSHR_MERGE:          0
cpu0->cpu0_STLB WRITE        ACCESS:          0 HIT:          0 MISS:          0 MSHR_MERGE:          0
cpu0->cpu0_STLB TRANSLATION  ACCESS:          0 HIT:          0 MISS:          0 MSHR_MERGE:          0
cpu0->cpu0_STLB PREFETCH REQUESTED:          0 ISSUED:          0 USEFUL:          0 USELESS:          0
cpu0->cpu0_STLB AVERAGE MISS LATENCY: 205 cycles
cpu0->cpu0_L2C TOTAL        ACCESS:   20074425 HIT:   14938382 MISS:    5136043 MSHR_MERGE:    1232031
cpu0->cpu0_L2C LOAD         ACCESS:    3992888 HIT:    3216682 MISS:     776206 MSHR_MERGE:      85051
cpu0->cpu0_L2C RFO          ACCESS:     412713 HIT:     110366 MISS:     302347 MSHR_MERGE:       2013
cpu0->cpu0_L2C PREFETCH     ACCESS:   14351094 HIT:   10455903 MISS:    3895191 MSHR_MERGE:    1144967
cpu0->cpu0_L2C WRITE        ACCESS:     999840 HIT:     999646 MISS:        194 MSHR_MERGE:          0
cpu0->cpu0_L2C TRANSLATION  ACCESS:     317890 HIT:     155785 MISS:     162105 MSHR_MERGE:          0
cpu0->cpu0_L2C PREFETCH REQUESTED:   13540654 ISSUED:   12060382 USEFUL:     815204 USELESS:    1311776
cpu0->cpu0_L2C AVERAGE MISS LATENCY: 251.5 cycles
cpu0->cpu0_L1I TOTAL        ACCESS:   17315502 HIT:   16464456 MISS:     851046 MSHR_MERGE:     194700
cpu0->cpu0_L1I LOAD         ACCESS:   17315502 HIT:   16464456 MISS:     851046 MSHR_MERGE:     194700
cpu0->cpu0_L1I RFO          ACCESS:          0 HIT:          0 MISS:          0 MSHR_MERGE:          0
cpu0->cpu0_L1I PREFETCH     ACCESS:          0 HIT:          0 MISS:          0 MSHR_MERGE:          0
cpu0->cpu0_L1I WRITE        ACCESS:          0 HIT:          0 MISS:          0 MSHR_MERGE:          0
cpu0->cpu0_L1I TRANSLATION  ACCESS:          0 HIT:          0 MISS:          0 MSHR_MERGE:          0
cpu0->cpu0_L1I PREFETCH REQUESTED:          0 ISSUED:          0 USEFUL:          0 USELESS:          0
cpu0->cpu0_L1I AVERAGE MISS LATENCY: 52.7 cycles
cpu0->cpu0_L1D TOTAL        ACCESS:   67065004 HIT:   57961703 MISS:    9103301 MSHR_MERGE:    2745415
cpu0->cpu0_L1D LOAD         ACCESS:   30525281 HIT:   26575898 MISS:    3949383 MSHR_MERGE:     612835
cpu0->cpu0_L1D RFO          ACCESS:          0 HIT:          0 MISS:          0 MSHR_MERGE:          0
cpu0->cpu0_L1D PREFETCH     ACCESS:   19401092 HIT:   15965721 MISS:    3435371 MSHR_MERGE:    1144658
cpu0->cpu0_L1D WRITE        ACCESS:   16257901 HIT:   14865063 MISS:    1392838 MSHR_MERGE:     980103
cpu0->cpu0_L1D TRANSLATION  ACCESS:     880730 HIT:     555021 MISS:     325709 MSHR_MERGE:       7819
cpu0->cpu0_L1D PREFETCH REQUESTED:   23584730 ISSUED:   19401084 USEFUL:    1253647 USELESS:    1037007
cpu0->cpu0_L1D AVERAGE MISS LATENCY: 78.19 cycles
cpu0->cpu0_ITLB TOTAL        ACCESS:   13627996 HIT:   13537481 MISS:      90515 MSHR_MERGE:      37415
cpu0->cpu0_ITLB LOAD         ACCESS:   13627996 HIT:   13537481 MISS:      90515 MSHR_MERGE:      37415
cpu0->cpu0_ITLB RFO          ACCESS:          0 HIT:          0 MISS:          0 MSHR_MERGE:          0
cpu0->cpu0_ITLB PREFETCH     ACCESS:          0 HIT:          0 MISS:          0 MSHR_MERGE:          0
cpu0->cpu0_ITLB WRITE        ACCESS:          0 HIT:          0 MISS:          0 MSHR_MERGE:          0
cpu0->cpu0_ITLB TRANSLATION  ACCESS:          0 HIT:          0 MISS:          0 MSHR_MERGE:          0
cpu0->cpu0_ITLB PREFETCH REQUESTED:          0 ISSUED:          0 USEFUL:          0 USELESS:          0
cpu0->cpu0_ITLB AVERAGE MISS LATENCY: 77 cycles
cpu0->cpu0_DTLB TOTAL        ACCESS:   60452233 HIT:   55717577 MISS:    4734656 MSHR_MERGE:     855949
cpu0->cpu0_DTLB LOAD         ACCESS:   60452233 HIT:   55717577 MISS:    4734656 MSHR_MERGE:     855949
cpu0->cpu0_DTLB RFO          ACCESS:          0 HIT:          0 MISS:          0 MSHR_MERGE:          0
cpu0->cpu0_DTLB PREFETCH     ACCESS:          0 HIT:          0 MISS:          0 MSHR_MERGE:          0
cpu0->cpu0_DTLB WRITE        ACCESS:          0 HIT:          0 MISS:          0 MSHR_MERGE:          0
cpu0->cpu0_DTLB TRANSLATION  ACCESS:          0 HIT:          0 MISS:          0 MSHR_MERGE:          0
cpu0->cpu0_DTLB PREFETCH REQUESTED:          0 ISSUED:          0 USEFUL:          0 USELESS:          0
cpu0->cpu0_DTLB AVERAGE MISS LATENCY: 22.85 cycles
cpu0->LLC TOTAL        ACCESS:    7041604 HIT:    1217616 MISS:    5823988 MSHR_MERGE:     467930
cpu0->LLC LOAD         ACCESS:     691155 HIT:     124547 MISS:     566608 MSHR_MERGE:      10755
cpu0->LLC RFO          ACCESS:     300334 HIT:      18353 MISS:     281981 MSHR_MERGE:        432
cpu0->LLC PREFETCH     ACCESS:    5026481 HIT:     793148 MISS:    4233333 MSHR_MERGE:     456743
cpu0->LLC WRITE        ACCESS:     861529 HIT:     276899 MISS:     584630 MSHR_MERGE:          0
cpu0->LLC TRANSLATION  ACCESS:     162105 HIT:       4669 MISS:     157436 MSHR_MERGE:          0
cpu0->LLC PREFETCH REQUESTED:    2313298 ISSUED:    2276257 USEFUL:     500462 USELESS:    1173649
cpu0->LLC AVERAGE MISS LATENCY: 176.6 cycles

DRAM Statistics

Channel 0 RQ ROW_BUFFER_HIT:     244057
  ROW_BUFFER_MISS:    4527144
  AVG DBUS CONGESTED CYCLE: 12.34
Channel 0 WQ ROW_BUFFER_HIT:     126511
  ROW_BUFFER_MISS:     679608
  FULL:        657
Channel 0 REFRESHES ISSUED:      21138
