[VMEM] WARNING: physical memory size is smaller than virtual memory size.

*** ChampSim Multicore Out-of-Order Simulator ***
Warmup Instructions: 50000000
Simulation Instructions: 200000000
Number of CPUs: 1
Page size: 4096
Core 0: /local-ssd/ben/dpc4-traces/SPEC17/603.bwaves_s-891B.champsimtrace.xz
Off-chip DRAM Size: 64 GiB Channels: 1 Width: 64-bit Data Rate: 4807 MT/s
Heartbeat CPU 0 instructions: 500006 cycles: 106286 heartbeat IPC: 4.704 cumulative IPC: 4.704 (Simulation time: 00 hr 00 min 02 sec)
Heartbeat CPU 0 instructions: 1000011 cycles: 211587 heartbeat IPC: 4.748 cumulative IPC: 4.726 (Simulation time: 00 hr 00 min 04 sec)
Heartbeat CPU 0 instructions: 1500014 cycles: 315665 heartbeat IPC: 4.804 cumulative IPC: 4.752 (Simulation time: 00 hr 00 min 05 sec)
Heartbeat CPU 0 instructions: 2000018 cycles: 419995 heartbeat IPC: 4.793 cumulative IPC: 4.762 (Simulation time: 00 hr 00 min 07 sec)
Heartbeat CPU 0 instructions: 2500024 cycles: 524401 heartbeat IPC: 4.789 cumulative IPC: 4.767 (Simulation time: 00 hr 00 min 09 sec)
Heartbeat CPU 0 instructions: 3000031 cycles: 628716 heartbeat IPC: 4.793 cumulative IPC: 4.772 (Simulation time: 00 hr 00 min 10 sec)
Heartbeat CPU 0 instructions: 3500038 cycles: 733611 heartbeat IPC: 4.767 cumulative IPC: 4.771 (Simulation time: 00 hr 00 min 12 sec)
Heartbeat CPU 0 instructions: 4000040 cycles: 837616 heartbeat IPC: 4.807 cumulative IPC: 4.776 (Simulation time: 00 hr 00 min 13 sec)
Heartbeat CPU 0 instructions: 4500040 cycles: 942403 heartbeat IPC: 4.772 cumulative IPC: 4.775 (Simulation time: 00 hr 00 min 15 sec)
Heartbeat CPU 0 instructions: 5000043 cycles: 1046633 heartbeat IPC: 4.797 cumulative IPC: 4.777 (Simulation time: 00 hr 00 min 17 sec)
Heartbeat CPU 0 instructions: 5500050 cycles: 1150805 heartbeat IPC: 4.8 cumulative IPC: 4.779 (Simulation time: 00 hr 00 min 18 sec)
Heartbeat CPU 0 instructions: 6000055 cycles: 1255073 heartbeat IPC: 4.795 cumulative IPC: 4.781 (Simulation time: 00 hr 00 min 20 sec)
Heartbeat CPU 0 instructions: 6500058 cycles: 1359629 heartbeat IPC: 4.782 cumulative IPC: 4.781 (Simulation time: 00 hr 00 min 21 sec)
Heartbeat CPU 0 instructions: 7000063 cycles: 1464124 heartbeat IPC: 4.785 cumulative IPC: 4.781 (Simulation time: 00 hr 00 min 23 sec)
Heartbeat CPU 0 instructions: 7500063 cycles: 1568328 heartbeat IPC: 4.798 cumulative IPC: 4.782 (Simulation time: 00 hr 00 min 25 sec)
Heartbeat CPU 0 instructions: 8000070 cycles: 1672704 heartbeat IPC: 4.79 cumulative IPC: 4.783 (Simulation time: 00 hr 00 min 26 sec)
Heartbeat CPU 0 instructions: 8500071 cycles: 1777539 heartbeat IPC: 4.769 cumulative IPC: 4.782 (Simulation time: 00 hr 00 min 28 sec)
Heartbeat CPU 0 instructions: 9000075 cycles: 1881950 heartbeat IPC: 4.789 cumulative IPC: 4.782 (Simulation time: 00 hr 00 min 30 sec)
Heartbeat CPU 0 instructions: 9500076 cycles: 1986822 heartbeat IPC: 4.768 cumulative IPC: 4.782 (Simulation time: 00 hr 00 min 31 sec)
Heartbeat CPU 0 instructions: 10000080 cycles: 2091675 heartbeat IPC: 4.769 cumulative IPC: 4.781 (Simulation time: 00 hr 00 min 33 sec)
Heartbeat CPU 0 instructions: 10500083 cycles: 2196836 heartbeat IPC: 4.755 cumulative IPC: 4.78 (Simulation time: 00 hr 00 min 34 sec)
Heartbeat CPU 0 instructions: 11000086 cycles: 2300919 heartbeat IPC: 4.804 cumulative IPC: 4.781 (Simulation time: 00 hr 00 min 36 sec)
Heartbeat CPU 0 instructions: 11500086 cycles: 2406066 heartbeat IPC: 4.755 cumulative IPC: 4.78 (Simulation time: 00 hr 00 min 38 sec)
Heartbeat CPU 0 instructions: 12000088 cycles: 2510272 heartbeat IPC: 4.798 cumulative IPC: 4.78 (Simulation time: 00 hr 00 min 39 sec)
Heartbeat CPU 0 instructions: 12500088 cycles: 2614963 heartbeat IPC: 4.776 cumulative IPC: 4.78 (Simulation time: 00 hr 00 min 41 sec)
Heartbeat CPU 0 instructions: 13000091 cycles: 2719351 heartbeat IPC: 4.79 cumulative IPC: 4.781 (Simulation time: 00 hr 00 min 43 sec)
Heartbeat CPU 0 instructions: 13500095 cycles: 2823735 heartbeat IPC: 4.79 cumulative IPC: 4.781 (Simulation time: 00 hr 00 min 44 sec)
Heartbeat CPU 0 instructions: 14000095 cycles: 2928398 heartbeat IPC: 4.777 cumulative IPC: 4.781 (Simulation time: 00 hr 00 min 46 sec)
Heartbeat CPU 0 instructions: 14500096 cycles: 3032550 heartbeat IPC: 4.801 cumulative IPC: 4.781 (Simulation time: 00 hr 00 min 48 sec)
Heartbeat CPU 0 instructions: 15000100 cycles: 3136893 heartbeat IPC: 4.792 cumulative IPC: 4.782 (Simulation time: 00 hr 00 min 49 sec)
Heartbeat CPU 0 instructions: 15500100 cycles: 3241406 heartbeat IPC: 4.784 cumulative IPC: 4.782 (Simulation time: 00 hr 00 min 51 sec)
Heartbeat CPU 0 instructions: 16000106 cycles: 3345742 heartbeat IPC: 4.792 cumulative IPC: 4.782 (Simulation time: 00 hr 00 min 52 sec)
Heartbeat CPU 0 instructions: 16500113 cycles: 3449938 heartbeat IPC: 4.799 cumulative IPC: 4.783 (Simulation time: 00 hr 00 min 54 sec)
Heartbeat CPU 0 instructions: 17000119 cycles: 3554125 heartbeat IPC: 4.799 cumulative IPC: 4.783 (Simulation time: 00 hr 00 min 56 sec)
Heartbeat CPU 0 instructions: 17500124 cycles: 3658744 heartbeat IPC: 4.779 cumulative IPC: 4.783 (Simulation time: 00 hr 00 min 57 sec)
Heartbeat CPU 0 instructions: 18000127 cycles: 3763437 heartbeat IPC: 4.776 cumulative IPC: 4.783 (Simulation time: 00 hr 00 min 59 sec)
Heartbeat CPU 0 instructions: 18500131 cycles: 3868109 heartbeat IPC: 4.777 cumulative IPC: 4.783 (Simulation time: 00 hr 01 min 01 sec)
Heartbeat CPU 0 instructions: 19000137 cycles: 3972654 heartbeat IPC: 4.783 cumulative IPC: 4.783 (Simulation time: 00 hr 01 min 02 sec)
Heartbeat CPU 0 instructions: 19500139 cycles: 4076906 heartbeat IPC: 4.796 cumulative IPC: 4.783 (Simulation time: 00 hr 01 min 04 sec)
Heartbeat CPU 0 instructions: 20000139 cycles: 4181408 heartbeat IPC: 4.785 cumulative IPC: 4.783 (Simulation time: 00 hr 01 min 06 sec)
Heartbeat CPU 0 instructions: 20500139 cycles: 4285425 heartbeat IPC: 4.807 cumulative IPC: 4.784 (Simulation time: 00 hr 01 min 07 sec)
Heartbeat CPU 0 instructions: 21000141 cycles: 4389415 heartbeat IPC: 4.808 cumulative IPC: 4.784 (Simulation time: 00 hr 01 min 09 sec)
Heartbeat CPU 0 instructions: 21500141 cycles: 4493340 heartbeat IPC: 4.811 cumulative IPC: 4.785 (Simulation time: 00 hr 01 min 11 sec)
Heartbeat CPU 0 instructions: 22000143 cycles: 4597504 heartbeat IPC: 4.8 cumulative IPC: 4.785 (Simulation time: 00 hr 01 min 12 sec)
Heartbeat CPU 0 instructions: 22500144 cycles: 4701496 heartbeat IPC: 4.808 cumulative IPC: 4.786 (Simulation time: 00 hr 01 min 14 sec)
Heartbeat CPU 0 instructions: 23000144 cycles: 4806715 heartbeat IPC: 4.752 cumulative IPC: 4.785 (Simulation time: 00 hr 01 min 15 sec)
Heartbeat CPU 0 instructions: 23500151 cycles: 4911651 heartbeat IPC: 4.765 cumulative IPC: 4.785 (Simulation time: 00 hr 01 min 17 sec)
Heartbeat CPU 0 instructions: 24000151 cycles: 5016573 heartbeat IPC: 4.765 cumulative IPC: 4.784 (Simulation time: 00 hr 01 min 19 sec)
Heartbeat CPU 0 instructions: 24500153 cycles: 5121461 heartbeat IPC: 4.767 cumulative IPC: 4.784 (Simulation time: 00 hr 01 min 20 sec)
Heartbeat CPU 0 instructions: 25000156 cycles: 5226389 heartbeat IPC: 4.765 cumulative IPC: 4.783 (Simulation time: 00 hr 01 min 22 sec)
Heartbeat CPU 0 instructions: 25500156 cycles: 5330752 heartbeat IPC: 4.791 cumulative IPC: 4.784 (Simulation time: 00 hr 01 min 24 sec)
Heartbeat CPU 0 instructions: 26000162 cycles: 5434923 heartbeat IPC: 4.8 cumulative IPC: 4.784 (Simulation time: 00 hr 01 min 25 sec)
Heartbeat CPU 0 instructions: 26500167 cycles: 5539080 heartbeat IPC: 4.8 cumulative IPC: 4.784 (Simulation time: 00 hr 01 min 27 sec)
Heartbeat CPU 0 instructions: 27000172 cycles: 5643845 heartbeat IPC: 4.773 cumulative IPC: 4.784 (Simulation time: 00 hr 01 min 29 sec)
Heartbeat CPU 0 instructions: 27500179 cycles: 5748524 heartbeat IPC: 4.777 cumulative IPC: 4.784 (Simulation time: 00 hr 01 min 30 sec)
Heartbeat CPU 0 instructions: 28000179 cycles: 5852935 heartbeat IPC: 4.789 cumulative IPC: 4.784 (Simulation time: 00 hr 01 min 32 sec)
Heartbeat CPU 0 instructions: 28500185 cycles: 5956857 heartbeat IPC: 4.811 cumulative IPC: 4.784 (Simulation time: 00 hr 01 min 34 sec)
Heartbeat CPU 0 instructions: 29000185 cycles: 6061024 heartbeat IPC: 4.8 cumulative IPC: 4.785 (Simulation time: 00 hr 01 min 35 sec)
Heartbeat CPU 0 instructions: 29500185 cycles: 6165673 heartbeat IPC: 4.778 cumulative IPC: 4.785 (Simulation time: 00 hr 01 min 37 sec)
Heartbeat CPU 0 instructions: 30000189 cycles: 6270262 heartbeat IPC: 4.781 cumulative IPC: 4.785 (Simulation time: 00 hr 01 min 38 sec)
Heartbeat CPU 0 instructions: 30500192 cycles: 6374221 heartbeat IPC: 4.81 cumulative IPC: 4.785 (Simulation time: 00 hr 01 min 40 sec)
Heartbeat CPU 0 instructions: 31000198 cycles: 6478587 heartbeat IPC: 4.791 cumulative IPC: 4.785 (Simulation time: 00 hr 01 min 42 sec)
Heartbeat CPU 0 instructions: 31500205 cycles: 6583357 heartbeat IPC: 4.772 cumulative IPC: 4.785 (Simulation time: 00 hr 01 min 43 sec)
Heartbeat CPU 0 instructions: 32000205 cycles: 6687926 heartbeat IPC: 4.782 cumulative IPC: 4.785 (Simulation time: 00 hr 01 min 45 sec)
Heartbeat CPU 0 instructions: 32500207 cycles: 6792275 heartbeat IPC: 4.792 cumulative IPC: 4.785 (Simulation time: 00 hr 01 min 47 sec)
Heartbeat CPU 0 instructions: 33000208 cycles: 6896156 heartbeat IPC: 4.813 cumulative IPC: 4.785 (Simulation time: 00 hr 01 min 48 sec)
Heartbeat CPU 0 instructions: 33500210 cycles: 7000614 heartbeat IPC: 4.787 cumulative IPC: 4.785 (Simulation time: 00 hr 01 min 50 sec)
Heartbeat CPU 0 instructions: 34000216 cycles: 7105061 heartbeat IPC: 4.787 cumulative IPC: 4.785 (Simulation time: 00 hr 01 min 52 sec)
Heartbeat CPU 0 instructions: 34500216 cycles: 7209692 heartbeat IPC: 4.779 cumulative IPC: 4.785 (Simulation time: 00 hr 01 min 53 sec)
Heartbeat CPU 0 instructions: 35000217 cycles: 7313674 heartbeat IPC: 4.809 cumulative IPC: 4.786 (Simulation time: 00 hr 01 min 55 sec)
Heartbeat CPU 0 instructions: 35500222 cycles: 7417500 heartbeat IPC: 4.816 cumulative IPC: 4.786 (Simulation time: 00 hr 01 min 57 sec)
Heartbeat CPU 0 instructions: 36000226 cycles: 7521778 heartbeat IPC: 4.795 cumulative IPC: 4.786 (Simulation time: 00 hr 01 min 58 sec)
Heartbeat CPU 0 instructions: 36500230 cycles: 7626453 heartbeat IPC: 4.777 cumulative IPC: 4.786 (Simulation time: 00 hr 02 min 00 sec)
Heartbeat CPU 0 instructions: 37000230 cycles: 7730901 heartbeat IPC: 4.787 cumulative IPC: 4.786 (Simulation time: 00 hr 02 min 01 sec)
Heartbeat CPU 0 instructions: 37500233 cycles: 7835441 heartbeat IPC: 4.783 cumulative IPC: 4.786 (Simulation time: 00 hr 02 min 03 sec)
Heartbeat CPU 0 instructions: 38000240 cycles: 7940355 heartbeat IPC: 4.766 cumulative IPC: 4.786 (Simulation time: 00 hr 02 min 05 sec)
Heartbeat CPU 0 instructions: 38500242 cycles: 8044959 heartbeat IPC: 4.78 cumulative IPC: 4.786 (Simulation time: 00 hr 02 min 06 sec)
Heartbeat CPU 0 instructions: 39000242 cycles: 8149395 heartbeat IPC: 4.788 cumulative IPC: 4.786 (Simulation time: 00 hr 02 min 08 sec)
Heartbeat CPU 0 instructions: 39500245 cycles: 8254134 heartbeat IPC: 4.774 cumulative IPC: 4.786 (Simulation time: 00 hr 02 min 10 sec)
Heartbeat CPU 0 instructions: 40000245 cycles: 8358578 heartbeat IPC: 4.787 cumulative IPC: 4.786 (Simulation time: 00 hr 02 min 11 sec)
Heartbeat CPU 0 instructions: 40500249 cycles: 8462780 heartbeat IPC: 4.798 cumulative IPC: 4.786 (Simulation time: 00 hr 02 min 13 sec)
Heartbeat CPU 0 instructions: 41000254 cycles: 8567260 heartbeat IPC: 4.786 cumulative IPC: 4.786 (Simulation time: 00 hr 02 min 15 sec)
Heartbeat CPU 0 instructions: 41500258 cycles: 8671129 heartbeat IPC: 4.814 cumulative IPC: 4.786 (Simulation time: 00 hr 02 min 16 sec)
Heartbeat CPU 0 instructions: 42000261 cycles: 8775858 heartbeat IPC: 4.774 cumulative IPC: 4.786 (Simulation time: 00 hr 02 min 18 sec)
Heartbeat CPU 0 instructions: 42500263 cycles: 8880178 heartbeat IPC: 4.793 cumulative IPC: 4.786 (Simulation time: 00 hr 02 min 19 sec)
Heartbeat CPU 0 instructions: 43000267 cycles: 8985533 heartbeat IPC: 4.746 cumulative IPC: 4.785 (Simulation time: 00 hr 02 min 21 sec)
Heartbeat CPU 0 instructions: 43500268 cycles: 9089864 heartbeat IPC: 4.792 cumulative IPC: 4.786 (Simulation time: 00 hr 02 min 23 sec)
Heartbeat CPU 0 instructions: 44000272 cycles: 9194234 heartbeat IPC: 4.791 cumulative IPC: 4.786 (Simulation time: 00 hr 02 min 24 sec)
Heartbeat CPU 0 instructions: 44500279 cycles: 9298530 heartbeat IPC: 4.794 cumulative IPC: 4.786 (Simulation time: 00 hr 02 min 26 sec)
Heartbeat CPU 0 instructions: 45000282 cycles: 9402953 heartbeat IPC: 4.788 cumulative IPC: 4.786 (Simulation time: 00 hr 02 min 27 sec)
Heartbeat CPU 0 instructions: 45500282 cycles: 9507170 heartbeat IPC: 4.798 cumulative IPC: 4.786 (Simulation time: 00 hr 02 min 29 sec)
Heartbeat CPU 0 instructions: 46000286 cycles: 9611527 heartbeat IPC: 4.791 cumulative IPC: 4.786 (Simulation time: 00 hr 02 min 30 sec)
Heartbeat CPU 0 instructions: 46500293 cycles: 9715842 heartbeat IPC: 4.793 cumulative IPC: 4.786 (Simulation time: 00 hr 02 min 32 sec)
Heartbeat CPU 0 instructions: 47000297 cycles: 9820083 heartbeat IPC: 4.797 cumulative IPC: 4.786 (Simulation time: 00 hr 02 min 33 sec)
Heartbeat CPU 0 instructions: 47500299 cycles: 9924519 heartbeat IPC: 4.788 cumulative IPC: 4.786 (Simulation time: 00 hr 02 min 35 sec)
Heartbeat CPU 0 instructions: 48000305 cycles: 10028855 heartbeat IPC: 4.792 cumulative IPC: 4.786 (Simulation time: 00 hr 02 min 36 sec)
Heartbeat CPU 0 instructions: 48500311 cycles: 10133230 heartbeat IPC: 4.79 cumulative IPC: 4.786 (Simulation time: 00 hr 02 min 38 sec)
Heartbeat CPU 0 instructions: 49000316 cycles: 10237416 heartbeat IPC: 4.799 cumulative IPC: 4.786 (Simulation time: 00 hr 02 min 39 sec)
Heartbeat CPU 0 instructions: 49500321 cycles: 10341820 heartbeat IPC: 4.789 cumulative IPC: 4.786 (Simulation time: 00 hr 02 min 41 sec)
Warmup finished CPU 0 instructions: 50000007 cycles: 10446137 cumulative IPC: 4.786 (Simulation time: 00 hr 02 min 42 sec)
Warmup complete CPU 0 instructions: 50000007 cycles: 10446137 cumulative IPC: 4.786 (Simulation time: 00 hr 02 min 42 sec)
Heartbeat CPU 0 instructions: 50000324 cycles: 10446242 heartbeat IPC: 4.788 cumulative IPC: 3.019 (Simulation time: 00 hr 02 min 42 sec)
Heartbeat CPU 0 instructions: 50500324 cycles: 10689512 heartbeat IPC: 2.055 cumulative IPC: 2.056 (Simulation time: 00 hr 02 min 45 sec)
Heartbeat CPU 0 instructions: 51000328 cycles: 10930924 heartbeat IPC: 2.071 cumulative IPC: 2.063 (Simulation time: 00 hr 02 min 47 sec)
Heartbeat CPU 0 instructions: 51500328 cycles: 11175039 heartbeat IPC: 2.048 cumulative IPC: 2.058 (Simulation time: 00 hr 02 min 49 sec)
Heartbeat CPU 0 instructions: 52000330 cycles: 11418075 heartbeat IPC: 2.057 cumulative IPC: 2.058 (Simulation time: 00 hr 02 min 52 sec)
Heartbeat CPU 0 instructions: 52500332 cycles: 11659798 heartbeat IPC: 2.068 cumulative IPC: 2.06 (Simulation time: 00 hr 02 min 54 sec)
Heartbeat CPU 0 instructions: 53000333 cycles: 11903166 heartbeat IPC: 2.055 cumulative IPC: 2.059 (Simulation time: 00 hr 02 min 56 sec)
Heartbeat CPU 0 instructions: 53500335 cycles: 12147122 heartbeat IPC: 2.05 cumulative IPC: 2.058 (Simulation time: 00 hr 02 min 59 sec)
Heartbeat CPU 0 instructions: 54000336 cycles: 12388869 heartbeat IPC: 2.068 cumulative IPC: 2.059 (Simulation time: 00 hr 03 min 01 sec)
Heartbeat CPU 0 instructions: 54500338 cycles: 12632151 heartbeat IPC: 2.055 cumulative IPC: 2.059 (Simulation time: 00 hr 03 min 03 sec)
Heartbeat CPU 0 instructions: 55000342 cycles: 12873342 heartbeat IPC: 2.073 cumulative IPC: 2.06 (Simulation time: 00 hr 03 min 06 sec)
Heartbeat CPU 0 instructions: 55500347 cycles: 13114653 heartbeat IPC: 2.072 cumulative IPC: 2.061 (Simulation time: 00 hr 03 min 08 sec)
Heartbeat CPU 0 instructions: 56000349 cycles: 13358887 heartbeat IPC: 2.047 cumulative IPC: 2.06 (Simulation time: 00 hr 03 min 10 sec)
Heartbeat CPU 0 instructions: 56500349 cycles: 13602417 heartbeat IPC: 2.053 cumulative IPC: 2.059 (Simulation time: 00 hr 03 min 13 sec)
Heartbeat CPU 0 instructions: 57000353 cycles: 13845441 heartbeat IPC: 2.057 cumulative IPC: 2.059 (Simulation time: 00 hr 03 min 15 sec)
Heartbeat CPU 0 instructions: 57500354 cycles: 14088843 heartbeat IPC: 2.054 cumulative IPC: 2.059 (Simulation time: 00 hr 03 min 17 sec)
Heartbeat CPU 0 instructions: 58000355 cycles: 14332833 heartbeat IPC: 2.049 cumulative IPC: 2.058 (Simulation time: 00 hr 03 min 20 sec)
Heartbeat CPU 0 instructions: 58500355 cycles: 14576403 heartbeat IPC: 2.053 cumulative IPC: 2.058 (Simulation time: 00 hr 03 min 22 sec)
Heartbeat CPU 0 instructions: 59000358 cycles: 14816002 heartbeat IPC: 2.087 cumulative IPC: 2.06 (Simulation time: 00 hr 03 min 24 sec)
Heartbeat CPU 0 instructions: 59500358 cycles: 15059111 heartbeat IPC: 2.057 cumulative IPC: 2.059 (Simulation time: 00 hr 03 min 27 sec)
Heartbeat CPU 0 instructions: 60000361 cycles: 15300322 heartbeat IPC: 2.073 cumulative IPC: 2.06 (Simulation time: 00 hr 03 min 29 sec)
Heartbeat CPU 0 instructions: 60500363 cycles: 15544582 heartbeat IPC: 2.047 cumulative IPC: 2.06 (Simulation time: 00 hr 03 min 31 sec)
Heartbeat CPU 0 instructions: 61000364 cycles: 15788125 heartbeat IPC: 2.053 cumulative IPC: 2.059 (Simulation time: 00 hr 03 min 34 sec)
Heartbeat CPU 0 instructions: 61500366 cycles: 16031215 heartbeat IPC: 2.057 cumulative IPC: 2.059 (Simulation time: 00 hr 03 min 36 sec)
Heartbeat CPU 0 instructions: 62000367 cycles: 16274978 heartbeat IPC: 2.051 cumulative IPC: 2.059 (Simulation time: 00 hr 03 min 38 sec)
Heartbeat CPU 0 instructions: 62500369 cycles: 16518544 heartbeat IPC: 2.053 cumulative IPC: 2.059 (Simulation time: 00 hr 03 min 41 sec)
Heartbeat CPU 0 instructions: 63000370 cycles: 16760203 heartbeat IPC: 2.069 cumulative IPC: 2.059 (Simulation time: 00 hr 03 min 43 sec)
Heartbeat CPU 0 instructions: 63500372 cycles: 17003521 heartbeat IPC: 2.055 cumulative IPC: 2.059 (Simulation time: 00 hr 03 min 45 sec)
Heartbeat CPU 0 instructions: 64000374 cycles: 17242983 heartbeat IPC: 2.088 cumulative IPC: 2.06 (Simulation time: 00 hr 03 min 48 sec)
Heartbeat CPU 0 instructions: 64500376 cycles: 17486973 heartbeat IPC: 2.049 cumulative IPC: 2.059 (Simulation time: 00 hr 03 min 50 sec)
Heartbeat CPU 0 instructions: 65000376 cycles: 17730276 heartbeat IPC: 2.055 cumulative IPC: 2.059 (Simulation time: 00 hr 03 min 52 sec)
Heartbeat CPU 0 instructions: 65500383 cycles: 17973758 heartbeat IPC: 2.054 cumulative IPC: 2.059 (Simulation time: 00 hr 03 min 55 sec)
Heartbeat CPU 0 instructions: 66000386 cycles: 18216881 heartbeat IPC: 2.057 cumulative IPC: 2.059 (Simulation time: 00 hr 03 min 57 sec)
Heartbeat CPU 0 instructions: 66500386 cycles: 18460954 heartbeat IPC: 2.049 cumulative IPC: 2.059 (Simulation time: 00 hr 03 min 59 sec)
Heartbeat CPU 0 instructions: 67000389 cycles: 18701554 heartbeat IPC: 2.078 cumulative IPC: 2.059 (Simulation time: 00 hr 04 min 02 sec)
Heartbeat CPU 0 instructions: 67500389 cycles: 18944060 heartbeat IPC: 2.062 cumulative IPC: 2.059 (Simulation time: 00 hr 04 min 04 sec)
Heartbeat CPU 0 instructions: 68000392 cycles: 19184847 heartbeat IPC: 2.077 cumulative IPC: 2.06 (Simulation time: 00 hr 04 min 06 sec)
Heartbeat CPU 0 instructions: 68500394 cycles: 19425130 heartbeat IPC: 2.081 cumulative IPC: 2.06 (Simulation time: 00 hr 04 min 09 sec)
Heartbeat CPU 0 instructions: 69000395 cycles: 19668040 heartbeat IPC: 2.058 cumulative IPC: 2.06 (Simulation time: 00 hr 04 min 11 sec)
Heartbeat CPU 0 instructions: 69500397 cycles: 19909475 heartbeat IPC: 2.071 cumulative IPC: 2.061 (Simulation time: 00 hr 04 min 13 sec)
Heartbeat CPU 0 instructions: 70000398 cycles: 20153803 heartbeat IPC: 2.046 cumulative IPC: 2.06 (Simulation time: 00 hr 04 min 16 sec)
Heartbeat CPU 0 instructions: 70500400 cycles: 20397088 heartbeat IPC: 2.055 cumulative IPC: 2.06 (Simulation time: 00 hr 04 min 18 sec)
Heartbeat CPU 0 instructions: 71000401 cycles: 20640361 heartbeat IPC: 2.055 cumulative IPC: 2.06 (Simulation time: 00 hr 04 min 21 sec)
Heartbeat CPU 0 instructions: 71500403 cycles: 20880781 heartbeat IPC: 2.08 cumulative IPC: 2.06 (Simulation time: 00 hr 04 min 23 sec)
Heartbeat CPU 0 instructions: 72000404 cycles: 21123839 heartbeat IPC: 2.057 cumulative IPC: 2.06 (Simulation time: 00 hr 04 min 25 sec)
Heartbeat CPU 0 instructions: 72500406 cycles: 21364445 heartbeat IPC: 2.078 cumulative IPC: 2.061 (Simulation time: 00 hr 04 min 28 sec)
Heartbeat CPU 0 instructions: 73000407 cycles: 21604906 heartbeat IPC: 2.079 cumulative IPC: 2.061 (Simulation time: 00 hr 04 min 30 sec)
Heartbeat CPU 0 instructions: 73500410 cycles: 21848210 heartbeat IPC: 2.055 cumulative IPC: 2.061 (Simulation time: 00 hr 04 min 32 sec)
Heartbeat CPU 0 instructions: 74000410 cycles: 22089427 heartbeat IPC: 2.073 cumulative IPC: 2.061 (Simulation time: 00 hr 04 min 35 sec)
Heartbeat CPU 0 instructions: 74500413 cycles: 22333000 heartbeat IPC: 2.053 cumulative IPC: 2.061 (Simulation time: 00 hr 04 min 37 sec)
Heartbeat CPU 0 instructions: 75000413 cycles: 22577019 heartbeat IPC: 2.049 cumulative IPC: 2.061 (Simulation time: 00 hr 04 min 39 sec)
Heartbeat CPU 0 instructions: 75500416 cycles: 22820295 heartbeat IPC: 2.055 cumulative IPC: 2.061 (Simulation time: 00 hr 04 min 42 sec)
Heartbeat CPU 0 instructions: 76000416 cycles: 23059750 heartbeat IPC: 2.088 cumulative IPC: 2.061 (Simulation time: 00 hr 04 min 44 sec)
Heartbeat CPU 0 instructions: 76500419 cycles: 23303054 heartbeat IPC: 2.055 cumulative IPC: 2.061 (Simulation time: 00 hr 04 min 46 sec)
Heartbeat CPU 0 instructions: 77000419 cycles: 23542900 heartbeat IPC: 2.085 cumulative IPC: 2.062 (Simulation time: 00 hr 04 min 49 sec)
Heartbeat CPU 0 instructions: 77500422 cycles: 23784314 heartbeat IPC: 2.071 cumulative IPC: 2.062 (Simulation time: 00 hr 04 min 51 sec)
Heartbeat CPU 0 instructions: 78000427 cycles: 24027524 heartbeat IPC: 2.056 cumulative IPC: 2.062 (Simulation time: 00 hr 04 min 53 sec)
Heartbeat CPU 0 instructions: 78500431 cycles: 24269637 heartbeat IPC: 2.065 cumulative IPC: 2.062 (Simulation time: 00 hr 04 min 56 sec)
Heartbeat CPU 0 instructions: 79000432 cycles: 24513189 heartbeat IPC: 2.053 cumulative IPC: 2.062 (Simulation time: 00 hr 04 min 58 sec)
Heartbeat CPU 0 instructions: 79500434 cycles: 24756478 heartbeat IPC: 2.055 cumulative IPC: 2.061 (Simulation time: 00 hr 05 min 00 sec)
Heartbeat CPU 0 instructions: 80000441 cycles: 24999629 heartbeat IPC: 2.056 cumulative IPC: 2.061 (Simulation time: 00 hr 05 min 03 sec)
Heartbeat CPU 0 instructions: 80500443 cycles: 25239914 heartbeat IPC: 2.081 cumulative IPC: 2.062 (Simulation time: 00 hr 05 min 05 sec)
Heartbeat CPU 0 instructions: 81000444 cycles: 25483235 heartbeat IPC: 2.055 cumulative IPC: 2.062 (Simulation time: 00 hr 05 min 07 sec)
Heartbeat CPU 0 instructions: 81500445 cycles: 25723070 heartbeat IPC: 2.085 cumulative IPC: 2.062 (Simulation time: 00 hr 05 min 10 sec)
Heartbeat CPU 0 instructions: 82000449 cycles: 25964179 heartbeat IPC: 2.074 cumulative IPC: 2.062 (Simulation time: 00 hr 05 min 12 sec)
Heartbeat CPU 0 instructions: 82500450 cycles: 26206577 heartbeat IPC: 2.063 cumulative IPC: 2.062 (Simulation time: 00 hr 05 min 14 sec)
Heartbeat CPU 0 instructions: 83000451 cycles: 26448853 heartbeat IPC: 2.064 cumulative IPC: 2.062 (Simulation time: 00 hr 05 min 17 sec)
Heartbeat CPU 0 instructions: 83500451 cycles: 26693330 heartbeat IPC: 2.045 cumulative IPC: 2.062 (Simulation time: 00 hr 05 min 19 sec)
Heartbeat CPU 0 instructions: 84000455 cycles: 26936616 heartbeat IPC: 2.055 cumulative IPC: 2.062 (Simulation time: 00 hr 05 min 21 sec)
Heartbeat CPU 0 instructions: 84500456 cycles: 27178070 heartbeat IPC: 2.071 cumulative IPC: 2.062 (Simulation time: 00 hr 05 min 24 sec)
Heartbeat CPU 0 instructions: 85000457 cycles: 27419129 heartbeat IPC: 2.074 cumulative IPC: 2.062 (Simulation time: 00 hr 05 min 26 sec)
Heartbeat CPU 0 instructions: 85500462 cycles: 27662989 heartbeat IPC: 2.05 cumulative IPC: 2.062 (Simulation time: 00 hr 05 min 28 sec)
Heartbeat CPU 0 instructions: 86000466 cycles: 27903012 heartbeat IPC: 2.083 cumulative IPC: 2.062 (Simulation time: 00 hr 05 min 31 sec)
Heartbeat CPU 0 instructions: 86500468 cycles: 28144265 heartbeat IPC: 2.073 cumulative IPC: 2.062 (Simulation time: 00 hr 05 min 33 sec)
Heartbeat CPU 0 instructions: 87000469 cycles: 28385741 heartbeat IPC: 2.071 cumulative IPC: 2.063 (Simulation time: 00 hr 05 min 35 sec)
Heartbeat CPU 0 instructions: 87500471 cycles: 28629024 heartbeat IPC: 2.055 cumulative IPC: 2.062 (Simulation time: 00 hr 05 min 38 sec)
Heartbeat CPU 0 instructions: 88000472 cycles: 28872571 heartbeat IPC: 2.053 cumulative IPC: 2.062 (Simulation time: 00 hr 05 min 40 sec)
Heartbeat CPU 0 instructions: 88500474 cycles: 29116385 heartbeat IPC: 2.051 cumulative IPC: 2.062 (Simulation time: 00 hr 05 min 42 sec)
Heartbeat CPU 0 instructions: 89000475 cycles: 29357852 heartbeat IPC: 2.071 cumulative IPC: 2.062 (Simulation time: 00 hr 05 min 45 sec)
Heartbeat CPU 0 instructions: 89500477 cycles: 29601173 heartbeat IPC: 2.055 cumulative IPC: 2.062 (Simulation time: 00 hr 05 min 47 sec)
Heartbeat CPU 0 instructions: 90000479 cycles: 29843583 heartbeat IPC: 2.063 cumulative IPC: 2.062 (Simulation time: 00 hr 05 min 49 sec)
Heartbeat CPU 0 instructions: 90500479 cycles: 30085942 heartbeat IPC: 2.063 cumulative IPC: 2.062 (Simulation time: 00 hr 05 min 52 sec)
Heartbeat CPU 0 instructions: 91000482 cycles: 30328117 heartbeat IPC: 2.065 cumulative IPC: 2.062 (Simulation time: 00 hr 05 min 54 sec)
Heartbeat CPU 0 instructions: 91500482 cycles: 30571378 heartbeat IPC: 2.055 cumulative IPC: 2.062 (Simulation time: 00 hr 05 min 56 sec)
Heartbeat CPU 0 instructions: 92000485 cycles: 30814719 heartbeat IPC: 2.055 cumulative IPC: 2.062 (Simulation time: 00 hr 05 min 59 sec)
Heartbeat CPU 0 instructions: 92500485 cycles: 31058252 heartbeat IPC: 2.053 cumulative IPC: 2.062 (Simulation time: 00 hr 06 min 01 sec)
Heartbeat CPU 0 instructions: 93000488 cycles: 31302076 heartbeat IPC: 2.051 cumulative IPC: 2.062 (Simulation time: 00 hr 06 min 03 sec)
Heartbeat CPU 0 instructions: 93500488 cycles: 31545378 heartbeat IPC: 2.055 cumulative IPC: 2.062 (Simulation time: 00 hr 06 min 06 sec)
Heartbeat CPU 0 instructions: 94000491 cycles: 31786838 heartbeat IPC: 2.071 cumulative IPC: 2.062 (Simulation time: 00 hr 06 min 08 sec)
Heartbeat CPU 0 instructions: 94500496 cycles: 32030098 heartbeat IPC: 2.055 cumulative IPC: 2.062 (Simulation time: 00 hr 06 min 10 sec)
Heartbeat CPU 0 instructions: 95000500 cycles: 32271532 heartbeat IPC: 2.071 cumulative IPC: 2.062 (Simulation time: 00 hr 06 min 13 sec)
Heartbeat CPU 0 instructions: 95500502 cycles: 32513812 heartbeat IPC: 2.064 cumulative IPC: 2.062 (Simulation time: 00 hr 06 min 15 sec)
Heartbeat CPU 0 instructions: 96000503 cycles: 32757113 heartbeat IPC: 2.055 cumulative IPC: 2.062 (Simulation time: 00 hr 06 min 18 sec)
Heartbeat CPU 0 instructions: 96500507 cycles: 33000296 heartbeat IPC: 2.056 cumulative IPC: 2.062 (Simulation time: 00 hr 06 min 20 sec)
Heartbeat CPU 0 instructions: 97000512 cycles: 33242694 heartbeat IPC: 2.063 cumulative IPC: 2.062 (Simulation time: 00 hr 06 min 22 sec)
Heartbeat CPU 0 instructions: 97500514 cycles: 33485924 heartbeat IPC: 2.056 cumulative IPC: 2.062 (Simulation time: 00 hr 06 min 25 sec)
Heartbeat CPU 0 instructions: 98000514 cycles: 33729181 heartbeat IPC: 2.055 cumulative IPC: 2.062 (Simulation time: 00 hr 06 min 27 sec)
Heartbeat CPU 0 instructions: 98500518 cycles: 33972590 heartbeat IPC: 2.054 cumulative IPC: 2.062 (Simulation time: 00 hr 06 min 29 sec)
Heartbeat CPU 0 instructions: 99000519 cycles: 34213808 heartbeat IPC: 2.073 cumulative IPC: 2.062 (Simulation time: 00 hr 06 min 32 sec)
Heartbeat CPU 0 instructions: 99500520 cycles: 34458267 heartbeat IPC: 2.045 cumulative IPC: 2.061 (Simulation time: 00 hr 06 min 34 sec)
Heartbeat CPU 0 instructions: 100000520 cycles: 34699514 heartbeat IPC: 2.073 cumulative IPC: 2.062 (Simulation time: 00 hr 06 min 36 sec)
Heartbeat CPU 0 instructions: 100500524 cycles: 34942826 heartbeat IPC: 2.055 cumulative IPC: 2.062 (Simulation time: 00 hr 06 min 39 sec)
Heartbeat CPU 0 instructions: 101000524 cycles: 35185910 heartbeat IPC: 2.057 cumulative IPC: 2.061 (Simulation time: 00 hr 06 min 41 sec)
Heartbeat CPU 0 instructions: 101500526 cycles: 35430059 heartbeat IPC: 2.048 cumulative IPC: 2.061 (Simulation time: 00 hr 06 min 43 sec)
Heartbeat CPU 0 instructions: 102000526 cycles: 35671890 heartbeat IPC: 2.068 cumulative IPC: 2.061 (Simulation time: 00 hr 06 min 46 sec)
Heartbeat CPU 0 instructions: 102500529 cycles: 35915166 heartbeat IPC: 2.055 cumulative IPC: 2.061 (Simulation time: 00 hr 06 min 48 sec)
Heartbeat CPU 0 instructions: 103000531 cycles: 36156158 heartbeat IPC: 2.075 cumulative IPC: 2.061 (Simulation time: 00 hr 06 min 50 sec)
Heartbeat CPU 0 instructions: 103500532 cycles: 36400457 heartbeat IPC: 2.047 cumulative IPC: 2.061 (Simulation time: 00 hr 06 min 53 sec)
Heartbeat CPU 0 instructions: 104000534 cycles: 36642137 heartbeat IPC: 2.069 cumulative IPC: 2.061 (Simulation time: 00 hr 06 min 55 sec)
Heartbeat CPU 0 instructions: 104500535 cycles: 36885420 heartbeat IPC: 2.055 cumulative IPC: 2.061 (Simulation time: 00 hr 06 min 57 sec)
Heartbeat CPU 0 instructions: 105000537 cycles: 37128263 heartbeat IPC: 2.059 cumulative IPC: 2.061 (Simulation time: 00 hr 07 min 00 sec)
Heartbeat CPU 0 instructions: 105500539 cycles: 37372558 heartbeat IPC: 2.047 cumulative IPC: 2.061 (Simulation time: 00 hr 07 min 02 sec)
Heartbeat CPU 0 instructions: 106000540 cycles: 37615827 heartbeat IPC: 2.055 cumulative IPC: 2.061 (Simulation time: 00 hr 07 min 04 sec)
Heartbeat CPU 0 instructions: 106500541 cycles: 37859406 heartbeat IPC: 2.053 cumulative IPC: 2.061 (Simulation time: 00 hr 07 min 07 sec)
Heartbeat CPU 0 instructions: 107000544 cycles: 38098832 heartbeat IPC: 2.088 cumulative IPC: 2.061 (Simulation time: 00 hr 07 min 09 sec)
Heartbeat CPU 0 instructions: 107500544 cycles: 38342082 heartbeat IPC: 2.055 cumulative IPC: 2.061 (Simulation time: 00 hr 07 min 11 sec)
Heartbeat CPU 0 instructions: 108000547 cycles: 38582503 heartbeat IPC: 2.08 cumulative IPC: 2.061 (Simulation time: 00 hr 07 min 14 sec)
Heartbeat CPU 0 instructions: 108500547 cycles: 38823905 heartbeat IPC: 2.071 cumulative IPC: 2.061 (Simulation time: 00 hr 07 min 16 sec)
Heartbeat CPU 0 instructions: 109000551 cycles: 39067143 heartbeat IPC: 2.056 cumulative IPC: 2.061 (Simulation time: 00 hr 07 min 18 sec)
Heartbeat CPU 0 instructions: 109500552 cycles: 39308494 heartbeat IPC: 2.072 cumulative IPC: 2.062 (Simulation time: 00 hr 07 min 21 sec)
Heartbeat CPU 0 instructions: 110000553 cycles: 39551773 heartbeat IPC: 2.055 cumulative IPC: 2.061 (Simulation time: 00 hr 07 min 23 sec)
Heartbeat CPU 0 instructions: 110500553 cycles: 39796018 heartbeat IPC: 2.047 cumulative IPC: 2.061 (Simulation time: 00 hr 07 min 25 sec)
Heartbeat CPU 0 instructions: 111000556 cycles: 40039153 heartbeat IPC: 2.056 cumulative IPC: 2.061 (Simulation time: 00 hr 07 min 28 sec)
Heartbeat CPU 0 instructions: 111500556 cycles: 40278769 heartbeat IPC: 2.087 cumulative IPC: 2.062 (Simulation time: 00 hr 07 min 30 sec)
Heartbeat CPU 0 instructions: 112000559 cycles: 40522057 heartbeat IPC: 2.055 cumulative IPC: 2.061 (Simulation time: 00 hr 07 min 32 sec)
Heartbeat CPU 0 instructions: 112500559 cycles: 40761684 heartbeat IPC: 2.087 cumulative IPC: 2.062 (Simulation time: 00 hr 07 min 35 sec)
Heartbeat CPU 0 instructions: 113000560 cycles: 41005272 heartbeat IPC: 2.053 cumulative IPC: 2.062 (Simulation time: 00 hr 07 min 37 sec)
Heartbeat CPU 0 instructions: 113500561 cycles: 41249030 heartbeat IPC: 2.051 cumulative IPC: 2.062 (Simulation time: 00 hr 07 min 40 sec)
Heartbeat CPU 0 instructions: 114000565 cycles: 41492289 heartbeat IPC: 2.055 cumulative IPC: 2.061 (Simulation time: 00 hr 07 min 42 sec)
Heartbeat CPU 0 instructions: 114500567 cycles: 41735624 heartbeat IPC: 2.055 cumulative IPC: 2.061 (Simulation time: 00 hr 07 min 44 sec)
Heartbeat CPU 0 instructions: 115000571 cycles: 41979905 heartbeat IPC: 2.047 cumulative IPC: 2.061 (Simulation time: 00 hr 07 min 47 sec)
Heartbeat CPU 0 instructions: 115500571 cycles: 42220316 heartbeat IPC: 2.08 cumulative IPC: 2.061 (Simulation time: 00 hr 07 min 49 sec)
Heartbeat CPU 0 instructions: 116000572 cycles: 42462612 heartbeat IPC: 2.064 cumulative IPC: 2.061 (Simulation time: 00 hr 07 min 51 sec)
Heartbeat CPU 0 instructions: 116500574 cycles: 42704062 heartbeat IPC: 2.071 cumulative IPC: 2.062 (Simulation time: 00 hr 07 min 54 sec)
Heartbeat CPU 0 instructions: 117000575 cycles: 42945483 heartbeat IPC: 2.071 cumulative IPC: 2.062 (Simulation time: 00 hr 07 min 56 sec)
Heartbeat CPU 0 instructions: 117500577 cycles: 43186791 heartbeat IPC: 2.072 cumulative IPC: 2.062 (Simulation time: 00 hr 07 min 58 sec)
Heartbeat CPU 0 instructions: 118000578 cycles: 43430332 heartbeat IPC: 2.053 cumulative IPC: 2.062 (Simulation time: 00 hr 08 min 01 sec)
Heartbeat CPU 0 instructions: 118500580 cycles: 43674333 heartbeat IPC: 2.049 cumulative IPC: 2.062 (Simulation time: 00 hr 08 min 03 sec)
Heartbeat CPU 0 instructions: 119000580 cycles: 43917656 heartbeat IPC: 2.055 cumulative IPC: 2.061 (Simulation time: 00 hr 08 min 05 sec)
Heartbeat CPU 0 instructions: 119500583 cycles: 44160758 heartbeat IPC: 2.057 cumulative IPC: 2.061 (Simulation time: 00 hr 08 min 08 sec)
Heartbeat CPU 0 instructions: 120000583 cycles: 44404992 heartbeat IPC: 2.047 cumulative IPC: 2.061 (Simulation time: 00 hr 08 min 10 sec)
Heartbeat CPU 0 instructions: 120500586 cycles: 44647475 heartbeat IPC: 2.062 cumulative IPC: 2.061 (Simulation time: 00 hr 08 min 12 sec)
Heartbeat CPU 0 instructions: 121000586 cycles: 44889761 heartbeat IPC: 2.064 cumulative IPC: 2.061 (Simulation time: 00 hr 08 min 15 sec)
Heartbeat CPU 0 instructions: 121500589 cycles: 45131021 heartbeat IPC: 2.072 cumulative IPC: 2.061 (Simulation time: 00 hr 08 min 17 sec)
Heartbeat CPU 0 instructions: 122000589 cycles: 45372443 heartbeat IPC: 2.071 cumulative IPC: 2.062 (Simulation time: 00 hr 08 min 19 sec)
Heartbeat CPU 0 instructions: 122500592 cycles: 45616742 heartbeat IPC: 2.047 cumulative IPC: 2.061 (Simulation time: 00 hr 08 min 22 sec)
Heartbeat CPU 0 instructions: 123000592 cycles: 45860030 heartbeat IPC: 2.055 cumulative IPC: 2.061 (Simulation time: 00 hr 08 min 24 sec)
Heartbeat CPU 0 instructions: 123500598 cycles: 46103261 heartbeat IPC: 2.056 cumulative IPC: 2.061 (Simulation time: 00 hr 08 min 26 sec)
Heartbeat CPU 0 instructions: 124000603 cycles: 46346441 heartbeat IPC: 2.056 cumulative IPC: 2.061 (Simulation time: 00 hr 08 min 29 sec)
Heartbeat CPU 0 instructions: 124500605 cycles: 46588846 heartbeat IPC: 2.063 cumulative IPC: 2.061 (Simulation time: 00 hr 08 min 31 sec)
Heartbeat CPU 0 instructions: 125000606 cycles: 46830285 heartbeat IPC: 2.071 cumulative IPC: 2.061 (Simulation time: 00 hr 08 min 33 sec)
Heartbeat CPU 0 instructions: 125500608 cycles: 47072716 heartbeat IPC: 2.062 cumulative IPC: 2.061 (Simulation time: 00 hr 08 min 36 sec)
Heartbeat CPU 0 instructions: 126000609 cycles: 47313041 heartbeat IPC: 2.081 cumulative IPC: 2.061 (Simulation time: 00 hr 08 min 38 sec)
Heartbeat CPU 0 instructions: 126500611 cycles: 47554476 heartbeat IPC: 2.071 cumulative IPC: 2.062 (Simulation time: 00 hr 08 min 40 sec)
Heartbeat CPU 0 instructions: 127000612 cycles: 47796388 heartbeat IPC: 2.067 cumulative IPC: 2.062 (Simulation time: 00 hr 08 min 43 sec)
Heartbeat CPU 0 instructions: 127500615 cycles: 48040272 heartbeat IPC: 2.05 cumulative IPC: 2.062 (Simulation time: 00 hr 08 min 45 sec)
Heartbeat CPU 0 instructions: 128000615 cycles: 48282485 heartbeat IPC: 2.064 cumulative IPC: 2.062 (Simulation time: 00 hr 08 min 47 sec)
Heartbeat CPU 0 instructions: 128500617 cycles: 48524759 heartbeat IPC: 2.064 cumulative IPC: 2.062 (Simulation time: 00 hr 08 min 50 sec)
Heartbeat CPU 0 instructions: 129000617 cycles: 48768306 heartbeat IPC: 2.053 cumulative IPC: 2.061 (Simulation time: 00 hr 08 min 52 sec)
Heartbeat CPU 0 instructions: 129500621 cycles: 49012350 heartbeat IPC: 2.049 cumulative IPC: 2.061 (Simulation time: 00 hr 08 min 54 sec)
Heartbeat CPU 0 instructions: 130000621 cycles: 49253594 heartbeat IPC: 2.073 cumulative IPC: 2.061 (Simulation time: 00 hr 08 min 57 sec)
Heartbeat CPU 0 instructions: 130500623 cycles: 49496891 heartbeat IPC: 2.055 cumulative IPC: 2.061 (Simulation time: 00 hr 08 min 59 sec)
Heartbeat CPU 0 instructions: 131000623 cycles: 49738340 heartbeat IPC: 2.071 cumulative IPC: 2.061 (Simulation time: 00 hr 09 min 01 sec)
Heartbeat CPU 0 instructions: 131500627 cycles: 49981823 heartbeat IPC: 2.054 cumulative IPC: 2.061 (Simulation time: 00 hr 09 min 04 sec)
Heartbeat CPU 0 instructions: 132000628 cycles: 50225711 heartbeat IPC: 2.05 cumulative IPC: 2.061 (Simulation time: 00 hr 09 min 06 sec)
Heartbeat CPU 0 instructions: 132500630 cycles: 50468995 heartbeat IPC: 2.055 cumulative IPC: 2.061 (Simulation time: 00 hr 09 min 08 sec)
Heartbeat CPU 0 instructions: 133000631 cycles: 50711439 heartbeat IPC: 2.062 cumulative IPC: 2.061 (Simulation time: 00 hr 09 min 11 sec)
Heartbeat CPU 0 instructions: 133500633 cycles: 50953979 heartbeat IPC: 2.062 cumulative IPC: 2.061 (Simulation time: 00 hr 09 min 13 sec)
Heartbeat CPU 0 instructions: 134000634 cycles: 51195272 heartbeat IPC: 2.072 cumulative IPC: 2.061 (Simulation time: 00 hr 09 min 15 sec)
Heartbeat CPU 0 instructions: 134500636 cycles: 51439246 heartbeat IPC: 2.049 cumulative IPC: 2.061 (Simulation time: 00 hr 09 min 18 sec)
Heartbeat CPU 0 instructions: 135000637 cycles: 51680750 heartbeat IPC: 2.07 cumulative IPC: 2.061 (Simulation time: 00 hr 09 min 20 sec)
Heartbeat CPU 0 instructions: 135500639 cycles: 51924034 heartbeat IPC: 2.055 cumulative IPC: 2.061 (Simulation time: 00 hr 09 min 23 sec)
Heartbeat CPU 0 instructions: 136000641 cycles: 52167385 heartbeat IPC: 2.055 cumulative IPC: 2.061 (Simulation time: 00 hr 09 min 25 sec)
Heartbeat CPU 0 instructions: 136500641 cycles: 52411399 heartbeat IPC: 2.049 cumulative IPC: 2.061 (Simulation time: 00 hr 09 min 27 sec)
Heartbeat CPU 0 instructions: 137000644 cycles: 52654688 heartbeat IPC: 2.055 cumulative IPC: 2.061 (Simulation time: 00 hr 09 min 30 sec)
Heartbeat CPU 0 instructions: 137500644 cycles: 52897985 heartbeat IPC: 2.055 cumulative IPC: 2.061 (Simulation time: 00 hr 09 min 32 sec)
Heartbeat CPU 0 instructions: 138000648 cycles: 53138812 heartbeat IPC: 2.076 cumulative IPC: 2.061 (Simulation time: 00 hr 09 min 34 sec)
Heartbeat CPU 0 instructions: 138500649 cycles: 53381672 heartbeat IPC: 2.059 cumulative IPC: 2.061 (Simulation time: 00 hr 09 min 37 sec)
Heartbeat CPU 0 instructions: 139000650 cycles: 53622307 heartbeat IPC: 2.078 cumulative IPC: 2.061 (Simulation time: 00 hr 09 min 39 sec)
Heartbeat CPU 0 instructions: 139500650 cycles: 53862717 heartbeat IPC: 2.08 cumulative IPC: 2.061 (Simulation time: 00 hr 09 min 41 sec)
Heartbeat CPU 0 instructions: 140000654 cycles: 54106019 heartbeat IPC: 2.055 cumulative IPC: 2.061 (Simulation time: 00 hr 09 min 44 sec)
Heartbeat CPU 0 instructions: 140500654 cycles: 54347387 heartbeat IPC: 2.072 cumulative IPC: 2.061 (Simulation time: 00 hr 09 min 46 sec)
Heartbeat CPU 0 instructions: 141000656 cycles: 54590821 heartbeat IPC: 2.054 cumulative IPC: 2.061 (Simulation time: 00 hr 09 min 48 sec)
Heartbeat CPU 0 instructions: 141500658 cycles: 54833021 heartbeat IPC: 2.064 cumulative IPC: 2.061 (Simulation time: 00 hr 09 min 51 sec)
Heartbeat CPU 0 instructions: 142000659 cycles: 55076250 heartbeat IPC: 2.056 cumulative IPC: 2.061 (Simulation time: 00 hr 09 min 53 sec)
Heartbeat CPU 0 instructions: 142500661 cycles: 55317556 heartbeat IPC: 2.072 cumulative IPC: 2.061 (Simulation time: 00 hr 09 min 55 sec)
Heartbeat CPU 0 instructions: 143000662 cycles: 55561125 heartbeat IPC: 2.053 cumulative IPC: 2.061 (Simulation time: 00 hr 09 min 58 sec)
Heartbeat CPU 0 instructions: 143500664 cycles: 55800743 heartbeat IPC: 2.087 cumulative IPC: 2.062 (Simulation time: 00 hr 10 min 00 sec)
Heartbeat CPU 0 instructions: 144000671 cycles: 56042006 heartbeat IPC: 2.072 cumulative IPC: 2.062 (Simulation time: 00 hr 10 min 02 sec)
Heartbeat CPU 0 instructions: 144500672 cycles: 56285373 heartbeat IPC: 2.055 cumulative IPC: 2.062 (Simulation time: 00 hr 10 min 05 sec)
Heartbeat CPU 0 instructions: 145000675 cycles: 56527725 heartbeat IPC: 2.063 cumulative IPC: 2.062 (Simulation time: 00 hr 10 min 07 sec)
Heartbeat CPU 0 instructions: 145500675 cycles: 56771006 heartbeat IPC: 2.055 cumulative IPC: 2.062 (Simulation time: 00 hr 10 min 09 sec)
Heartbeat CPU 0 instructions: 146000679 cycles: 57014262 heartbeat IPC: 2.055 cumulative IPC: 2.062 (Simulation time: 00 hr 10 min 12 sec)
Heartbeat CPU 0 instructions: 146500680 cycles: 57257313 heartbeat IPC: 2.057 cumulative IPC: 2.061 (Simulation time: 00 hr 10 min 14 sec)
Heartbeat CPU 0 instructions: 147000681 cycles: 57497744 heartbeat IPC: 2.08 cumulative IPC: 2.062 (Simulation time: 00 hr 10 min 16 sec)
Heartbeat CPU 0 instructions: 147500681 cycles: 57741284 heartbeat IPC: 2.053 cumulative IPC: 2.062 (Simulation time: 00 hr 10 min 19 sec)
Heartbeat CPU 0 instructions: 148000684 cycles: 57980666 heartbeat IPC: 2.089 cumulative IPC: 2.062 (Simulation time: 00 hr 10 min 21 sec)
Heartbeat CPU 0 instructions: 148500684 cycles: 58221964 heartbeat IPC: 2.072 cumulative IPC: 2.062 (Simulation time: 00 hr 10 min 23 sec)
Heartbeat CPU 0 instructions: 149000687 cycles: 58464382 heartbeat IPC: 2.063 cumulative IPC: 2.062 (Simulation time: 00 hr 10 min 26 sec)
Heartbeat CPU 0 instructions: 149500687 cycles: 58706938 heartbeat IPC: 2.061 cumulative IPC: 2.062 (Simulation time: 00 hr 10 min 28 sec)
Heartbeat CPU 0 instructions: 150000690 cycles: 58950943 heartbeat IPC: 2.049 cumulative IPC: 2.062 (Simulation time: 00 hr 10 min 31 sec)
Heartbeat CPU 0 instructions: 150500692 cycles: 59194026 heartbeat IPC: 2.057 cumulative IPC: 2.062 (Simulation time: 00 hr 10 min 33 sec)
Heartbeat CPU 0 instructions: 151000693 cycles: 59436528 heartbeat IPC: 2.062 cumulative IPC: 2.062 (Simulation time: 00 hr 10 min 35 sec)
Heartbeat CPU 0 instructions: 151500695 cycles: 59676964 heartbeat IPC: 2.08 cumulative IPC: 2.062 (Simulation time: 00 hr 10 min 38 sec)
Heartbeat CPU 0 instructions: 152000696 cycles: 59921219 heartbeat IPC: 2.047 cumulative IPC: 2.062 (Simulation time: 00 hr 10 min 40 sec)
Heartbeat CPU 0 instructions: 152500698 cycles: 60162679 heartbeat IPC: 2.071 cumulative IPC: 2.062 (Simulation time: 00 hr 10 min 42 sec)
Heartbeat CPU 0 instructions: 153000700 cycles: 60405799 heartbeat IPC: 2.057 cumulative IPC: 2.062 (Simulation time: 00 hr 10 min 45 sec)
Heartbeat CPU 0 instructions: 153500702 cycles: 60649086 heartbeat IPC: 2.055 cumulative IPC: 2.062 (Simulation time: 00 hr 10 min 47 sec)
Heartbeat CPU 0 instructions: 154000703 cycles: 60893349 heartbeat IPC: 2.047 cumulative IPC: 2.062 (Simulation time: 00 hr 10 min 49 sec)
Heartbeat CPU 0 instructions: 154500705 cycles: 61136597 heartbeat IPC: 2.056 cumulative IPC: 2.062 (Simulation time: 00 hr 10 min 52 sec)
Heartbeat CPU 0 instructions: 155000705 cycles: 61379735 heartbeat IPC: 2.056 cumulative IPC: 2.062 (Simulation time: 00 hr 10 min 54 sec)
Heartbeat CPU 0 instructions: 155500708 cycles: 61621181 heartbeat IPC: 2.071 cumulative IPC: 2.062 (Simulation time: 00 hr 10 min 56 sec)
Heartbeat CPU 0 instructions: 156000708 cycles: 61863666 heartbeat IPC: 2.062 cumulative IPC: 2.062 (Simulation time: 00 hr 10 min 59 sec)
Heartbeat CPU 0 instructions: 156500711 cycles: 62106836 heartbeat IPC: 2.056 cumulative IPC: 2.062 (Simulation time: 00 hr 11 min 01 sec)
Heartbeat CPU 0 instructions: 157000711 cycles: 62349980 heartbeat IPC: 2.056 cumulative IPC: 2.062 (Simulation time: 00 hr 11 min 03 sec)
Heartbeat CPU 0 instructions: 157500714 cycles: 62593334 heartbeat IPC: 2.055 cumulative IPC: 2.061 (Simulation time: 00 hr 11 min 06 sec)
Heartbeat CPU 0 instructions: 158000714 cycles: 62834782 heartbeat IPC: 2.071 cumulative IPC: 2.062 (Simulation time: 00 hr 11 min 08 sec)
Heartbeat CPU 0 instructions: 158500718 cycles: 63079298 heartbeat IPC: 2.045 cumulative IPC: 2.061 (Simulation time: 00 hr 11 min 11 sec)
Heartbeat CPU 0 instructions: 159000718 cycles: 63322100 heartbeat IPC: 2.059 cumulative IPC: 2.061 (Simulation time: 00 hr 11 min 13 sec)
Heartbeat CPU 0 instructions: 159500720 cycles: 63565673 heartbeat IPC: 2.053 cumulative IPC: 2.061 (Simulation time: 00 hr 11 min 15 sec)
Heartbeat CPU 0 instructions: 160000720 cycles: 63806875 heartbeat IPC: 2.073 cumulative IPC: 2.061 (Simulation time: 00 hr 11 min 18 sec)
Heartbeat CPU 0 instructions: 160500721 cycles: 64049320 heartbeat IPC: 2.062 cumulative IPC: 2.061 (Simulation time: 00 hr 11 min 20 sec)
Heartbeat CPU 0 instructions: 161000722 cycles: 64290968 heartbeat IPC: 2.069 cumulative IPC: 2.061 (Simulation time: 00 hr 11 min 22 sec)
Heartbeat CPU 0 instructions: 161500727 cycles: 64532022 heartbeat IPC: 2.074 cumulative IPC: 2.062 (Simulation time: 00 hr 11 min 25 sec)
Heartbeat CPU 0 instructions: 162000728 cycles: 64773493 heartbeat IPC: 2.071 cumulative IPC: 2.062 (Simulation time: 00 hr 11 min 27 sec)
Heartbeat CPU 0 instructions: 162500730 cycles: 65014945 heartbeat IPC: 2.071 cumulative IPC: 2.062 (Simulation time: 00 hr 11 min 29 sec)
Heartbeat CPU 0 instructions: 163000731 cycles: 65258056 heartbeat IPC: 2.057 cumulative IPC: 2.062 (Simulation time: 00 hr 11 min 32 sec)
Heartbeat CPU 0 instructions: 163500733 cycles: 65502316 heartbeat IPC: 2.047 cumulative IPC: 2.062 (Simulation time: 00 hr 11 min 34 sec)
Heartbeat CPU 0 instructions: 164000735 cycles: 65745602 heartbeat IPC: 2.055 cumulative IPC: 2.062 (Simulation time: 00 hr 11 min 36 sec)
Heartbeat CPU 0 instructions: 164500736 cycles: 65987063 heartbeat IPC: 2.071 cumulative IPC: 2.062 (Simulation time: 00 hr 11 min 39 sec)
Heartbeat CPU 0 instructions: 165000738 cycles: 66228265 heartbeat IPC: 2.073 cumulative IPC: 2.062 (Simulation time: 00 hr 11 min 41 sec)
Heartbeat CPU 0 instructions: 165500738 cycles: 66470042 heartbeat IPC: 2.068 cumulative IPC: 2.062 (Simulation time: 00 hr 11 min 43 sec)
Heartbeat CPU 0 instructions: 166000741 cycles: 66710971 heartbeat IPC: 2.075 cumulative IPC: 2.062 (Simulation time: 00 hr 11 min 46 sec)
Heartbeat CPU 0 instructions: 166500741 cycles: 66953653 heartbeat IPC: 2.06 cumulative IPC: 2.062 (Simulation time: 00 hr 11 min 48 sec)
Heartbeat CPU 0 instructions: 167000745 cycles: 67175200 heartbeat IPC: 2.257 cumulative IPC: 2.062 (Simulation time: 00 hr 11 min 50 sec)
Heartbeat CPU 0 instructions: 167500746 cycles: 67384497 heartbeat IPC: 2.389 cumulative IPC: 2.064 (Simulation time: 00 hr 11 min 52 sec)
Heartbeat CPU 0 instructions: 168000747 cycles: 67593685 heartbeat IPC: 2.39 cumulative IPC: 2.065 (Simulation time: 00 hr 11 min 54 sec)
Heartbeat CPU 0 instructions: 168500747 cycles: 67802265 heartbeat IPC: 2.397 cumulative IPC: 2.066 (Simulation time: 00 hr 11 min 56 sec)
Heartbeat CPU 0 instructions: 169000750 cycles: 68012799 heartbeat IPC: 2.375 cumulative IPC: 2.067 (Simulation time: 00 hr 11 min 58 sec)
Heartbeat CPU 0 instructions: 169500750 cycles: 68223047 heartbeat IPC: 2.378 cumulative IPC: 2.068 (Simulation time: 00 hr 12 min 00 sec)
Heartbeat CPU 0 instructions: 170000753 cycles: 68432200 heartbeat IPC: 2.391 cumulative IPC: 2.069 (Simulation time: 00 hr 12 min 02 sec)
Heartbeat CPU 0 instructions: 170500755 cycles: 68640741 heartbeat IPC: 2.398 cumulative IPC: 2.071 (Simulation time: 00 hr 12 min 04 sec)
Heartbeat CPU 0 instructions: 171000756 cycles: 68849369 heartbeat IPC: 2.397 cumulative IPC: 2.072 (Simulation time: 00 hr 12 min 06 sec)
Heartbeat CPU 0 instructions: 171500758 cycles: 69059788 heartbeat IPC: 2.376 cumulative IPC: 2.073 (Simulation time: 00 hr 12 min 08 sec)
Heartbeat CPU 0 instructions: 172000759 cycles: 69268332 heartbeat IPC: 2.398 cumulative IPC: 2.074 (Simulation time: 00 hr 12 min 10 sec)
Heartbeat CPU 0 instructions: 172500761 cycles: 69479176 heartbeat IPC: 2.371 cumulative IPC: 2.075 (Simulation time: 00 hr 12 min 12 sec)
Heartbeat CPU 0 instructions: 173000765 cycles: 69687783 heartbeat IPC: 2.397 cumulative IPC: 2.076 (Simulation time: 00 hr 12 min 14 sec)
Heartbeat CPU 0 instructions: 173500770 cycles: 69898294 heartbeat IPC: 2.375 cumulative IPC: 2.077 (Simulation time: 00 hr 12 min 16 sec)
Heartbeat CPU 0 instructions: 174000772 cycles: 70106772 heartbeat IPC: 2.398 cumulative IPC: 2.078 (Simulation time: 00 hr 12 min 19 sec)
Heartbeat CPU 0 instructions: 174500772 cycles: 70315980 heartbeat IPC: 2.39 cumulative IPC: 2.08 (Simulation time: 00 hr 12 min 21 sec)
Heartbeat CPU 0 instructions: 175000776 cycles: 70526230 heartbeat IPC: 2.378 cumulative IPC: 2.081 (Simulation time: 00 hr 12 min 23 sec)
Heartbeat CPU 0 instructions: 175500777 cycles: 70735097 heartbeat IPC: 2.394 cumulative IPC: 2.082 (Simulation time: 00 hr 12 min 25 sec)
Heartbeat CPU 0 instructions: 176000778 cycles: 70943600 heartbeat IPC: 2.398 cumulative IPC: 2.083 (Simulation time: 00 hr 12 min 27 sec)
Heartbeat CPU 0 instructions: 176500778 cycles: 71152246 heartbeat IPC: 2.396 cumulative IPC: 2.084 (Simulation time: 00 hr 12 min 29 sec)
Heartbeat CPU 0 instructions: 177000781 cycles: 71361354 heartbeat IPC: 2.391 cumulative IPC: 2.085 (Simulation time: 00 hr 12 min 31 sec)
Heartbeat CPU 0 instructions: 177500781 cycles: 71572415 heartbeat IPC: 2.369 cumulative IPC: 2.086 (Simulation time: 00 hr 12 min 33 sec)
Heartbeat CPU 0 instructions: 178000784 cycles: 71782044 heartbeat IPC: 2.385 cumulative IPC: 2.087 (Simulation time: 00 hr 12 min 35 sec)
Heartbeat CPU 0 instructions: 178500786 cycles: 71992610 heartbeat IPC: 2.375 cumulative IPC: 2.088 (Simulation time: 00 hr 12 min 37 sec)
Heartbeat CPU 0 instructions: 179000787 cycles: 72201464 heartbeat IPC: 2.394 cumulative IPC: 2.089 (Simulation time: 00 hr 12 min 39 sec)
Heartbeat CPU 0 instructions: 179500789 cycles: 72410046 heartbeat IPC: 2.397 cumulative IPC: 2.09 (Simulation time: 00 hr 12 min 41 sec)
Heartbeat CPU 0 instructions: 180000790 cycles: 72618876 heartbeat IPC: 2.394 cumulative IPC: 2.091 (Simulation time: 00 hr 12 min 43 sec)
Heartbeat CPU 0 instructions: 180500792 cycles: 72829119 heartbeat IPC: 2.378 cumulative IPC: 2.092 (Simulation time: 00 hr 12 min 45 sec)
Heartbeat CPU 0 instructions: 181000793 cycles: 73038051 heartbeat IPC: 2.393 cumulative IPC: 2.093 (Simulation time: 00 hr 12 min 47 sec)
Heartbeat CPU 0 instructions: 181500795 cycles: 73246878 heartbeat IPC: 2.394 cumulative IPC: 2.094 (Simulation time: 00 hr 12 min 49 sec)
Heartbeat CPU 0 instructions: 182000797 cycles: 73457108 heartbeat IPC: 2.378 cumulative IPC: 2.095 (Simulation time: 00 hr 12 min 51 sec)
Heartbeat CPU 0 instructions: 182500799 cycles: 73665835 heartbeat IPC: 2.395 cumulative IPC: 2.096 (Simulation time: 00 hr 12 min 53 sec)
Heartbeat CPU 0 instructions: 183000799 cycles: 73876269 heartbeat IPC: 2.376 cumulative IPC: 2.097 (Simulation time: 00 hr 12 min 55 sec)
Heartbeat CPU 0 instructions: 183500802 cycles: 74085318 heartbeat IPC: 2.392 cumulative IPC: 2.098 (Simulation time: 00 hr 12 min 57 sec)
Heartbeat CPU 0 instructions: 184000802 cycles: 74295522 heartbeat IPC: 2.379 cumulative IPC: 2.099 (Simulation time: 00 hr 12 min 59 sec)
Heartbeat CPU 0 instructions: 184500805 cycles: 74504274 heartbeat IPC: 2.395 cumulative IPC: 2.1 (Simulation time: 00 hr 13 min 01 sec)
Heartbeat CPU 0 instructions: 185000805 cycles: 74712853 heartbeat IPC: 2.397 cumulative IPC: 2.101 (Simulation time: 00 hr 13 min 03 sec)
Heartbeat CPU 0 instructions: 185500808 cycles: 74953091 heartbeat IPC: 2.081 cumulative IPC: 2.101 (Simulation time: 00 hr 13 min 05 sec)
Heartbeat CPU 0 instructions: 186000813 cycles: 75272091 heartbeat IPC: 1.567 cumulative IPC: 2.098 (Simulation time: 00 hr 13 min 08 sec)
Heartbeat CPU 0 instructions: 186500814 cycles: 75589317 heartbeat IPC: 1.576 cumulative IPC: 2.095 (Simulation time: 00 hr 13 min 11 sec)
Heartbeat CPU 0 instructions: 187000815 cycles: 75906939 heartbeat IPC: 1.574 cumulative IPC: 2.093 (Simulation time: 00 hr 13 min 14 sec)
Heartbeat CPU 0 instructions: 187500815 cycles: 76224454 heartbeat IPC: 1.575 cumulative IPC: 2.09 (Simulation time: 00 hr 13 min 17 sec)
Heartbeat CPU 0 instructions: 188000815 cycles: 76541875 heartbeat IPC: 1.575 cumulative IPC: 2.088 (Simulation time: 00 hr 13 min 20 sec)
Heartbeat CPU 0 instructions: 188500815 cycles: 76859049 heartbeat IPC: 1.576 cumulative IPC: 2.085 (Simulation time: 00 hr 13 min 24 sec)
Heartbeat CPU 0 instructions: 189000820 cycles: 77176605 heartbeat IPC: 1.575 cumulative IPC: 2.083 (Simulation time: 00 hr 13 min 27 sec)
Heartbeat CPU 0 instructions: 189500820 cycles: 77494035 heartbeat IPC: 1.575 cumulative IPC: 2.081 (Simulation time: 00 hr 13 min 30 sec)
Heartbeat CPU 0 instructions: 190000823 cycles: 77811518 heartbeat IPC: 1.575 cumulative IPC: 2.078 (Simulation time: 00 hr 13 min 33 sec)
Heartbeat CPU 0 instructions: 190500827 cycles: 78128984 heartbeat IPC: 1.575 cumulative IPC: 2.076 (Simulation time: 00 hr 13 min 36 sec)
Heartbeat CPU 0 instructions: 191000832 cycles: 78446182 heartbeat IPC: 1.576 cumulative IPC: 2.074 (Simulation time: 00 hr 13 min 39 sec)
Heartbeat CPU 0 instructions: 191500834 cycles: 78763923 heartbeat IPC: 1.574 cumulative IPC: 2.071 (Simulation time: 00 hr 13 min 42 sec)
Heartbeat CPU 0 instructions: 192000835 cycles: 79081257 heartbeat IPC: 1.576 cumulative IPC: 2.069 (Simulation time: 00 hr 13 min 45 sec)
Heartbeat CPU 0 instructions: 192500839 cycles: 79398814 heartbeat IPC: 1.575 cumulative IPC: 2.067 (Simulation time: 00 hr 13 min 48 sec)
Heartbeat CPU 0 instructions: 193000841 cycles: 79715937 heartbeat IPC: 1.577 cumulative IPC: 2.064 (Simulation time: 00 hr 13 min 51 sec)
Heartbeat CPU 0 instructions: 193500847 cycles: 80033409 heartbeat IPC: 1.575 cumulative IPC: 2.062 (Simulation time: 00 hr 13 min 54 sec)
Heartbeat CPU 0 instructions: 194000847 cycles: 80350842 heartbeat IPC: 1.575 cumulative IPC: 2.06 (Simulation time: 00 hr 13 min 57 sec)
Heartbeat CPU 0 instructions: 194500853 cycles: 80668317 heartbeat IPC: 1.575 cumulative IPC: 2.058 (Simulation time: 00 hr 14 min 00 sec)
Heartbeat CPU 0 instructions: 195000853 cycles: 80986111 heartbeat IPC: 1.573 cumulative IPC: 2.056 (Simulation time: 00 hr 14 min 03 sec)
Heartbeat CPU 0 instructions: 195500859 cycles: 81303378 heartbeat IPC: 1.576 cumulative IPC: 2.053 (Simulation time: 00 hr 14 min 06 sec)
Heartbeat CPU 0 instructions: 196000862 cycles: 81620707 heartbeat IPC: 1.576 cumulative IPC: 2.051 (Simulation time: 00 hr 14 min 09 sec)
Heartbeat CPU 0 instructions: 196500865 cycles: 81937952 heartbeat IPC: 1.576 cumulative IPC: 2.049 (Simulation time: 00 hr 14 min 12 sec)
Heartbeat CPU 0 instructions: 197000865 cycles: 82255778 heartbeat IPC: 1.573 cumulative IPC: 2.047 (Simulation time: 00 hr 14 min 15 sec)
Heartbeat CPU 0 instructions: 197500866 cycles: 82573019 heartbeat IPC: 1.576 cumulative IPC: 2.045 (Simulation time: 00 hr 14 min 18 sec)
Heartbeat CPU 0 instructions: 198000869 cycles: 82890536 heartbeat IPC: 1.575 cumulative IPC: 2.043 (Simulation time: 00 hr 14 min 21 sec)
Heartbeat CPU 0 instructions: 198500872 cycles: 83207863 heartbeat IPC: 1.576 cumulative IPC: 2.041 (Simulation time: 00 hr 14 min 25 sec)
Heartbeat CPU 0 instructions: 199000873 cycles: 83525128 heartbeat IPC: 1.576 cumulative IPC: 2.039 (Simulation time: 00 hr 14 min 28 sec)
Heartbeat CPU 0 instructions: 199500873 cycles: 83842795 heartbeat IPC: 1.574 cumulative IPC: 2.037 (Simulation time: 00 hr 14 min 31 sec)
Heartbeat CPU 0 instructions: 200000879 cycles: 84160186 heartbeat IPC: 1.575 cumulative IPC: 2.035 (Simulation time: 00 hr 14 min 34 sec)
Heartbeat CPU 0 instructions: 200500883 cycles: 84478021 heartbeat IPC: 1.573 cumulative IPC: 2.033 (Simulation time: 00 hr 14 min 37 sec)
Heartbeat CPU 0 instructions: 201000885 cycles: 84794713 heartbeat IPC: 1.579 cumulative IPC: 2.031 (Simulation time: 00 hr 14 min 40 sec)
Heartbeat CPU 0 instructions: 201500885 cycles: 85112480 heartbeat IPC: 1.573 cumulative IPC: 2.029 (Simulation time: 00 hr 14 min 43 sec)
Heartbeat CPU 0 instructions: 202000891 cycles: 85430098 heartbeat IPC: 1.574 cumulative IPC: 2.027 (Simulation time: 00 hr 14 min 46 sec)
Heartbeat CPU 0 instructions: 202500894 cycles: 85747526 heartbeat IPC: 1.575 cumulative IPC: 2.025 (Simulation time: 00 hr 14 min 49 sec)
Heartbeat CPU 0 instructions: 203000895 cycles: 86064721 heartbeat IPC: 1.576 cumulative IPC: 2.023 (Simulation time: 00 hr 14 min 52 sec)
Heartbeat CPU 0 instructions: 203500897 cycles: 86381870 heartbeat IPC: 1.577 cumulative IPC: 2.021 (Simulation time: 00 hr 14 min 55 sec)
Heartbeat CPU 0 instructions: 204000898 cycles: 86699644 heartbeat IPC: 1.573 cumulative IPC: 2.02 (Simulation time: 00 hr 14 min 58 sec)
Heartbeat CPU 0 instructions: 204500898 cycles: 87017166 heartbeat IPC: 1.575 cumulative IPC: 2.018 (Simulation time: 00 hr 15 min 01 sec)
Heartbeat CPU 0 instructions: 205000899 cycles: 87334527 heartbeat IPC: 1.575 cumulative IPC: 2.016 (Simulation time: 00 hr 15 min 04 sec)
Heartbeat CPU 0 instructions: 205500905 cycles: 87652010 heartbeat IPC: 1.575 cumulative IPC: 2.014 (Simulation time: 00 hr 15 min 07 sec)
Heartbeat CPU 0 instructions: 206000907 cycles: 87969598 heartbeat IPC: 1.574 cumulative IPC: 2.012 (Simulation time: 00 hr 15 min 10 sec)
Heartbeat CPU 0 instructions: 206500911 cycles: 88286740 heartbeat IPC: 1.577 cumulative IPC: 2.011 (Simulation time: 00 hr 15 min 13 sec)
Heartbeat CPU 0 instructions: 207000914 cycles: 88604396 heartbeat IPC: 1.574 cumulative IPC: 2.009 (Simulation time: 00 hr 15 min 16 sec)
Heartbeat CPU 0 instructions: 207500917 cycles: 88921655 heartbeat IPC: 1.576 cumulative IPC: 2.007 (Simulation time: 00 hr 15 min 19 sec)
Heartbeat CPU 0 instructions: 208000917 cycles: 89239387 heartbeat IPC: 1.574 cumulative IPC: 2.005 (Simulation time: 00 hr 15 min 22 sec)
Heartbeat CPU 0 instructions: 208500921 cycles: 89556582 heartbeat IPC: 1.576 cumulative IPC: 2.004 (Simulation time: 00 hr 15 min 25 sec)
Heartbeat CPU 0 instructions: 209000926 cycles: 89873870 heartbeat IPC: 1.576 cumulative IPC: 2.002 (Simulation time: 00 hr 15 min 28 sec)
Heartbeat CPU 0 instructions: 209500929 cycles: 90191416 heartbeat IPC: 1.575 cumulative IPC: 2 (Simulation time: 00 hr 15 min 32 sec)
Heartbeat CPU 0 instructions: 210000932 cycles: 90508814 heartbeat IPC: 1.575 cumulative IPC: 1.998 (Simulation time: 00 hr 15 min 35 sec)
Heartbeat CPU 0 instructions: 210500935 cycles: 90826582 heartbeat IPC: 1.573 cumulative IPC: 1.997 (Simulation time: 00 hr 15 min 38 sec)
Heartbeat CPU 0 instructions: 211000938 cycles: 91143542 heartbeat IPC: 1.577 cumulative IPC: 1.995 (Simulation time: 00 hr 15 min 41 sec)
Heartbeat CPU 0 instructions: 211500941 cycles: 91461259 heartbeat IPC: 1.574 cumulative IPC: 1.993 (Simulation time: 00 hr 15 min 44 sec)
Heartbeat CPU 0 instructions: 212000944 cycles: 91778765 heartbeat IPC: 1.575 cumulative IPC: 1.992 (Simulation time: 00 hr 15 min 47 sec)
Heartbeat CPU 0 instructions: 212500947 cycles: 92096185 heartbeat IPC: 1.575 cumulative IPC: 1.99 (Simulation time: 00 hr 15 min 50 sec)
Heartbeat CPU 0 instructions: 213000950 cycles: 92413565 heartbeat IPC: 1.575 cumulative IPC: 1.989 (Simulation time: 00 hr 15 min 53 sec)
Heartbeat CPU 0 instructions: 213500953 cycles: 92730865 heartbeat IPC: 1.576 cumulative IPC: 1.987 (Simulation time: 00 hr 15 min 56 sec)
Heartbeat CPU 0 instructions: 214000956 cycles: 93048395 heartbeat IPC: 1.575 cumulative IPC: 1.985 (Simulation time: 00 hr 15 min 59 sec)
Heartbeat CPU 0 instructions: 214500959 cycles: 93365656 heartbeat IPC: 1.576 cumulative IPC: 1.984 (Simulation time: 00 hr 16 min 02 sec)
Heartbeat CPU 0 instructions: 215000964 cycles: 93683544 heartbeat IPC: 1.573 cumulative IPC: 1.982 (Simulation time: 00 hr 16 min 05 sec)
Heartbeat CPU 0 instructions: 215500964 cycles: 94000737 heartbeat IPC: 1.576 cumulative IPC: 1.981 (Simulation time: 00 hr 16 min 08 sec)
Heartbeat CPU 0 instructions: 216000965 cycles: 94318188 heartbeat IPC: 1.575 cumulative IPC: 1.979 (Simulation time: 00 hr 16 min 11 sec)
Heartbeat CPU 0 instructions: 216500971 cycles: 94635460 heartbeat IPC: 1.576 cumulative IPC: 1.978 (Simulation time: 00 hr 16 min 14 sec)
Heartbeat CPU 0 instructions: 217000976 cycles: 94953145 heartbeat IPC: 1.574 cumulative IPC: 1.976 (Simulation time: 00 hr 16 min 17 sec)
Heartbeat CPU 0 instructions: 217500977 cycles: 95270242 heartbeat IPC: 1.577 cumulative IPC: 1.975 (Simulation time: 00 hr 16 min 20 sec)
Heartbeat CPU 0 instructions: 218000982 cycles: 95588091 heartbeat IPC: 1.573 cumulative IPC: 1.973 (Simulation time: 00 hr 16 min 23 sec)
Heartbeat CPU 0 instructions: 218500987 cycles: 95905392 heartbeat IPC: 1.576 cumulative IPC: 1.972 (Simulation time: 00 hr 16 min 26 sec)
Heartbeat CPU 0 instructions: 219000988 cycles: 96222507 heartbeat IPC: 1.577 cumulative IPC: 1.97 (Simulation time: 00 hr 16 min 30 sec)
Heartbeat CPU 0 instructions: 219500991 cycles: 96540166 heartbeat IPC: 1.574 cumulative IPC: 1.969 (Simulation time: 00 hr 16 min 33 sec)
Heartbeat CPU 0 instructions: 220000991 cycles: 96857563 heartbeat IPC: 1.575 cumulative IPC: 1.967 (Simulation time: 00 hr 16 min 36 sec)
Heartbeat CPU 0 instructions: 220500995 cycles: 97175193 heartbeat IPC: 1.574 cumulative IPC: 1.966 (Simulation time: 00 hr 16 min 39 sec)
Heartbeat CPU 0 instructions: 221000997 cycles: 97492526 heartbeat IPC: 1.576 cumulative IPC: 1.964 (Simulation time: 00 hr 16 min 42 sec)
Heartbeat CPU 0 instructions: 221501003 cycles: 97809981 heartbeat IPC: 1.575 cumulative IPC: 1.963 (Simulation time: 00 hr 16 min 45 sec)
Heartbeat CPU 0 instructions: 222001003 cycles: 98127246 heartbeat IPC: 1.576 cumulative IPC: 1.962 (Simulation time: 00 hr 16 min 48 sec)
Heartbeat CPU 0 instructions: 222501009 cycles: 98444866 heartbeat IPC: 1.574 cumulative IPC: 1.96 (Simulation time: 00 hr 16 min 51 sec)
Heartbeat CPU 0 instructions: 223001009 cycles: 98762226 heartbeat IPC: 1.575 cumulative IPC: 1.959 (Simulation time: 00 hr 16 min 54 sec)
Heartbeat CPU 0 instructions: 223501015 cycles: 99079892 heartbeat IPC: 1.574 cumulative IPC: 1.958 (Simulation time: 00 hr 16 min 57 sec)
Heartbeat CPU 0 instructions: 224001017 cycles: 99397237 heartbeat IPC: 1.576 cumulative IPC: 1.956 (Simulation time: 00 hr 17 min 00 sec)
Heartbeat CPU 0 instructions: 224501021 cycles: 99714282 heartbeat IPC: 1.577 cumulative IPC: 1.955 (Simulation time: 00 hr 17 min 03 sec)
Heartbeat CPU 0 instructions: 225001021 cycles: 100032089 heartbeat IPC: 1.573 cumulative IPC: 1.953 (Simulation time: 00 hr 17 min 06 sec)
Heartbeat CPU 0 instructions: 225501026 cycles: 100349350 heartbeat IPC: 1.576 cumulative IPC: 1.952 (Simulation time: 00 hr 17 min 09 sec)
Heartbeat CPU 0 instructions: 226001030 cycles: 100667054 heartbeat IPC: 1.574 cumulative IPC: 1.951 (Simulation time: 00 hr 17 min 12 sec)
Heartbeat CPU 0 instructions: 226501037 cycles: 100984288 heartbeat IPC: 1.576 cumulative IPC: 1.949 (Simulation time: 00 hr 17 min 15 sec)
Heartbeat CPU 0 instructions: 227001038 cycles: 101301732 heartbeat IPC: 1.575 cumulative IPC: 1.948 (Simulation time: 00 hr 17 min 18 sec)
Heartbeat CPU 0 instructions: 227501039 cycles: 101619083 heartbeat IPC: 1.576 cumulative IPC: 1.947 (Simulation time: 00 hr 17 min 21 sec)
Heartbeat CPU 0 instructions: 228001042 cycles: 101936853 heartbeat IPC: 1.573 cumulative IPC: 1.946 (Simulation time: 00 hr 17 min 24 sec)
Heartbeat CPU 0 instructions: 228501045 cycles: 102254197 heartbeat IPC: 1.576 cumulative IPC: 1.944 (Simulation time: 00 hr 17 min 27 sec)
Heartbeat CPU 0 instructions: 229001048 cycles: 102571398 heartbeat IPC: 1.576 cumulative IPC: 1.943 (Simulation time: 00 hr 17 min 31 sec)
Heartbeat CPU 0 instructions: 229501051 cycles: 102888895 heartbeat IPC: 1.575 cumulative IPC: 1.942 (Simulation time: 00 hr 17 min 34 sec)
Heartbeat CPU 0 instructions: 230001054 cycles: 103206302 heartbeat IPC: 1.575 cumulative IPC: 1.94 (Simulation time: 00 hr 17 min 37 sec)
Heartbeat CPU 0 instructions: 230501057 cycles: 103523850 heartbeat IPC: 1.575 cumulative IPC: 1.939 (Simulation time: 00 hr 17 min 40 sec)
Heartbeat CPU 0 instructions: 231001060 cycles: 103841211 heartbeat IPC: 1.576 cumulative IPC: 1.938 (Simulation time: 00 hr 17 min 43 sec)
Heartbeat CPU 0 instructions: 231501063 cycles: 104158765 heartbeat IPC: 1.575 cumulative IPC: 1.937 (Simulation time: 00 hr 17 min 46 sec)
Heartbeat CPU 0 instructions: 232001068 cycles: 104475995 heartbeat IPC: 1.576 cumulative IPC: 1.936 (Simulation time: 00 hr 17 min 49 sec)
Heartbeat CPU 0 instructions: 232501069 cycles: 104793628 heartbeat IPC: 1.574 cumulative IPC: 1.934 (Simulation time: 00 hr 17 min 52 sec)
Heartbeat CPU 0 instructions: 233001072 cycles: 105110967 heartbeat IPC: 1.576 cumulative IPC: 1.933 (Simulation time: 00 hr 17 min 55 sec)
Heartbeat CPU 0 instructions: 233501075 cycles: 105428720 heartbeat IPC: 1.574 cumulative IPC: 1.932 (Simulation time: 00 hr 17 min 58 sec)
Heartbeat CPU 0 instructions: 234001080 cycles: 105745808 heartbeat IPC: 1.577 cumulative IPC: 1.931 (Simulation time: 00 hr 18 min 01 sec)
Heartbeat CPU 0 instructions: 234501081 cycles: 106063248 heartbeat IPC: 1.575 cumulative IPC: 1.93 (Simulation time: 00 hr 18 min 04 sec)
Heartbeat CPU 0 instructions: 235001084 cycles: 106380680 heartbeat IPC: 1.575 cumulative IPC: 1.928 (Simulation time: 00 hr 18 min 07 sec)
Heartbeat CPU 0 instructions: 235501087 cycles: 106698162 heartbeat IPC: 1.575 cumulative IPC: 1.927 (Simulation time: 00 hr 18 min 10 sec)
Heartbeat CPU 0 instructions: 236001092 cycles: 107015633 heartbeat IPC: 1.575 cumulative IPC: 1.926 (Simulation time: 00 hr 18 min 13 sec)
Heartbeat CPU 0 instructions: 236501092 cycles: 107333076 heartbeat IPC: 1.575 cumulative IPC: 1.925 (Simulation time: 00 hr 18 min 16 sec)
Heartbeat CPU 0 instructions: 237001095 cycles: 107650424 heartbeat IPC: 1.576 cumulative IPC: 1.924 (Simulation time: 00 hr 18 min 19 sec)
Heartbeat CPU 0 instructions: 237501099 cycles: 107967792 heartbeat IPC: 1.575 cumulative IPC: 1.923 (Simulation time: 00 hr 18 min 22 sec)
Heartbeat CPU 0 instructions: 238001104 cycles: 108285497 heartbeat IPC: 1.574 cumulative IPC: 1.922 (Simulation time: 00 hr 18 min 25 sec)
Heartbeat CPU 0 instructions: 238501106 cycles: 108602887 heartbeat IPC: 1.575 cumulative IPC: 1.92 (Simulation time: 00 hr 18 min 28 sec)
Heartbeat CPU 0 instructions: 239001107 cycles: 108920433 heartbeat IPC: 1.575 cumulative IPC: 1.919 (Simulation time: 00 hr 18 min 31 sec)
Heartbeat CPU 0 instructions: 239501111 cycles: 109237498 heartbeat IPC: 1.577 cumulative IPC: 1.918 (Simulation time: 00 hr 18 min 34 sec)
Heartbeat CPU 0 instructions: 240001113 cycles: 109554903 heartbeat IPC: 1.575 cumulative IPC: 1.917 (Simulation time: 00 hr 18 min 37 sec)
Heartbeat CPU 0 instructions: 240501119 cycles: 109872525 heartbeat IPC: 1.574 cumulative IPC: 1.916 (Simulation time: 00 hr 18 min 40 sec)
Heartbeat CPU 0 instructions: 241001119 cycles: 110189947 heartbeat IPC: 1.575 cumulative IPC: 1.915 (Simulation time: 00 hr 18 min 43 sec)
Heartbeat CPU 0 instructions: 241501125 cycles: 110507649 heartbeat IPC: 1.574 cumulative IPC: 1.914 (Simulation time: 00 hr 18 min 46 sec)
Heartbeat CPU 0 instructions: 242001127 cycles: 110824703 heartbeat IPC: 1.577 cumulative IPC: 1.913 (Simulation time: 00 hr 18 min 49 sec)
Heartbeat CPU 0 instructions: 242501131 cycles: 111142243 heartbeat IPC: 1.575 cumulative IPC: 1.912 (Simulation time: 00 hr 18 min 53 sec)
Heartbeat CPU 0 instructions: 243001134 cycles: 111459708 heartbeat IPC: 1.575 cumulative IPC: 1.911 (Simulation time: 00 hr 18 min 56 sec)
Heartbeat CPU 0 instructions: 243501137 cycles: 111777231 heartbeat IPC: 1.575 cumulative IPC: 1.91 (Simulation time: 00 hr 18 min 59 sec)
Heartbeat CPU 0 instructions: 244001137 cycles: 112094680 heartbeat IPC: 1.575 cumulative IPC: 1.909 (Simulation time: 00 hr 19 min 02 sec)
Heartbeat CPU 0 instructions: 244501139 cycles: 112411953 heartbeat IPC: 1.576 cumulative IPC: 1.908 (Simulation time: 00 hr 19 min 05 sec)
Heartbeat CPU 0 instructions: 245001139 cycles: 112729518 heartbeat IPC: 1.574 cumulative IPC: 1.906 (Simulation time: 00 hr 19 min 08 sec)
Heartbeat CPU 0 instructions: 245501139 cycles: 113046855 heartbeat IPC: 1.576 cumulative IPC: 1.905 (Simulation time: 00 hr 19 min 11 sec)
Heartbeat CPU 0 instructions: 246001145 cycles: 113364405 heartbeat IPC: 1.575 cumulative IPC: 1.904 (Simulation time: 00 hr 19 min 14 sec)
Heartbeat CPU 0 instructions: 246501145 cycles: 113681828 heartbeat IPC: 1.575 cumulative IPC: 1.903 (Simulation time: 00 hr 19 min 17 sec)
Heartbeat CPU 0 instructions: 247001151 cycles: 113999164 heartbeat IPC: 1.576 cumulative IPC: 1.902 (Simulation time: 00 hr 19 min 20 sec)
Heartbeat CPU 0 instructions: 247501151 cycles: 114316624 heartbeat IPC: 1.575 cumulative IPC: 1.901 (Simulation time: 00 hr 19 min 23 sec)
Heartbeat CPU 0 instructions: 248001157 cycles: 114634110 heartbeat IPC: 1.575 cumulative IPC: 1.9 (Simulation time: 00 hr 19 min 26 sec)
Heartbeat CPU 0 instructions: 248501157 cycles: 114951462 heartbeat IPC: 1.576 cumulative IPC: 1.899 (Simulation time: 00 hr 19 min 29 sec)
Heartbeat CPU 0 instructions: 249001163 cycles: 115269108 heartbeat IPC: 1.574 cumulative IPC: 1.898 (Simulation time: 00 hr 19 min 32 sec)
Heartbeat CPU 0 instructions: 249501166 cycles: 115586331 heartbeat IPC: 1.576 cumulative IPC: 1.897 (Simulation time: 00 hr 19 min 35 sec)
Simulation finished CPU 0 instructions: 200000005 cycles: 105456884 cumulative IPC: 1.897 (Simulation time: 00 hr 19 min 38 sec)
Simulation complete CPU 0 instructions: 200000005 cycles: 105456884 cumulative IPC: 1.897 (Simulation time: 00 hr 19 min 38 sec)

ChampSim completed all CPUs

=== Simulation ===
CPU 0 runs /local-ssd/ben/dpc4-traces/SPEC17/603.bwaves_s-891B.champsimtrace.xz

Region of Interest Statistics

CPU 0 cumulative IPC: 1.897 instructions: 200000005 cycles: 105456884
CPU 0 Branch Prediction Accuracy: 81.48% MPKI: 31.04 Average ROB Occupancy at Mispredict: 34.66
Branch type MPKI
BRANCH_DIRECT_JUMP: 0.06483
BRANCH_INDIRECT: 0
BRANCH_CONDITIONAL: 30.97
BRANCH_DIRECT_CALL: 0
BRANCH_INDIRECT_CALL: 0
BRANCH_RETURN: 0

cpu0->cpu0_STLB TOTAL        ACCESS:      60655 HIT:        337 MISS:      60318 MSHR_MERGE:          0
cpu0->cpu0_STLB LOAD         ACCESS:      60655 HIT:        337 MISS:      60318 MSHR_MERGE:          0
cpu0->cpu0_STLB RFO          ACCESS:          0 HIT:          0 MISS:          0 MSHR_MERGE:          0
cpu0->cpu0_STLB PREFETCH     ACCESS:          0 HIT:          0 MISS:          0 MSHR_MERGE:          0
cpu0->cpu0_STLB WRITE        ACCESS:          0 HIT:          0 MISS:          0 MSHR_MERGE:          0
cpu0->cpu0_STLB TRANSLATION  ACCESS:          0 HIT:          0 MISS:          0 MSHR_MERGE:          0
cpu0->cpu0_STLB PREFETCH REQUESTED:          0 ISSUED:          0 USEFUL:          0 USELESS:          0
cpu0->cpu0_STLB AVERAGE MISS LATENCY: 212.3 cycles
cpu0->cpu0_L2C TOTAL        ACCESS:   23702850 HIT:   15274811 MISS:    8428039 MSHR_MERGE:    4560142
cpu0->cpu0_L2C LOAD         ACCESS:      16933 HIT:      14850 MISS:       2083 MSHR_MERGE:       2026
cpu0->cpu0_L2C RFO          ACCESS:          2 HIT:          0 MISS:          2 MSHR_MERGE:          0
cpu0->cpu0_L2C PREFETCH     ACCESS:   23678251 HIT:   15259935 MISS:    8418316 MSHR_MERGE:    4558116
cpu0->cpu0_L2C WRITE        ACCESS:          1 HIT:          1 MISS:          0 MSHR_MERGE:          0
cpu0->cpu0_L2C TRANSLATION  ACCESS:       7663 HIT:         25 MISS:       7638 MSHR_MERGE:          0
cpu0->cpu0_L2C PREFETCH REQUESTED:   19835110 ISSUED:   19833935 USEFUL:    2971594 USELESS:     687267
cpu0->cpu0_L2C AVERAGE MISS LATENCY: 237.1 cycles
cpu0->cpu0_L1I TOTAL        ACCESS:         16 HIT:          9 MISS:          7 MSHR_MERGE:          0
cpu0->cpu0_L1I LOAD         ACCESS:         16 HIT:          9 MISS:          7 MSHR_MERGE:          0
cpu0->cpu0_L1I RFO          ACCESS:          0 HIT:          0 MISS:          0 MSHR_MERGE:          0
cpu0->cpu0_L1I PREFETCH     ACCESS:          0 HIT:          0 MISS:          0 MSHR_MERGE:          0
cpu0->cpu0_L1I WRITE        ACCESS:          0 HIT:          0 MISS:          0 MSHR_MERGE:          0
cpu0->cpu0_L1I TRANSLATION  ACCESS:          0 HIT:          0 MISS:          0 MSHR_MERGE:          0
cpu0->cpu0_L1I PREFETCH REQUESTED:          0 ISSUED:          0 USEFUL:          0 USELESS:          0
cpu0->cpu0_L1I AVERAGE MISS LATENCY: 131.9 cycles
cpu0->cpu0_L1D TOTAL        ACCESS:   65493034 HIT:   51477711 MISS:   14015323 MSHR_MERGE:   10146415
cpu0->cpu0_L1D LOAD         ACCESS:   31311007 HIT:   30015272 MISS:    1295735 MSHR_MERGE:    1278809
cpu0->cpu0_L1D RFO          ACCESS:          0 HIT:          0 MISS:          0 MSHR_MERGE:          0
cpu0->cpu0_L1D PREFETCH     ACCESS:   30685449 HIT:   17973526 MISS:   12711923 MSHR_MERGE:    8867606
cpu0->cpu0_L1D WRITE        ACCESS:    3375822 HIT:    3375820 MISS:          2 MSHR_MERGE:          0
cpu0->cpu0_L1D TRANSLATION  ACCESS:     120756 HIT:     113093 MISS:       7663 MSHR_MERGE:          0
cpu0->cpu0_L1D PREFETCH REQUESTED:   31268858 ISSUED:   30685442 USEFUL:    3843959 USELESS:        346
cpu0->cpu0_L1D AVERAGE MISS LATENCY: 164.9 cycles
cpu0->cpu0_ITLB TOTAL        ACCESS:         12 HIT:         11 MISS:          1 MSHR_MERGE:          0
cpu0->cpu0_ITLB LOAD         ACCESS:         12 HIT:         11 MISS:          1 MSHR_MERGE:          0
cpu0->cpu0_ITLB RFO          ACCESS:          0 HIT:          0 MISS:          0 MSHR_MERGE:          0
cpu0->cpu0_ITLB PREFETCH     ACCESS:          0 HIT:          0 MISS:          0 MSHR_MERGE:          0
cpu0->cpu0_ITLB WRITE        ACCESS:          0 HIT:          0 MISS:          0 MSHR_MERGE:          0
cpu0->cpu0_ITLB TRANSLATION  ACCESS:          0 HIT:          0 MISS:          0 MSHR_MERGE:          0
cpu0->cpu0_ITLB PREFETCH REQUESTED:          0 ISSUED:          0 USEFUL:          0 USELESS:          0
cpu0->cpu0_ITLB AVERAGE MISS LATENCY: 704 cycles
cpu0->cpu0_DTLB TOTAL        ACCESS:   53603381 HIT:   53086952 MISS:     516429 MSHR_MERGE:     455775
cpu0->cpu0_DTLB LOAD         ACCESS:   53603381 HIT:   53086952 MISS:     516429 MSHR_MERGE:     455775
cpu0->cpu0_DTLB RFO          ACCESS:          0 HIT:          0 MISS:          0 MSHR_MERGE:          0
cpu0->cpu0_DTLB PREFETCH     ACCESS:          0 HIT:          0 MISS:          0 MSHR_MERGE:          0
cpu0->cpu0_DTLB WRITE        ACCESS:          0 HIT:          0 MISS:          0 MSHR_MERGE:          0
cpu0->cpu0_DTLB TRANSLATION  ACCESS:          0 HIT:          0 MISS:          0 MSHR_MERGE:          0
cpu0->cpu0_DTLB PREFETCH REQUESTED:          0 ISSUED:          0 USEFUL:          0 USELESS:          0
cpu0->cpu0_DTLB AVERAGE MISS LATENCY: 217.2 cycles
cpu0->LLC TOTAL        ACCESS:    7607199 HIT:    2257684 MISS:    5349515 MSHR_MERGE:    1479506
cpu0->LLC LOAD         ACCESS:         57 HIT:         37 MISS:         20 MSHR_MERGE:          3
cpu0->LLC RFO          ACCESS:          2 HIT:          0 MISS:          2 MSHR_MERGE:          0
cpu0->LLC PREFETCH     ACCESS:    7599500 HIT:    2257644 MISS:    5341856 MSHR_MERGE:    1479503
cpu0->LLC WRITE        ACCESS:          2 HIT:          1 MISS:          1 MSHR_MERGE:          0
cpu0->LLC TRANSLATION  ACCESS:       7638 HIT:          2 MISS:       7636 MSHR_MERGE:          0
cpu0->LLC PREFETCH REQUESTED:    4226699 ISSUED:    3739281 USEFUL:    2256192 USELESS:    1293201
cpu0->LLC AVERAGE MISS LATENCY: 211.9 cycles

DRAM Statistics

Channel 0 RQ ROW_BUFFER_HIT:    1115239
  ROW_BUFFER_MISS:    2754769
  AVG DBUS CONGESTED CYCLE: 3.992
Channel 0 WQ ROW_BUFFER_HIT:          0
  ROW_BUFFER_MISS:         15
  FULL:          0
Channel 0 REFRESHES ISSUED:       8787
