[VMEM] WARNING: physical memory size is smaller than virtual memory size.

*** ChampSim Multicore Out-of-Order Simulator ***
Warmup Instructions: 50000000
Simulation Instructions: 200000000
Number of CPUs: 1
Page size: 4096
Core 0: /local-ssd/ben/dpc4-traces/ai-ml/whisper_trace_2.champsimtrace.gz
Off-chip DRAM Size: 64 GiB Channels: 1 Width: 64-bit Data Rate: 4807 MT/s
Heartbeat CPU 0 instructions: 500006 cycles: 228936 heartbeat IPC: 2.184 cumulative IPC: 2.184 (Simulation time: 00 hr 00 min 04 sec)
Heartbeat CPU 0 instructions: 1000013 cycles: 453708 heartbeat IPC: 2.225 cumulative IPC: 2.204 (Simulation time: 00 hr 00 min 07 sec)
Heartbeat CPU 0 instructions: 1500018 cycles: 665356 heartbeat IPC: 2.362 cumulative IPC: 2.254 (Simulation time: 00 hr 00 min 11 sec)
Heartbeat CPU 0 instructions: 2000024 cycles: 851307 heartbeat IPC: 2.689 cumulative IPC: 2.349 (Simulation time: 00 hr 00 min 14 sec)
Heartbeat CPU 0 instructions: 2500024 cycles: 1061936 heartbeat IPC: 2.374 cumulative IPC: 2.354 (Simulation time: 00 hr 00 min 18 sec)
Heartbeat CPU 0 instructions: 3000026 cycles: 1259742 heartbeat IPC: 2.528 cumulative IPC: 2.381 (Simulation time: 00 hr 00 min 21 sec)
Heartbeat CPU 0 instructions: 3500030 cycles: 1475608 heartbeat IPC: 2.316 cumulative IPC: 2.372 (Simulation time: 00 hr 00 min 25 sec)
Heartbeat CPU 0 instructions: 4000036 cycles: 1694175 heartbeat IPC: 2.288 cumulative IPC: 2.361 (Simulation time: 00 hr 00 min 29 sec)
Heartbeat CPU 0 instructions: 4500037 cycles: 1894801 heartbeat IPC: 2.492 cumulative IPC: 2.375 (Simulation time: 00 hr 00 min 32 sec)
Heartbeat CPU 0 instructions: 5000043 cycles: 2105891 heartbeat IPC: 2.369 cumulative IPC: 2.374 (Simulation time: 00 hr 00 min 36 sec)
Heartbeat CPU 0 instructions: 5500047 cycles: 2312638 heartbeat IPC: 2.418 cumulative IPC: 2.378 (Simulation time: 00 hr 00 min 39 sec)
Heartbeat CPU 0 instructions: 6000050 cycles: 2536522 heartbeat IPC: 2.233 cumulative IPC: 2.365 (Simulation time: 00 hr 00 min 43 sec)
Heartbeat CPU 0 instructions: 6500052 cycles: 2747021 heartbeat IPC: 2.375 cumulative IPC: 2.366 (Simulation time: 00 hr 00 min 47 sec)
Heartbeat CPU 0 instructions: 7000055 cycles: 2942952 heartbeat IPC: 2.552 cumulative IPC: 2.379 (Simulation time: 00 hr 00 min 50 sec)
Heartbeat CPU 0 instructions: 7500061 cycles: 3139294 heartbeat IPC: 2.547 cumulative IPC: 2.389 (Simulation time: 00 hr 00 min 53 sec)
Heartbeat CPU 0 instructions: 8000067 cycles: 3344296 heartbeat IPC: 2.439 cumulative IPC: 2.392 (Simulation time: 00 hr 00 min 57 sec)
Heartbeat CPU 0 instructions: 8500067 cycles: 3568568 heartbeat IPC: 2.229 cumulative IPC: 2.382 (Simulation time: 00 hr 01 min 01 sec)
Heartbeat CPU 0 instructions: 9000070 cycles: 3793064 heartbeat IPC: 2.227 cumulative IPC: 2.373 (Simulation time: 00 hr 01 min 05 sec)
Heartbeat CPU 0 instructions: 9500072 cycles: 4012953 heartbeat IPC: 2.274 cumulative IPC: 2.367 (Simulation time: 00 hr 01 min 08 sec)
Heartbeat CPU 0 instructions: 10000077 cycles: 4203962 heartbeat IPC: 2.618 cumulative IPC: 2.379 (Simulation time: 00 hr 01 min 12 sec)
Heartbeat CPU 0 instructions: 10500077 cycles: 4398855 heartbeat IPC: 2.566 cumulative IPC: 2.387 (Simulation time: 00 hr 01 min 15 sec)
Heartbeat CPU 0 instructions: 11000080 cycles: 4623526 heartbeat IPC: 2.225 cumulative IPC: 2.379 (Simulation time: 00 hr 01 min 19 sec)
Heartbeat CPU 0 instructions: 11500083 cycles: 4848380 heartbeat IPC: 2.224 cumulative IPC: 2.372 (Simulation time: 00 hr 01 min 23 sec)
Heartbeat CPU 0 instructions: 12000086 cycles: 5071875 heartbeat IPC: 2.237 cumulative IPC: 2.366 (Simulation time: 00 hr 01 min 26 sec)
Heartbeat CPU 0 instructions: 12500091 cycles: 5297652 heartbeat IPC: 2.215 cumulative IPC: 2.36 (Simulation time: 00 hr 01 min 30 sec)
Heartbeat CPU 0 instructions: 13000093 cycles: 5504056 heartbeat IPC: 2.422 cumulative IPC: 2.362 (Simulation time: 00 hr 01 min 34 sec)
Heartbeat CPU 0 instructions: 13500099 cycles: 5728812 heartbeat IPC: 2.225 cumulative IPC: 2.357 (Simulation time: 00 hr 01 min 38 sec)
Heartbeat CPU 0 instructions: 14000105 cycles: 5925367 heartbeat IPC: 2.544 cumulative IPC: 2.363 (Simulation time: 00 hr 01 min 41 sec)
Heartbeat CPU 0 instructions: 14500106 cycles: 6150258 heartbeat IPC: 2.223 cumulative IPC: 2.358 (Simulation time: 00 hr 01 min 45 sec)
Heartbeat CPU 0 instructions: 15000109 cycles: 6374042 heartbeat IPC: 2.234 cumulative IPC: 2.353 (Simulation time: 00 hr 01 min 49 sec)
Heartbeat CPU 0 instructions: 15500109 cycles: 6545872 heartbeat IPC: 2.91 cumulative IPC: 2.368 (Simulation time: 00 hr 01 min 52 sec)
Heartbeat CPU 0 instructions: 16000109 cycles: 6768680 heartbeat IPC: 2.244 cumulative IPC: 2.364 (Simulation time: 00 hr 01 min 55 sec)
Heartbeat CPU 0 instructions: 16500111 cycles: 6975291 heartbeat IPC: 2.42 cumulative IPC: 2.366 (Simulation time: 00 hr 01 min 59 sec)
Heartbeat CPU 0 instructions: 17000111 cycles: 7187755 heartbeat IPC: 2.353 cumulative IPC: 2.365 (Simulation time: 00 hr 02 min 03 sec)
Heartbeat CPU 0 instructions: 17500114 cycles: 7391688 heartbeat IPC: 2.452 cumulative IPC: 2.368 (Simulation time: 00 hr 02 min 06 sec)
Heartbeat CPU 0 instructions: 18000119 cycles: 7598227 heartbeat IPC: 2.421 cumulative IPC: 2.369 (Simulation time: 00 hr 02 min 10 sec)
Heartbeat CPU 0 instructions: 18500119 cycles: 7822936 heartbeat IPC: 2.225 cumulative IPC: 2.365 (Simulation time: 00 hr 02 min 13 sec)
Heartbeat CPU 0 instructions: 19000125 cycles: 8047235 heartbeat IPC: 2.229 cumulative IPC: 2.361 (Simulation time: 00 hr 02 min 17 sec)
Heartbeat CPU 0 instructions: 19500128 cycles: 8253783 heartbeat IPC: 2.421 cumulative IPC: 2.363 (Simulation time: 00 hr 02 min 21 sec)
Heartbeat CPU 0 instructions: 20000130 cycles: 8476660 heartbeat IPC: 2.243 cumulative IPC: 2.359 (Simulation time: 00 hr 02 min 25 sec)
Heartbeat CPU 0 instructions: 20500133 cycles: 8684944 heartbeat IPC: 2.401 cumulative IPC: 2.36 (Simulation time: 00 hr 02 min 28 sec)
Heartbeat CPU 0 instructions: 21000138 cycles: 8891451 heartbeat IPC: 2.421 cumulative IPC: 2.362 (Simulation time: 00 hr 02 min 32 sec)
Heartbeat CPU 0 instructions: 21500145 cycles: 9116000 heartbeat IPC: 2.227 cumulative IPC: 2.359 (Simulation time: 00 hr 02 min 35 sec)
Heartbeat CPU 0 instructions: 22000147 cycles: 9310765 heartbeat IPC: 2.567 cumulative IPC: 2.363 (Simulation time: 00 hr 02 min 39 sec)
Heartbeat CPU 0 instructions: 22500151 cycles: 9527464 heartbeat IPC: 2.307 cumulative IPC: 2.362 (Simulation time: 00 hr 02 min 42 sec)
Heartbeat CPU 0 instructions: 23000158 cycles: 9751862 heartbeat IPC: 2.228 cumulative IPC: 2.359 (Simulation time: 00 hr 02 min 46 sec)
Heartbeat CPU 0 instructions: 23500162 cycles: 9977159 heartbeat IPC: 2.219 cumulative IPC: 2.355 (Simulation time: 00 hr 02 min 50 sec)
Heartbeat CPU 0 instructions: 24000162 cycles: 10187815 heartbeat IPC: 2.374 cumulative IPC: 2.356 (Simulation time: 00 hr 02 min 54 sec)
Heartbeat CPU 0 instructions: 24500168 cycles: 10401779 heartbeat IPC: 2.337 cumulative IPC: 2.355 (Simulation time: 00 hr 02 min 57 sec)
Heartbeat CPU 0 instructions: 25000174 cycles: 10601249 heartbeat IPC: 2.507 cumulative IPC: 2.358 (Simulation time: 00 hr 03 min 01 sec)
Heartbeat CPU 0 instructions: 25500179 cycles: 10799309 heartbeat IPC: 2.525 cumulative IPC: 2.361 (Simulation time: 00 hr 03 min 04 sec)
Heartbeat CPU 0 instructions: 26000180 cycles: 11006018 heartbeat IPC: 2.419 cumulative IPC: 2.362 (Simulation time: 00 hr 03 min 08 sec)
Heartbeat CPU 0 instructions: 26500186 cycles: 11211825 heartbeat IPC: 2.429 cumulative IPC: 2.364 (Simulation time: 00 hr 03 min 11 sec)
Heartbeat CPU 0 instructions: 27000186 cycles: 11418381 heartbeat IPC: 2.421 cumulative IPC: 2.365 (Simulation time: 00 hr 03 min 15 sec)
Heartbeat CPU 0 instructions: 27500192 cycles: 11642394 heartbeat IPC: 2.232 cumulative IPC: 2.362 (Simulation time: 00 hr 03 min 18 sec)
Heartbeat CPU 0 instructions: 28000199 cycles: 11858590 heartbeat IPC: 2.313 cumulative IPC: 2.361 (Simulation time: 00 hr 03 min 22 sec)
Heartbeat CPU 0 instructions: 28500206 cycles: 12057179 heartbeat IPC: 2.518 cumulative IPC: 2.364 (Simulation time: 00 hr 03 min 25 sec)
Heartbeat CPU 0 instructions: 29000207 cycles: 12264592 heartbeat IPC: 2.411 cumulative IPC: 2.365 (Simulation time: 00 hr 03 min 29 sec)
Heartbeat CPU 0 instructions: 29500210 cycles: 12470460 heartbeat IPC: 2.429 cumulative IPC: 2.366 (Simulation time: 00 hr 03 min 32 sec)
Heartbeat CPU 0 instructions: 30000211 cycles: 12643328 heartbeat IPC: 2.892 cumulative IPC: 2.373 (Simulation time: 00 hr 03 min 35 sec)
Heartbeat CPU 0 instructions: 30500216 cycles: 12848429 heartbeat IPC: 2.438 cumulative IPC: 2.374 (Simulation time: 00 hr 03 min 39 sec)
Heartbeat CPU 0 instructions: 31000222 cycles: 13055410 heartbeat IPC: 2.416 cumulative IPC: 2.375 (Simulation time: 00 hr 03 min 42 sec)
Heartbeat CPU 0 instructions: 31500228 cycles: 13268420 heartbeat IPC: 2.347 cumulative IPC: 2.374 (Simulation time: 00 hr 03 min 46 sec)
Heartbeat CPU 0 instructions: 32000231 cycles: 13392561 heartbeat IPC: 4.028 cumulative IPC: 2.389 (Simulation time: 00 hr 03 min 48 sec)
Heartbeat CPU 0 instructions: 32500237 cycles: 13516674 heartbeat IPC: 4.029 cumulative IPC: 2.404 (Simulation time: 00 hr 03 min 51 sec)
Heartbeat CPU 0 instructions: 33000237 cycles: 13640845 heartbeat IPC: 4.027 cumulative IPC: 2.419 (Simulation time: 00 hr 03 min 53 sec)
Heartbeat CPU 0 instructions: 33500241 cycles: 13818233 heartbeat IPC: 2.819 cumulative IPC: 2.424 (Simulation time: 00 hr 03 min 56 sec)
Heartbeat CPU 0 instructions: 34000242 cycles: 13953024 heartbeat IPC: 3.709 cumulative IPC: 2.437 (Simulation time: 00 hr 03 min 59 sec)
Heartbeat CPU 0 instructions: 34500247 cycles: 14077049 heartbeat IPC: 4.031 cumulative IPC: 2.451 (Simulation time: 00 hr 04 min 01 sec)
Heartbeat CPU 0 instructions: 35000248 cycles: 14201314 heartbeat IPC: 4.024 cumulative IPC: 2.465 (Simulation time: 00 hr 04 min 03 sec)
Heartbeat CPU 0 instructions: 35500252 cycles: 14325594 heartbeat IPC: 4.023 cumulative IPC: 2.478 (Simulation time: 00 hr 04 min 05 sec)
Heartbeat CPU 0 instructions: 36000256 cycles: 14450002 heartbeat IPC: 4.019 cumulative IPC: 2.491 (Simulation time: 00 hr 04 min 08 sec)
Heartbeat CPU 0 instructions: 36500259 cycles: 14574206 heartbeat IPC: 4.026 cumulative IPC: 2.504 (Simulation time: 00 hr 04 min 10 sec)
Heartbeat CPU 0 instructions: 37000261 cycles: 14698229 heartbeat IPC: 4.032 cumulative IPC: 2.517 (Simulation time: 00 hr 04 min 12 sec)
Heartbeat CPU 0 instructions: 37500266 cycles: 14822354 heartbeat IPC: 4.028 cumulative IPC: 2.53 (Simulation time: 00 hr 04 min 15 sec)
Heartbeat CPU 0 instructions: 38000266 cycles: 14946493 heartbeat IPC: 4.028 cumulative IPC: 2.542 (Simulation time: 00 hr 04 min 17 sec)
Heartbeat CPU 0 instructions: 38500272 cycles: 15108127 heartbeat IPC: 3.093 cumulative IPC: 2.548 (Simulation time: 00 hr 04 min 20 sec)
Heartbeat CPU 0 instructions: 39000272 cycles: 15232613 heartbeat IPC: 4.017 cumulative IPC: 2.56 (Simulation time: 00 hr 04 min 22 sec)
Heartbeat CPU 0 instructions: 39500274 cycles: 15363793 heartbeat IPC: 3.812 cumulative IPC: 2.571 (Simulation time: 00 hr 04 min 25 sec)
Heartbeat CPU 0 instructions: 40000276 cycles: 15581078 heartbeat IPC: 2.301 cumulative IPC: 2.567 (Simulation time: 00 hr 04 min 28 sec)
Heartbeat CPU 0 instructions: 40500282 cycles: 15774470 heartbeat IPC: 2.585 cumulative IPC: 2.567 (Simulation time: 00 hr 04 min 31 sec)
Heartbeat CPU 0 instructions: 41000282 cycles: 15898604 heartbeat IPC: 4.028 cumulative IPC: 2.579 (Simulation time: 00 hr 04 min 34 sec)
Heartbeat CPU 0 instructions: 41500288 cycles: 16022840 heartbeat IPC: 4.025 cumulative IPC: 2.59 (Simulation time: 00 hr 04 min 36 sec)
Heartbeat CPU 0 instructions: 42000291 cycles: 16147080 heartbeat IPC: 4.024 cumulative IPC: 2.601 (Simulation time: 00 hr 04 min 38 sec)
Heartbeat CPU 0 instructions: 42500295 cycles: 16271062 heartbeat IPC: 4.033 cumulative IPC: 2.612 (Simulation time: 00 hr 04 min 41 sec)
Heartbeat CPU 0 instructions: 43000295 cycles: 16395590 heartbeat IPC: 4.015 cumulative IPC: 2.623 (Simulation time: 00 hr 04 min 43 sec)
Heartbeat CPU 0 instructions: 43500302 cycles: 16519759 heartbeat IPC: 4.027 cumulative IPC: 2.633 (Simulation time: 00 hr 04 min 45 sec)
Heartbeat CPU 0 instructions: 44000309 cycles: 16644059 heartbeat IPC: 4.023 cumulative IPC: 2.644 (Simulation time: 00 hr 04 min 48 sec)
Heartbeat CPU 0 instructions: 44500312 cycles: 16768068 heartbeat IPC: 4.032 cumulative IPC: 2.654 (Simulation time: 00 hr 04 min 50 sec)
Heartbeat CPU 0 instructions: 45000315 cycles: 16892432 heartbeat IPC: 4.02 cumulative IPC: 2.664 (Simulation time: 00 hr 04 min 52 sec)
Heartbeat CPU 0 instructions: 45500319 cycles: 17016422 heartbeat IPC: 4.033 cumulative IPC: 2.674 (Simulation time: 00 hr 04 min 55 sec)
Heartbeat CPU 0 instructions: 46000319 cycles: 17201160 heartbeat IPC: 2.707 cumulative IPC: 2.674 (Simulation time: 00 hr 04 min 58 sec)
Heartbeat CPU 0 instructions: 46500322 cycles: 17420833 heartbeat IPC: 2.276 cumulative IPC: 2.669 (Simulation time: 00 hr 05 min 01 sec)
Heartbeat CPU 0 instructions: 47000328 cycles: 17639876 heartbeat IPC: 2.283 cumulative IPC: 2.664 (Simulation time: 00 hr 05 min 05 sec)
Heartbeat CPU 0 instructions: 47500333 cycles: 17778453 heartbeat IPC: 3.608 cumulative IPC: 2.672 (Simulation time: 00 hr 05 min 08 sec)
Heartbeat CPU 0 instructions: 48000340 cycles: 17902713 heartbeat IPC: 4.024 cumulative IPC: 2.681 (Simulation time: 00 hr 05 min 10 sec)
Heartbeat CPU 0 instructions: 48500343 cycles: 18027147 heartbeat IPC: 4.018 cumulative IPC: 2.69 (Simulation time: 00 hr 05 min 12 sec)
Heartbeat CPU 0 instructions: 49000349 cycles: 18151003 heartbeat IPC: 4.037 cumulative IPC: 2.7 (Simulation time: 00 hr 05 min 15 sec)
Heartbeat CPU 0 instructions: 49500352 cycles: 18275116 heartbeat IPC: 4.029 cumulative IPC: 2.709 (Simulation time: 00 hr 05 min 17 sec)
Warmup halting CPU 0 at instruction 50000001 cycle 18399217 for remainder of phase
Warmup finished CPU 0 instructions: 50000001 cycles: 18399217 cumulative IPC: 2.718 (Simulation time: 00 hr 05 min 19 sec)
Warmup complete CPU 0 instructions: 50000001 cycles: 18399217 cumulative IPC: 2.718 (Simulation time: 00 hr 05 min 19 sec)
Heartbeat CPU 0 instructions: 50000352 cycles: 18399355 heartbeat IPC: 4.025 cumulative IPC: 2.543 (Simulation time: 00 hr 05 min 19 sec)
Heartbeat CPU 0 instructions: 50500353 cycles: 18577625 heartbeat IPC: 2.805 cumulative IPC: 2.805 (Simulation time: 00 hr 05 min 22 sec)
Heartbeat CPU 0 instructions: 51000356 cycles: 18753539 heartbeat IPC: 2.842 cumulative IPC: 2.823 (Simulation time: 00 hr 05 min 24 sec)
Heartbeat CPU 0 instructions: 51500356 cycles: 18933447 heartbeat IPC: 2.779 cumulative IPC: 2.808 (Simulation time: 00 hr 05 min 27 sec)
Heartbeat CPU 0 instructions: 52000360 cycles: 19110011 heartbeat IPC: 2.832 cumulative IPC: 2.814 (Simulation time: 00 hr 05 min 29 sec)
Heartbeat CPU 0 instructions: 52500365 cycles: 19295144 heartbeat IPC: 2.701 cumulative IPC: 2.791 (Simulation time: 00 hr 05 min 31 sec)
Heartbeat CPU 0 instructions: 53000371 cycles: 19473460 heartbeat IPC: 2.804 cumulative IPC: 2.793 (Simulation time: 00 hr 05 min 34 sec)
Heartbeat CPU 0 instructions: 53500378 cycles: 19654701 heartbeat IPC: 2.759 cumulative IPC: 2.788 (Simulation time: 00 hr 05 min 36 sec)
Heartbeat CPU 0 instructions: 54000381 cycles: 19831459 heartbeat IPC: 2.829 cumulative IPC: 2.793 (Simulation time: 00 hr 05 min 39 sec)
Heartbeat CPU 0 instructions: 54500384 cycles: 20011071 heartbeat IPC: 2.784 cumulative IPC: 2.792 (Simulation time: 00 hr 05 min 41 sec)
Heartbeat CPU 0 instructions: 55000389 cycles: 20187464 heartbeat IPC: 2.835 cumulative IPC: 2.796 (Simulation time: 00 hr 05 min 44 sec)
Heartbeat CPU 0 instructions: 55500390 cycles: 20365654 heartbeat IPC: 2.806 cumulative IPC: 2.797 (Simulation time: 00 hr 05 min 46 sec)
Heartbeat CPU 0 instructions: 56000391 cycles: 20542489 heartbeat IPC: 2.828 cumulative IPC: 2.8 (Simulation time: 00 hr 05 min 48 sec)
Heartbeat CPU 0 instructions: 56500394 cycles: 20727460 heartbeat IPC: 2.703 cumulative IPC: 2.792 (Simulation time: 00 hr 05 min 51 sec)
Heartbeat CPU 0 instructions: 57000397 cycles: 20905702 heartbeat IPC: 2.805 cumulative IPC: 2.793 (Simulation time: 00 hr 05 min 53 sec)
Heartbeat CPU 0 instructions: 57500402 cycles: 21083137 heartbeat IPC: 2.818 cumulative IPC: 2.795 (Simulation time: 00 hr 05 min 56 sec)
Heartbeat CPU 0 instructions: 58000403 cycles: 21261551 heartbeat IPC: 2.802 cumulative IPC: 2.795 (Simulation time: 00 hr 05 min 58 sec)
Heartbeat CPU 0 instructions: 58500406 cycles: 21436633 heartbeat IPC: 2.856 cumulative IPC: 2.799 (Simulation time: 00 hr 06 min 01 sec)
Heartbeat CPU 0 instructions: 59000407 cycles: 21615179 heartbeat IPC: 2.8 cumulative IPC: 2.799 (Simulation time: 00 hr 06 min 03 sec)
Heartbeat CPU 0 instructions: 59500410 cycles: 21789237 heartbeat IPC: 2.873 cumulative IPC: 2.802 (Simulation time: 00 hr 06 min 05 sec)
Heartbeat CPU 0 instructions: 60000416 cycles: 21971716 heartbeat IPC: 2.74 cumulative IPC: 2.799 (Simulation time: 00 hr 06 min 08 sec)
Heartbeat CPU 0 instructions: 60500417 cycles: 22148666 heartbeat IPC: 2.826 cumulative IPC: 2.801 (Simulation time: 00 hr 06 min 10 sec)
Heartbeat CPU 0 instructions: 61000424 cycles: 22323440 heartbeat IPC: 2.861 cumulative IPC: 2.803 (Simulation time: 00 hr 06 min 13 sec)
Heartbeat CPU 0 instructions: 61500427 cycles: 22500286 heartbeat IPC: 2.827 cumulative IPC: 2.804 (Simulation time: 00 hr 06 min 15 sec)
Heartbeat CPU 0 instructions: 62000434 cycles: 22675488 heartbeat IPC: 2.854 cumulative IPC: 2.806 (Simulation time: 00 hr 06 min 18 sec)
Heartbeat CPU 0 instructions: 62500439 cycles: 22851464 heartbeat IPC: 2.841 cumulative IPC: 2.808 (Simulation time: 00 hr 06 min 20 sec)
Heartbeat CPU 0 instructions: 63000442 cycles: 23028928 heartbeat IPC: 2.817 cumulative IPC: 2.808 (Simulation time: 00 hr 06 min 22 sec)
Heartbeat CPU 0 instructions: 63500442 cycles: 23211428 heartbeat IPC: 2.74 cumulative IPC: 2.805 (Simulation time: 00 hr 06 min 25 sec)
Heartbeat CPU 0 instructions: 64000446 cycles: 23389376 heartbeat IPC: 2.81 cumulative IPC: 2.806 (Simulation time: 00 hr 06 min 27 sec)
Heartbeat CPU 0 instructions: 64500447 cycles: 23564946 heartbeat IPC: 2.848 cumulative IPC: 2.807 (Simulation time: 00 hr 06 min 30 sec)
Heartbeat CPU 0 instructions: 65000448 cycles: 23740931 heartbeat IPC: 2.841 cumulative IPC: 2.808 (Simulation time: 00 hr 06 min 32 sec)
Heartbeat CPU 0 instructions: 65500453 cycles: 23913354 heartbeat IPC: 2.9 cumulative IPC: 2.811 (Simulation time: 00 hr 06 min 34 sec)
Heartbeat CPU 0 instructions: 66000458 cycles: 24087517 heartbeat IPC: 2.871 cumulative IPC: 2.813 (Simulation time: 00 hr 06 min 37 sec)
Heartbeat CPU 0 instructions: 66500459 cycles: 24259308 heartbeat IPC: 2.911 cumulative IPC: 2.816 (Simulation time: 00 hr 06 min 39 sec)
Heartbeat CPU 0 instructions: 67000463 cycles: 24433657 heartbeat IPC: 2.868 cumulative IPC: 2.817 (Simulation time: 00 hr 06 min 42 sec)
Heartbeat CPU 0 instructions: 67500466 cycles: 24611675 heartbeat IPC: 2.809 cumulative IPC: 2.817 (Simulation time: 00 hr 06 min 44 sec)
Heartbeat CPU 0 instructions: 68000469 cycles: 24784005 heartbeat IPC: 2.901 cumulative IPC: 2.819 (Simulation time: 00 hr 06 min 46 sec)
Heartbeat CPU 0 instructions: 68500474 cycles: 24959305 heartbeat IPC: 2.852 cumulative IPC: 2.82 (Simulation time: 00 hr 06 min 49 sec)
Heartbeat CPU 0 instructions: 69000475 cycles: 25133916 heartbeat IPC: 2.864 cumulative IPC: 2.821 (Simulation time: 00 hr 06 min 51 sec)
Heartbeat CPU 0 instructions: 69500481 cycles: 25309261 heartbeat IPC: 2.852 cumulative IPC: 2.822 (Simulation time: 00 hr 06 min 54 sec)
Heartbeat CPU 0 instructions: 70000481 cycles: 25485168 heartbeat IPC: 2.842 cumulative IPC: 2.823 (Simulation time: 00 hr 06 min 56 sec)
Heartbeat CPU 0 instructions: 70500481 cycles: 25663160 heartbeat IPC: 2.809 cumulative IPC: 2.822 (Simulation time: 00 hr 06 min 58 sec)
Heartbeat CPU 0 instructions: 71000485 cycles: 25857131 heartbeat IPC: 2.578 cumulative IPC: 2.816 (Simulation time: 00 hr 07 min 01 sec)
Heartbeat CPU 0 instructions: 71500488 cycles: 26033772 heartbeat IPC: 2.831 cumulative IPC: 2.816 (Simulation time: 00 hr 07 min 03 sec)
Heartbeat CPU 0 instructions: 72000491 cycles: 26212589 heartbeat IPC: 2.796 cumulative IPC: 2.816 (Simulation time: 00 hr 07 min 06 sec)
Heartbeat CPU 0 instructions: 72500498 cycles: 26389971 heartbeat IPC: 2.819 cumulative IPC: 2.816 (Simulation time: 00 hr 07 min 08 sec)
Heartbeat CPU 0 instructions: 73000501 cycles: 26568016 heartbeat IPC: 2.808 cumulative IPC: 2.816 (Simulation time: 00 hr 07 min 11 sec)
Heartbeat CPU 0 instructions: 73500506 cycles: 26745820 heartbeat IPC: 2.812 cumulative IPC: 2.816 (Simulation time: 00 hr 07 min 13 sec)
Heartbeat CPU 0 instructions: 74000511 cycles: 26923902 heartbeat IPC: 2.808 cumulative IPC: 2.815 (Simulation time: 00 hr 07 min 16 sec)
Heartbeat CPU 0 instructions: 74500517 cycles: 27105107 heartbeat IPC: 2.759 cumulative IPC: 2.814 (Simulation time: 00 hr 07 min 18 sec)
Heartbeat CPU 0 instructions: 75000517 cycles: 27284747 heartbeat IPC: 2.783 cumulative IPC: 2.814 (Simulation time: 00 hr 07 min 21 sec)
Heartbeat CPU 0 instructions: 75500521 cycles: 27461863 heartbeat IPC: 2.823 cumulative IPC: 2.814 (Simulation time: 00 hr 07 min 23 sec)
Heartbeat CPU 0 instructions: 76000524 cycles: 27640177 heartbeat IPC: 2.804 cumulative IPC: 2.814 (Simulation time: 00 hr 07 min 25 sec)
Heartbeat CPU 0 instructions: 76500527 cycles: 27817240 heartbeat IPC: 2.824 cumulative IPC: 2.814 (Simulation time: 00 hr 07 min 28 sec)
Heartbeat CPU 0 instructions: 77000528 cycles: 27996306 heartbeat IPC: 2.792 cumulative IPC: 2.813 (Simulation time: 00 hr 07 min 30 sec)
Heartbeat CPU 0 instructions: 77500534 cycles: 28174461 heartbeat IPC: 2.807 cumulative IPC: 2.813 (Simulation time: 00 hr 07 min 33 sec)
Heartbeat CPU 0 instructions: 78000539 cycles: 28353095 heartbeat IPC: 2.799 cumulative IPC: 2.813 (Simulation time: 00 hr 07 min 35 sec)
Heartbeat CPU 0 instructions: 78500541 cycles: 28537961 heartbeat IPC: 2.705 cumulative IPC: 2.811 (Simulation time: 00 hr 07 min 38 sec)
Heartbeat CPU 0 instructions: 79000545 cycles: 28716794 heartbeat IPC: 2.796 cumulative IPC: 2.811 (Simulation time: 00 hr 07 min 40 sec)
Heartbeat CPU 0 instructions: 79500548 cycles: 28894091 heartbeat IPC: 2.82 cumulative IPC: 2.811 (Simulation time: 00 hr 07 min 43 sec)
Heartbeat CPU 0 instructions: 80000552 cycles: 29072914 heartbeat IPC: 2.796 cumulative IPC: 2.811 (Simulation time: 00 hr 07 min 45 sec)
Heartbeat CPU 0 instructions: 80500553 cycles: 29249471 heartbeat IPC: 2.832 cumulative IPC: 2.811 (Simulation time: 00 hr 07 min 47 sec)
Heartbeat CPU 0 instructions: 81000556 cycles: 29428834 heartbeat IPC: 2.788 cumulative IPC: 2.811 (Simulation time: 00 hr 07 min 50 sec)
Heartbeat CPU 0 instructions: 81500559 cycles: 29605787 heartbeat IPC: 2.826 cumulative IPC: 2.811 (Simulation time: 00 hr 07 min 52 sec)
Heartbeat CPU 0 instructions: 82000559 cycles: 29791098 heartbeat IPC: 2.698 cumulative IPC: 2.809 (Simulation time: 00 hr 07 min 55 sec)
Heartbeat CPU 0 instructions: 82500560 cycles: 29967296 heartbeat IPC: 2.838 cumulative IPC: 2.81 (Simulation time: 00 hr 07 min 57 sec)
Heartbeat CPU 0 instructions: 83000560 cycles: 30148279 heartbeat IPC: 2.763 cumulative IPC: 2.809 (Simulation time: 00 hr 08 min 00 sec)
Heartbeat CPU 0 instructions: 83500564 cycles: 30324733 heartbeat IPC: 2.834 cumulative IPC: 2.809 (Simulation time: 00 hr 08 min 02 sec)
Heartbeat CPU 0 instructions: 84000567 cycles: 30501786 heartbeat IPC: 2.824 cumulative IPC: 2.809 (Simulation time: 00 hr 08 min 04 sec)
Heartbeat CPU 0 instructions: 84500569 cycles: 30681338 heartbeat IPC: 2.785 cumulative IPC: 2.809 (Simulation time: 00 hr 08 min 07 sec)
Heartbeat CPU 0 instructions: 85000574 cycles: 30858627 heartbeat IPC: 2.82 cumulative IPC: 2.809 (Simulation time: 00 hr 08 min 09 sec)
Heartbeat CPU 0 instructions: 85500575 cycles: 31043065 heartbeat IPC: 2.711 cumulative IPC: 2.808 (Simulation time: 00 hr 08 min 12 sec)
Heartbeat CPU 0 instructions: 86000579 cycles: 31221683 heartbeat IPC: 2.799 cumulative IPC: 2.808 (Simulation time: 00 hr 08 min 14 sec)
Heartbeat CPU 0 instructions: 86500580 cycles: 31399892 heartbeat IPC: 2.806 cumulative IPC: 2.808 (Simulation time: 00 hr 08 min 17 sec)
Heartbeat CPU 0 instructions: 87000585 cycles: 31576877 heartbeat IPC: 2.825 cumulative IPC: 2.808 (Simulation time: 00 hr 08 min 19 sec)
Heartbeat CPU 0 instructions: 87500586 cycles: 31753413 heartbeat IPC: 2.832 cumulative IPC: 2.808 (Simulation time: 00 hr 08 min 22 sec)
Heartbeat CPU 0 instructions: 88000593 cycles: 31933817 heartbeat IPC: 2.772 cumulative IPC: 2.808 (Simulation time: 00 hr 08 min 24 sec)
Heartbeat CPU 0 instructions: 88500600 cycles: 32110648 heartbeat IPC: 2.828 cumulative IPC: 2.808 (Simulation time: 00 hr 08 min 26 sec)
Heartbeat CPU 0 instructions: 89000606 cycles: 32290686 heartbeat IPC: 2.777 cumulative IPC: 2.808 (Simulation time: 00 hr 08 min 29 sec)
Heartbeat CPU 0 instructions: 89500607 cycles: 32473258 heartbeat IPC: 2.739 cumulative IPC: 2.807 (Simulation time: 00 hr 08 min 31 sec)
Heartbeat CPU 0 instructions: 90000612 cycles: 32651383 heartbeat IPC: 2.807 cumulative IPC: 2.807 (Simulation time: 00 hr 08 min 34 sec)
Heartbeat CPU 0 instructions: 90500618 cycles: 32827374 heartbeat IPC: 2.841 cumulative IPC: 2.807 (Simulation time: 00 hr 08 min 36 sec)
Heartbeat CPU 0 instructions: 91000619 cycles: 33006059 heartbeat IPC: 2.798 cumulative IPC: 2.807 (Simulation time: 00 hr 08 min 39 sec)
Heartbeat CPU 0 instructions: 91500619 cycles: 33179616 heartbeat IPC: 2.881 cumulative IPC: 2.808 (Simulation time: 00 hr 08 min 41 sec)
Heartbeat CPU 0 instructions: 92000622 cycles: 33353265 heartbeat IPC: 2.879 cumulative IPC: 2.809 (Simulation time: 00 hr 08 min 43 sec)
Heartbeat CPU 0 instructions: 92500623 cycles: 33528800 heartbeat IPC: 2.848 cumulative IPC: 2.809 (Simulation time: 00 hr 08 min 46 sec)
Heartbeat CPU 0 instructions: 93000628 cycles: 33708426 heartbeat IPC: 2.784 cumulative IPC: 2.809 (Simulation time: 00 hr 08 min 48 sec)
Heartbeat CPU 0 instructions: 93500629 cycles: 33885762 heartbeat IPC: 2.82 cumulative IPC: 2.809 (Simulation time: 00 hr 08 min 51 sec)
Heartbeat CPU 0 instructions: 94000634 cycles: 34061911 heartbeat IPC: 2.839 cumulative IPC: 2.809 (Simulation time: 00 hr 08 min 53 sec)
Heartbeat CPU 0 instructions: 94500639 cycles: 34240130 heartbeat IPC: 2.806 cumulative IPC: 2.809 (Simulation time: 00 hr 08 min 56 sec)
Heartbeat CPU 0 instructions: 95000640 cycles: 34416101 heartbeat IPC: 2.841 cumulative IPC: 2.81 (Simulation time: 00 hr 08 min 58 sec)
Heartbeat CPU 0 instructions: 95500647 cycles: 34593531 heartbeat IPC: 2.818 cumulative IPC: 2.81 (Simulation time: 00 hr 09 min 00 sec)
Heartbeat CPU 0 instructions: 96000650 cycles: 34767699 heartbeat IPC: 2.871 cumulative IPC: 2.81 (Simulation time: 00 hr 09 min 03 sec)
Heartbeat CPU 0 instructions: 96500650 cycles: 34944973 heartbeat IPC: 2.82 cumulative IPC: 2.81 (Simulation time: 00 hr 09 min 05 sec)
Heartbeat CPU 0 instructions: 97000657 cycles: 35119455 heartbeat IPC: 2.866 cumulative IPC: 2.811 (Simulation time: 00 hr 09 min 08 sec)
Heartbeat CPU 0 instructions: 97500660 cycles: 35292376 heartbeat IPC: 2.892 cumulative IPC: 2.812 (Simulation time: 00 hr 09 min 10 sec)
Heartbeat CPU 0 instructions: 98000665 cycles: 35466207 heartbeat IPC: 2.876 cumulative IPC: 2.812 (Simulation time: 00 hr 09 min 12 sec)
Heartbeat CPU 0 instructions: 98500665 cycles: 35638481 heartbeat IPC: 2.902 cumulative IPC: 2.813 (Simulation time: 00 hr 09 min 15 sec)
Heartbeat CPU 0 instructions: 99000672 cycles: 35811501 heartbeat IPC: 2.89 cumulative IPC: 2.814 (Simulation time: 00 hr 09 min 17 sec)
Heartbeat CPU 0 instructions: 99500673 cycles: 35984790 heartbeat IPC: 2.885 cumulative IPC: 2.815 (Simulation time: 00 hr 09 min 20 sec)
Heartbeat CPU 0 instructions: 100000673 cycles: 36159751 heartbeat IPC: 2.858 cumulative IPC: 2.815 (Simulation time: 00 hr 09 min 22 sec)
Heartbeat CPU 0 instructions: 100500675 cycles: 36342222 heartbeat IPC: 2.74 cumulative IPC: 2.815 (Simulation time: 00 hr 09 min 24 sec)
Heartbeat CPU 0 instructions: 101000679 cycles: 36517259 heartbeat IPC: 2.857 cumulative IPC: 2.815 (Simulation time: 00 hr 09 min 27 sec)
Heartbeat CPU 0 instructions: 101500682 cycles: 36693882 heartbeat IPC: 2.831 cumulative IPC: 2.815 (Simulation time: 00 hr 09 min 29 sec)
Heartbeat CPU 0 instructions: 102000687 cycles: 36879712 heartbeat IPC: 2.691 cumulative IPC: 2.814 (Simulation time: 00 hr 09 min 32 sec)
Heartbeat CPU 0 instructions: 102500692 cycles: 37058182 heartbeat IPC: 2.802 cumulative IPC: 2.814 (Simulation time: 00 hr 09 min 34 sec)
Heartbeat CPU 0 instructions: 103000697 cycles: 37232646 heartbeat IPC: 2.866 cumulative IPC: 2.814 (Simulation time: 00 hr 09 min 37 sec)
Heartbeat CPU 0 instructions: 103500698 cycles: 37411669 heartbeat IPC: 2.793 cumulative IPC: 2.814 (Simulation time: 00 hr 09 min 39 sec)
Heartbeat CPU 0 instructions: 104000700 cycles: 37593346 heartbeat IPC: 2.752 cumulative IPC: 2.813 (Simulation time: 00 hr 09 min 42 sec)
Heartbeat CPU 0 instructions: 104500700 cycles: 37770777 heartbeat IPC: 2.818 cumulative IPC: 2.813 (Simulation time: 00 hr 09 min 44 sec)
Heartbeat CPU 0 instructions: 105000702 cycles: 37948384 heartbeat IPC: 2.815 cumulative IPC: 2.813 (Simulation time: 00 hr 09 min 46 sec)
Heartbeat CPU 0 instructions: 105500707 cycles: 38124896 heartbeat IPC: 2.833 cumulative IPC: 2.814 (Simulation time: 00 hr 09 min 49 sec)
Heartbeat CPU 0 instructions: 106000708 cycles: 38304228 heartbeat IPC: 2.788 cumulative IPC: 2.813 (Simulation time: 00 hr 09 min 51 sec)
Heartbeat CPU 0 instructions: 106500711 cycles: 38480275 heartbeat IPC: 2.84 cumulative IPC: 2.814 (Simulation time: 00 hr 09 min 54 sec)
Heartbeat CPU 0 instructions: 107000717 cycles: 38660587 heartbeat IPC: 2.773 cumulative IPC: 2.813 (Simulation time: 00 hr 09 min 56 sec)
Heartbeat CPU 0 instructions: 107500719 cycles: 38843707 heartbeat IPC: 2.73 cumulative IPC: 2.813 (Simulation time: 00 hr 09 min 59 sec)
Heartbeat CPU 0 instructions: 108000724 cycles: 39022644 heartbeat IPC: 2.794 cumulative IPC: 2.812 (Simulation time: 00 hr 10 min 01 sec)
Heartbeat CPU 0 instructions: 108500729 cycles: 39202335 heartbeat IPC: 2.783 cumulative IPC: 2.812 (Simulation time: 00 hr 10 min 04 sec)
Heartbeat CPU 0 instructions: 109000736 cycles: 39379147 heartbeat IPC: 2.828 cumulative IPC: 2.812 (Simulation time: 00 hr 10 min 06 sec)
Heartbeat CPU 0 instructions: 109500737 cycles: 39558035 heartbeat IPC: 2.795 cumulative IPC: 2.812 (Simulation time: 00 hr 10 min 08 sec)
Heartbeat CPU 0 instructions: 110000740 cycles: 39735104 heartbeat IPC: 2.824 cumulative IPC: 2.812 (Simulation time: 00 hr 10 min 11 sec)
Heartbeat CPU 0 instructions: 110500747 cycles: 39915584 heartbeat IPC: 2.77 cumulative IPC: 2.812 (Simulation time: 00 hr 10 min 13 sec)
Heartbeat CPU 0 instructions: 111000752 cycles: 40093122 heartbeat IPC: 2.816 cumulative IPC: 2.812 (Simulation time: 00 hr 10 min 16 sec)
Heartbeat CPU 0 instructions: 111500758 cycles: 40277211 heartbeat IPC: 2.716 cumulative IPC: 2.811 (Simulation time: 00 hr 10 min 18 sec)
Heartbeat CPU 0 instructions: 112000760 cycles: 40454860 heartbeat IPC: 2.815 cumulative IPC: 2.811 (Simulation time: 00 hr 10 min 21 sec)
Heartbeat CPU 0 instructions: 112500765 cycles: 40635247 heartbeat IPC: 2.772 cumulative IPC: 2.811 (Simulation time: 00 hr 10 min 23 sec)
Heartbeat CPU 0 instructions: 113000768 cycles: 40813183 heartbeat IPC: 2.81 cumulative IPC: 2.811 (Simulation time: 00 hr 10 min 26 sec)
Heartbeat CPU 0 instructions: 113500774 cycles: 40991676 heartbeat IPC: 2.801 cumulative IPC: 2.811 (Simulation time: 00 hr 10 min 28 sec)
Heartbeat CPU 0 instructions: 114000774 cycles: 41170550 heartbeat IPC: 2.795 cumulative IPC: 2.811 (Simulation time: 00 hr 10 min 30 sec)
Heartbeat CPU 0 instructions: 114500775 cycles: 41348610 heartbeat IPC: 2.808 cumulative IPC: 2.811 (Simulation time: 00 hr 10 min 33 sec)
Heartbeat CPU 0 instructions: 115000775 cycles: 41532511 heartbeat IPC: 2.719 cumulative IPC: 2.81 (Simulation time: 00 hr 10 min 35 sec)
Heartbeat CPU 0 instructions: 115500778 cycles: 41711537 heartbeat IPC: 2.793 cumulative IPC: 2.81 (Simulation time: 00 hr 10 min 38 sec)
Heartbeat CPU 0 instructions: 116000781 cycles: 41889979 heartbeat IPC: 2.802 cumulative IPC: 2.81 (Simulation time: 00 hr 10 min 40 sec)
Heartbeat CPU 0 instructions: 116500781 cycles: 42069968 heartbeat IPC: 2.778 cumulative IPC: 2.809 (Simulation time: 00 hr 10 min 43 sec)
Heartbeat CPU 0 instructions: 117000785 cycles: 42247865 heartbeat IPC: 2.811 cumulative IPC: 2.809 (Simulation time: 00 hr 10 min 45 sec)
Heartbeat CPU 0 instructions: 117500788 cycles: 42426666 heartbeat IPC: 2.796 cumulative IPC: 2.809 (Simulation time: 00 hr 10 min 48 sec)
Heartbeat CPU 0 instructions: 118000790 cycles: 42604912 heartbeat IPC: 2.805 cumulative IPC: 2.809 (Simulation time: 00 hr 10 min 50 sec)
Heartbeat CPU 0 instructions: 118500792 cycles: 42789230 heartbeat IPC: 2.713 cumulative IPC: 2.809 (Simulation time: 00 hr 10 min 53 sec)
Heartbeat CPU 0 instructions: 119000798 cycles: 42967820 heartbeat IPC: 2.8 cumulative IPC: 2.808 (Simulation time: 00 hr 10 min 55 sec)
Heartbeat CPU 0 instructions: 119500803 cycles: 43143285 heartbeat IPC: 2.85 cumulative IPC: 2.809 (Simulation time: 00 hr 10 min 57 sec)
Heartbeat CPU 0 instructions: 120000803 cycles: 43321940 heartbeat IPC: 2.799 cumulative IPC: 2.809 (Simulation time: 00 hr 11 min 00 sec)
Heartbeat CPU 0 instructions: 120500810 cycles: 43499160 heartbeat IPC: 2.821 cumulative IPC: 2.809 (Simulation time: 00 hr 11 min 02 sec)
Heartbeat CPU 0 instructions: 121000813 cycles: 43674805 heartbeat IPC: 2.847 cumulative IPC: 2.809 (Simulation time: 00 hr 11 min 05 sec)
Heartbeat CPU 0 instructions: 121500813 cycles: 43852064 heartbeat IPC: 2.821 cumulative IPC: 2.809 (Simulation time: 00 hr 11 min 07 sec)
Heartbeat CPU 0 instructions: 122000816 cycles: 44030576 heartbeat IPC: 2.801 cumulative IPC: 2.809 (Simulation time: 00 hr 11 min 10 sec)
Heartbeat CPU 0 instructions: 122500817 cycles: 44210280 heartbeat IPC: 2.782 cumulative IPC: 2.809 (Simulation time: 00 hr 11 min 12 sec)
Heartbeat CPU 0 instructions: 123000819 cycles: 44387309 heartbeat IPC: 2.824 cumulative IPC: 2.809 (Simulation time: 00 hr 11 min 14 sec)
Heartbeat CPU 0 instructions: 123500819 cycles: 44563054 heartbeat IPC: 2.845 cumulative IPC: 2.809 (Simulation time: 00 hr 11 min 17 sec)
Heartbeat CPU 0 instructions: 124000826 cycles: 44736444 heartbeat IPC: 2.884 cumulative IPC: 2.81 (Simulation time: 00 hr 11 min 19 sec)
Heartbeat CPU 0 instructions: 124500826 cycles: 44914619 heartbeat IPC: 2.806 cumulative IPC: 2.81 (Simulation time: 00 hr 11 min 22 sec)
Heartbeat CPU 0 instructions: 125000830 cycles: 45090515 heartbeat IPC: 2.843 cumulative IPC: 2.81 (Simulation time: 00 hr 11 min 24 sec)
Heartbeat CPU 0 instructions: 125500832 cycles: 45268423 heartbeat IPC: 2.81 cumulative IPC: 2.81 (Simulation time: 00 hr 11 min 26 sec)
Heartbeat CPU 0 instructions: 126000832 cycles: 45451595 heartbeat IPC: 2.73 cumulative IPC: 2.809 (Simulation time: 00 hr 11 min 29 sec)
Heartbeat CPU 0 instructions: 126500837 cycles: 45628771 heartbeat IPC: 2.822 cumulative IPC: 2.809 (Simulation time: 00 hr 11 min 31 sec)
Heartbeat CPU 0 instructions: 127000843 cycles: 45805335 heartbeat IPC: 2.832 cumulative IPC: 2.81 (Simulation time: 00 hr 11 min 34 sec)
Heartbeat CPU 0 instructions: 127500846 cycles: 45979635 heartbeat IPC: 2.869 cumulative IPC: 2.81 (Simulation time: 00 hr 11 min 36 sec)
Heartbeat CPU 0 instructions: 128000848 cycles: 46153068 heartbeat IPC: 2.883 cumulative IPC: 2.81 (Simulation time: 00 hr 11 min 39 sec)
Heartbeat CPU 0 instructions: 128500855 cycles: 46325114 heartbeat IPC: 2.906 cumulative IPC: 2.811 (Simulation time: 00 hr 11 min 41 sec)
Heartbeat CPU 0 instructions: 129000858 cycles: 46499091 heartbeat IPC: 2.874 cumulative IPC: 2.811 (Simulation time: 00 hr 11 min 43 sec)
Heartbeat CPU 0 instructions: 129500858 cycles: 46676917 heartbeat IPC: 2.812 cumulative IPC: 2.811 (Simulation time: 00 hr 11 min 46 sec)
Heartbeat CPU 0 instructions: 130000861 cycles: 46850921 heartbeat IPC: 2.874 cumulative IPC: 2.812 (Simulation time: 00 hr 11 min 48 sec)
Heartbeat CPU 0 instructions: 130500864 cycles: 47024300 heartbeat IPC: 2.884 cumulative IPC: 2.812 (Simulation time: 00 hr 11 min 51 sec)
Heartbeat CPU 0 instructions: 131000865 cycles: 47199772 heartbeat IPC: 2.849 cumulative IPC: 2.812 (Simulation time: 00 hr 11 min 53 sec)
Heartbeat CPU 0 instructions: 131500868 cycles: 47375105 heartbeat IPC: 2.852 cumulative IPC: 2.813 (Simulation time: 00 hr 11 min 55 sec)
Heartbeat CPU 0 instructions: 132000873 cycles: 47549193 heartbeat IPC: 2.872 cumulative IPC: 2.813 (Simulation time: 00 hr 11 min 58 sec)
Heartbeat CPU 0 instructions: 132500878 cycles: 47728972 heartbeat IPC: 2.781 cumulative IPC: 2.813 (Simulation time: 00 hr 12 min 00 sec)
Heartbeat CPU 0 instructions: 133000878 cycles: 47913945 heartbeat IPC: 2.703 cumulative IPC: 2.812 (Simulation time: 00 hr 12 min 03 sec)
Heartbeat CPU 0 instructions: 133500883 cycles: 48097489 heartbeat IPC: 2.724 cumulative IPC: 2.812 (Simulation time: 00 hr 12 min 05 sec)
Heartbeat CPU 0 instructions: 134000883 cycles: 48274775 heartbeat IPC: 2.82 cumulative IPC: 2.812 (Simulation time: 00 hr 12 min 08 sec)
Heartbeat CPU 0 instructions: 134500890 cycles: 48451332 heartbeat IPC: 2.832 cumulative IPC: 2.812 (Simulation time: 00 hr 12 min 10 sec)
Heartbeat CPU 0 instructions: 135000894 cycles: 48627424 heartbeat IPC: 2.839 cumulative IPC: 2.812 (Simulation time: 00 hr 12 min 13 sec)
Heartbeat CPU 0 instructions: 135500898 cycles: 48807619 heartbeat IPC: 2.775 cumulative IPC: 2.812 (Simulation time: 00 hr 12 min 15 sec)
Heartbeat CPU 0 instructions: 136000898 cycles: 48984946 heartbeat IPC: 2.82 cumulative IPC: 2.812 (Simulation time: 00 hr 12 min 17 sec)
Heartbeat CPU 0 instructions: 136500900 cycles: 49161030 heartbeat IPC: 2.84 cumulative IPC: 2.812 (Simulation time: 00 hr 12 min 20 sec)
Heartbeat CPU 0 instructions: 137000900 cycles: 49345726 heartbeat IPC: 2.707 cumulative IPC: 2.811 (Simulation time: 00 hr 12 min 22 sec)
Heartbeat CPU 0 instructions: 137500905 cycles: 49524183 heartbeat IPC: 2.802 cumulative IPC: 2.811 (Simulation time: 00 hr 12 min 25 sec)
Heartbeat CPU 0 instructions: 138000906 cycles: 49702465 heartbeat IPC: 2.805 cumulative IPC: 2.811 (Simulation time: 00 hr 12 min 27 sec)
Heartbeat CPU 0 instructions: 138500911 cycles: 49879929 heartbeat IPC: 2.818 cumulative IPC: 2.811 (Simulation time: 00 hr 12 min 30 sec)
Heartbeat CPU 0 instructions: 139000912 cycles: 50057182 heartbeat IPC: 2.821 cumulative IPC: 2.811 (Simulation time: 00 hr 12 min 32 sec)
Heartbeat CPU 0 instructions: 139500913 cycles: 50237500 heartbeat IPC: 2.773 cumulative IPC: 2.811 (Simulation time: 00 hr 12 min 35 sec)
Heartbeat CPU 0 instructions: 140000916 cycles: 50417338 heartbeat IPC: 2.78 cumulative IPC: 2.811 (Simulation time: 00 hr 12 min 37 sec)
Heartbeat CPU 0 instructions: 140500917 cycles: 50601622 heartbeat IPC: 2.713 cumulative IPC: 2.81 (Simulation time: 00 hr 12 min 39 sec)
Heartbeat CPU 0 instructions: 141000919 cycles: 50779027 heartbeat IPC: 2.818 cumulative IPC: 2.81 (Simulation time: 00 hr 12 min 42 sec)
Heartbeat CPU 0 instructions: 141500920 cycles: 50957839 heartbeat IPC: 2.796 cumulative IPC: 2.81 (Simulation time: 00 hr 12 min 44 sec)
Heartbeat CPU 0 instructions: 142000922 cycles: 51136503 heartbeat IPC: 2.799 cumulative IPC: 2.81 (Simulation time: 00 hr 12 min 47 sec)
Heartbeat CPU 0 instructions: 142500927 cycles: 51313736 heartbeat IPC: 2.821 cumulative IPC: 2.81 (Simulation time: 00 hr 12 min 49 sec)
Heartbeat CPU 0 instructions: 143000930 cycles: 51492095 heartbeat IPC: 2.803 cumulative IPC: 2.81 (Simulation time: 00 hr 12 min 52 sec)
Heartbeat CPU 0 instructions: 143500936 cycles: 51669726 heartbeat IPC: 2.815 cumulative IPC: 2.81 (Simulation time: 00 hr 12 min 54 sec)
Heartbeat CPU 0 instructions: 144000938 cycles: 51850301 heartbeat IPC: 2.769 cumulative IPC: 2.81 (Simulation time: 00 hr 12 min 57 sec)
Heartbeat CPU 0 instructions: 144500940 cycles: 52031121 heartbeat IPC: 2.765 cumulative IPC: 2.81 (Simulation time: 00 hr 12 min 59 sec)
Heartbeat CPU 0 instructions: 145000947 cycles: 52212536 heartbeat IPC: 2.756 cumulative IPC: 2.81 (Simulation time: 00 hr 13 min 01 sec)
Heartbeat CPU 0 instructions: 145500950 cycles: 52389158 heartbeat IPC: 2.831 cumulative IPC: 2.81 (Simulation time: 00 hr 13 min 04 sec)
Heartbeat CPU 0 instructions: 146000957 cycles: 52568985 heartbeat IPC: 2.78 cumulative IPC: 2.81 (Simulation time: 00 hr 13 min 06 sec)
Heartbeat CPU 0 instructions: 146500962 cycles: 52745708 heartbeat IPC: 2.829 cumulative IPC: 2.81 (Simulation time: 00 hr 13 min 09 sec)
Heartbeat CPU 0 instructions: 147000965 cycles: 52925511 heartbeat IPC: 2.781 cumulative IPC: 2.809 (Simulation time: 00 hr 13 min 11 sec)
Heartbeat CPU 0 instructions: 147500965 cycles: 53101026 heartbeat IPC: 2.849 cumulative IPC: 2.81 (Simulation time: 00 hr 13 min 14 sec)
Heartbeat CPU 0 instructions: 148000967 cycles: 53286441 heartbeat IPC: 2.697 cumulative IPC: 2.809 (Simulation time: 00 hr 13 min 16 sec)
Heartbeat CPU 0 instructions: 148500970 cycles: 53464719 heartbeat IPC: 2.805 cumulative IPC: 2.809 (Simulation time: 00 hr 13 min 19 sec)
Heartbeat CPU 0 instructions: 149000976 cycles: 53643347 heartbeat IPC: 2.799 cumulative IPC: 2.809 (Simulation time: 00 hr 13 min 21 sec)
Heartbeat CPU 0 instructions: 149500979 cycles: 53820833 heartbeat IPC: 2.817 cumulative IPC: 2.809 (Simulation time: 00 hr 13 min 23 sec)
Heartbeat CPU 0 instructions: 150000985 cycles: 53999592 heartbeat IPC: 2.797 cumulative IPC: 2.809 (Simulation time: 00 hr 13 min 26 sec)
Heartbeat CPU 0 instructions: 150500988 cycles: 54176706 heartbeat IPC: 2.823 cumulative IPC: 2.809 (Simulation time: 00 hr 13 min 28 sec)
Heartbeat CPU 0 instructions: 151000991 cycles: 54354490 heartbeat IPC: 2.812 cumulative IPC: 2.809 (Simulation time: 00 hr 13 min 31 sec)
Heartbeat CPU 0 instructions: 151500997 cycles: 54540507 heartbeat IPC: 2.688 cumulative IPC: 2.808 (Simulation time: 00 hr 13 min 33 sec)
Heartbeat CPU 0 instructions: 152001000 cycles: 54716730 heartbeat IPC: 2.837 cumulative IPC: 2.809 (Simulation time: 00 hr 13 min 36 sec)
Heartbeat CPU 0 instructions: 152501007 cycles: 54892274 heartbeat IPC: 2.848 cumulative IPC: 2.809 (Simulation time: 00 hr 13 min 38 sec)
Heartbeat CPU 0 instructions: 153001014 cycles: 55069726 heartbeat IPC: 2.818 cumulative IPC: 2.809 (Simulation time: 00 hr 13 min 41 sec)
Heartbeat CPU 0 instructions: 153501019 cycles: 55245812 heartbeat IPC: 2.84 cumulative IPC: 2.809 (Simulation time: 00 hr 13 min 43 sec)
Heartbeat CPU 0 instructions: 154001020 cycles: 55420389 heartbeat IPC: 2.864 cumulative IPC: 2.809 (Simulation time: 00 hr 13 min 45 sec)
Heartbeat CPU 0 instructions: 154501025 cycles: 55594466 heartbeat IPC: 2.872 cumulative IPC: 2.81 (Simulation time: 00 hr 13 min 48 sec)
Heartbeat CPU 0 instructions: 155001026 cycles: 55772104 heartbeat IPC: 2.815 cumulative IPC: 2.81 (Simulation time: 00 hr 13 min 50 sec)
Heartbeat CPU 0 instructions: 155501033 cycles: 55952695 heartbeat IPC: 2.769 cumulative IPC: 2.809 (Simulation time: 00 hr 13 min 53 sec)
Heartbeat CPU 0 instructions: 156001036 cycles: 56127541 heartbeat IPC: 2.86 cumulative IPC: 2.81 (Simulation time: 00 hr 13 min 55 sec)
Heartbeat CPU 0 instructions: 156501043 cycles: 56304171 heartbeat IPC: 2.831 cumulative IPC: 2.81 (Simulation time: 00 hr 13 min 57 sec)
Heartbeat CPU 0 instructions: 157001047 cycles: 56481324 heartbeat IPC: 2.822 cumulative IPC: 2.81 (Simulation time: 00 hr 14 min 00 sec)
Heartbeat CPU 0 instructions: 157501051 cycles: 56658292 heartbeat IPC: 2.825 cumulative IPC: 2.81 (Simulation time: 00 hr 14 min 02 sec)
Heartbeat CPU 0 instructions: 158001054 cycles: 56834977 heartbeat IPC: 2.83 cumulative IPC: 2.81 (Simulation time: 00 hr 14 min 05 sec)
Heartbeat CPU 0 instructions: 158501058 cycles: 57009624 heartbeat IPC: 2.863 cumulative IPC: 2.81 (Simulation time: 00 hr 14 min 07 sec)
Heartbeat CPU 0 instructions: 159001059 cycles: 57189226 heartbeat IPC: 2.784 cumulative IPC: 2.81 (Simulation time: 00 hr 14 min 10 sec)
Heartbeat CPU 0 instructions: 159501065 cycles: 57362931 heartbeat IPC: 2.878 cumulative IPC: 2.81 (Simulation time: 00 hr 14 min 12 sec)
Heartbeat CPU 0 instructions: 160001067 cycles: 57534911 heartbeat IPC: 2.907 cumulative IPC: 2.811 (Simulation time: 00 hr 14 min 14 sec)
Heartbeat CPU 0 instructions: 160501072 cycles: 57707257 heartbeat IPC: 2.901 cumulative IPC: 2.811 (Simulation time: 00 hr 14 min 17 sec)
Heartbeat CPU 0 instructions: 161001077 cycles: 57880065 heartbeat IPC: 2.893 cumulative IPC: 2.812 (Simulation time: 00 hr 14 min 19 sec)
Heartbeat CPU 0 instructions: 161501080 cycles: 58053235 heartbeat IPC: 2.887 cumulative IPC: 2.812 (Simulation time: 00 hr 14 min 21 sec)
Heartbeat CPU 0 instructions: 162001083 cycles: 58230120 heartbeat IPC: 2.827 cumulative IPC: 2.812 (Simulation time: 00 hr 14 min 24 sec)
Heartbeat CPU 0 instructions: 162501085 cycles: 58410923 heartbeat IPC: 2.765 cumulative IPC: 2.812 (Simulation time: 00 hr 14 min 26 sec)
Heartbeat CPU 0 instructions: 163001086 cycles: 58585824 heartbeat IPC: 2.859 cumulative IPC: 2.812 (Simulation time: 00 hr 14 min 29 sec)
Heartbeat CPU 0 instructions: 163501086 cycles: 58761461 heartbeat IPC: 2.847 cumulative IPC: 2.812 (Simulation time: 00 hr 14 min 31 sec)
Heartbeat CPU 0 instructions: 164001089 cycles: 58939731 heartbeat IPC: 2.805 cumulative IPC: 2.812 (Simulation time: 00 hr 14 min 34 sec)
Heartbeat CPU 0 instructions: 164501092 cycles: 59126419 heartbeat IPC: 2.678 cumulative IPC: 2.811 (Simulation time: 00 hr 14 min 36 sec)
Heartbeat CPU 0 instructions: 165001097 cycles: 59302815 heartbeat IPC: 2.835 cumulative IPC: 2.812 (Simulation time: 00 hr 14 min 38 sec)
Heartbeat CPU 0 instructions: 165501104 cycles: 59480795 heartbeat IPC: 2.809 cumulative IPC: 2.812 (Simulation time: 00 hr 14 min 41 sec)
Heartbeat CPU 0 instructions: 166001104 cycles: 59659360 heartbeat IPC: 2.8 cumulative IPC: 2.811 (Simulation time: 00 hr 14 min 43 sec)
Heartbeat CPU 0 instructions: 166501106 cycles: 59843496 heartbeat IPC: 2.715 cumulative IPC: 2.811 (Simulation time: 00 hr 14 min 46 sec)
Heartbeat CPU 0 instructions: 167001110 cycles: 60018657 heartbeat IPC: 2.855 cumulative IPC: 2.811 (Simulation time: 00 hr 14 min 48 sec)
Heartbeat CPU 0 instructions: 167501113 cycles: 60198459 heartbeat IPC: 2.781 cumulative IPC: 2.811 (Simulation time: 00 hr 14 min 51 sec)
Heartbeat CPU 0 instructions: 168001114 cycles: 60374722 heartbeat IPC: 2.837 cumulative IPC: 2.811 (Simulation time: 00 hr 14 min 53 sec)
Heartbeat CPU 0 instructions: 168501117 cycles: 60552837 heartbeat IPC: 2.807 cumulative IPC: 2.811 (Simulation time: 00 hr 14 min 56 sec)
Heartbeat CPU 0 instructions: 169001122 cycles: 60730044 heartbeat IPC: 2.822 cumulative IPC: 2.811 (Simulation time: 00 hr 14 min 58 sec)
Heartbeat CPU 0 instructions: 169501125 cycles: 60909042 heartbeat IPC: 2.793 cumulative IPC: 2.811 (Simulation time: 00 hr 15 min 00 sec)
Heartbeat CPU 0 instructions: 170001125 cycles: 61092866 heartbeat IPC: 2.72 cumulative IPC: 2.811 (Simulation time: 00 hr 15 min 03 sec)
Heartbeat CPU 0 instructions: 170501125 cycles: 61271975 heartbeat IPC: 2.792 cumulative IPC: 2.811 (Simulation time: 00 hr 15 min 05 sec)
Heartbeat CPU 0 instructions: 171001125 cycles: 61451169 heartbeat IPC: 2.79 cumulative IPC: 2.811 (Simulation time: 00 hr 15 min 08 sec)
Heartbeat CPU 0 instructions: 171501131 cycles: 61629550 heartbeat IPC: 2.803 cumulative IPC: 2.811 (Simulation time: 00 hr 15 min 10 sec)
Heartbeat CPU 0 instructions: 172001134 cycles: 61810305 heartbeat IPC: 2.766 cumulative IPC: 2.81 (Simulation time: 00 hr 15 min 13 sec)
Heartbeat CPU 0 instructions: 172501141 cycles: 61987047 heartbeat IPC: 2.829 cumulative IPC: 2.81 (Simulation time: 00 hr 15 min 15 sec)
Heartbeat CPU 0 instructions: 173001142 cycles: 62165912 heartbeat IPC: 2.795 cumulative IPC: 2.81 (Simulation time: 00 hr 15 min 18 sec)
Heartbeat CPU 0 instructions: 173501144 cycles: 62350536 heartbeat IPC: 2.708 cumulative IPC: 2.81 (Simulation time: 00 hr 15 min 20 sec)
Heartbeat CPU 0 instructions: 174001149 cycles: 62528275 heartbeat IPC: 2.813 cumulative IPC: 2.81 (Simulation time: 00 hr 15 min 23 sec)
Heartbeat CPU 0 instructions: 174501149 cycles: 62706998 heartbeat IPC: 2.798 cumulative IPC: 2.81 (Simulation time: 00 hr 15 min 25 sec)
Heartbeat CPU 0 instructions: 175001149 cycles: 62887183 heartbeat IPC: 2.775 cumulative IPC: 2.81 (Simulation time: 00 hr 15 min 27 sec)
Heartbeat CPU 0 instructions: 175501155 cycles: 63064058 heartbeat IPC: 2.827 cumulative IPC: 2.81 (Simulation time: 00 hr 15 min 30 sec)
Heartbeat CPU 0 instructions: 176001159 cycles: 63242326 heartbeat IPC: 2.805 cumulative IPC: 2.81 (Simulation time: 00 hr 15 min 32 sec)
Heartbeat CPU 0 instructions: 176501162 cycles: 63421346 heartbeat IPC: 2.793 cumulative IPC: 2.81 (Simulation time: 00 hr 15 min 35 sec)
Heartbeat CPU 0 instructions: 177001162 cycles: 63601376 heartbeat IPC: 2.777 cumulative IPC: 2.81 (Simulation time: 00 hr 15 min 37 sec)
Heartbeat CPU 0 instructions: 177501166 cycles: 63783534 heartbeat IPC: 2.745 cumulative IPC: 2.809 (Simulation time: 00 hr 15 min 40 sec)
Heartbeat CPU 0 instructions: 178001169 cycles: 63965028 heartbeat IPC: 2.755 cumulative IPC: 2.809 (Simulation time: 00 hr 15 min 42 sec)
Heartbeat CPU 0 instructions: 178501176 cycles: 64143861 heartbeat IPC: 2.796 cumulative IPC: 2.809 (Simulation time: 00 hr 15 min 45 sec)
Heartbeat CPU 0 instructions: 179001178 cycles: 64322272 heartbeat IPC: 2.803 cumulative IPC: 2.809 (Simulation time: 00 hr 15 min 47 sec)
Heartbeat CPU 0 instructions: 179501184 cycles: 64501579 heartbeat IPC: 2.789 cumulative IPC: 2.809 (Simulation time: 00 hr 15 min 49 sec)
Heartbeat CPU 0 instructions: 180001189 cycles: 64680522 heartbeat IPC: 2.794 cumulative IPC: 2.809 (Simulation time: 00 hr 15 min 52 sec)
Heartbeat CPU 0 instructions: 180501194 cycles: 64857771 heartbeat IPC: 2.821 cumulative IPC: 2.809 (Simulation time: 00 hr 15 min 54 sec)
Heartbeat CPU 0 instructions: 181001198 cycles: 65042355 heartbeat IPC: 2.709 cumulative IPC: 2.809 (Simulation time: 00 hr 15 min 57 sec)
Heartbeat CPU 0 instructions: 181501199 cycles: 65222456 heartbeat IPC: 2.776 cumulative IPC: 2.808 (Simulation time: 00 hr 15 min 59 sec)
Heartbeat CPU 0 instructions: 182001201 cycles: 65398027 heartbeat IPC: 2.848 cumulative IPC: 2.809 (Simulation time: 00 hr 16 min 02 sec)
Heartbeat CPU 0 instructions: 182501207 cycles: 65578518 heartbeat IPC: 2.77 cumulative IPC: 2.808 (Simulation time: 00 hr 16 min 04 sec)
Heartbeat CPU 0 instructions: 183001208 cycles: 65754545 heartbeat IPC: 2.84 cumulative IPC: 2.809 (Simulation time: 00 hr 16 min 07 sec)
Heartbeat CPU 0 instructions: 183501213 cycles: 65932683 heartbeat IPC: 2.807 cumulative IPC: 2.809 (Simulation time: 00 hr 16 min 09 sec)
Heartbeat CPU 0 instructions: 184001216 cycles: 66108637 heartbeat IPC: 2.842 cumulative IPC: 2.809 (Simulation time: 00 hr 16 min 11 sec)
Heartbeat CPU 0 instructions: 184501218 cycles: 66291456 heartbeat IPC: 2.735 cumulative IPC: 2.808 (Simulation time: 00 hr 16 min 14 sec)
Heartbeat CPU 0 instructions: 185001224 cycles: 66468961 heartbeat IPC: 2.817 cumulative IPC: 2.808 (Simulation time: 00 hr 16 min 16 sec)
Heartbeat CPU 0 instructions: 185501227 cycles: 66643459 heartbeat IPC: 2.865 cumulative IPC: 2.809 (Simulation time: 00 hr 16 min 19 sec)
Heartbeat CPU 0 instructions: 186001230 cycles: 66821289 heartbeat IPC: 2.812 cumulative IPC: 2.809 (Simulation time: 00 hr 16 min 21 sec)
Heartbeat CPU 0 instructions: 186501230 cycles: 66994881 heartbeat IPC: 2.88 cumulative IPC: 2.809 (Simulation time: 00 hr 16 min 24 sec)
Heartbeat CPU 0 instructions: 187001234 cycles: 67170409 heartbeat IPC: 2.849 cumulative IPC: 2.809 (Simulation time: 00 hr 16 min 26 sec)
Heartbeat CPU 0 instructions: 187501237 cycles: 67349325 heartbeat IPC: 2.795 cumulative IPC: 2.809 (Simulation time: 00 hr 16 min 28 sec)
Heartbeat CPU 0 instructions: 188001237 cycles: 67527461 heartbeat IPC: 2.807 cumulative IPC: 2.809 (Simulation time: 00 hr 16 min 31 sec)
Heartbeat CPU 0 instructions: 188501244 cycles: 67708009 heartbeat IPC: 2.769 cumulative IPC: 2.809 (Simulation time: 00 hr 16 min 33 sec)
Heartbeat CPU 0 instructions: 189001247 cycles: 67885495 heartbeat IPC: 2.817 cumulative IPC: 2.809 (Simulation time: 00 hr 16 min 36 sec)
Heartbeat CPU 0 instructions: 189501254 cycles: 68060397 heartbeat IPC: 2.859 cumulative IPC: 2.809 (Simulation time: 00 hr 16 min 38 sec)
Heartbeat CPU 0 instructions: 190001255 cycles: 68233169 heartbeat IPC: 2.894 cumulative IPC: 2.809 (Simulation time: 00 hr 16 min 40 sec)
Heartbeat CPU 0 instructions: 190501260 cycles: 68406833 heartbeat IPC: 2.879 cumulative IPC: 2.81 (Simulation time: 00 hr 16 min 43 sec)
Heartbeat CPU 0 instructions: 191001263 cycles: 68579578 heartbeat IPC: 2.894 cumulative IPC: 2.81 (Simulation time: 00 hr 16 min 45 sec)
Heartbeat CPU 0 instructions: 191501264 cycles: 68753920 heartbeat IPC: 2.868 cumulative IPC: 2.81 (Simulation time: 00 hr 16 min 48 sec)
Heartbeat CPU 0 instructions: 192001266 cycles: 68931586 heartbeat IPC: 2.814 cumulative IPC: 2.81 (Simulation time: 00 hr 16 min 50 sec)
Heartbeat CPU 0 instructions: 192501266 cycles: 69104189 heartbeat IPC: 2.897 cumulative IPC: 2.81 (Simulation time: 00 hr 16 min 52 sec)
Heartbeat CPU 0 instructions: 193001269 cycles: 69279168 heartbeat IPC: 2.858 cumulative IPC: 2.811 (Simulation time: 00 hr 16 min 55 sec)
Heartbeat CPU 0 instructions: 193501272 cycles: 69452599 heartbeat IPC: 2.883 cumulative IPC: 2.811 (Simulation time: 00 hr 16 min 57 sec)
Heartbeat CPU 0 instructions: 194001275 cycles: 69627196 heartbeat IPC: 2.864 cumulative IPC: 2.811 (Simulation time: 00 hr 17 min 00 sec)
Heartbeat CPU 0 instructions: 194501279 cycles: 69801838 heartbeat IPC: 2.863 cumulative IPC: 2.811 (Simulation time: 00 hr 17 min 02 sec)
Heartbeat CPU 0 instructions: 195001283 cycles: 69981403 heartbeat IPC: 2.785 cumulative IPC: 2.811 (Simulation time: 00 hr 17 min 04 sec)
Heartbeat CPU 0 instructions: 195501287 cycles: 70175921 heartbeat IPC: 2.57 cumulative IPC: 2.81 (Simulation time: 00 hr 17 min 07 sec)
Heartbeat CPU 0 instructions: 196001290 cycles: 70355701 heartbeat IPC: 2.781 cumulative IPC: 2.81 (Simulation time: 00 hr 17 min 10 sec)
Heartbeat CPU 0 instructions: 196501295 cycles: 70532284 heartbeat IPC: 2.832 cumulative IPC: 2.81 (Simulation time: 00 hr 17 min 12 sec)
Heartbeat CPU 0 instructions: 197001296 cycles: 70710413 heartbeat IPC: 2.807 cumulative IPC: 2.81 (Simulation time: 00 hr 17 min 14 sec)
Heartbeat CPU 0 instructions: 197501299 cycles: 70888491 heartbeat IPC: 2.808 cumulative IPC: 2.81 (Simulation time: 00 hr 17 min 17 sec)
Heartbeat CPU 0 instructions: 198001300 cycles: 71066510 heartbeat IPC: 2.809 cumulative IPC: 2.81 (Simulation time: 00 hr 17 min 19 sec)
Heartbeat CPU 0 instructions: 198501301 cycles: 71243808 heartbeat IPC: 2.82 cumulative IPC: 2.81 (Simulation time: 00 hr 17 min 22 sec)
Heartbeat CPU 0 instructions: 199001304 cycles: 71424987 heartbeat IPC: 2.76 cumulative IPC: 2.81 (Simulation time: 00 hr 17 min 24 sec)
Heartbeat CPU 0 instructions: 199501307 cycles: 71607310 heartbeat IPC: 2.742 cumulative IPC: 2.81 (Simulation time: 00 hr 17 min 27 sec)
Heartbeat CPU 0 instructions: 200001309 cycles: 71785963 heartbeat IPC: 2.799 cumulative IPC: 2.81 (Simulation time: 00 hr 17 min 29 sec)
Heartbeat CPU 0 instructions: 200501315 cycles: 71962464 heartbeat IPC: 2.833 cumulative IPC: 2.81 (Simulation time: 00 hr 17 min 32 sec)
Heartbeat CPU 0 instructions: 201001322 cycles: 72142861 heartbeat IPC: 2.772 cumulative IPC: 2.81 (Simulation time: 00 hr 17 min 34 sec)
Heartbeat CPU 0 instructions: 201501325 cycles: 72319767 heartbeat IPC: 2.826 cumulative IPC: 2.81 (Simulation time: 00 hr 17 min 36 sec)
Heartbeat CPU 0 instructions: 202001330 cycles: 72501630 heartbeat IPC: 2.749 cumulative IPC: 2.81 (Simulation time: 00 hr 17 min 39 sec)
Heartbeat CPU 0 instructions: 202501332 cycles: 72680739 heartbeat IPC: 2.792 cumulative IPC: 2.809 (Simulation time: 00 hr 17 min 41 sec)
Heartbeat CPU 0 instructions: 203001333 cycles: 72865776 heartbeat IPC: 2.702 cumulative IPC: 2.809 (Simulation time: 00 hr 17 min 44 sec)
Heartbeat CPU 0 instructions: 203501338 cycles: 73044886 heartbeat IPC: 2.792 cumulative IPC: 2.809 (Simulation time: 00 hr 17 min 46 sec)
Heartbeat CPU 0 instructions: 204001345 cycles: 73222898 heartbeat IPC: 2.809 cumulative IPC: 2.809 (Simulation time: 00 hr 17 min 49 sec)
Heartbeat CPU 0 instructions: 204501346 cycles: 73401062 heartbeat IPC: 2.806 cumulative IPC: 2.809 (Simulation time: 00 hr 17 min 51 sec)
Heartbeat CPU 0 instructions: 205001349 cycles: 73578609 heartbeat IPC: 2.816 cumulative IPC: 2.809 (Simulation time: 00 hr 17 min 54 sec)
Heartbeat CPU 0 instructions: 205501354 cycles: 73758272 heartbeat IPC: 2.783 cumulative IPC: 2.809 (Simulation time: 00 hr 17 min 56 sec)
Heartbeat CPU 0 instructions: 206001361 cycles: 73937312 heartbeat IPC: 2.793 cumulative IPC: 2.809 (Simulation time: 00 hr 17 min 58 sec)
Heartbeat CPU 0 instructions: 206501362 cycles: 74122972 heartbeat IPC: 2.693 cumulative IPC: 2.809 (Simulation time: 00 hr 18 min 01 sec)
Heartbeat CPU 0 instructions: 207001365 cycles: 74300443 heartbeat IPC: 2.817 cumulative IPC: 2.809 (Simulation time: 00 hr 18 min 03 sec)
Heartbeat CPU 0 instructions: 207501370 cycles: 74479855 heartbeat IPC: 2.787 cumulative IPC: 2.808 (Simulation time: 00 hr 18 min 06 sec)
Heartbeat CPU 0 instructions: 208001373 cycles: 74658745 heartbeat IPC: 2.795 cumulative IPC: 2.808 (Simulation time: 00 hr 18 min 08 sec)
Heartbeat CPU 0 instructions: 208501378 cycles: 74835733 heartbeat IPC: 2.825 cumulative IPC: 2.808 (Simulation time: 00 hr 18 min 11 sec)
Heartbeat CPU 0 instructions: 209001383 cycles: 75015361 heartbeat IPC: 2.784 cumulative IPC: 2.808 (Simulation time: 00 hr 18 min 13 sec)
Heartbeat CPU 0 instructions: 209501387 cycles: 75191657 heartbeat IPC: 2.836 cumulative IPC: 2.808 (Simulation time: 00 hr 18 min 16 sec)
Heartbeat CPU 0 instructions: 210001388 cycles: 75375241 heartbeat IPC: 2.724 cumulative IPC: 2.808 (Simulation time: 00 hr 18 min 18 sec)
Heartbeat CPU 0 instructions: 210501391 cycles: 75556895 heartbeat IPC: 2.753 cumulative IPC: 2.808 (Simulation time: 00 hr 18 min 20 sec)
Heartbeat CPU 0 instructions: 211001392 cycles: 75737984 heartbeat IPC: 2.761 cumulative IPC: 2.808 (Simulation time: 00 hr 18 min 23 sec)
Heartbeat CPU 0 instructions: 211501392 cycles: 75914737 heartbeat IPC: 2.829 cumulative IPC: 2.808 (Simulation time: 00 hr 18 min 25 sec)
Heartbeat CPU 0 instructions: 212001396 cycles: 76093895 heartbeat IPC: 2.791 cumulative IPC: 2.808 (Simulation time: 00 hr 18 min 28 sec)
Heartbeat CPU 0 instructions: 212501399 cycles: 76271428 heartbeat IPC: 2.816 cumulative IPC: 2.808 (Simulation time: 00 hr 18 min 30 sec)
Heartbeat CPU 0 instructions: 213001402 cycles: 76448363 heartbeat IPC: 2.826 cumulative IPC: 2.808 (Simulation time: 00 hr 18 min 33 sec)
Heartbeat CPU 0 instructions: 213501405 cycles: 76628461 heartbeat IPC: 2.776 cumulative IPC: 2.808 (Simulation time: 00 hr 18 min 35 sec)
Heartbeat CPU 0 instructions: 214001408 cycles: 76810854 heartbeat IPC: 2.741 cumulative IPC: 2.808 (Simulation time: 00 hr 18 min 38 sec)
Heartbeat CPU 0 instructions: 214501415 cycles: 76987085 heartbeat IPC: 2.837 cumulative IPC: 2.808 (Simulation time: 00 hr 18 min 40 sec)
Heartbeat CPU 0 instructions: 215001422 cycles: 77165895 heartbeat IPC: 2.796 cumulative IPC: 2.808 (Simulation time: 00 hr 18 min 42 sec)
Heartbeat CPU 0 instructions: 215501423 cycles: 77341644 heartbeat IPC: 2.845 cumulative IPC: 2.808 (Simulation time: 00 hr 18 min 45 sec)
Heartbeat CPU 0 instructions: 216001424 cycles: 77515735 heartbeat IPC: 2.872 cumulative IPC: 2.808 (Simulation time: 00 hr 18 min 47 sec)
Heartbeat CPU 0 instructions: 216501431 cycles: 77693118 heartbeat IPC: 2.819 cumulative IPC: 2.808 (Simulation time: 00 hr 18 min 50 sec)
Heartbeat CPU 0 instructions: 217001436 cycles: 77867722 heartbeat IPC: 2.864 cumulative IPC: 2.808 (Simulation time: 00 hr 18 min 52 sec)
Heartbeat CPU 0 instructions: 217501438 cycles: 78048567 heartbeat IPC: 2.765 cumulative IPC: 2.808 (Simulation time: 00 hr 18 min 54 sec)
Heartbeat CPU 0 instructions: 218001444 cycles: 78226727 heartbeat IPC: 2.806 cumulative IPC: 2.808 (Simulation time: 00 hr 18 min 57 sec)
Heartbeat CPU 0 instructions: 218501450 cycles: 78403175 heartbeat IPC: 2.834 cumulative IPC: 2.808 (Simulation time: 00 hr 18 min 59 sec)
Heartbeat CPU 0 instructions: 219001453 cycles: 78580890 heartbeat IPC: 2.814 cumulative IPC: 2.808 (Simulation time: 00 hr 19 min 02 sec)
Heartbeat CPU 0 instructions: 219501455 cycles: 78757564 heartbeat IPC: 2.83 cumulative IPC: 2.808 (Simulation time: 00 hr 19 min 04 sec)
Heartbeat CPU 0 instructions: 220001456 cycles: 78934676 heartbeat IPC: 2.823 cumulative IPC: 2.808 (Simulation time: 00 hr 19 min 06 sec)
Heartbeat CPU 0 instructions: 220501460 cycles: 79108687 heartbeat IPC: 2.873 cumulative IPC: 2.808 (Simulation time: 00 hr 19 min 09 sec)
Heartbeat CPU 0 instructions: 221001461 cycles: 79285521 heartbeat IPC: 2.828 cumulative IPC: 2.809 (Simulation time: 00 hr 19 min 11 sec)
Heartbeat CPU 0 instructions: 221501468 cycles: 79461915 heartbeat IPC: 2.835 cumulative IPC: 2.809 (Simulation time: 00 hr 19 min 14 sec)
Heartbeat CPU 0 instructions: 222001469 cycles: 79635028 heartbeat IPC: 2.888 cumulative IPC: 2.809 (Simulation time: 00 hr 19 min 16 sec)
Heartbeat CPU 0 instructions: 222501476 cycles: 79808576 heartbeat IPC: 2.881 cumulative IPC: 2.809 (Simulation time: 00 hr 19 min 18 sec)
Heartbeat CPU 0 instructions: 223001481 cycles: 79981516 heartbeat IPC: 2.891 cumulative IPC: 2.809 (Simulation time: 00 hr 19 min 21 sec)
Heartbeat CPU 0 instructions: 223501484 cycles: 80155696 heartbeat IPC: 2.871 cumulative IPC: 2.809 (Simulation time: 00 hr 19 min 23 sec)
Heartbeat CPU 0 instructions: 224001487 cycles: 80329043 heartbeat IPC: 2.884 cumulative IPC: 2.81 (Simulation time: 00 hr 19 min 25 sec)
Heartbeat CPU 0 instructions: 224501489 cycles: 80504458 heartbeat IPC: 2.85 cumulative IPC: 2.81 (Simulation time: 00 hr 19 min 28 sec)
Heartbeat CPU 0 instructions: 225001496 cycles: 80686791 heartbeat IPC: 2.742 cumulative IPC: 2.81 (Simulation time: 00 hr 19 min 30 sec)
Heartbeat CPU 0 instructions: 225501499 cycles: 80860605 heartbeat IPC: 2.877 cumulative IPC: 2.81 (Simulation time: 00 hr 19 min 33 sec)
Heartbeat CPU 0 instructions: 226001500 cycles: 81038325 heartbeat IPC: 2.813 cumulative IPC: 2.81 (Simulation time: 00 hr 19 min 35 sec)
Heartbeat CPU 0 instructions: 226501507 cycles: 81221704 heartbeat IPC: 2.727 cumulative IPC: 2.81 (Simulation time: 00 hr 19 min 37 sec)
Heartbeat CPU 0 instructions: 227001514 cycles: 81400279 heartbeat IPC: 2.8 cumulative IPC: 2.81 (Simulation time: 00 hr 19 min 40 sec)
Heartbeat CPU 0 instructions: 227501517 cycles: 81574751 heartbeat IPC: 2.866 cumulative IPC: 2.81 (Simulation time: 00 hr 19 min 42 sec)
Heartbeat CPU 0 instructions: 228001520 cycles: 81753524 heartbeat IPC: 2.797 cumulative IPC: 2.81 (Simulation time: 00 hr 19 min 45 sec)
Heartbeat CPU 0 instructions: 228501520 cycles: 81936398 heartbeat IPC: 2.734 cumulative IPC: 2.809 (Simulation time: 00 hr 19 min 47 sec)
Heartbeat CPU 0 instructions: 229001526 cycles: 82115535 heartbeat IPC: 2.791 cumulative IPC: 2.809 (Simulation time: 00 hr 19 min 50 sec)
Heartbeat CPU 0 instructions: 229501527 cycles: 82292250 heartbeat IPC: 2.829 cumulative IPC: 2.809 (Simulation time: 00 hr 19 min 52 sec)
Heartbeat CPU 0 instructions: 230001530 cycles: 82470762 heartbeat IPC: 2.801 cumulative IPC: 2.809 (Simulation time: 00 hr 19 min 54 sec)
Heartbeat CPU 0 instructions: 230501533 cycles: 82648654 heartbeat IPC: 2.811 cumulative IPC: 2.809 (Simulation time: 00 hr 19 min 57 sec)
Heartbeat CPU 0 instructions: 231001540 cycles: 82826946 heartbeat IPC: 2.804 cumulative IPC: 2.809 (Simulation time: 00 hr 19 min 59 sec)
Heartbeat CPU 0 instructions: 231501544 cycles: 83004480 heartbeat IPC: 2.816 cumulative IPC: 2.809 (Simulation time: 00 hr 20 min 02 sec)
Heartbeat CPU 0 instructions: 232001545 cycles: 83185596 heartbeat IPC: 2.761 cumulative IPC: 2.809 (Simulation time: 00 hr 20 min 04 sec)
Heartbeat CPU 0 instructions: 232501546 cycles: 83366982 heartbeat IPC: 2.757 cumulative IPC: 2.809 (Simulation time: 00 hr 20 min 06 sec)
Heartbeat CPU 0 instructions: 233001551 cycles: 83546338 heartbeat IPC: 2.788 cumulative IPC: 2.809 (Simulation time: 00 hr 20 min 09 sec)
Heartbeat CPU 0 instructions: 233501558 cycles: 83722964 heartbeat IPC: 2.831 cumulative IPC: 2.809 (Simulation time: 00 hr 20 min 11 sec)
Heartbeat CPU 0 instructions: 234001561 cycles: 83903078 heartbeat IPC: 2.776 cumulative IPC: 2.809 (Simulation time: 00 hr 20 min 14 sec)
Heartbeat CPU 0 instructions: 234501564 cycles: 84079871 heartbeat IPC: 2.828 cumulative IPC: 2.809 (Simulation time: 00 hr 20 min 16 sec)
Heartbeat CPU 0 instructions: 235001567 cycles: 84260411 heartbeat IPC: 2.769 cumulative IPC: 2.809 (Simulation time: 00 hr 20 min 18 sec)
Heartbeat CPU 0 instructions: 235501567 cycles: 84437361 heartbeat IPC: 2.826 cumulative IPC: 2.809 (Simulation time: 00 hr 20 min 21 sec)
Heartbeat CPU 0 instructions: 236001570 cycles: 84624798 heartbeat IPC: 2.668 cumulative IPC: 2.809 (Simulation time: 00 hr 20 min 23 sec)
Heartbeat CPU 0 instructions: 236501572 cycles: 84801278 heartbeat IPC: 2.833 cumulative IPC: 2.809 (Simulation time: 00 hr 20 min 26 sec)
Heartbeat CPU 0 instructions: 237001576 cycles: 84980160 heartbeat IPC: 2.795 cumulative IPC: 2.809 (Simulation time: 00 hr 20 min 28 sec)
Heartbeat CPU 0 instructions: 237501580 cycles: 85160160 heartbeat IPC: 2.778 cumulative IPC: 2.809 (Simulation time: 00 hr 20 min 31 sec)
Heartbeat CPU 0 instructions: 238001585 cycles: 85336081 heartbeat IPC: 2.842 cumulative IPC: 2.809 (Simulation time: 00 hr 20 min 33 sec)
Heartbeat CPU 0 instructions: 238501585 cycles: 85516701 heartbeat IPC: 2.768 cumulative IPC: 2.809 (Simulation time: 00 hr 20 min 35 sec)
Heartbeat CPU 0 instructions: 239001587 cycles: 85693123 heartbeat IPC: 2.834 cumulative IPC: 2.809 (Simulation time: 00 hr 20 min 38 sec)
Heartbeat CPU 0 instructions: 239501587 cycles: 85880387 heartbeat IPC: 2.67 cumulative IPC: 2.808 (Simulation time: 00 hr 20 min 40 sec)
Heartbeat CPU 0 instructions: 240001588 cycles: 86057346 heartbeat IPC: 2.826 cumulative IPC: 2.808 (Simulation time: 00 hr 20 min 43 sec)
Heartbeat CPU 0 instructions: 240501591 cycles: 86238478 heartbeat IPC: 2.76 cumulative IPC: 2.808 (Simulation time: 00 hr 20 min 45 sec)
Heartbeat CPU 0 instructions: 241001596 cycles: 86415441 heartbeat IPC: 2.825 cumulative IPC: 2.808 (Simulation time: 00 hr 20 min 47 sec)
Heartbeat CPU 0 instructions: 241501603 cycles: 86593882 heartbeat IPC: 2.802 cumulative IPC: 2.808 (Simulation time: 00 hr 20 min 50 sec)
Heartbeat CPU 0 instructions: 242001603 cycles: 86774717 heartbeat IPC: 2.765 cumulative IPC: 2.808 (Simulation time: 00 hr 20 min 52 sec)
Heartbeat CPU 0 instructions: 242501609 cycles: 86951067 heartbeat IPC: 2.835 cumulative IPC: 2.808 (Simulation time: 00 hr 20 min 55 sec)
Heartbeat CPU 0 instructions: 243001611 cycles: 87134354 heartbeat IPC: 2.728 cumulative IPC: 2.808 (Simulation time: 00 hr 20 min 57 sec)
Heartbeat CPU 0 instructions: 243501615 cycles: 87313787 heartbeat IPC: 2.787 cumulative IPC: 2.808 (Simulation time: 00 hr 21 min 00 sec)
Heartbeat CPU 0 instructions: 244001618 cycles: 87493684 heartbeat IPC: 2.779 cumulative IPC: 2.808 (Simulation time: 00 hr 21 min 02 sec)
Heartbeat CPU 0 instructions: 244501618 cycles: 87671007 heartbeat IPC: 2.82 cumulative IPC: 2.808 (Simulation time: 00 hr 21 min 04 sec)
Heartbeat CPU 0 instructions: 245001620 cycles: 87852359 heartbeat IPC: 2.757 cumulative IPC: 2.808 (Simulation time: 00 hr 21 min 07 sec)
Heartbeat CPU 0 instructions: 245501625 cycles: 88026507 heartbeat IPC: 2.871 cumulative IPC: 2.808 (Simulation time: 00 hr 21 min 09 sec)
Heartbeat CPU 0 instructions: 246001630 cycles: 88203189 heartbeat IPC: 2.83 cumulative IPC: 2.808 (Simulation time: 00 hr 21 min 12 sec)
Heartbeat CPU 0 instructions: 246501630 cycles: 88380943 heartbeat IPC: 2.813 cumulative IPC: 2.808 (Simulation time: 00 hr 21 min 14 sec)
Heartbeat CPU 0 instructions: 247001635 cycles: 88562340 heartbeat IPC: 2.756 cumulative IPC: 2.808 (Simulation time: 00 hr 21 min 16 sec)
Heartbeat CPU 0 instructions: 247501635 cycles: 88739012 heartbeat IPC: 2.83 cumulative IPC: 2.808 (Simulation time: 00 hr 21 min 19 sec)
Heartbeat CPU 0 instructions: 248001635 cycles: 88914405 heartbeat IPC: 2.851 cumulative IPC: 2.808 (Simulation time: 00 hr 21 min 21 sec)
Heartbeat CPU 0 instructions: 248501635 cycles: 89090117 heartbeat IPC: 2.846 cumulative IPC: 2.808 (Simulation time: 00 hr 21 min 23 sec)
Heartbeat CPU 0 instructions: 249001635 cycles: 89265270 heartbeat IPC: 2.855 cumulative IPC: 2.808 (Simulation time: 00 hr 21 min 26 sec)
Heartbeat CPU 0 instructions: 249501642 cycles: 89441536 heartbeat IPC: 2.837 cumulative IPC: 2.808 (Simulation time: 00 hr 21 min 28 sec)
Simulation finished CPU 0 instructions: 200000000 cycles: 71218177 cumulative IPC: 2.808 (Simulation time: 00 hr 21 min 31 sec)
Simulation complete CPU 0 instructions: 200000000 cycles: 71218177 cumulative IPC: 2.808 (Simulation time: 00 hr 21 min 31 sec)

ChampSim completed all CPUs

=== Simulation ===
CPU 0 runs /local-ssd/ben/dpc4-traces/ai-ml/whisper_trace_2.champsimtrace.gz

Region of Interest Statistics

CPU 0 cumulative IPC: 2.808 instructions: 200000000 cycles: 71218177
CPU 0 Branch Prediction Accuracy: 96.01% MPKI: 2.804 Average ROB Occupancy at Mispredict: 250.7
Branch type MPKI
BRANCH_DIRECT_JUMP: 0
BRANCH_INDIRECT: 0
BRANCH_CONDITIONAL: 2.804
BRANCH_DIRECT_CALL: 0
BRANCH_INDIRECT_CALL: 0
BRANCH_RETURN: 0

cpu0->cpu0_STLB TOTAL        ACCESS:      33610 HIT:      12394 MISS:      21216 MSHR_MERGE:          0
cpu0->cpu0_STLB LOAD         ACCESS:      33610 HIT:      12394 MISS:      21216 MSHR_MERGE:          0
cpu0->cpu0_STLB RFO          ACCESS:          0 HIT:          0 MISS:          0 MSHR_MERGE:          0
cpu0->cpu0_STLB PREFETCH     ACCESS:          0 HIT:          0 MISS:          0 MSHR_MERGE:          0
cpu0->cpu0_STLB WRITE        ACCESS:          0 HIT:          0 MISS:          0 MSHR_MERGE:          0
cpu0->cpu0_STLB TRANSLATION  ACCESS:          0 HIT:          0 MISS:          0 MSHR_MERGE:          0
cpu0->cpu0_STLB PREFETCH REQUESTED:          0 ISSUED:          0 USEFUL:          0 USELESS:          0
cpu0->cpu0_STLB AVERAGE MISS LATENCY: 53.14 cycles
cpu0->cpu0_L2C TOTAL        ACCESS:    6830562 HIT:    5476187 MISS:    1354375 MSHR_MERGE:          0
cpu0->cpu0_L2C LOAD         ACCESS:    4493944 HIT:    3580453 MISS:     913491 MSHR_MERGE:          0
cpu0->cpu0_L2C RFO          ACCESS:      41971 HIT:       9098 MISS:      32873 MSHR_MERGE:          0
cpu0->cpu0_L2C PREFETCH     ACCESS:    2225858 HIT:    1820766 MISS:     405092 MSHR_MERGE:          0
cpu0->cpu0_L2C WRITE        ACCESS:      64214 HIT:      64214 MISS:          0 MSHR_MERGE:          0
cpu0->cpu0_L2C TRANSLATION  ACCESS:       4575 HIT:       1656 MISS:       2919 MSHR_MERGE:          0
cpu0->cpu0_L2C PREFETCH REQUESTED:          0 ISSUED:          0 USEFUL:          0 USELESS:          0
cpu0->cpu0_L2C AVERAGE MISS LATENCY: 181.4 cycles
cpu0->cpu0_L1I TOTAL        ACCESS:   21303803 HIT:   21303803 MISS:          0 MSHR_MERGE:          0
cpu0->cpu0_L1I LOAD         ACCESS:   21303803 HIT:   21303803 MISS:          0 MSHR_MERGE:          0
cpu0->cpu0_L1I RFO          ACCESS:          0 HIT:          0 MISS:          0 MSHR_MERGE:          0
cpu0->cpu0_L1I PREFETCH     ACCESS:          0 HIT:          0 MISS:          0 MSHR_MERGE:          0
cpu0->cpu0_L1I WRITE        ACCESS:          0 HIT:          0 MISS:          0 MSHR_MERGE:          0
cpu0->cpu0_L1I TRANSLATION  ACCESS:          0 HIT:          0 MISS:          0 MSHR_MERGE:          0
cpu0->cpu0_L1I PREFETCH REQUESTED:          0 ISSUED:          0 USEFUL:          0 USELESS:          0
cpu0->cpu0_L1I AVERAGE MISS LATENCY: - cycles
cpu0->cpu0_L1D TOTAL        ACCESS:   68042608 HIT:   60125791 MISS:    7916817 MSHR_MERGE:    1149802
cpu0->cpu0_L1D LOAD         ACCESS:   51229779 HIT:   46144166 MISS:    5085613 MSHR_MERGE:     591117
cpu0->cpu0_L1D RFO          ACCESS:          0 HIT:          0 MISS:          0 MSHR_MERGE:          0
cpu0->cpu0_L1D PREFETCH     ACCESS:   14298778 HIT:   11547548 MISS:    2751230 MSHR_MERGE:     525372
cpu0->cpu0_L1D WRITE        ACCESS:    2471618 HIT:    2396219 MISS:      75399 MSHR_MERGE:      33313
cpu0->cpu0_L1D TRANSLATION  ACCESS:      42433 HIT:      37858 MISS:       4575 MSHR_MERGE:          0
cpu0->cpu0_L1D PREFETCH REQUESTED:   67246714 ISSUED:   14298779 USEFUL:    1964254 USELESS:     261569
cpu0->cpu0_L1D AVERAGE MISS LATENCY: 47.74 cycles
cpu0->cpu0_ITLB TOTAL        ACCESS:   15458556 HIT:   15458556 MISS:          0 MSHR_MERGE:          0
cpu0->cpu0_ITLB LOAD         ACCESS:   15458556 HIT:   15458556 MISS:          0 MSHR_MERGE:          0
cpu0->cpu0_ITLB RFO          ACCESS:          0 HIT:          0 MISS:          0 MSHR_MERGE:          0
cpu0->cpu0_ITLB PREFETCH     ACCESS:          0 HIT:          0 MISS:          0 MSHR_MERGE:          0
cpu0->cpu0_ITLB WRITE        ACCESS:          0 HIT:          0 MISS:          0 MSHR_MERGE:          0
cpu0->cpu0_ITLB TRANSLATION  ACCESS:          0 HIT:          0 MISS:          0 MSHR_MERGE:          0
cpu0->cpu0_ITLB PREFETCH REQUESTED:          0 ISSUED:          0 USEFUL:          0 USELESS:          0
cpu0->cpu0_ITLB AVERAGE MISS LATENCY: - cycles
cpu0->cpu0_DTLB TOTAL        ACCESS:   56139716 HIT:   55980991 MISS:     158725 MSHR_MERGE:     125115
cpu0->cpu0_DTLB LOAD         ACCESS:   56139716 HIT:   55980991 MISS:     158725 MSHR_MERGE:     125115
cpu0->cpu0_DTLB RFO          ACCESS:          0 HIT:          0 MISS:          0 MSHR_MERGE:          0
cpu0->cpu0_DTLB PREFETCH     ACCESS:          0 HIT:          0 MISS:          0 MSHR_MERGE:          0
cpu0->cpu0_DTLB WRITE        ACCESS:          0 HIT:          0 MISS:          0 MSHR_MERGE:          0
cpu0->cpu0_DTLB TRANSLATION  ACCESS:          0 HIT:          0 MISS:          0 MSHR_MERGE:          0
cpu0->cpu0_DTLB PREFETCH REQUESTED:          0 ISSUED:          0 USEFUL:          0 USELESS:          0
cpu0->cpu0_DTLB AVERAGE MISS LATENCY: 39.18 cycles
cpu0->LLC TOTAL        ACCESS:    1387261 HIT:     214478 MISS:    1172783 MSHR_MERGE:          0
cpu0->LLC LOAD         ACCESS:     913491 HIT:     110561 MISS:     802930 MSHR_MERGE:          0
cpu0->LLC RFO          ACCESS:      32873 HIT:          0 MISS:      32873 MSHR_MERGE:          0
cpu0->LLC PREFETCH     ACCESS:     405092 HIT:      99391 MISS:     305701 MSHR_MERGE:          0
cpu0->LLC WRITE        ACCESS:      32886 HIT:       4189 MISS:      28697 MSHR_MERGE:          0
cpu0->LLC TRANSLATION  ACCESS:       2919 HIT:        337 MISS:       2582 MSHR_MERGE:          0
cpu0->LLC PREFETCH REQUESTED:          0 ISSUED:          0 USEFUL:          0 USELESS:          0
cpu0->LLC AVERAGE MISS LATENCY: 174.1 cycles

DRAM Statistics

Channel 0 RQ ROW_BUFFER_HIT:     421368
  ROW_BUFFER_MISS:     722718
  AVG DBUS CONGESTED CYCLE: 6.347
Channel 0 WQ ROW_BUFFER_HIT:      14864
  ROW_BUFFER_MISS:      16658
  FULL:          0
Channel 0 REFRESHES ISSUED:       5934
