[VMEM] WARNING: physical memory size is smaller than virtual memory size.

*** ChampSim Multicore Out-of-Order Simulator ***
Warmup Instructions: 50000000
Simulation Instructions: 200000000
Number of CPUs: 1
Page size: 4096
Core 0: /local-ssd/ben/dpc4-traces/Graph/GMS/gms.k_clique_list_danisch_edge_parallel.soc-pokec-relationships.slice-80.champsimtrace.gz
Off-chip DRAM Size: 64 GiB Channels: 1 Width: 64-bit Data Rate: 4807 MT/s
Heartbeat CPU 0 instructions: 500003 cycles: 185334 heartbeat IPC: 2.698 cumulative IPC: 2.698 (Simulation time: 00 hr 00 min 03 sec)
Heartbeat CPU 0 instructions: 1000005 cycles: 328258 heartbeat IPC: 3.498 cumulative IPC: 3.046 (Simulation time: 00 hr 00 min 04 sec)
Heartbeat CPU 0 instructions: 1500006 cycles: 476400 heartbeat IPC: 3.375 cumulative IPC: 3.149 (Simulation time: 00 hr 00 min 06 sec)
Heartbeat CPU 0 instructions: 2000009 cycles: 619042 heartbeat IPC: 3.505 cumulative IPC: 3.231 (Simulation time: 00 hr 00 min 08 sec)
Heartbeat CPU 0 instructions: 2500011 cycles: 763633 heartbeat IPC: 3.458 cumulative IPC: 3.274 (Simulation time: 00 hr 00 min 10 sec)
Heartbeat CPU 0 instructions: 3000015 cycles: 904885 heartbeat IPC: 3.54 cumulative IPC: 3.315 (Simulation time: 00 hr 00 min 12 sec)
Heartbeat CPU 0 instructions: 3500021 cycles: 1044612 heartbeat IPC: 3.578 cumulative IPC: 3.351 (Simulation time: 00 hr 00 min 14 sec)
Heartbeat CPU 0 instructions: 4000023 cycles: 1182868 heartbeat IPC: 3.616 cumulative IPC: 3.382 (Simulation time: 00 hr 00 min 15 sec)
Heartbeat CPU 0 instructions: 4500024 cycles: 1321364 heartbeat IPC: 3.61 cumulative IPC: 3.406 (Simulation time: 00 hr 00 min 17 sec)
Heartbeat CPU 0 instructions: 5000028 cycles: 1458819 heartbeat IPC: 3.638 cumulative IPC: 3.427 (Simulation time: 00 hr 00 min 19 sec)
Heartbeat CPU 0 instructions: 5500031 cycles: 1597608 heartbeat IPC: 3.603 cumulative IPC: 3.443 (Simulation time: 00 hr 00 min 21 sec)
Heartbeat CPU 0 instructions: 6000035 cycles: 1733065 heartbeat IPC: 3.691 cumulative IPC: 3.462 (Simulation time: 00 hr 00 min 23 sec)
Heartbeat CPU 0 instructions: 6500040 cycles: 1869681 heartbeat IPC: 3.66 cumulative IPC: 3.477 (Simulation time: 00 hr 00 min 25 sec)
Heartbeat CPU 0 instructions: 7000046 cycles: 2010894 heartbeat IPC: 3.541 cumulative IPC: 3.481 (Simulation time: 00 hr 00 min 27 sec)
Heartbeat CPU 0 instructions: 7500047 cycles: 2145186 heartbeat IPC: 3.723 cumulative IPC: 3.496 (Simulation time: 00 hr 00 min 29 sec)
Heartbeat CPU 0 instructions: 8000050 cycles: 2259828 heartbeat IPC: 4.361 cumulative IPC: 3.54 (Simulation time: 00 hr 00 min 31 sec)
Heartbeat CPU 0 instructions: 8500053 cycles: 2387717 heartbeat IPC: 3.91 cumulative IPC: 3.56 (Simulation time: 00 hr 00 min 33 sec)
Heartbeat CPU 0 instructions: 9000054 cycles: 2511316 heartbeat IPC: 4.045 cumulative IPC: 3.584 (Simulation time: 00 hr 00 min 35 sec)
Heartbeat CPU 0 instructions: 9500060 cycles: 2648708 heartbeat IPC: 3.639 cumulative IPC: 3.587 (Simulation time: 00 hr 00 min 37 sec)
Heartbeat CPU 0 instructions: 10000066 cycles: 2779950 heartbeat IPC: 3.81 cumulative IPC: 3.597 (Simulation time: 00 hr 00 min 39 sec)
Heartbeat CPU 0 instructions: 10500069 cycles: 2906620 heartbeat IPC: 3.947 cumulative IPC: 3.612 (Simulation time: 00 hr 00 min 41 sec)
Heartbeat CPU 0 instructions: 11000075 cycles: 3036858 heartbeat IPC: 3.839 cumulative IPC: 3.622 (Simulation time: 00 hr 00 min 43 sec)
Heartbeat CPU 0 instructions: 11500080 cycles: 3169397 heartbeat IPC: 3.773 cumulative IPC: 3.628 (Simulation time: 00 hr 00 min 45 sec)
Heartbeat CPU 0 instructions: 12000082 cycles: 3294336 heartbeat IPC: 4.002 cumulative IPC: 3.643 (Simulation time: 00 hr 00 min 47 sec)
Heartbeat CPU 0 instructions: 12500082 cycles: 3405160 heartbeat IPC: 4.512 cumulative IPC: 3.671 (Simulation time: 00 hr 00 min 49 sec)
Heartbeat CPU 0 instructions: 13000087 cycles: 3514056 heartbeat IPC: 4.592 cumulative IPC: 3.699 (Simulation time: 00 hr 00 min 50 sec)
Heartbeat CPU 0 instructions: 13500088 cycles: 3636033 heartbeat IPC: 4.099 cumulative IPC: 3.713 (Simulation time: 00 hr 00 min 52 sec)
Heartbeat CPU 0 instructions: 14000089 cycles: 3758054 heartbeat IPC: 4.098 cumulative IPC: 3.725 (Simulation time: 00 hr 00 min 54 sec)
Heartbeat CPU 0 instructions: 14500095 cycles: 3887695 heartbeat IPC: 3.857 cumulative IPC: 3.73 (Simulation time: 00 hr 00 min 56 sec)
Heartbeat CPU 0 instructions: 15000102 cycles: 4013129 heartbeat IPC: 3.986 cumulative IPC: 3.738 (Simulation time: 00 hr 00 min 58 sec)
Heartbeat CPU 0 instructions: 15500106 cycles: 4145587 heartbeat IPC: 3.775 cumulative IPC: 3.739 (Simulation time: 00 hr 01 min 00 sec)
Heartbeat CPU 0 instructions: 16000111 cycles: 4272406 heartbeat IPC: 3.943 cumulative IPC: 3.745 (Simulation time: 00 hr 01 min 02 sec)
Heartbeat CPU 0 instructions: 16500115 cycles: 4401802 heartbeat IPC: 3.864 cumulative IPC: 3.748 (Simulation time: 00 hr 01 min 04 sec)
Heartbeat CPU 0 instructions: 17000120 cycles: 4531897 heartbeat IPC: 3.843 cumulative IPC: 3.751 (Simulation time: 00 hr 01 min 06 sec)
Heartbeat CPU 0 instructions: 17500120 cycles: 4652919 heartbeat IPC: 4.131 cumulative IPC: 3.761 (Simulation time: 00 hr 01 min 08 sec)
Heartbeat CPU 0 instructions: 18000125 cycles: 4781253 heartbeat IPC: 3.896 cumulative IPC: 3.765 (Simulation time: 00 hr 01 min 10 sec)
Heartbeat CPU 0 instructions: 18500129 cycles: 4912979 heartbeat IPC: 3.796 cumulative IPC: 3.766 (Simulation time: 00 hr 01 min 12 sec)
Heartbeat CPU 0 instructions: 19000135 cycles: 5043608 heartbeat IPC: 3.828 cumulative IPC: 3.767 (Simulation time: 00 hr 01 min 14 sec)
Heartbeat CPU 0 instructions: 19500135 cycles: 5171353 heartbeat IPC: 3.914 cumulative IPC: 3.771 (Simulation time: 00 hr 01 min 16 sec)
Heartbeat CPU 0 instructions: 20000135 cycles: 5302840 heartbeat IPC: 3.803 cumulative IPC: 3.772 (Simulation time: 00 hr 01 min 17 sec)
Heartbeat CPU 0 instructions: 20500137 cycles: 5433769 heartbeat IPC: 3.819 cumulative IPC: 3.773 (Simulation time: 00 hr 01 min 19 sec)
Heartbeat CPU 0 instructions: 21000137 cycles: 5557750 heartbeat IPC: 4.033 cumulative IPC: 3.779 (Simulation time: 00 hr 01 min 21 sec)
Heartbeat CPU 0 instructions: 21500139 cycles: 5682247 heartbeat IPC: 4.016 cumulative IPC: 3.784 (Simulation time: 00 hr 01 min 23 sec)
Heartbeat CPU 0 instructions: 22000139 cycles: 5798597 heartbeat IPC: 4.297 cumulative IPC: 3.794 (Simulation time: 00 hr 01 min 25 sec)
Heartbeat CPU 0 instructions: 22500141 cycles: 5924300 heartbeat IPC: 3.978 cumulative IPC: 3.798 (Simulation time: 00 hr 01 min 27 sec)
Heartbeat CPU 0 instructions: 23000143 cycles: 6043254 heartbeat IPC: 4.203 cumulative IPC: 3.806 (Simulation time: 00 hr 01 min 28 sec)
Heartbeat CPU 0 instructions: 23500148 cycles: 6166924 heartbeat IPC: 4.043 cumulative IPC: 3.811 (Simulation time: 00 hr 01 min 30 sec)
Heartbeat CPU 0 instructions: 24000154 cycles: 6291643 heartbeat IPC: 4.009 cumulative IPC: 3.815 (Simulation time: 00 hr 01 min 32 sec)
Heartbeat CPU 0 instructions: 24500158 cycles: 6410706 heartbeat IPC: 4.199 cumulative IPC: 3.822 (Simulation time: 00 hr 01 min 34 sec)
Heartbeat CPU 0 instructions: 25000162 cycles: 6536886 heartbeat IPC: 3.963 cumulative IPC: 3.824 (Simulation time: 00 hr 01 min 36 sec)
Heartbeat CPU 0 instructions: 25500164 cycles: 6659950 heartbeat IPC: 4.063 cumulative IPC: 3.829 (Simulation time: 00 hr 01 min 38 sec)
Heartbeat CPU 0 instructions: 26000168 cycles: 6782143 heartbeat IPC: 4.092 cumulative IPC: 3.834 (Simulation time: 00 hr 01 min 40 sec)
Heartbeat CPU 0 instructions: 26500168 cycles: 6910491 heartbeat IPC: 3.896 cumulative IPC: 3.835 (Simulation time: 00 hr 01 min 42 sec)
Heartbeat CPU 0 instructions: 27000168 cycles: 7032824 heartbeat IPC: 4.087 cumulative IPC: 3.839 (Simulation time: 00 hr 01 min 44 sec)
Heartbeat CPU 0 instructions: 27500172 cycles: 7155279 heartbeat IPC: 4.083 cumulative IPC: 3.843 (Simulation time: 00 hr 01 min 45 sec)
Heartbeat CPU 0 instructions: 28000176 cycles: 7269146 heartbeat IPC: 4.391 cumulative IPC: 3.852 (Simulation time: 00 hr 01 min 47 sec)
Heartbeat CPU 0 instructions: 28500182 cycles: 7393176 heartbeat IPC: 4.031 cumulative IPC: 3.855 (Simulation time: 00 hr 01 min 49 sec)
Heartbeat CPU 0 instructions: 29000185 cycles: 7520479 heartbeat IPC: 3.928 cumulative IPC: 3.856 (Simulation time: 00 hr 01 min 51 sec)
Heartbeat CPU 0 instructions: 29500192 cycles: 7643454 heartbeat IPC: 4.066 cumulative IPC: 3.86 (Simulation time: 00 hr 01 min 53 sec)
Heartbeat CPU 0 instructions: 30000194 cycles: 7769282 heartbeat IPC: 3.974 cumulative IPC: 3.861 (Simulation time: 00 hr 01 min 54 sec)
Heartbeat CPU 0 instructions: 30500195 cycles: 7893798 heartbeat IPC: 4.016 cumulative IPC: 3.864 (Simulation time: 00 hr 01 min 56 sec)
Heartbeat CPU 0 instructions: 31000201 cycles: 8020695 heartbeat IPC: 3.94 cumulative IPC: 3.865 (Simulation time: 00 hr 01 min 58 sec)
Heartbeat CPU 0 instructions: 31500202 cycles: 8135996 heartbeat IPC: 4.336 cumulative IPC: 3.872 (Simulation time: 00 hr 02 min 00 sec)
Heartbeat CPU 0 instructions: 32000209 cycles: 8258126 heartbeat IPC: 4.094 cumulative IPC: 3.875 (Simulation time: 00 hr 02 min 02 sec)
Heartbeat CPU 0 instructions: 32500209 cycles: 8370275 heartbeat IPC: 4.458 cumulative IPC: 3.883 (Simulation time: 00 hr 02 min 03 sec)
Heartbeat CPU 0 instructions: 33000215 cycles: 8478129 heartbeat IPC: 4.636 cumulative IPC: 3.892 (Simulation time: 00 hr 02 min 05 sec)
Heartbeat CPU 0 instructions: 33500215 cycles: 8587030 heartbeat IPC: 4.591 cumulative IPC: 3.901 (Simulation time: 00 hr 02 min 07 sec)
Heartbeat CPU 0 instructions: 34000221 cycles: 8710836 heartbeat IPC: 4.039 cumulative IPC: 3.903 (Simulation time: 00 hr 02 min 08 sec)
Heartbeat CPU 0 instructions: 34500223 cycles: 8824842 heartbeat IPC: 4.386 cumulative IPC: 3.909 (Simulation time: 00 hr 02 min 10 sec)
Heartbeat CPU 0 instructions: 35000230 cycles: 8944630 heartbeat IPC: 4.174 cumulative IPC: 3.913 (Simulation time: 00 hr 02 min 12 sec)
Heartbeat CPU 0 instructions: 35500232 cycles: 9063221 heartbeat IPC: 4.216 cumulative IPC: 3.917 (Simulation time: 00 hr 02 min 14 sec)
Heartbeat CPU 0 instructions: 36000237 cycles: 9181451 heartbeat IPC: 4.229 cumulative IPC: 3.921 (Simulation time: 00 hr 02 min 16 sec)
Heartbeat CPU 0 instructions: 36500242 cycles: 9298812 heartbeat IPC: 4.26 cumulative IPC: 3.925 (Simulation time: 00 hr 02 min 17 sec)
Heartbeat CPU 0 instructions: 37000249 cycles: 9402653 heartbeat IPC: 4.815 cumulative IPC: 3.935 (Simulation time: 00 hr 02 min 19 sec)
Heartbeat CPU 0 instructions: 37500254 cycles: 9505085 heartbeat IPC: 4.881 cumulative IPC: 3.945 (Simulation time: 00 hr 02 min 21 sec)
Heartbeat CPU 0 instructions: 38000256 cycles: 9616049 heartbeat IPC: 4.506 cumulative IPC: 3.952 (Simulation time: 00 hr 02 min 22 sec)
Heartbeat CPU 0 instructions: 38500263 cycles: 9737062 heartbeat IPC: 4.132 cumulative IPC: 3.954 (Simulation time: 00 hr 02 min 24 sec)
Heartbeat CPU 0 instructions: 39000269 cycles: 9852250 heartbeat IPC: 4.341 cumulative IPC: 3.959 (Simulation time: 00 hr 02 min 26 sec)
Heartbeat CPU 0 instructions: 39500270 cycles: 9965532 heartbeat IPC: 4.414 cumulative IPC: 3.964 (Simulation time: 00 hr 02 min 28 sec)
Heartbeat CPU 0 instructions: 40000271 cycles: 10082816 heartbeat IPC: 4.263 cumulative IPC: 3.967 (Simulation time: 00 hr 02 min 30 sec)
Heartbeat CPU 0 instructions: 40500274 cycles: 10193505 heartbeat IPC: 4.517 cumulative IPC: 3.973 (Simulation time: 00 hr 02 min 31 sec)
Heartbeat CPU 0 instructions: 41000277 cycles: 10304732 heartbeat IPC: 4.495 cumulative IPC: 3.979 (Simulation time: 00 hr 02 min 33 sec)
Heartbeat CPU 0 instructions: 41500277 cycles: 10426451 heartbeat IPC: 4.108 cumulative IPC: 3.98 (Simulation time: 00 hr 02 min 35 sec)
Heartbeat CPU 0 instructions: 42000278 cycles: 10539809 heartbeat IPC: 4.411 cumulative IPC: 3.985 (Simulation time: 00 hr 02 min 37 sec)
Heartbeat CPU 0 instructions: 42500280 cycles: 10663698 heartbeat IPC: 4.036 cumulative IPC: 3.986 (Simulation time: 00 hr 02 min 39 sec)
Heartbeat CPU 0 instructions: 43000280 cycles: 10768157 heartbeat IPC: 4.787 cumulative IPC: 3.993 (Simulation time: 00 hr 02 min 40 sec)
Heartbeat CPU 0 instructions: 43500284 cycles: 10880974 heartbeat IPC: 4.432 cumulative IPC: 3.998 (Simulation time: 00 hr 02 min 42 sec)
Heartbeat CPU 0 instructions: 44000286 cycles: 11002098 heartbeat IPC: 4.128 cumulative IPC: 3.999 (Simulation time: 00 hr 02 min 44 sec)
Heartbeat CPU 0 instructions: 44500287 cycles: 11123276 heartbeat IPC: 4.126 cumulative IPC: 4.001 (Simulation time: 00 hr 02 min 46 sec)
Heartbeat CPU 0 instructions: 45000290 cycles: 11239133 heartbeat IPC: 4.316 cumulative IPC: 4.004 (Simulation time: 00 hr 02 min 47 sec)
Heartbeat CPU 0 instructions: 45500290 cycles: 11360301 heartbeat IPC: 4.127 cumulative IPC: 4.005 (Simulation time: 00 hr 02 min 49 sec)
Heartbeat CPU 0 instructions: 46000296 cycles: 11489162 heartbeat IPC: 3.88 cumulative IPC: 4.004 (Simulation time: 00 hr 02 min 51 sec)
Heartbeat CPU 0 instructions: 46500299 cycles: 11614344 heartbeat IPC: 3.994 cumulative IPC: 4.004 (Simulation time: 00 hr 02 min 53 sec)
Heartbeat CPU 0 instructions: 47000302 cycles: 11735902 heartbeat IPC: 4.113 cumulative IPC: 4.005 (Simulation time: 00 hr 02 min 55 sec)
Heartbeat CPU 0 instructions: 47500308 cycles: 11860747 heartbeat IPC: 4.005 cumulative IPC: 4.005 (Simulation time: 00 hr 02 min 57 sec)
Heartbeat CPU 0 instructions: 48000312 cycles: 11985161 heartbeat IPC: 4.019 cumulative IPC: 4.005 (Simulation time: 00 hr 02 min 59 sec)
Heartbeat CPU 0 instructions: 48500315 cycles: 12116986 heartbeat IPC: 3.793 cumulative IPC: 4.003 (Simulation time: 00 hr 03 min 00 sec)
Heartbeat CPU 0 instructions: 49000316 cycles: 12244964 heartbeat IPC: 3.907 cumulative IPC: 4.002 (Simulation time: 00 hr 03 min 02 sec)
Heartbeat CPU 0 instructions: 49500323 cycles: 12374282 heartbeat IPC: 3.866 cumulative IPC: 4 (Simulation time: 00 hr 03 min 04 sec)
Warmup halting CPU 0 at instruction 50000005 cycle 12495624 for remainder of phase
Warmup finished CPU 0 instructions: 50000005 cycles: 12495624 cumulative IPC: 4.001 (Simulation time: 00 hr 03 min 06 sec)
Warmup complete CPU 0 instructions: 50000005 cycles: 12495624 cumulative IPC: 4.001 (Simulation time: 00 hr 03 min 06 sec)
Heartbeat CPU 0 instructions: 50000325 cycles: 12495664 heartbeat IPC: 4.119 cumulative IPC: 8 (Simulation time: 00 hr 03 min 06 sec)
Heartbeat CPU 0 instructions: 50500327 cycles: 12959038 heartbeat IPC: 1.079 cumulative IPC: 1.08 (Simulation time: 00 hr 03 min 11 sec)
Heartbeat CPU 0 instructions: 51000327 cycles: 13386393 heartbeat IPC: 1.17 cumulative IPC: 1.123 (Simulation time: 00 hr 03 min 15 sec)
Heartbeat CPU 0 instructions: 51500327 cycles: 13749115 heartbeat IPC: 1.378 cumulative IPC: 1.197 (Simulation time: 00 hr 03 min 19 sec)
Heartbeat CPU 0 instructions: 52000327 cycles: 14272794 heartbeat IPC: 0.9548 cumulative IPC: 1.126 (Simulation time: 00 hr 03 min 24 sec)
Heartbeat CPU 0 instructions: 52500332 cycles: 14952668 heartbeat IPC: 0.7354 cumulative IPC: 1.018 (Simulation time: 00 hr 03 min 30 sec)
Heartbeat CPU 0 instructions: 53000337 cycles: 15415330 heartbeat IPC: 1.081 cumulative IPC: 1.028 (Simulation time: 00 hr 03 min 35 sec)
Heartbeat CPU 0 instructions: 53500339 cycles: 15811526 heartbeat IPC: 1.262 cumulative IPC: 1.056 (Simulation time: 00 hr 03 min 39 sec)
Heartbeat CPU 0 instructions: 54000339 cycles: 16202980 heartbeat IPC: 1.277 cumulative IPC: 1.079 (Simulation time: 00 hr 03 min 43 sec)
Heartbeat CPU 0 instructions: 54500342 cycles: 16580042 heartbeat IPC: 1.326 cumulative IPC: 1.102 (Simulation time: 00 hr 03 min 48 sec)
Heartbeat CPU 0 instructions: 55000342 cycles: 16913500 heartbeat IPC: 1.499 cumulative IPC: 1.132 (Simulation time: 00 hr 03 min 51 sec)
Heartbeat CPU 0 instructions: 55500344 cycles: 17254271 heartbeat IPC: 1.467 cumulative IPC: 1.156 (Simulation time: 00 hr 03 min 55 sec)
Heartbeat CPU 0 instructions: 56000344 cycles: 17583002 heartbeat IPC: 1.521 cumulative IPC: 1.179 (Simulation time: 00 hr 03 min 59 sec)
Heartbeat CPU 0 instructions: 56500345 cycles: 17903185 heartbeat IPC: 1.562 cumulative IPC: 1.202 (Simulation time: 00 hr 04 min 03 sec)
Heartbeat CPU 0 instructions: 57000349 cycles: 18226592 heartbeat IPC: 1.546 cumulative IPC: 1.221 (Simulation time: 00 hr 04 min 06 sec)
Heartbeat CPU 0 instructions: 57500352 cycles: 18548022 heartbeat IPC: 1.556 cumulative IPC: 1.239 (Simulation time: 00 hr 04 min 10 sec)
Heartbeat CPU 0 instructions: 58000352 cycles: 18846797 heartbeat IPC: 1.674 cumulative IPC: 1.26 (Simulation time: 00 hr 04 min 13 sec)
Heartbeat CPU 0 instructions: 58500354 cycles: 19425698 heartbeat IPC: 0.8637 cumulative IPC: 1.227 (Simulation time: 00 hr 04 min 19 sec)
Heartbeat CPU 0 instructions: 59000357 cycles: 19932435 heartbeat IPC: 0.9867 cumulative IPC: 1.21 (Simulation time: 00 hr 04 min 24 sec)
Heartbeat CPU 0 instructions: 59500358 cycles: 20441154 heartbeat IPC: 0.9829 cumulative IPC: 1.196 (Simulation time: 00 hr 04 min 29 sec)
Heartbeat CPU 0 instructions: 60000359 cycles: 21015859 heartbeat IPC: 0.87 cumulative IPC: 1.174 (Simulation time: 00 hr 04 min 34 sec)
Heartbeat CPU 0 instructions: 60500359 cycles: 21575693 heartbeat IPC: 0.8931 cumulative IPC: 1.156 (Simulation time: 00 hr 04 min 39 sec)
Heartbeat CPU 0 instructions: 61000362 cycles: 22101095 heartbeat IPC: 0.9517 cumulative IPC: 1.145 (Simulation time: 00 hr 04 min 44 sec)
Heartbeat CPU 0 instructions: 61500365 cycles: 22687626 heartbeat IPC: 0.8525 cumulative IPC: 1.128 (Simulation time: 00 hr 04 min 49 sec)
Heartbeat CPU 0 instructions: 62000365 cycles: 23159915 heartbeat IPC: 1.059 cumulative IPC: 1.125 (Simulation time: 00 hr 04 min 54 sec)
Heartbeat CPU 0 instructions: 62500366 cycles: 23635336 heartbeat IPC: 1.052 cumulative IPC: 1.122 (Simulation time: 00 hr 04 min 59 sec)
Heartbeat CPU 0 instructions: 63000366 cycles: 24171455 heartbeat IPC: 0.9326 cumulative IPC: 1.113 (Simulation time: 00 hr 05 min 04 sec)
Heartbeat CPU 0 instructions: 63500366 cycles: 24828492 heartbeat IPC: 0.761 cumulative IPC: 1.095 (Simulation time: 00 hr 05 min 09 sec)
Heartbeat CPU 0 instructions: 64000366 cycles: 25407202 heartbeat IPC: 0.864 cumulative IPC: 1.084 (Simulation time: 00 hr 05 min 14 sec)
Heartbeat CPU 0 instructions: 64500366 cycles: 26059617 heartbeat IPC: 0.7664 cumulative IPC: 1.069 (Simulation time: 00 hr 05 min 20 sec)
Heartbeat CPU 0 instructions: 65000367 cycles: 26632745 heartbeat IPC: 0.8724 cumulative IPC: 1.061 (Simulation time: 00 hr 05 min 25 sec)
Heartbeat CPU 0 instructions: 65500368 cycles: 27124255 heartbeat IPC: 1.017 cumulative IPC: 1.06 (Simulation time: 00 hr 05 min 30 sec)
Heartbeat CPU 0 instructions: 66000368 cycles: 27516703 heartbeat IPC: 1.274 cumulative IPC: 1.065 (Simulation time: 00 hr 05 min 33 sec)
Heartbeat CPU 0 instructions: 66500371 cycles: 28086097 heartbeat IPC: 0.8781 cumulative IPC: 1.058 (Simulation time: 00 hr 05 min 39 sec)
Heartbeat CPU 0 instructions: 67000371 cycles: 28822161 heartbeat IPC: 0.6793 cumulative IPC: 1.041 (Simulation time: 00 hr 05 min 46 sec)
Heartbeat CPU 0 instructions: 67500373 cycles: 29476011 heartbeat IPC: 0.7647 cumulative IPC: 1.031 (Simulation time: 00 hr 05 min 52 sec)
Heartbeat CPU 0 instructions: 68000375 cycles: 30048084 heartbeat IPC: 0.874 cumulative IPC: 1.026 (Simulation time: 00 hr 05 min 57 sec)
Heartbeat CPU 0 instructions: 68500376 cycles: 30506421 heartbeat IPC: 1.091 cumulative IPC: 1.027 (Simulation time: 00 hr 06 min 01 sec)
Heartbeat CPU 0 instructions: 69000378 cycles: 31047249 heartbeat IPC: 0.9245 cumulative IPC: 1.024 (Simulation time: 00 hr 06 min 06 sec)
Heartbeat CPU 0 instructions: 69500380 cycles: 31711273 heartbeat IPC: 0.753 cumulative IPC: 1.015 (Simulation time: 00 hr 06 min 12 sec)
Heartbeat CPU 0 instructions: 70000383 cycles: 32333369 heartbeat IPC: 0.8037 cumulative IPC: 1.008 (Simulation time: 00 hr 06 min 17 sec)
Heartbeat CPU 0 instructions: 70500387 cycles: 32908288 heartbeat IPC: 0.8697 cumulative IPC: 1.004 (Simulation time: 00 hr 06 min 22 sec)
Heartbeat CPU 0 instructions: 71000388 cycles: 33404684 heartbeat IPC: 1.007 cumulative IPC: 1.004 (Simulation time: 00 hr 06 min 26 sec)
Heartbeat CPU 0 instructions: 71500389 cycles: 33885963 heartbeat IPC: 1.039 cumulative IPC: 1.005 (Simulation time: 00 hr 06 min 30 sec)
Heartbeat CPU 0 instructions: 72000390 cycles: 34310005 heartbeat IPC: 1.179 cumulative IPC: 1.009 (Simulation time: 00 hr 06 min 34 sec)
Heartbeat CPU 0 instructions: 72500391 cycles: 34722160 heartbeat IPC: 1.213 cumulative IPC: 1.012 (Simulation time: 00 hr 06 min 38 sec)
Heartbeat CPU 0 instructions: 73000397 cycles: 35065761 heartbeat IPC: 1.455 cumulative IPC: 1.019 (Simulation time: 00 hr 06 min 42 sec)
Heartbeat CPU 0 instructions: 73500399 cycles: 35602681 heartbeat IPC: 0.9312 cumulative IPC: 1.017 (Simulation time: 00 hr 06 min 46 sec)
Heartbeat CPU 0 instructions: 74000400 cycles: 36064843 heartbeat IPC: 1.082 cumulative IPC: 1.018 (Simulation time: 00 hr 06 min 50 sec)
Heartbeat CPU 0 instructions: 74500401 cycles: 36482977 heartbeat IPC: 1.196 cumulative IPC: 1.021 (Simulation time: 00 hr 06 min 54 sec)
Heartbeat CPU 0 instructions: 75000407 cycles: 37082386 heartbeat IPC: 0.8342 cumulative IPC: 1.017 (Simulation time: 00 hr 07 min 00 sec)
Heartbeat CPU 0 instructions: 75500409 cycles: 37523846 heartbeat IPC: 1.133 cumulative IPC: 1.019 (Simulation time: 00 hr 07 min 04 sec)
Heartbeat CPU 0 instructions: 76000412 cycles: 38114744 heartbeat IPC: 0.8462 cumulative IPC: 1.015 (Simulation time: 00 hr 07 min 10 sec)
Heartbeat CPU 0 instructions: 76500412 cycles: 38699643 heartbeat IPC: 0.8548 cumulative IPC: 1.011 (Simulation time: 00 hr 07 min 14 sec)
Heartbeat CPU 0 instructions: 77000415 cycles: 39208206 heartbeat IPC: 0.9832 cumulative IPC: 1.011 (Simulation time: 00 hr 07 min 18 sec)
Heartbeat CPU 0 instructions: 77500418 cycles: 39692111 heartbeat IPC: 1.033 cumulative IPC: 1.011 (Simulation time: 00 hr 07 min 23 sec)
Heartbeat CPU 0 instructions: 78000419 cycles: 40196149 heartbeat IPC: 0.992 cumulative IPC: 1.011 (Simulation time: 00 hr 07 min 27 sec)
Heartbeat CPU 0 instructions: 78500423 cycles: 40843142 heartbeat IPC: 0.7728 cumulative IPC: 1.005 (Simulation time: 00 hr 07 min 33 sec)
Heartbeat CPU 0 instructions: 79000425 cycles: 41346059 heartbeat IPC: 0.9942 cumulative IPC: 1.005 (Simulation time: 00 hr 07 min 37 sec)
Heartbeat CPU 0 instructions: 79500425 cycles: 41806623 heartbeat IPC: 1.086 cumulative IPC: 1.006 (Simulation time: 00 hr 07 min 42 sec)
Heartbeat CPU 0 instructions: 80000428 cycles: 42271522 heartbeat IPC: 1.076 cumulative IPC: 1.008 (Simulation time: 00 hr 07 min 47 sec)
Heartbeat CPU 0 instructions: 80500428 cycles: 42639726 heartbeat IPC: 1.358 cumulative IPC: 1.012 (Simulation time: 00 hr 07 min 51 sec)
Heartbeat CPU 0 instructions: 81000429 cycles: 43170001 heartbeat IPC: 0.9429 cumulative IPC: 1.011 (Simulation time: 00 hr 07 min 55 sec)
Heartbeat CPU 0 instructions: 81500432 cycles: 43702500 heartbeat IPC: 0.939 cumulative IPC: 1.009 (Simulation time: 00 hr 08 min 00 sec)
Heartbeat CPU 0 instructions: 82000432 cycles: 44263255 heartbeat IPC: 0.8917 cumulative IPC: 1.007 (Simulation time: 00 hr 08 min 05 sec)
Heartbeat CPU 0 instructions: 82500432 cycles: 44802305 heartbeat IPC: 0.9276 cumulative IPC: 1.006 (Simulation time: 00 hr 08 min 10 sec)
Heartbeat CPU 0 instructions: 83000432 cycles: 45326470 heartbeat IPC: 0.9539 cumulative IPC: 1.005 (Simulation time: 00 hr 08 min 14 sec)
Heartbeat CPU 0 instructions: 83500434 cycles: 45767483 heartbeat IPC: 1.134 cumulative IPC: 1.007 (Simulation time: 00 hr 08 min 19 sec)
Heartbeat CPU 0 instructions: 84000436 cycles: 46367358 heartbeat IPC: 0.8335 cumulative IPC: 1.004 (Simulation time: 00 hr 08 min 24 sec)
Heartbeat CPU 0 instructions: 84500437 cycles: 46964950 heartbeat IPC: 0.8367 cumulative IPC: 1.001 (Simulation time: 00 hr 08 min 29 sec)
Heartbeat CPU 0 instructions: 85000438 cycles: 47522665 heartbeat IPC: 0.8965 cumulative IPC: 0.9992 (Simulation time: 00 hr 08 min 34 sec)
Heartbeat CPU 0 instructions: 85500444 cycles: 48058521 heartbeat IPC: 0.9331 cumulative IPC: 0.9982 (Simulation time: 00 hr 08 min 39 sec)
Heartbeat CPU 0 instructions: 86000444 cycles: 48637929 heartbeat IPC: 0.8629 cumulative IPC: 0.9961 (Simulation time: 00 hr 08 min 44 sec)
Heartbeat CPU 0 instructions: 86500449 cycles: 49079513 heartbeat IPC: 1.132 cumulative IPC: 0.9977 (Simulation time: 00 hr 08 min 48 sec)
Heartbeat CPU 0 instructions: 87000450 cycles: 49527269 heartbeat IPC: 1.117 cumulative IPC: 0.9992 (Simulation time: 00 hr 08 min 52 sec)
Heartbeat CPU 0 instructions: 87500450 cycles: 50173964 heartbeat IPC: 0.7732 cumulative IPC: 0.9953 (Simulation time: 00 hr 08 min 58 sec)
Heartbeat CPU 0 instructions: 88000450 cycles: 50712854 heartbeat IPC: 0.9278 cumulative IPC: 0.9943 (Simulation time: 00 hr 09 min 03 sec)
Heartbeat CPU 0 instructions: 88500454 cycles: 51266347 heartbeat IPC: 0.9034 cumulative IPC: 0.993 (Simulation time: 00 hr 09 min 09 sec)
Heartbeat CPU 0 instructions: 89000457 cycles: 51742713 heartbeat IPC: 1.05 cumulative IPC: 0.9937 (Simulation time: 00 hr 09 min 14 sec)
Heartbeat CPU 0 instructions: 89500458 cycles: 52201953 heartbeat IPC: 1.089 cumulative IPC: 0.9948 (Simulation time: 00 hr 09 min 18 sec)
Heartbeat CPU 0 instructions: 90000459 cycles: 52590841 heartbeat IPC: 1.286 cumulative IPC: 0.9976 (Simulation time: 00 hr 09 min 23 sec)
Heartbeat CPU 0 instructions: 90500463 cycles: 53050560 heartbeat IPC: 1.088 cumulative IPC: 0.9987 (Simulation time: 00 hr 09 min 27 sec)
Heartbeat CPU 0 instructions: 91000465 cycles: 53614900 heartbeat IPC: 0.886 cumulative IPC: 0.9971 (Simulation time: 00 hr 09 min 32 sec)
Heartbeat CPU 0 instructions: 91500467 cycles: 54173489 heartbeat IPC: 0.8951 cumulative IPC: 0.9957 (Simulation time: 00 hr 09 min 37 sec)
Heartbeat CPU 0 instructions: 92000468 cycles: 54671321 heartbeat IPC: 1.004 cumulative IPC: 0.9958 (Simulation time: 00 hr 09 min 41 sec)
Heartbeat CPU 0 instructions: 92500468 cycles: 55218854 heartbeat IPC: 0.9132 cumulative IPC: 0.9948 (Simulation time: 00 hr 09 min 46 sec)
Heartbeat CPU 0 instructions: 93000469 cycles: 55735689 heartbeat IPC: 0.9674 cumulative IPC: 0.9945 (Simulation time: 00 hr 09 min 50 sec)
Heartbeat CPU 0 instructions: 93500470 cycles: 56157604 heartbeat IPC: 1.185 cumulative IPC: 0.9963 (Simulation time: 00 hr 09 min 54 sec)
Heartbeat CPU 0 instructions: 94000473 cycles: 56624731 heartbeat IPC: 1.07 cumulative IPC: 0.9971 (Simulation time: 00 hr 09 min 59 sec)
Heartbeat CPU 0 instructions: 94500474 cycles: 57127030 heartbeat IPC: 0.9954 cumulative IPC: 0.9971 (Simulation time: 00 hr 10 min 04 sec)
Heartbeat CPU 0 instructions: 95000477 cycles: 57620629 heartbeat IPC: 1.013 cumulative IPC: 0.9972 (Simulation time: 00 hr 10 min 09 sec)
Heartbeat CPU 0 instructions: 95500478 cycles: 58180060 heartbeat IPC: 0.8938 cumulative IPC: 0.996 (Simulation time: 00 hr 10 min 14 sec)
Heartbeat CPU 0 instructions: 96000484 cycles: 58785359 heartbeat IPC: 0.826 cumulative IPC: 0.9938 (Simulation time: 00 hr 10 min 19 sec)
Heartbeat CPU 0 instructions: 96500485 cycles: 59325491 heartbeat IPC: 0.9257 cumulative IPC: 0.993 (Simulation time: 00 hr 10 min 24 sec)
Heartbeat CPU 0 instructions: 97000489 cycles: 60026668 heartbeat IPC: 0.7131 cumulative IPC: 0.9888 (Simulation time: 00 hr 10 min 30 sec)
Heartbeat CPU 0 instructions: 97500490 cycles: 60535028 heartbeat IPC: 0.9836 cumulative IPC: 0.9888 (Simulation time: 00 hr 10 min 35 sec)
Heartbeat CPU 0 instructions: 98000494 cycles: 61011414 heartbeat IPC: 1.05 cumulative IPC: 0.9894 (Simulation time: 00 hr 10 min 39 sec)
Heartbeat CPU 0 instructions: 98500494 cycles: 61706381 heartbeat IPC: 0.7195 cumulative IPC: 0.9856 (Simulation time: 00 hr 10 min 45 sec)
Heartbeat CPU 0 instructions: 99000495 cycles: 62219816 heartbeat IPC: 0.9738 cumulative IPC: 0.9854 (Simulation time: 00 hr 10 min 50 sec)
Heartbeat CPU 0 instructions: 99500495 cycles: 62713559 heartbeat IPC: 1.013 cumulative IPC: 0.9857 (Simulation time: 00 hr 10 min 55 sec)
Heartbeat CPU 0 instructions: 100000497 cycles: 63176806 heartbeat IPC: 1.079 cumulative IPC: 0.9866 (Simulation time: 00 hr 10 min 59 sec)
Heartbeat CPU 0 instructions: 100500499 cycles: 63756866 heartbeat IPC: 0.862 cumulative IPC: 0.9852 (Simulation time: 00 hr 11 min 04 sec)
Heartbeat CPU 0 instructions: 101000500 cycles: 64186184 heartbeat IPC: 1.165 cumulative IPC: 0.9867 (Simulation time: 00 hr 11 min 09 sec)
Heartbeat CPU 0 instructions: 101500506 cycles: 64706496 heartbeat IPC: 0.961 cumulative IPC: 0.9864 (Simulation time: 00 hr 11 min 14 sec)
Heartbeat CPU 0 instructions: 102000509 cycles: 65123848 heartbeat IPC: 1.198 cumulative IPC: 0.9881 (Simulation time: 00 hr 11 min 18 sec)
Heartbeat CPU 0 instructions: 102500512 cycles: 65494073 heartbeat IPC: 1.351 cumulative IPC: 0.9906 (Simulation time: 00 hr 11 min 22 sec)
Heartbeat CPU 0 instructions: 103000512 cycles: 65817155 heartbeat IPC: 1.548 cumulative IPC: 0.994 (Simulation time: 00 hr 11 min 26 sec)
Heartbeat CPU 0 instructions: 103500512 cycles: 66347705 heartbeat IPC: 0.9424 cumulative IPC: 0.9935 (Simulation time: 00 hr 11 min 31 sec)
Heartbeat CPU 0 instructions: 104000512 cycles: 67014570 heartbeat IPC: 0.7498 cumulative IPC: 0.9905 (Simulation time: 00 hr 11 min 37 sec)
Heartbeat CPU 0 instructions: 104500512 cycles: 67588555 heartbeat IPC: 0.8711 cumulative IPC: 0.9892 (Simulation time: 00 hr 11 min 42 sec)
Heartbeat CPU 0 instructions: 105000517 cycles: 68212071 heartbeat IPC: 0.8019 cumulative IPC: 0.9872 (Simulation time: 00 hr 11 min 47 sec)
Heartbeat CPU 0 instructions: 105500521 cycles: 68790157 heartbeat IPC: 0.8649 cumulative IPC: 0.9859 (Simulation time: 00 hr 11 min 52 sec)
Heartbeat CPU 0 instructions: 106000523 cycles: 69284776 heartbeat IPC: 1.011 cumulative IPC: 0.9861 (Simulation time: 00 hr 11 min 56 sec)
Heartbeat CPU 0 instructions: 106500524 cycles: 69928010 heartbeat IPC: 0.7773 cumulative IPC: 0.9838 (Simulation time: 00 hr 12 min 02 sec)
Heartbeat CPU 0 instructions: 107000526 cycles: 70418079 heartbeat IPC: 1.02 cumulative IPC: 0.9841 (Simulation time: 00 hr 12 min 07 sec)
Heartbeat CPU 0 instructions: 107500526 cycles: 70946712 heartbeat IPC: 0.9458 cumulative IPC: 0.9837 (Simulation time: 00 hr 12 min 12 sec)
Heartbeat CPU 0 instructions: 108000531 cycles: 71400936 heartbeat IPC: 1.101 cumulative IPC: 0.9846 (Simulation time: 00 hr 12 min 16 sec)
Heartbeat CPU 0 instructions: 108500531 cycles: 71977751 heartbeat IPC: 0.8668 cumulative IPC: 0.9835 (Simulation time: 00 hr 12 min 21 sec)
Heartbeat CPU 0 instructions: 109000531 cycles: 72603587 heartbeat IPC: 0.7989 cumulative IPC: 0.9816 (Simulation time: 00 hr 12 min 26 sec)
Heartbeat CPU 0 instructions: 109500532 cycles: 73112306 heartbeat IPC: 0.9829 cumulative IPC: 0.9816 (Simulation time: 00 hr 12 min 30 sec)
Heartbeat CPU 0 instructions: 110000533 cycles: 73563309 heartbeat IPC: 1.109 cumulative IPC: 0.9825 (Simulation time: 00 hr 12 min 34 sec)
Heartbeat CPU 0 instructions: 110500534 cycles: 74043316 heartbeat IPC: 1.042 cumulative IPC: 0.983 (Simulation time: 00 hr 12 min 39 sec)
Heartbeat CPU 0 instructions: 111000534 cycles: 74588883 heartbeat IPC: 0.9165 cumulative IPC: 0.9824 (Simulation time: 00 hr 12 min 43 sec)
Heartbeat CPU 0 instructions: 111500535 cycles: 75056102 heartbeat IPC: 1.07 cumulative IPC: 0.9831 (Simulation time: 00 hr 12 min 47 sec)
Heartbeat CPU 0 instructions: 112000537 cycles: 75608187 heartbeat IPC: 0.9057 cumulative IPC: 0.9824 (Simulation time: 00 hr 12 min 52 sec)
Heartbeat CPU 0 instructions: 112500540 cycles: 76085902 heartbeat IPC: 1.047 cumulative IPC: 0.9829 (Simulation time: 00 hr 12 min 57 sec)
Heartbeat CPU 0 instructions: 113000541 cycles: 76570118 heartbeat IPC: 1.033 cumulative IPC: 0.9832 (Simulation time: 00 hr 13 min 01 sec)
Heartbeat CPU 0 instructions: 113500541 cycles: 77000212 heartbeat IPC: 1.163 cumulative IPC: 0.9844 (Simulation time: 00 hr 13 min 05 sec)
Heartbeat CPU 0 instructions: 114000545 cycles: 77430534 heartbeat IPC: 1.162 cumulative IPC: 0.9856 (Simulation time: 00 hr 13 min 09 sec)
Heartbeat CPU 0 instructions: 114500545 cycles: 77820152 heartbeat IPC: 1.283 cumulative IPC: 0.9874 (Simulation time: 00 hr 13 min 13 sec)
Heartbeat CPU 0 instructions: 115000547 cycles: 78159300 heartbeat IPC: 1.474 cumulative IPC: 0.9899 (Simulation time: 00 hr 13 min 17 sec)
Heartbeat CPU 0 instructions: 115500547 cycles: 78583462 heartbeat IPC: 1.179 cumulative IPC: 0.9911 (Simulation time: 00 hr 13 min 21 sec)
Heartbeat CPU 0 instructions: 116000548 cycles: 79179861 heartbeat IPC: 0.8384 cumulative IPC: 0.9897 (Simulation time: 00 hr 13 min 26 sec)
Heartbeat CPU 0 instructions: 116500548 cycles: 79705278 heartbeat IPC: 0.9516 cumulative IPC: 0.9894 (Simulation time: 00 hr 13 min 31 sec)
Heartbeat CPU 0 instructions: 117000551 cycles: 80206699 heartbeat IPC: 0.9972 cumulative IPC: 0.9895 (Simulation time: 00 hr 13 min 36 sec)
Heartbeat CPU 0 instructions: 117500551 cycles: 80787180 heartbeat IPC: 0.8614 cumulative IPC: 0.9884 (Simulation time: 00 hr 13 min 41 sec)
Heartbeat CPU 0 instructions: 118000554 cycles: 81349001 heartbeat IPC: 0.89 cumulative IPC: 0.9876 (Simulation time: 00 hr 13 min 47 sec)
Heartbeat CPU 0 instructions: 118500558 cycles: 81833794 heartbeat IPC: 1.031 cumulative IPC: 0.9879 (Simulation time: 00 hr 13 min 51 sec)
Heartbeat CPU 0 instructions: 119000559 cycles: 82500357 heartbeat IPC: 0.7501 cumulative IPC: 0.9857 (Simulation time: 00 hr 13 min 57 sec)
Heartbeat CPU 0 instructions: 119500559 cycles: 82966936 heartbeat IPC: 1.072 cumulative IPC: 0.9862 (Simulation time: 00 hr 14 min 01 sec)
Heartbeat CPU 0 instructions: 120000559 cycles: 83573494 heartbeat IPC: 0.8243 cumulative IPC: 0.9848 (Simulation time: 00 hr 14 min 07 sec)
Heartbeat CPU 0 instructions: 120500561 cycles: 84057926 heartbeat IPC: 1.032 cumulative IPC: 0.9852 (Simulation time: 00 hr 14 min 11 sec)
Heartbeat CPU 0 instructions: 121000563 cycles: 84602330 heartbeat IPC: 0.9184 cumulative IPC: 0.9847 (Simulation time: 00 hr 14 min 16 sec)
Heartbeat CPU 0 instructions: 121500566 cycles: 85097967 heartbeat IPC: 1.009 cumulative IPC: 0.9848 (Simulation time: 00 hr 14 min 21 sec)
Heartbeat CPU 0 instructions: 122000567 cycles: 85498985 heartbeat IPC: 1.247 cumulative IPC: 0.9863 (Simulation time: 00 hr 14 min 24 sec)
Heartbeat CPU 0 instructions: 122500569 cycles: 85877838 heartbeat IPC: 1.32 cumulative IPC: 0.988 (Simulation time: 00 hr 14 min 28 sec)
Heartbeat CPU 0 instructions: 123000569 cycles: 86440806 heartbeat IPC: 0.8881 cumulative IPC: 0.9872 (Simulation time: 00 hr 14 min 33 sec)
Heartbeat CPU 0 instructions: 123500569 cycles: 86960177 heartbeat IPC: 0.9627 cumulative IPC: 0.9871 (Simulation time: 00 hr 14 min 38 sec)
Heartbeat CPU 0 instructions: 124000572 cycles: 87465883 heartbeat IPC: 0.9887 cumulative IPC: 0.9871 (Simulation time: 00 hr 14 min 42 sec)
Heartbeat CPU 0 instructions: 124500573 cycles: 87889923 heartbeat IPC: 1.179 cumulative IPC: 0.9881 (Simulation time: 00 hr 14 min 46 sec)
Heartbeat CPU 0 instructions: 125000573 cycles: 88417243 heartbeat IPC: 0.9482 cumulative IPC: 0.9879 (Simulation time: 00 hr 14 min 51 sec)
Heartbeat CPU 0 instructions: 125500574 cycles: 88858539 heartbeat IPC: 1.133 cumulative IPC: 0.9887 (Simulation time: 00 hr 14 min 55 sec)
Heartbeat CPU 0 instructions: 126000580 cycles: 89335862 heartbeat IPC: 1.048 cumulative IPC: 0.9891 (Simulation time: 00 hr 14 min 59 sec)
Heartbeat CPU 0 instructions: 126500582 cycles: 89828268 heartbeat IPC: 1.015 cumulative IPC: 0.9892 (Simulation time: 00 hr 15 min 03 sec)
Heartbeat CPU 0 instructions: 127000583 cycles: 90249493 heartbeat IPC: 1.187 cumulative IPC: 0.9903 (Simulation time: 00 hr 15 min 07 sec)
Heartbeat CPU 0 instructions: 127500583 cycles: 90688553 heartbeat IPC: 1.139 cumulative IPC: 0.9911 (Simulation time: 00 hr 15 min 11 sec)
Heartbeat CPU 0 instructions: 128000585 cycles: 91189577 heartbeat IPC: 0.998 cumulative IPC: 0.9912 (Simulation time: 00 hr 15 min 16 sec)
Heartbeat CPU 0 instructions: 128500587 cycles: 91797345 heartbeat IPC: 0.8227 cumulative IPC: 0.9899 (Simulation time: 00 hr 15 min 21 sec)
Heartbeat CPU 0 instructions: 129000587 cycles: 92394998 heartbeat IPC: 0.8366 cumulative IPC: 0.9888 (Simulation time: 00 hr 15 min 27 sec)
Heartbeat CPU 0 instructions: 129500593 cycles: 92869614 heartbeat IPC: 1.053 cumulative IPC: 0.9891 (Simulation time: 00 hr 15 min 31 sec)
Heartbeat CPU 0 instructions: 130000597 cycles: 93339993 heartbeat IPC: 1.063 cumulative IPC: 0.9896 (Simulation time: 00 hr 15 min 35 sec)
Heartbeat CPU 0 instructions: 130500600 cycles: 93792636 heartbeat IPC: 1.105 cumulative IPC: 0.9902 (Simulation time: 00 hr 15 min 39 sec)
Heartbeat CPU 0 instructions: 131000600 cycles: 94282748 heartbeat IPC: 1.02 cumulative IPC: 0.9904 (Simulation time: 00 hr 15 min 44 sec)
Heartbeat CPU 0 instructions: 131500602 cycles: 94800834 heartbeat IPC: 0.9651 cumulative IPC: 0.9902 (Simulation time: 00 hr 15 min 49 sec)
Heartbeat CPU 0 instructions: 132000602 cycles: 95336830 heartbeat IPC: 0.9328 cumulative IPC: 0.9899 (Simulation time: 00 hr 15 min 54 sec)
Heartbeat CPU 0 instructions: 132500605 cycles: 95812729 heartbeat IPC: 1.051 cumulative IPC: 0.9902 (Simulation time: 00 hr 15 min 58 sec)
Heartbeat CPU 0 instructions: 133000611 cycles: 96426006 heartbeat IPC: 0.8153 cumulative IPC: 0.9889 (Simulation time: 00 hr 16 min 03 sec)
Heartbeat CPU 0 instructions: 133500611 cycles: 96921556 heartbeat IPC: 1.009 cumulative IPC: 0.989 (Simulation time: 00 hr 16 min 08 sec)
Heartbeat CPU 0 instructions: 134000611 cycles: 97389655 heartbeat IPC: 1.068 cumulative IPC: 0.9895 (Simulation time: 00 hr 16 min 12 sec)
Heartbeat CPU 0 instructions: 134500614 cycles: 97904850 heartbeat IPC: 0.9705 cumulative IPC: 0.9894 (Simulation time: 00 hr 16 min 17 sec)
Heartbeat CPU 0 instructions: 135000616 cycles: 98378062 heartbeat IPC: 1.057 cumulative IPC: 0.9897 (Simulation time: 00 hr 16 min 21 sec)
Heartbeat CPU 0 instructions: 135500618 cycles: 98936190 heartbeat IPC: 0.8959 cumulative IPC: 0.9891 (Simulation time: 00 hr 16 min 26 sec)
Heartbeat CPU 0 instructions: 136000620 cycles: 99401289 heartbeat IPC: 1.075 cumulative IPC: 0.9896 (Simulation time: 00 hr 16 min 30 sec)
Heartbeat CPU 0 instructions: 136500626 cycles: 99973979 heartbeat IPC: 0.8731 cumulative IPC: 0.9888 (Simulation time: 00 hr 16 min 35 sec)
Heartbeat CPU 0 instructions: 137000630 cycles: 100521256 heartbeat IPC: 0.9136 cumulative IPC: 0.9884 (Simulation time: 00 hr 16 min 39 sec)
Heartbeat CPU 0 instructions: 137500630 cycles: 101063266 heartbeat IPC: 0.9225 cumulative IPC: 0.988 (Simulation time: 00 hr 16 min 44 sec)
Heartbeat CPU 0 instructions: 138000630 cycles: 101656420 heartbeat IPC: 0.843 cumulative IPC: 0.987 (Simulation time: 00 hr 16 min 49 sec)
Heartbeat CPU 0 instructions: 138500630 cycles: 102198685 heartbeat IPC: 0.9221 cumulative IPC: 0.9866 (Simulation time: 00 hr 16 min 54 sec)
Heartbeat CPU 0 instructions: 139000631 cycles: 102669875 heartbeat IPC: 1.061 cumulative IPC: 0.987 (Simulation time: 00 hr 16 min 57 sec)
Heartbeat CPU 0 instructions: 139500632 cycles: 103124959 heartbeat IPC: 1.099 cumulative IPC: 0.9875 (Simulation time: 00 hr 17 min 02 sec)
Heartbeat CPU 0 instructions: 140000634 cycles: 103598505 heartbeat IPC: 1.056 cumulative IPC: 0.9879 (Simulation time: 00 hr 17 min 06 sec)
Heartbeat CPU 0 instructions: 140500634 cycles: 104196697 heartbeat IPC: 0.8359 cumulative IPC: 0.9869 (Simulation time: 00 hr 17 min 11 sec)
Heartbeat CPU 0 instructions: 141000634 cycles: 104780620 heartbeat IPC: 0.8563 cumulative IPC: 0.9861 (Simulation time: 00 hr 17 min 16 sec)
Heartbeat CPU 0 instructions: 141500638 cycles: 105320687 heartbeat IPC: 0.9258 cumulative IPC: 0.9857 (Simulation time: 00 hr 17 min 21 sec)
Heartbeat CPU 0 instructions: 142000638 cycles: 105819647 heartbeat IPC: 1.002 cumulative IPC: 0.9858 (Simulation time: 00 hr 17 min 25 sec)
Heartbeat CPU 0 instructions: 142500638 cycles: 106414365 heartbeat IPC: 0.8407 cumulative IPC: 0.9849 (Simulation time: 00 hr 17 min 30 sec)
Heartbeat CPU 0 instructions: 143000643 cycles: 106816544 heartbeat IPC: 1.243 cumulative IPC: 0.986 (Simulation time: 00 hr 17 min 34 sec)
Heartbeat CPU 0 instructions: 143500645 cycles: 107398975 heartbeat IPC: 0.8585 cumulative IPC: 0.9852 (Simulation time: 00 hr 17 min 40 sec)
Heartbeat CPU 0 instructions: 144000645 cycles: 107948018 heartbeat IPC: 0.9107 cumulative IPC: 0.9848 (Simulation time: 00 hr 17 min 45 sec)
Heartbeat CPU 0 instructions: 144500648 cycles: 108406402 heartbeat IPC: 1.091 cumulative IPC: 0.9853 (Simulation time: 00 hr 17 min 49 sec)
Heartbeat CPU 0 instructions: 145000649 cycles: 108922327 heartbeat IPC: 0.9691 cumulative IPC: 0.9852 (Simulation time: 00 hr 17 min 54 sec)
Heartbeat CPU 0 instructions: 145500651 cycles: 109434249 heartbeat IPC: 0.9767 cumulative IPC: 0.9852 (Simulation time: 00 hr 17 min 59 sec)
Heartbeat CPU 0 instructions: 146000653 cycles: 109914223 heartbeat IPC: 1.042 cumulative IPC: 0.9854 (Simulation time: 00 hr 18 min 04 sec)
Heartbeat CPU 0 instructions: 146500655 cycles: 110488996 heartbeat IPC: 0.8699 cumulative IPC: 0.9848 (Simulation time: 00 hr 18 min 09 sec)
Heartbeat CPU 0 instructions: 147000658 cycles: 111027643 heartbeat IPC: 0.9283 cumulative IPC: 0.9845 (Simulation time: 00 hr 18 min 14 sec)
Heartbeat CPU 0 instructions: 147500658 cycles: 111618792 heartbeat IPC: 0.8458 cumulative IPC: 0.9836 (Simulation time: 00 hr 18 min 19 sec)
Heartbeat CPU 0 instructions: 148000660 cycles: 112125168 heartbeat IPC: 0.9874 cumulative IPC: 0.9837 (Simulation time: 00 hr 18 min 24 sec)
Heartbeat CPU 0 instructions: 148500660 cycles: 112701796 heartbeat IPC: 0.8671 cumulative IPC: 0.983 (Simulation time: 00 hr 18 min 29 sec)
Heartbeat CPU 0 instructions: 149000667 cycles: 113283600 heartbeat IPC: 0.8594 cumulative IPC: 0.9823 (Simulation time: 00 hr 18 min 34 sec)
Heartbeat CPU 0 instructions: 149500668 cycles: 113896014 heartbeat IPC: 0.8164 cumulative IPC: 0.9813 (Simulation time: 00 hr 18 min 39 sec)
Heartbeat CPU 0 instructions: 150000674 cycles: 114414044 heartbeat IPC: 0.9652 cumulative IPC: 0.9812 (Simulation time: 00 hr 18 min 44 sec)
Heartbeat CPU 0 instructions: 150500676 cycles: 114813782 heartbeat IPC: 1.251 cumulative IPC: 0.9822 (Simulation time: 00 hr 18 min 48 sec)
Heartbeat CPU 0 instructions: 151000679 cycles: 115370050 heartbeat IPC: 0.8989 cumulative IPC: 0.9818 (Simulation time: 00 hr 18 min 53 sec)
Heartbeat CPU 0 instructions: 151500679 cycles: 115878404 heartbeat IPC: 0.9836 cumulative IPC: 0.9818 (Simulation time: 00 hr 18 min 58 sec)
Heartbeat CPU 0 instructions: 152000680 cycles: 116493203 heartbeat IPC: 0.8133 cumulative IPC: 0.9808 (Simulation time: 00 hr 19 min 03 sec)
Heartbeat CPU 0 instructions: 152500683 cycles: 116917051 heartbeat IPC: 1.18 cumulative IPC: 0.9816 (Simulation time: 00 hr 19 min 08 sec)
Heartbeat CPU 0 instructions: 153000684 cycles: 117258702 heartbeat IPC: 1.463 cumulative IPC: 0.9832 (Simulation time: 00 hr 19 min 11 sec)
Heartbeat CPU 0 instructions: 153500684 cycles: 117726831 heartbeat IPC: 1.068 cumulative IPC: 0.9836 (Simulation time: 00 hr 19 min 16 sec)
Heartbeat CPU 0 instructions: 154000685 cycles: 118254486 heartbeat IPC: 0.9476 cumulative IPC: 0.9834 (Simulation time: 00 hr 19 min 20 sec)
Heartbeat CPU 0 instructions: 154500691 cycles: 118879734 heartbeat IPC: 0.7997 cumulative IPC: 0.9823 (Simulation time: 00 hr 19 min 25 sec)
Heartbeat CPU 0 instructions: 155000692 cycles: 119350712 heartbeat IPC: 1.062 cumulative IPC: 0.9826 (Simulation time: 00 hr 19 min 29 sec)
Heartbeat CPU 0 instructions: 155500692 cycles: 119882225 heartbeat IPC: 0.9407 cumulative IPC: 0.9824 (Simulation time: 00 hr 19 min 33 sec)
Heartbeat CPU 0 instructions: 156000698 cycles: 120353111 heartbeat IPC: 1.062 cumulative IPC: 0.9828 (Simulation time: 00 hr 19 min 38 sec)
Heartbeat CPU 0 instructions: 156500704 cycles: 120954528 heartbeat IPC: 0.8314 cumulative IPC: 0.9819 (Simulation time: 00 hr 19 min 43 sec)
Heartbeat CPU 0 instructions: 157000704 cycles: 121548923 heartbeat IPC: 0.8412 cumulative IPC: 0.9812 (Simulation time: 00 hr 19 min 48 sec)
Heartbeat CPU 0 instructions: 157500705 cycles: 122028214 heartbeat IPC: 1.043 cumulative IPC: 0.9814 (Simulation time: 00 hr 19 min 53 sec)
Heartbeat CPU 0 instructions: 158000710 cycles: 122563557 heartbeat IPC: 0.934 cumulative IPC: 0.9812 (Simulation time: 00 hr 19 min 58 sec)
Heartbeat CPU 0 instructions: 158500710 cycles: 123142735 heartbeat IPC: 0.8633 cumulative IPC: 0.9806 (Simulation time: 00 hr 20 min 03 sec)
Heartbeat CPU 0 instructions: 159000710 cycles: 123694020 heartbeat IPC: 0.907 cumulative IPC: 0.9802 (Simulation time: 00 hr 20 min 08 sec)
Heartbeat CPU 0 instructions: 159500710 cycles: 124307474 heartbeat IPC: 0.8151 cumulative IPC: 0.9793 (Simulation time: 00 hr 20 min 13 sec)
Heartbeat CPU 0 instructions: 160000711 cycles: 124849318 heartbeat IPC: 0.9228 cumulative IPC: 0.9791 (Simulation time: 00 hr 20 min 18 sec)
Heartbeat CPU 0 instructions: 160500711 cycles: 125423516 heartbeat IPC: 0.8708 cumulative IPC: 0.9785 (Simulation time: 00 hr 20 min 23 sec)
Heartbeat CPU 0 instructions: 161000711 cycles: 126047125 heartbeat IPC: 0.8018 cumulative IPC: 0.9775 (Simulation time: 00 hr 20 min 29 sec)
Heartbeat CPU 0 instructions: 161500712 cycles: 126576783 heartbeat IPC: 0.944 cumulative IPC: 0.9774 (Simulation time: 00 hr 20 min 33 sec)
Heartbeat CPU 0 instructions: 162000717 cycles: 127007353 heartbeat IPC: 1.161 cumulative IPC: 0.9781 (Simulation time: 00 hr 20 min 37 sec)
Heartbeat CPU 0 instructions: 162500717 cycles: 127577776 heartbeat IPC: 0.8765 cumulative IPC: 0.9776 (Simulation time: 00 hr 20 min 42 sec)
Heartbeat CPU 0 instructions: 163000718 cycles: 128159909 heartbeat IPC: 0.8589 cumulative IPC: 0.977 (Simulation time: 00 hr 20 min 48 sec)
Heartbeat CPU 0 instructions: 163500722 cycles: 128666082 heartbeat IPC: 0.9878 cumulative IPC: 0.977 (Simulation time: 00 hr 20 min 53 sec)
Heartbeat CPU 0 instructions: 164000722 cycles: 129144068 heartbeat IPC: 1.046 cumulative IPC: 0.9773 (Simulation time: 00 hr 20 min 57 sec)
Heartbeat CPU 0 instructions: 164500723 cycles: 129621707 heartbeat IPC: 1.047 cumulative IPC: 0.9776 (Simulation time: 00 hr 21 min 02 sec)
Heartbeat CPU 0 instructions: 165000725 cycles: 130162976 heartbeat IPC: 0.9238 cumulative IPC: 0.9773 (Simulation time: 00 hr 21 min 07 sec)
Heartbeat CPU 0 instructions: 165500726 cycles: 130704012 heartbeat IPC: 0.9242 cumulative IPC: 0.9771 (Simulation time: 00 hr 21 min 12 sec)
Heartbeat CPU 0 instructions: 166000727 cycles: 131226883 heartbeat IPC: 0.9563 cumulative IPC: 0.977 (Simulation time: 00 hr 21 min 17 sec)
Heartbeat CPU 0 instructions: 166500727 cycles: 131763843 heartbeat IPC: 0.9312 cumulative IPC: 0.9768 (Simulation time: 00 hr 21 min 21 sec)
Heartbeat CPU 0 instructions: 167000728 cycles: 132197110 heartbeat IPC: 1.154 cumulative IPC: 0.9774 (Simulation time: 00 hr 21 min 25 sec)
Heartbeat CPU 0 instructions: 167500730 cycles: 132724543 heartbeat IPC: 0.948 cumulative IPC: 0.9773 (Simulation time: 00 hr 21 min 30 sec)
Heartbeat CPU 0 instructions: 168000732 cycles: 133148762 heartbeat IPC: 1.179 cumulative IPC: 0.978 (Simulation time: 00 hr 21 min 34 sec)
Heartbeat CPU 0 instructions: 168500732 cycles: 133613970 heartbeat IPC: 1.075 cumulative IPC: 0.9784 (Simulation time: 00 hr 21 min 38 sec)
Heartbeat CPU 0 instructions: 169000735 cycles: 134118684 heartbeat IPC: 0.9907 cumulative IPC: 0.9784 (Simulation time: 00 hr 21 min 43 sec)
Heartbeat CPU 0 instructions: 169500735 cycles: 134593800 heartbeat IPC: 1.052 cumulative IPC: 0.9787 (Simulation time: 00 hr 21 min 47 sec)
Heartbeat CPU 0 instructions: 170000735 cycles: 135175497 heartbeat IPC: 0.8596 cumulative IPC: 0.9782 (Simulation time: 00 hr 21 min 52 sec)
Heartbeat CPU 0 instructions: 170500736 cycles: 135723738 heartbeat IPC: 0.912 cumulative IPC: 0.9779 (Simulation time: 00 hr 21 min 57 sec)
Heartbeat CPU 0 instructions: 171000738 cycles: 136192943 heartbeat IPC: 1.066 cumulative IPC: 0.9782 (Simulation time: 00 hr 22 min 02 sec)
Heartbeat CPU 0 instructions: 171500739 cycles: 136691100 heartbeat IPC: 1.004 cumulative IPC: 0.9783 (Simulation time: 00 hr 22 min 06 sec)
Heartbeat CPU 0 instructions: 172000740 cycles: 137089063 heartbeat IPC: 1.256 cumulative IPC: 0.9792 (Simulation time: 00 hr 22 min 10 sec)
Heartbeat CPU 0 instructions: 172500741 cycles: 137651803 heartbeat IPC: 0.8885 cumulative IPC: 0.9788 (Simulation time: 00 hr 22 min 15 sec)
Heartbeat CPU 0 instructions: 173000743 cycles: 138153394 heartbeat IPC: 0.9968 cumulative IPC: 0.9789 (Simulation time: 00 hr 22 min 20 sec)
Heartbeat CPU 0 instructions: 173500746 cycles: 138690701 heartbeat IPC: 0.9306 cumulative IPC: 0.9786 (Simulation time: 00 hr 22 min 24 sec)
Heartbeat CPU 0 instructions: 174000748 cycles: 139103240 heartbeat IPC: 1.212 cumulative IPC: 0.9794 (Simulation time: 00 hr 22 min 28 sec)
Heartbeat CPU 0 instructions: 174500749 cycles: 139636886 heartbeat IPC: 0.937 cumulative IPC: 0.9792 (Simulation time: 00 hr 22 min 33 sec)
Heartbeat CPU 0 instructions: 175000752 cycles: 140155604 heartbeat IPC: 0.9639 cumulative IPC: 0.9792 (Simulation time: 00 hr 22 min 37 sec)
Heartbeat CPU 0 instructions: 175500753 cycles: 140602947 heartbeat IPC: 1.118 cumulative IPC: 0.9797 (Simulation time: 00 hr 22 min 41 sec)
Heartbeat CPU 0 instructions: 176000755 cycles: 140985226 heartbeat IPC: 1.308 cumulative IPC: 0.9806 (Simulation time: 00 hr 22 min 45 sec)
Heartbeat CPU 0 instructions: 176500759 cycles: 141520821 heartbeat IPC: 0.9335 cumulative IPC: 0.9804 (Simulation time: 00 hr 22 min 49 sec)
Heartbeat CPU 0 instructions: 177000759 cycles: 141932664 heartbeat IPC: 1.214 cumulative IPC: 0.9812 (Simulation time: 00 hr 22 min 53 sec)
Heartbeat CPU 0 instructions: 177500760 cycles: 142459705 heartbeat IPC: 0.9487 cumulative IPC: 0.981 (Simulation time: 00 hr 22 min 58 sec)
Heartbeat CPU 0 instructions: 178000766 cycles: 142993696 heartbeat IPC: 0.9364 cumulative IPC: 0.9809 (Simulation time: 00 hr 23 min 03 sec)
Heartbeat CPU 0 instructions: 178500767 cycles: 143521494 heartbeat IPC: 0.9473 cumulative IPC: 0.9807 (Simulation time: 00 hr 23 min 08 sec)
Heartbeat CPU 0 instructions: 179000767 cycles: 143877502 heartbeat IPC: 1.404 cumulative IPC: 0.9819 (Simulation time: 00 hr 23 min 12 sec)
Heartbeat CPU 0 instructions: 179500769 cycles: 144225567 heartbeat IPC: 1.437 cumulative IPC: 0.9831 (Simulation time: 00 hr 23 min 16 sec)
Heartbeat CPU 0 instructions: 180000771 cycles: 144581610 heartbeat IPC: 1.404 cumulative IPC: 0.9842 (Simulation time: 00 hr 23 min 20 sec)
Heartbeat CPU 0 instructions: 180500773 cycles: 144966141 heartbeat IPC: 1.3 cumulative IPC: 0.9851 (Simulation time: 00 hr 23 min 24 sec)
Heartbeat CPU 0 instructions: 181000773 cycles: 145336262 heartbeat IPC: 1.351 cumulative IPC: 0.9861 (Simulation time: 00 hr 23 min 28 sec)
Heartbeat CPU 0 instructions: 181500779 cycles: 145710992 heartbeat IPC: 1.334 cumulative IPC: 0.9871 (Simulation time: 00 hr 23 min 32 sec)
Heartbeat CPU 0 instructions: 182000780 cycles: 146051856 heartbeat IPC: 1.467 cumulative IPC: 0.9884 (Simulation time: 00 hr 23 min 36 sec)
Heartbeat CPU 0 instructions: 182500781 cycles: 146417036 heartbeat IPC: 1.369 cumulative IPC: 0.9894 (Simulation time: 00 hr 23 min 39 sec)
Heartbeat CPU 0 instructions: 183000783 cycles: 146794771 heartbeat IPC: 1.324 cumulative IPC: 0.9903 (Simulation time: 00 hr 23 min 44 sec)
Heartbeat CPU 0 instructions: 183500786 cycles: 147135311 heartbeat IPC: 1.468 cumulative IPC: 0.9915 (Simulation time: 00 hr 23 min 47 sec)
Heartbeat CPU 0 instructions: 184000788 cycles: 147473878 heartbeat IPC: 1.477 cumulative IPC: 0.9928 (Simulation time: 00 hr 23 min 51 sec)
Heartbeat CPU 0 instructions: 184500788 cycles: 147807650 heartbeat IPC: 1.498 cumulative IPC: 0.994 (Simulation time: 00 hr 23 min 55 sec)
Heartbeat CPU 0 instructions: 185000793 cycles: 148141051 heartbeat IPC: 1.5 cumulative IPC: 0.9952 (Simulation time: 00 hr 23 min 59 sec)
Heartbeat CPU 0 instructions: 185500797 cycles: 148471644 heartbeat IPC: 1.512 cumulative IPC: 0.9965 (Simulation time: 00 hr 24 min 02 sec)
Heartbeat CPU 0 instructions: 186000802 cycles: 148797278 heartbeat IPC: 1.535 cumulative IPC: 0.9978 (Simulation time: 00 hr 24 min 06 sec)
Heartbeat CPU 0 instructions: 186500802 cycles: 149119404 heartbeat IPC: 1.552 cumulative IPC: 0.9991 (Simulation time: 00 hr 24 min 09 sec)
Heartbeat CPU 0 instructions: 187000802 cycles: 149438071 heartbeat IPC: 1.569 cumulative IPC: 1 (Simulation time: 00 hr 24 min 13 sec)
Heartbeat CPU 0 instructions: 187500803 cycles: 149752631 heartbeat IPC: 1.59 cumulative IPC: 1.002 (Simulation time: 00 hr 24 min 17 sec)
Heartbeat CPU 0 instructions: 188000806 cycles: 150070825 heartbeat IPC: 1.571 cumulative IPC: 1.003 (Simulation time: 00 hr 24 min 20 sec)
Heartbeat CPU 0 instructions: 188500808 cycles: 150381792 heartbeat IPC: 1.608 cumulative IPC: 1.004 (Simulation time: 00 hr 24 min 24 sec)
Heartbeat CPU 0 instructions: 189000809 cycles: 150700401 heartbeat IPC: 1.569 cumulative IPC: 1.006 (Simulation time: 00 hr 24 min 27 sec)
Heartbeat CPU 0 instructions: 189500809 cycles: 151013559 heartbeat IPC: 1.597 cumulative IPC: 1.007 (Simulation time: 00 hr 24 min 31 sec)
Heartbeat CPU 0 instructions: 190000811 cycles: 151324573 heartbeat IPC: 1.608 cumulative IPC: 1.008 (Simulation time: 00 hr 24 min 34 sec)
Heartbeat CPU 0 instructions: 190500814 cycles: 151637222 heartbeat IPC: 1.599 cumulative IPC: 1.01 (Simulation time: 00 hr 24 min 38 sec)
Heartbeat CPU 0 instructions: 191000815 cycles: 151948336 heartbeat IPC: 1.607 cumulative IPC: 1.011 (Simulation time: 00 hr 24 min 41 sec)
Heartbeat CPU 0 instructions: 191500818 cycles: 152259354 heartbeat IPC: 1.608 cumulative IPC: 1.012 (Simulation time: 00 hr 24 min 45 sec)
Heartbeat CPU 0 instructions: 192000820 cycles: 152563424 heartbeat IPC: 1.644 cumulative IPC: 1.014 (Simulation time: 00 hr 24 min 48 sec)
Heartbeat CPU 0 instructions: 192500824 cycles: 152870436 heartbeat IPC: 1.629 cumulative IPC: 1.015 (Simulation time: 00 hr 24 min 52 sec)
Heartbeat CPU 0 instructions: 193000825 cycles: 153172071 heartbeat IPC: 1.658 cumulative IPC: 1.017 (Simulation time: 00 hr 24 min 55 sec)
Heartbeat CPU 0 instructions: 193500828 cycles: 153465815 heartbeat IPC: 1.702 cumulative IPC: 1.018 (Simulation time: 00 hr 24 min 59 sec)
Heartbeat CPU 0 instructions: 194000828 cycles: 153759508 heartbeat IPC: 1.702 cumulative IPC: 1.019 (Simulation time: 00 hr 25 min 02 sec)
Heartbeat CPU 0 instructions: 194500830 cycles: 154409046 heartbeat IPC: 0.7698 cumulative IPC: 1.018 (Simulation time: 00 hr 25 min 07 sec)
Heartbeat CPU 0 instructions: 195000830 cycles: 154988763 heartbeat IPC: 0.8625 cumulative IPC: 1.018 (Simulation time: 00 hr 25 min 12 sec)
Heartbeat CPU 0 instructions: 195500832 cycles: 155492803 heartbeat IPC: 0.992 cumulative IPC: 1.018 (Simulation time: 00 hr 25 min 16 sec)
Heartbeat CPU 0 instructions: 196000835 cycles: 155955874 heartbeat IPC: 1.08 cumulative IPC: 1.018 (Simulation time: 00 hr 25 min 19 sec)
Heartbeat CPU 0 instructions: 196500837 cycles: 156400908 heartbeat IPC: 1.124 cumulative IPC: 1.018 (Simulation time: 00 hr 25 min 23 sec)
Heartbeat CPU 0 instructions: 197000837 cycles: 156816645 heartbeat IPC: 1.203 cumulative IPC: 1.019 (Simulation time: 00 hr 25 min 27 sec)
Heartbeat CPU 0 instructions: 197500837 cycles: 157171170 heartbeat IPC: 1.41 cumulative IPC: 1.02 (Simulation time: 00 hr 25 min 30 sec)
Heartbeat CPU 0 instructions: 198000839 cycles: 157693769 heartbeat IPC: 0.9568 cumulative IPC: 1.019 (Simulation time: 00 hr 25 min 35 sec)
Heartbeat CPU 0 instructions: 198500839 cycles: 158248613 heartbeat IPC: 0.9012 cumulative IPC: 1.019 (Simulation time: 00 hr 25 min 39 sec)
Heartbeat CPU 0 instructions: 199000839 cycles: 158749130 heartbeat IPC: 0.999 cumulative IPC: 1.019 (Simulation time: 00 hr 25 min 43 sec)
Heartbeat CPU 0 instructions: 199500842 cycles: 159249247 heartbeat IPC: 0.9998 cumulative IPC: 1.019 (Simulation time: 00 hr 25 min 47 sec)
Heartbeat CPU 0 instructions: 200000845 cycles: 159677391 heartbeat IPC: 1.168 cumulative IPC: 1.019 (Simulation time: 00 hr 25 min 50 sec)
Heartbeat CPU 0 instructions: 200500846 cycles: 160163967 heartbeat IPC: 1.028 cumulative IPC: 1.019 (Simulation time: 00 hr 25 min 55 sec)
Heartbeat CPU 0 instructions: 201000852 cycles: 160708073 heartbeat IPC: 0.9189 cumulative IPC: 1.019 (Simulation time: 00 hr 25 min 59 sec)
Heartbeat CPU 0 instructions: 201500855 cycles: 161174126 heartbeat IPC: 1.073 cumulative IPC: 1.019 (Simulation time: 00 hr 26 min 03 sec)
Heartbeat CPU 0 instructions: 202000855 cycles: 161609620 heartbeat IPC: 1.148 cumulative IPC: 1.019 (Simulation time: 00 hr 26 min 07 sec)
Heartbeat CPU 0 instructions: 202500856 cycles: 161969304 heartbeat IPC: 1.39 cumulative IPC: 1.02 (Simulation time: 00 hr 26 min 10 sec)
Heartbeat CPU 0 instructions: 203000857 cycles: 162521387 heartbeat IPC: 0.9057 cumulative IPC: 1.02 (Simulation time: 00 hr 26 min 15 sec)
Heartbeat CPU 0 instructions: 203500857 cycles: 163110271 heartbeat IPC: 0.8491 cumulative IPC: 1.019 (Simulation time: 00 hr 26 min 21 sec)
Heartbeat CPU 0 instructions: 204000857 cycles: 163663622 heartbeat IPC: 0.9036 cumulative IPC: 1.019 (Simulation time: 00 hr 26 min 25 sec)
Heartbeat CPU 0 instructions: 204500857 cycles: 164301971 heartbeat IPC: 0.7833 cumulative IPC: 1.018 (Simulation time: 00 hr 26 min 31 sec)
Heartbeat CPU 0 instructions: 205000858 cycles: 164897224 heartbeat IPC: 0.84 cumulative IPC: 1.017 (Simulation time: 00 hr 26 min 36 sec)
Heartbeat CPU 0 instructions: 205500861 cycles: 165491132 heartbeat IPC: 0.8419 cumulative IPC: 1.016 (Simulation time: 00 hr 26 min 41 sec)
Heartbeat CPU 0 instructions: 206000861 cycles: 165910884 heartbeat IPC: 1.191 cumulative IPC: 1.017 (Simulation time: 00 hr 26 min 45 sec)
Heartbeat CPU 0 instructions: 206500868 cycles: 166495909 heartbeat IPC: 0.8547 cumulative IPC: 1.016 (Simulation time: 00 hr 26 min 50 sec)
Heartbeat CPU 0 instructions: 207000874 cycles: 167037134 heartbeat IPC: 0.9238 cumulative IPC: 1.016 (Simulation time: 00 hr 26 min 55 sec)
Heartbeat CPU 0 instructions: 207500875 cycles: 167465836 heartbeat IPC: 1.166 cumulative IPC: 1.016 (Simulation time: 00 hr 26 min 59 sec)
Heartbeat CPU 0 instructions: 208000877 cycles: 167997938 heartbeat IPC: 0.9397 cumulative IPC: 1.016 (Simulation time: 00 hr 27 min 04 sec)
Heartbeat CPU 0 instructions: 208500877 cycles: 168521510 heartbeat IPC: 0.955 cumulative IPC: 1.016 (Simulation time: 00 hr 27 min 09 sec)
Heartbeat CPU 0 instructions: 209000877 cycles: 168948484 heartbeat IPC: 1.171 cumulative IPC: 1.016 (Simulation time: 00 hr 27 min 13 sec)
Heartbeat CPU 0 instructions: 209500879 cycles: 169293810 heartbeat IPC: 1.448 cumulative IPC: 1.017 (Simulation time: 00 hr 27 min 17 sec)
Heartbeat CPU 0 instructions: 210000881 cycles: 169772549 heartbeat IPC: 1.044 cumulative IPC: 1.017 (Simulation time: 00 hr 27 min 21 sec)
Heartbeat CPU 0 instructions: 210500881 cycles: 170353599 heartbeat IPC: 0.8605 cumulative IPC: 1.017 (Simulation time: 00 hr 27 min 26 sec)
Heartbeat CPU 0 instructions: 211000883 cycles: 170881511 heartbeat IPC: 0.9471 cumulative IPC: 1.017 (Simulation time: 00 hr 27 min 31 sec)
Heartbeat CPU 0 instructions: 211500886 cycles: 171544191 heartbeat IPC: 0.7545 cumulative IPC: 1.015 (Simulation time: 00 hr 27 min 36 sec)
Heartbeat CPU 0 instructions: 212000887 cycles: 172237509 heartbeat IPC: 0.7212 cumulative IPC: 1.014 (Simulation time: 00 hr 27 min 43 sec)
Heartbeat CPU 0 instructions: 212500888 cycles: 172897176 heartbeat IPC: 0.758 cumulative IPC: 1.013 (Simulation time: 00 hr 27 min 48 sec)
Heartbeat CPU 0 instructions: 213000891 cycles: 173460747 heartbeat IPC: 0.8872 cumulative IPC: 1.013 (Simulation time: 00 hr 27 min 53 sec)
Heartbeat CPU 0 instructions: 213500893 cycles: 174038044 heartbeat IPC: 0.8661 cumulative IPC: 1.012 (Simulation time: 00 hr 27 min 59 sec)
Heartbeat CPU 0 instructions: 214000894 cycles: 174655991 heartbeat IPC: 0.8091 cumulative IPC: 1.011 (Simulation time: 00 hr 28 min 05 sec)
Heartbeat CPU 0 instructions: 214500896 cycles: 175274637 heartbeat IPC: 0.8082 cumulative IPC: 1.011 (Simulation time: 00 hr 28 min 10 sec)
Heartbeat CPU 0 instructions: 215000898 cycles: 175811613 heartbeat IPC: 0.9311 cumulative IPC: 1.01 (Simulation time: 00 hr 28 min 16 sec)
Heartbeat CPU 0 instructions: 215500898 cycles: 176327456 heartbeat IPC: 0.9693 cumulative IPC: 1.01 (Simulation time: 00 hr 28 min 21 sec)
Heartbeat CPU 0 instructions: 216000899 cycles: 176840223 heartbeat IPC: 0.9751 cumulative IPC: 1.01 (Simulation time: 00 hr 28 min 26 sec)
Heartbeat CPU 0 instructions: 216500902 cycles: 177319780 heartbeat IPC: 1.043 cumulative IPC: 1.01 (Simulation time: 00 hr 28 min 30 sec)
Heartbeat CPU 0 instructions: 217000903 cycles: 177769496 heartbeat IPC: 1.112 cumulative IPC: 1.01 (Simulation time: 00 hr 28 min 35 sec)
Heartbeat CPU 0 instructions: 217500904 cycles: 178166061 heartbeat IPC: 1.261 cumulative IPC: 1.011 (Simulation time: 00 hr 28 min 39 sec)
Heartbeat CPU 0 instructions: 218000904 cycles: 178573087 heartbeat IPC: 1.228 cumulative IPC: 1.012 (Simulation time: 00 hr 28 min 43 sec)
Heartbeat CPU 0 instructions: 218500907 cycles: 178958719 heartbeat IPC: 1.297 cumulative IPC: 1.012 (Simulation time: 00 hr 28 min 47 sec)
Heartbeat CPU 0 instructions: 219000908 cycles: 179326377 heartbeat IPC: 1.36 cumulative IPC: 1.013 (Simulation time: 00 hr 28 min 51 sec)
Heartbeat CPU 0 instructions: 219500909 cycles: 179675544 heartbeat IPC: 1.432 cumulative IPC: 1.014 (Simulation time: 00 hr 28 min 54 sec)
Heartbeat CPU 0 instructions: 220000909 cycles: 180037297 heartbeat IPC: 1.382 cumulative IPC: 1.015 (Simulation time: 00 hr 28 min 58 sec)
Heartbeat CPU 0 instructions: 220500912 cycles: 180368293 heartbeat IPC: 1.511 cumulative IPC: 1.016 (Simulation time: 00 hr 29 min 02 sec)
Heartbeat CPU 0 instructions: 221000917 cycles: 180683806 heartbeat IPC: 1.585 cumulative IPC: 1.017 (Simulation time: 00 hr 29 min 05 sec)
Heartbeat CPU 0 instructions: 221500921 cycles: 181016461 heartbeat IPC: 1.503 cumulative IPC: 1.018 (Simulation time: 00 hr 29 min 09 sec)
Heartbeat CPU 0 instructions: 222000921 cycles: 181339094 heartbeat IPC: 1.55 cumulative IPC: 1.019 (Simulation time: 00 hr 29 min 12 sec)
Heartbeat CPU 0 instructions: 222500924 cycles: 181645111 heartbeat IPC: 1.634 cumulative IPC: 1.02 (Simulation time: 00 hr 29 min 15 sec)
Heartbeat CPU 0 instructions: 223000926 cycles: 181953444 heartbeat IPC: 1.622 cumulative IPC: 1.021 (Simulation time: 00 hr 29 min 19 sec)
Heartbeat CPU 0 instructions: 223500929 cycles: 182255608 heartbeat IPC: 1.655 cumulative IPC: 1.022 (Simulation time: 00 hr 29 min 22 sec)
Heartbeat CPU 0 instructions: 224000930 cycles: 182553999 heartbeat IPC: 1.676 cumulative IPC: 1.023 (Simulation time: 00 hr 29 min 25 sec)
Heartbeat CPU 0 instructions: 224500932 cycles: 182853678 heartbeat IPC: 1.668 cumulative IPC: 1.024 (Simulation time: 00 hr 29 min 29 sec)
Heartbeat CPU 0 instructions: 225000938 cycles: 183151389 heartbeat IPC: 1.68 cumulative IPC: 1.025 (Simulation time: 00 hr 29 min 32 sec)
Heartbeat CPU 0 instructions: 225500941 cycles: 183445556 heartbeat IPC: 1.7 cumulative IPC: 1.027 (Simulation time: 00 hr 29 min 35 sec)
Heartbeat CPU 0 instructions: 226000947 cycles: 183915258 heartbeat IPC: 1.065 cumulative IPC: 1.027 (Simulation time: 00 hr 29 min 39 sec)
Heartbeat CPU 0 instructions: 226500947 cycles: 184592220 heartbeat IPC: 0.7386 cumulative IPC: 1.026 (Simulation time: 00 hr 29 min 45 sec)
Heartbeat CPU 0 instructions: 227000947 cycles: 185147007 heartbeat IPC: 0.9012 cumulative IPC: 1.025 (Simulation time: 00 hr 29 min 49 sec)
Heartbeat CPU 0 instructions: 227500948 cycles: 185564596 heartbeat IPC: 1.197 cumulative IPC: 1.026 (Simulation time: 00 hr 29 min 53 sec)
Heartbeat CPU 0 instructions: 228000949 cycles: 186181398 heartbeat IPC: 0.8106 cumulative IPC: 1.025 (Simulation time: 00 hr 29 min 58 sec)
Heartbeat CPU 0 instructions: 228500954 cycles: 186753414 heartbeat IPC: 0.8741 cumulative IPC: 1.024 (Simulation time: 00 hr 30 min 02 sec)
Heartbeat CPU 0 instructions: 229000954 cycles: 187200498 heartbeat IPC: 1.118 cumulative IPC: 1.025 (Simulation time: 00 hr 30 min 06 sec)
Heartbeat CPU 0 instructions: 229500958 cycles: 187626639 heartbeat IPC: 1.173 cumulative IPC: 1.025 (Simulation time: 00 hr 30 min 10 sec)
Heartbeat CPU 0 instructions: 230000958 cycles: 188215006 heartbeat IPC: 0.8498 cumulative IPC: 1.024 (Simulation time: 00 hr 30 min 15 sec)
Heartbeat CPU 0 instructions: 230500958 cycles: 188706810 heartbeat IPC: 1.017 cumulative IPC: 1.024 (Simulation time: 00 hr 30 min 19 sec)
Heartbeat CPU 0 instructions: 231000958 cycles: 189141229 heartbeat IPC: 1.151 cumulative IPC: 1.025 (Simulation time: 00 hr 30 min 22 sec)
Heartbeat CPU 0 instructions: 231500959 cycles: 189727056 heartbeat IPC: 0.8535 cumulative IPC: 1.024 (Simulation time: 00 hr 30 min 27 sec)
Heartbeat CPU 0 instructions: 232000959 cycles: 190316563 heartbeat IPC: 0.8482 cumulative IPC: 1.024 (Simulation time: 00 hr 30 min 32 sec)
Heartbeat CPU 0 instructions: 232500963 cycles: 190961554 heartbeat IPC: 0.7752 cumulative IPC: 1.023 (Simulation time: 00 hr 30 min 37 sec)
Heartbeat CPU 0 instructions: 233000965 cycles: 191449985 heartbeat IPC: 1.024 cumulative IPC: 1.023 (Simulation time: 00 hr 30 min 42 sec)
Heartbeat CPU 0 instructions: 233500966 cycles: 191803114 heartbeat IPC: 1.416 cumulative IPC: 1.023 (Simulation time: 00 hr 30 min 45 sec)
Heartbeat CPU 0 instructions: 234000968 cycles: 192356946 heartbeat IPC: 0.9028 cumulative IPC: 1.023 (Simulation time: 00 hr 30 min 50 sec)
Heartbeat CPU 0 instructions: 234500972 cycles: 193010868 heartbeat IPC: 0.7646 cumulative IPC: 1.022 (Simulation time: 00 hr 30 min 55 sec)
Heartbeat CPU 0 instructions: 235000972 cycles: 193631961 heartbeat IPC: 0.805 cumulative IPC: 1.021 (Simulation time: 00 hr 31 min 00 sec)
Heartbeat CPU 0 instructions: 235500972 cycles: 194163633 heartbeat IPC: 0.9404 cumulative IPC: 1.021 (Simulation time: 00 hr 31 min 04 sec)
Heartbeat CPU 0 instructions: 236000974 cycles: 194752819 heartbeat IPC: 0.8486 cumulative IPC: 1.021 (Simulation time: 00 hr 31 min 09 sec)
Heartbeat CPU 0 instructions: 236500976 cycles: 195280390 heartbeat IPC: 0.9477 cumulative IPC: 1.02 (Simulation time: 00 hr 31 min 13 sec)
Heartbeat CPU 0 instructions: 237000982 cycles: 195895301 heartbeat IPC: 0.8131 cumulative IPC: 1.02 (Simulation time: 00 hr 31 min 17 sec)
Heartbeat CPU 0 instructions: 237500982 cycles: 196421003 heartbeat IPC: 0.9511 cumulative IPC: 1.019 (Simulation time: 00 hr 31 min 21 sec)
Heartbeat CPU 0 instructions: 238000983 cycles: 196977698 heartbeat IPC: 0.8982 cumulative IPC: 1.019 (Simulation time: 00 hr 31 min 26 sec)
Heartbeat CPU 0 instructions: 238500987 cycles: 197496468 heartbeat IPC: 0.9638 cumulative IPC: 1.019 (Simulation time: 00 hr 31 min 30 sec)
Heartbeat CPU 0 instructions: 239000987 cycles: 198104125 heartbeat IPC: 0.8228 cumulative IPC: 1.018 (Simulation time: 00 hr 31 min 34 sec)
Heartbeat CPU 0 instructions: 239500990 cycles: 198603196 heartbeat IPC: 1.002 cumulative IPC: 1.018 (Simulation time: 00 hr 31 min 39 sec)
Heartbeat CPU 0 instructions: 240000995 cycles: 199045911 heartbeat IPC: 1.129 cumulative IPC: 1.018 (Simulation time: 00 hr 31 min 43 sec)
Heartbeat CPU 0 instructions: 240500997 cycles: 199473497 heartbeat IPC: 1.169 cumulative IPC: 1.019 (Simulation time: 00 hr 31 min 47 sec)
Heartbeat CPU 0 instructions: 241000998 cycles: 199854908 heartbeat IPC: 1.311 cumulative IPC: 1.019 (Simulation time: 00 hr 31 min 51 sec)
Heartbeat CPU 0 instructions: 241500999 cycles: 200228633 heartbeat IPC: 1.338 cumulative IPC: 1.02 (Simulation time: 00 hr 31 min 54 sec)
Heartbeat CPU 0 instructions: 242000999 cycles: 200578124 heartbeat IPC: 1.431 cumulative IPC: 1.021 (Simulation time: 00 hr 31 min 58 sec)
Heartbeat CPU 0 instructions: 242501005 cycles: 200906912 heartbeat IPC: 1.521 cumulative IPC: 1.022 (Simulation time: 00 hr 32 min 01 sec)
Heartbeat CPU 0 instructions: 243001005 cycles: 201571568 heartbeat IPC: 0.7523 cumulative IPC: 1.021 (Simulation time: 00 hr 32 min 06 sec)
Heartbeat CPU 0 instructions: 243501007 cycles: 202145673 heartbeat IPC: 0.8709 cumulative IPC: 1.02 (Simulation time: 00 hr 32 min 11 sec)
Heartbeat CPU 0 instructions: 244001007 cycles: 202674676 heartbeat IPC: 0.9452 cumulative IPC: 1.02 (Simulation time: 00 hr 32 min 15 sec)
Heartbeat CPU 0 instructions: 244501008 cycles: 203166442 heartbeat IPC: 1.017 cumulative IPC: 1.02 (Simulation time: 00 hr 32 min 19 sec)
Heartbeat CPU 0 instructions: 245001010 cycles: 203762248 heartbeat IPC: 0.8392 cumulative IPC: 1.02 (Simulation time: 00 hr 32 min 23 sec)
Heartbeat CPU 0 instructions: 245501010 cycles: 204307866 heartbeat IPC: 0.9164 cumulative IPC: 1.019 (Simulation time: 00 hr 32 min 27 sec)
Heartbeat CPU 0 instructions: 246001010 cycles: 204722546 heartbeat IPC: 1.206 cumulative IPC: 1.02 (Simulation time: 00 hr 32 min 30 sec)
Heartbeat CPU 0 instructions: 246501017 cycles: 205293532 heartbeat IPC: 0.8757 cumulative IPC: 1.019 (Simulation time: 00 hr 32 min 35 sec)
Heartbeat CPU 0 instructions: 247001021 cycles: 205795339 heartbeat IPC: 0.9964 cumulative IPC: 1.019 (Simulation time: 00 hr 32 min 39 sec)
Heartbeat CPU 0 instructions: 247501022 cycles: 206416530 heartbeat IPC: 0.8049 cumulative IPC: 1.018 (Simulation time: 00 hr 32 min 43 sec)
Heartbeat CPU 0 instructions: 248001022 cycles: 206926489 heartbeat IPC: 0.9805 cumulative IPC: 1.018 (Simulation time: 00 hr 32 min 47 sec)
Heartbeat CPU 0 instructions: 248501022 cycles: 207523313 heartbeat IPC: 0.8378 cumulative IPC: 1.018 (Simulation time: 00 hr 32 min 52 sec)
Heartbeat CPU 0 instructions: 249001024 cycles: 208002225 heartbeat IPC: 1.044 cumulative IPC: 1.018 (Simulation time: 00 hr 32 min 56 sec)
Heartbeat CPU 0 instructions: 249501025 cycles: 208433339 heartbeat IPC: 1.16 cumulative IPC: 1.018 (Simulation time: 00 hr 32 min 59 sec)
Simulation finished CPU 0 instructions: 200000002 cycles: 196408290 cumulative IPC: 1.018 (Simulation time: 00 hr 33 min 03 sec)
Simulation complete CPU 0 instructions: 200000002 cycles: 196408290 cumulative IPC: 1.018 (Simulation time: 00 hr 33 min 03 sec)

ChampSim completed all CPUs

=== Simulation ===
CPU 0 runs /local-ssd/ben/dpc4-traces/Graph/GMS/gms.k_clique_list_danisch_edge_parallel.soc-pokec-relationships.slice-80.champsimtrace.gz

Region of Interest Statistics

CPU 0 cumulative IPC: 1.018 instructions: 200000002 cycles: 196408290
CPU 0 Branch Prediction Accuracy: 95.61% MPKI: 7.162 Average ROB Occupancy at Mispredict: 53.07
Branch type MPKI
BRANCH_DIRECT_JUMP: 0.3307
BRANCH_INDIRECT: 0
BRANCH_CONDITIONAL: 6.832
BRANCH_DIRECT_CALL: 0
BRANCH_INDIRECT_CALL: 0
BRANCH_RETURN: 0

cpu0->cpu0_STLB TOTAL        ACCESS:   13272156 HIT:   12484828 MISS:     787328 MSHR_MERGE:          0
cpu0->cpu0_STLB LOAD         ACCESS:   13272156 HIT:   12484828 MISS:     787328 MSHR_MERGE:          0
cpu0->cpu0_STLB RFO          ACCESS:          0 HIT:          0 MISS:          0 MSHR_MERGE:          0
cpu0->cpu0_STLB PREFETCH     ACCESS:          0 HIT:          0 MISS:          0 MSHR_MERGE:          0
cpu0->cpu0_STLB WRITE        ACCESS:          0 HIT:          0 MISS:          0 MSHR_MERGE:          0
cpu0->cpu0_STLB TRANSLATION  ACCESS:          0 HIT:          0 MISS:          0 MSHR_MERGE:          0
cpu0->cpu0_STLB PREFETCH REQUESTED:          0 ISSUED:          0 USEFUL:          0 USELESS:          0
cpu0->cpu0_STLB AVERAGE MISS LATENCY: 38.32 cycles
cpu0->cpu0_L2C TOTAL        ACCESS:   16653332 HIT:   14270766 MISS:    2382566 MSHR_MERGE:          0
cpu0->cpu0_L2C LOAD         ACCESS:    4455245 HIT:    3173027 MISS:    1282218 MSHR_MERGE:          0
cpu0->cpu0_L2C RFO          ACCESS:    3943569 HIT:    3930388 MISS:      13181 MSHR_MERGE:          0
cpu0->cpu0_L2C PREFETCH     ACCESS:    3522604 HIT:    2468351 MISS:    1054253 MSHR_MERGE:          0
cpu0->cpu0_L2C WRITE        ACCESS:    4151584 HIT:    4151582 MISS:          2 MSHR_MERGE:          0
cpu0->cpu0_L2C TRANSLATION  ACCESS:     580330 HIT:     547418 MISS:      32912 MSHR_MERGE:          0
cpu0->cpu0_L2C PREFETCH REQUESTED:          0 ISSUED:          0 USEFUL:          0 USELESS:          0
cpu0->cpu0_L2C AVERAGE MISS LATENCY: 185 cycles
cpu0->cpu0_L1I TOTAL        ACCESS:   17328581 HIT:   17328581 MISS:          0 MSHR_MERGE:          0
cpu0->cpu0_L1I LOAD         ACCESS:   17328581 HIT:   17328581 MISS:          0 MSHR_MERGE:          0
cpu0->cpu0_L1I RFO          ACCESS:          0 HIT:          0 MISS:          0 MSHR_MERGE:          0
cpu0->cpu0_L1I PREFETCH     ACCESS:          0 HIT:          0 MISS:          0 MSHR_MERGE:          0
cpu0->cpu0_L1I WRITE        ACCESS:          0 HIT:          0 MISS:          0 MSHR_MERGE:          0
cpu0->cpu0_L1I TRANSLATION  ACCESS:          0 HIT:          0 MISS:          0 MSHR_MERGE:          0
cpu0->cpu0_L1I PREFETCH REQUESTED:          0 ISSUED:          0 USEFUL:          0 USELESS:          0
cpu0->cpu0_L1I AVERAGE MISS LATENCY: - cycles
cpu0->cpu0_L1D TOTAL        ACCESS:  103158629 HIT:   86517487 MISS:   16641142 MSHR_MERGE:    4138284
cpu0->cpu0_L1D LOAD         ACCESS:   37553130 HIT:   31395895 MISS:    6157235 MSHR_MERGE:    1701921
cpu0->cpu0_L1D RFO          ACCESS:          0 HIT:          0 MISS:          0 MSHR_MERGE:          0
cpu0->cpu0_L1D PREFETCH     ACCESS:   33546945 HIT:   28193113 MISS:    5353832 MSHR_MERGE:    1831221
cpu0->cpu0_L1D WRITE        ACCESS:   30526737 HIT:   25999991 MISS:    4526746 MSHR_MERGE:     582143
cpu0->cpu0_L1D TRANSLATION  ACCESS:    1531817 HIT:     928488 MISS:     603329 MSHR_MERGE:      22999
cpu0->cpu0_L1D PREFETCH REQUESTED:   45163526 ISSUED:   33546945 USEFUL:     116196 USELESS:    3406198
cpu0->cpu0_L1D AVERAGE MISS LATENCY: 35.85 cycles
cpu0->cpu0_ITLB TOTAL        ACCESS:   17319227 HIT:   17319227 MISS:          0 MSHR_MERGE:          0
cpu0->cpu0_ITLB LOAD         ACCESS:   17319227 HIT:   17319227 MISS:          0 MSHR_MERGE:          0
cpu0->cpu0_ITLB RFO          ACCESS:          0 HIT:          0 MISS:          0 MSHR_MERGE:          0
cpu0->cpu0_ITLB PREFETCH     ACCESS:          0 HIT:          0 MISS:          0 MSHR_MERGE:          0
cpu0->cpu0_ITLB WRITE        ACCESS:          0 HIT:          0 MISS:          0 MSHR_MERGE:          0
cpu0->cpu0_ITLB TRANSLATION  ACCESS:          0 HIT:          0 MISS:          0 MSHR_MERGE:          0
cpu0->cpu0_ITLB PREFETCH REQUESTED:          0 ISSUED:          0 USEFUL:          0 USELESS:          0
cpu0->cpu0_ITLB AVERAGE MISS LATENCY: - cycles
cpu0->cpu0_DTLB TOTAL        ACCESS:   95557100 HIT:   78924056 MISS:   16633044 MSHR_MERGE:    3360889
cpu0->cpu0_DTLB LOAD         ACCESS:   95557100 HIT:   78924056 MISS:   16633044 MSHR_MERGE:    3360889
cpu0->cpu0_DTLB RFO          ACCESS:          0 HIT:          0 MISS:          0 MSHR_MERGE:          0
cpu0->cpu0_DTLB PREFETCH     ACCESS:          0 HIT:          0 MISS:          0 MSHR_MERGE:          0
cpu0->cpu0_DTLB WRITE        ACCESS:          0 HIT:          0 MISS:          0 MSHR_MERGE:          0
cpu0->cpu0_DTLB TRANSLATION  ACCESS:          0 HIT:          0 MISS:          0 MSHR_MERGE:          0
cpu0->cpu0_DTLB PREFETCH REQUESTED:          0 ISSUED:          0 USEFUL:          0 USELESS:          0
cpu0->cpu0_DTLB AVERAGE MISS LATENCY: 7.36 cycles
cpu0->LLC TOTAL        ACCESS:    2433684 HIT:     749930 MISS:    1683754 MSHR_MERGE:          0
cpu0->LLC LOAD         ACCESS:    1282218 HIT:     418824 MISS:     863394 MSHR_MERGE:          0
cpu0->LLC RFO          ACCESS:      13181 HIT:       7716 MISS:       5465 MSHR_MERGE:          0
cpu0->LLC PREFETCH     ACCESS:    1054253 HIT:     278087 MISS:     776166 MSHR_MERGE:          0
cpu0->LLC WRITE        ACCESS:      51120 HIT:      31190 MISS:      19930 MSHR_MERGE:          0
cpu0->LLC TRANSLATION  ACCESS:      32912 HIT:      14113 MISS:      18799 MSHR_MERGE:          0
cpu0->LLC PREFETCH REQUESTED:          0 ISSUED:          0 USEFUL:          0 USELESS:          0
cpu0->LLC AVERAGE MISS LATENCY: 238 cycles

DRAM Statistics

Channel 0 RQ ROW_BUFFER_HIT:       3591
  ROW_BUFFER_MISS:    1660212
  AVG DBUS CONGESTED CYCLE: 7.463
Channel 0 WQ ROW_BUFFER_HIT:       3991
  ROW_BUFFER_MISS:      23439
  FULL:          0
Channel 0 REFRESHES ISSUED:      16366
