[VMEM] WARNING: physical memory size is smaller than virtual memory size.

*** ChampSim Multicore Out-of-Order Simulator ***
Warmup Instructions: 50000000
Simulation Instructions: 200000000
Number of CPUs: 1
Page size: 4096
Core 0: /local-ssd/ben/dpc4-traces/Graph/GMS/gms.k_clique_count_set_based.soc-pokec-relationships.slice-4.champsimtrace.gz
Off-chip DRAM Size: 64 GiB Channels: 1 Width: 64-bit Data Rate: 4807 MT/s
Heartbeat CPU 0 instructions: 500002 cycles: 102746 heartbeat IPC: 4.866 cumulative IPC: 4.866 (Simulation time: 00 hr 00 min 02 sec)
Heartbeat CPU 0 instructions: 1000004 cycles: 203470 heartbeat IPC: 4.964 cumulative IPC: 4.915 (Simulation time: 00 hr 00 min 03 sec)
Heartbeat CPU 0 instructions: 1500007 cycles: 303473 heartbeat IPC: 5 cumulative IPC: 4.943 (Simulation time: 00 hr 00 min 05 sec)
Heartbeat CPU 0 instructions: 2000010 cycles: 403481 heartbeat IPC: 5 cumulative IPC: 4.957 (Simulation time: 00 hr 00 min 06 sec)
Heartbeat CPU 0 instructions: 2500016 cycles: 503494 heartbeat IPC: 4.999 cumulative IPC: 4.965 (Simulation time: 00 hr 00 min 08 sec)
Heartbeat CPU 0 instructions: 3000020 cycles: 603488 heartbeat IPC: 5 cumulative IPC: 4.971 (Simulation time: 00 hr 00 min 09 sec)
Heartbeat CPU 0 instructions: 3500021 cycles: 703481 heartbeat IPC: 5 cumulative IPC: 4.975 (Simulation time: 00 hr 00 min 11 sec)
Heartbeat CPU 0 instructions: 4000026 cycles: 803494 heartbeat IPC: 4.999 cumulative IPC: 4.978 (Simulation time: 00 hr 00 min 12 sec)
Heartbeat CPU 0 instructions: 4500032 cycles: 903498 heartbeat IPC: 5 cumulative IPC: 4.981 (Simulation time: 00 hr 00 min 14 sec)
Heartbeat CPU 0 instructions: 5000032 cycles: 1003497 heartbeat IPC: 5 cumulative IPC: 4.983 (Simulation time: 00 hr 00 min 16 sec)
Heartbeat CPU 0 instructions: 5500036 cycles: 1103474 heartbeat IPC: 5.001 cumulative IPC: 4.984 (Simulation time: 00 hr 00 min 17 sec)
Heartbeat CPU 0 instructions: 6000043 cycles: 1203477 heartbeat IPC: 5 cumulative IPC: 4.986 (Simulation time: 00 hr 00 min 19 sec)
Heartbeat CPU 0 instructions: 6500050 cycles: 1303500 heartbeat IPC: 4.999 cumulative IPC: 4.987 (Simulation time: 00 hr 00 min 21 sec)
Heartbeat CPU 0 instructions: 7000055 cycles: 1403508 heartbeat IPC: 5 cumulative IPC: 4.988 (Simulation time: 00 hr 00 min 22 sec)
Heartbeat CPU 0 instructions: 7500057 cycles: 1503480 heartbeat IPC: 5.001 cumulative IPC: 4.988 (Simulation time: 00 hr 00 min 24 sec)
Heartbeat CPU 0 instructions: 8000058 cycles: 1603504 heartbeat IPC: 4.999 cumulative IPC: 4.989 (Simulation time: 00 hr 00 min 26 sec)
Heartbeat CPU 0 instructions: 8500058 cycles: 1703501 heartbeat IPC: 5 cumulative IPC: 4.99 (Simulation time: 00 hr 00 min 27 sec)
Heartbeat CPU 0 instructions: 9000059 cycles: 1803507 heartbeat IPC: 5 cumulative IPC: 4.99 (Simulation time: 00 hr 00 min 29 sec)
Heartbeat CPU 0 instructions: 9500065 cycles: 1903496 heartbeat IPC: 5.001 cumulative IPC: 4.991 (Simulation time: 00 hr 00 min 30 sec)
Heartbeat CPU 0 instructions: 10000068 cycles: 2003479 heartbeat IPC: 5.001 cumulative IPC: 4.991 (Simulation time: 00 hr 00 min 32 sec)
Heartbeat CPU 0 instructions: 10500069 cycles: 2103507 heartbeat IPC: 4.999 cumulative IPC: 4.992 (Simulation time: 00 hr 00 min 34 sec)
Heartbeat CPU 0 instructions: 11000075 cycles: 2203501 heartbeat IPC: 5 cumulative IPC: 4.992 (Simulation time: 00 hr 00 min 35 sec)
Heartbeat CPU 0 instructions: 11500080 cycles: 2303490 heartbeat IPC: 5.001 cumulative IPC: 4.992 (Simulation time: 00 hr 00 min 37 sec)
Heartbeat CPU 0 instructions: 12000081 cycles: 2403487 heartbeat IPC: 5 cumulative IPC: 4.993 (Simulation time: 00 hr 00 min 39 sec)
Heartbeat CPU 0 instructions: 12500082 cycles: 2503499 heartbeat IPC: 4.999 cumulative IPC: 4.993 (Simulation time: 00 hr 00 min 40 sec)
Heartbeat CPU 0 instructions: 13000082 cycles: 2603500 heartbeat IPC: 5 cumulative IPC: 4.993 (Simulation time: 00 hr 00 min 42 sec)
Heartbeat CPU 0 instructions: 13500082 cycles: 2703494 heartbeat IPC: 5 cumulative IPC: 4.994 (Simulation time: 00 hr 00 min 44 sec)
Heartbeat CPU 0 instructions: 14000085 cycles: 2803485 heartbeat IPC: 5 cumulative IPC: 4.994 (Simulation time: 00 hr 00 min 45 sec)
Heartbeat CPU 0 instructions: 14500086 cycles: 2903507 heartbeat IPC: 4.999 cumulative IPC: 4.994 (Simulation time: 00 hr 00 min 47 sec)
Heartbeat CPU 0 instructions: 15000092 cycles: 3003517 heartbeat IPC: 5 cumulative IPC: 4.994 (Simulation time: 00 hr 00 min 48 sec)
Heartbeat CPU 0 instructions: 15500097 cycles: 3103509 heartbeat IPC: 5 cumulative IPC: 4.994 (Simulation time: 00 hr 00 min 50 sec)
Heartbeat CPU 0 instructions: 16000102 cycles: 3203488 heartbeat IPC: 5.001 cumulative IPC: 4.995 (Simulation time: 00 hr 00 min 52 sec)
Heartbeat CPU 0 instructions: 16500108 cycles: 3303511 heartbeat IPC: 4.999 cumulative IPC: 4.995 (Simulation time: 00 hr 00 min 53 sec)
Heartbeat CPU 0 instructions: 17000111 cycles: 3403507 heartbeat IPC: 5 cumulative IPC: 4.995 (Simulation time: 00 hr 00 min 55 sec)
Heartbeat CPU 0 instructions: 17500113 cycles: 3503505 heartbeat IPC: 5 cumulative IPC: 4.995 (Simulation time: 00 hr 00 min 57 sec)
Heartbeat CPU 0 instructions: 18000113 cycles: 3603503 heartbeat IPC: 5 cumulative IPC: 4.995 (Simulation time: 00 hr 00 min 58 sec)
Heartbeat CPU 0 instructions: 18500116 cycles: 3703501 heartbeat IPC: 5 cumulative IPC: 4.995 (Simulation time: 00 hr 01 min 00 sec)
Heartbeat CPU 0 instructions: 19000122 cycles: 3803509 heartbeat IPC: 5 cumulative IPC: 4.995 (Simulation time: 00 hr 01 min 02 sec)
Heartbeat CPU 0 instructions: 19500123 cycles: 3903506 heartbeat IPC: 5 cumulative IPC: 4.996 (Simulation time: 00 hr 01 min 03 sec)
Heartbeat CPU 0 instructions: 20000128 cycles: 4003496 heartbeat IPC: 5.001 cumulative IPC: 4.996 (Simulation time: 00 hr 01 min 05 sec)
Heartbeat CPU 0 instructions: 20500133 cycles: 4103493 heartbeat IPC: 5 cumulative IPC: 4.996 (Simulation time: 00 hr 01 min 07 sec)
Heartbeat CPU 0 instructions: 21000133 cycles: 4203518 heartbeat IPC: 4.999 cumulative IPC: 4.996 (Simulation time: 00 hr 01 min 08 sec)
Heartbeat CPU 0 instructions: 21500133 cycles: 4303498 heartbeat IPC: 5.001 cumulative IPC: 4.996 (Simulation time: 00 hr 01 min 10 sec)
Heartbeat CPU 0 instructions: 22000139 cycles: 4403500 heartbeat IPC: 5 cumulative IPC: 4.996 (Simulation time: 00 hr 01 min 11 sec)
Heartbeat CPU 0 instructions: 22500140 cycles: 4503491 heartbeat IPC: 5 cumulative IPC: 4.996 (Simulation time: 00 hr 01 min 13 sec)
Heartbeat CPU 0 instructions: 23000143 cycles: 4603511 heartbeat IPC: 4.999 cumulative IPC: 4.996 (Simulation time: 00 hr 01 min 15 sec)
Heartbeat CPU 0 instructions: 23500150 cycles: 4703506 heartbeat IPC: 5 cumulative IPC: 4.996 (Simulation time: 00 hr 01 min 16 sec)
Heartbeat CPU 0 instructions: 24000151 cycles: 4803522 heartbeat IPC: 4.999 cumulative IPC: 4.996 (Simulation time: 00 hr 01 min 18 sec)
Heartbeat CPU 0 instructions: 24500151 cycles: 4903495 heartbeat IPC: 5.001 cumulative IPC: 4.996 (Simulation time: 00 hr 01 min 20 sec)
Heartbeat CPU 0 instructions: 25000153 cycles: 5003508 heartbeat IPC: 4.999 cumulative IPC: 4.997 (Simulation time: 00 hr 01 min 21 sec)
Heartbeat CPU 0 instructions: 25500156 cycles: 5103516 heartbeat IPC: 5 cumulative IPC: 4.997 (Simulation time: 00 hr 01 min 23 sec)
Heartbeat CPU 0 instructions: 26000157 cycles: 5203519 heartbeat IPC: 5 cumulative IPC: 4.997 (Simulation time: 00 hr 01 min 25 sec)
Heartbeat CPU 0 instructions: 26500163 cycles: 5303511 heartbeat IPC: 5 cumulative IPC: 4.997 (Simulation time: 00 hr 01 min 26 sec)
Heartbeat CPU 0 instructions: 27000166 cycles: 5403524 heartbeat IPC: 4.999 cumulative IPC: 4.997 (Simulation time: 00 hr 01 min 28 sec)
Heartbeat CPU 0 instructions: 27500168 cycles: 5503516 heartbeat IPC: 5 cumulative IPC: 4.997 (Simulation time: 00 hr 01 min 29 sec)
Heartbeat CPU 0 instructions: 28000168 cycles: 5603517 heartbeat IPC: 5 cumulative IPC: 4.997 (Simulation time: 00 hr 01 min 31 sec)
Heartbeat CPU 0 instructions: 28500173 cycles: 5703526 heartbeat IPC: 5 cumulative IPC: 4.997 (Simulation time: 00 hr 01 min 33 sec)
Heartbeat CPU 0 instructions: 29000178 cycles: 5803506 heartbeat IPC: 5.001 cumulative IPC: 4.997 (Simulation time: 00 hr 01 min 34 sec)
Heartbeat CPU 0 instructions: 29500183 cycles: 5903513 heartbeat IPC: 5 cumulative IPC: 4.997 (Simulation time: 00 hr 01 min 36 sec)
Heartbeat CPU 0 instructions: 30000184 cycles: 6003509 heartbeat IPC: 5 cumulative IPC: 4.997 (Simulation time: 00 hr 01 min 38 sec)
Heartbeat CPU 0 instructions: 30500186 cycles: 6103529 heartbeat IPC: 4.999 cumulative IPC: 4.997 (Simulation time: 00 hr 01 min 39 sec)
Heartbeat CPU 0 instructions: 31000187 cycles: 6203511 heartbeat IPC: 5.001 cumulative IPC: 4.997 (Simulation time: 00 hr 01 min 41 sec)
Heartbeat CPU 0 instructions: 31500190 cycles: 6303512 heartbeat IPC: 5 cumulative IPC: 4.997 (Simulation time: 00 hr 01 min 43 sec)
Heartbeat CPU 0 instructions: 32000194 cycles: 6403505 heartbeat IPC: 5 cumulative IPC: 4.997 (Simulation time: 00 hr 01 min 44 sec)
Heartbeat CPU 0 instructions: 32500197 cycles: 6503511 heartbeat IPC: 5 cumulative IPC: 4.997 (Simulation time: 00 hr 01 min 46 sec)
Heartbeat CPU 0 instructions: 33000203 cycles: 6603530 heartbeat IPC: 4.999 cumulative IPC: 4.997 (Simulation time: 00 hr 01 min 47 sec)
Heartbeat CPU 0 instructions: 33500207 cycles: 6703515 heartbeat IPC: 5.001 cumulative IPC: 4.997 (Simulation time: 00 hr 01 min 49 sec)
Heartbeat CPU 0 instructions: 34000212 cycles: 6803508 heartbeat IPC: 5 cumulative IPC: 4.997 (Simulation time: 00 hr 01 min 51 sec)
Heartbeat CPU 0 instructions: 34500212 cycles: 6903520 heartbeat IPC: 4.999 cumulative IPC: 4.997 (Simulation time: 00 hr 01 min 52 sec)
Heartbeat CPU 0 instructions: 35000219 cycles: 7003515 heartbeat IPC: 5 cumulative IPC: 4.998 (Simulation time: 00 hr 01 min 54 sec)
Heartbeat CPU 0 instructions: 35500219 cycles: 7103530 heartbeat IPC: 4.999 cumulative IPC: 4.998 (Simulation time: 00 hr 01 min 56 sec)
Heartbeat CPU 0 instructions: 36000220 cycles: 7203523 heartbeat IPC: 5 cumulative IPC: 4.998 (Simulation time: 00 hr 01 min 57 sec)
Heartbeat CPU 0 instructions: 36500225 cycles: 7303527 heartbeat IPC: 5 cumulative IPC: 4.998 (Simulation time: 00 hr 01 min 59 sec)
Heartbeat CPU 0 instructions: 37000225 cycles: 7403512 heartbeat IPC: 5.001 cumulative IPC: 4.998 (Simulation time: 00 hr 02 min 01 sec)
Heartbeat CPU 0 instructions: 37500225 cycles: 7503527 heartbeat IPC: 4.999 cumulative IPC: 4.998 (Simulation time: 00 hr 02 min 02 sec)
Heartbeat CPU 0 instructions: 38000227 cycles: 7603515 heartbeat IPC: 5.001 cumulative IPC: 4.998 (Simulation time: 00 hr 02 min 04 sec)
Heartbeat CPU 0 instructions: 38500233 cycles: 7703532 heartbeat IPC: 4.999 cumulative IPC: 4.998 (Simulation time: 00 hr 02 min 05 sec)
Heartbeat CPU 0 instructions: 39000240 cycles: 7803537 heartbeat IPC: 5 cumulative IPC: 4.998 (Simulation time: 00 hr 02 min 07 sec)
Heartbeat CPU 0 instructions: 39500241 cycles: 7903536 heartbeat IPC: 5 cumulative IPC: 4.998 (Simulation time: 00 hr 02 min 09 sec)
Heartbeat CPU 0 instructions: 40000248 cycles: 8003532 heartbeat IPC: 5 cumulative IPC: 4.998 (Simulation time: 00 hr 02 min 10 sec)
Heartbeat CPU 0 instructions: 40500255 cycles: 8103535 heartbeat IPC: 5 cumulative IPC: 4.998 (Simulation time: 00 hr 02 min 12 sec)
Heartbeat CPU 0 instructions: 41000257 cycles: 8203532 heartbeat IPC: 5 cumulative IPC: 4.998 (Simulation time: 00 hr 02 min 14 sec)
Heartbeat CPU 0 instructions: 41500261 cycles: 8303540 heartbeat IPC: 5 cumulative IPC: 4.998 (Simulation time: 00 hr 02 min 15 sec)
Heartbeat CPU 0 instructions: 42000266 cycles: 8403532 heartbeat IPC: 5 cumulative IPC: 4.998 (Simulation time: 00 hr 02 min 17 sec)
Heartbeat CPU 0 instructions: 42500273 cycles: 8503538 heartbeat IPC: 5 cumulative IPC: 4.998 (Simulation time: 00 hr 02 min 19 sec)
Heartbeat CPU 0 instructions: 43000278 cycles: 8603541 heartbeat IPC: 5 cumulative IPC: 4.998 (Simulation time: 00 hr 02 min 20 sec)
Heartbeat CPU 0 instructions: 43500285 cycles: 8703524 heartbeat IPC: 5.001 cumulative IPC: 4.998 (Simulation time: 00 hr 02 min 22 sec)
Heartbeat CPU 0 instructions: 44000285 cycles: 8803533 heartbeat IPC: 5 cumulative IPC: 4.998 (Simulation time: 00 hr 02 min 23 sec)
Heartbeat CPU 0 instructions: 44500290 cycles: 8903534 heartbeat IPC: 5 cumulative IPC: 4.998 (Simulation time: 00 hr 02 min 25 sec)
Heartbeat CPU 0 instructions: 45000291 cycles: 9003543 heartbeat IPC: 5 cumulative IPC: 4.998 (Simulation time: 00 hr 02 min 27 sec)
Heartbeat CPU 0 instructions: 45500295 cycles: 9103550 heartbeat IPC: 5 cumulative IPC: 4.998 (Simulation time: 00 hr 02 min 28 sec)
Heartbeat CPU 0 instructions: 46000297 cycles: 9203551 heartbeat IPC: 5 cumulative IPC: 4.998 (Simulation time: 00 hr 02 min 30 sec)
Heartbeat CPU 0 instructions: 46500302 cycles: 9303560 heartbeat IPC: 5 cumulative IPC: 4.998 (Simulation time: 00 hr 02 min 32 sec)
Heartbeat CPU 0 instructions: 47000309 cycles: 9403543 heartbeat IPC: 5.001 cumulative IPC: 4.998 (Simulation time: 00 hr 02 min 33 sec)
Heartbeat CPU 0 instructions: 47500315 cycles: 9503528 heartbeat IPC: 5.001 cumulative IPC: 4.998 (Simulation time: 00 hr 02 min 35 sec)
Heartbeat CPU 0 instructions: 48000316 cycles: 9603536 heartbeat IPC: 5 cumulative IPC: 4.998 (Simulation time: 00 hr 02 min 37 sec)
Heartbeat CPU 0 instructions: 48500319 cycles: 9703559 heartbeat IPC: 4.999 cumulative IPC: 4.998 (Simulation time: 00 hr 02 min 38 sec)
Heartbeat CPU 0 instructions: 49000319 cycles: 9803533 heartbeat IPC: 5.001 cumulative IPC: 4.998 (Simulation time: 00 hr 02 min 40 sec)
Heartbeat CPU 0 instructions: 49500321 cycles: 9903557 heartbeat IPC: 4.999 cumulative IPC: 4.998 (Simulation time: 00 hr 02 min 42 sec)
Warmup halting CPU 0 at instruction 50000007 cycle 10003482 for remainder of phase
Warmup finished CPU 0 instructions: 50000007 cycles: 10003482 cumulative IPC: 4.998 (Simulation time: 00 hr 02 min 43 sec)
Warmup complete CPU 0 instructions: 50000007 cycles: 10003482 cumulative IPC: 4.998 (Simulation time: 00 hr 02 min 43 sec)
Heartbeat CPU 0 instructions: 50000321 cycles: 10003540 heartbeat IPC: 5.001 cumulative IPC: 5.414 (Simulation time: 00 hr 02 min 43 sec)
Heartbeat CPU 0 instructions: 50500321 cycles: 10183920 heartbeat IPC: 2.772 cumulative IPC: 2.773 (Simulation time: 00 hr 02 min 45 sec)
Heartbeat CPU 0 instructions: 51000321 cycles: 10364653 heartbeat IPC: 2.767 cumulative IPC: 2.77 (Simulation time: 00 hr 02 min 48 sec)
Heartbeat CPU 0 instructions: 51500328 cycles: 10545118 heartbeat IPC: 2.771 cumulative IPC: 2.77 (Simulation time: 00 hr 02 min 50 sec)
Heartbeat CPU 0 instructions: 52000328 cycles: 10725572 heartbeat IPC: 2.771 cumulative IPC: 2.77 (Simulation time: 00 hr 02 min 52 sec)
Heartbeat CPU 0 instructions: 52500328 cycles: 10905856 heartbeat IPC: 2.773 cumulative IPC: 2.771 (Simulation time: 00 hr 02 min 55 sec)
Heartbeat CPU 0 instructions: 53000335 cycles: 11086263 heartbeat IPC: 2.772 cumulative IPC: 2.771 (Simulation time: 00 hr 02 min 57 sec)
Heartbeat CPU 0 instructions: 53500339 cycles: 11266970 heartbeat IPC: 2.767 cumulative IPC: 2.77 (Simulation time: 00 hr 02 min 59 sec)
Heartbeat CPU 0 instructions: 54000345 cycles: 11447875 heartbeat IPC: 2.764 cumulative IPC: 2.77 (Simulation time: 00 hr 03 min 02 sec)
Heartbeat CPU 0 instructions: 54500345 cycles: 11628386 heartbeat IPC: 2.77 cumulative IPC: 2.77 (Simulation time: 00 hr 03 min 04 sec)
Heartbeat CPU 0 instructions: 55000349 cycles: 11809160 heartbeat IPC: 2.766 cumulative IPC: 2.769 (Simulation time: 00 hr 03 min 06 sec)
Heartbeat CPU 0 instructions: 55500352 cycles: 11989997 heartbeat IPC: 2.765 cumulative IPC: 2.769 (Simulation time: 00 hr 03 min 09 sec)
Heartbeat CPU 0 instructions: 56000359 cycles: 12170409 heartbeat IPC: 2.771 cumulative IPC: 2.769 (Simulation time: 00 hr 03 min 11 sec)
Heartbeat CPU 0 instructions: 56500361 cycles: 12351145 heartbeat IPC: 2.766 cumulative IPC: 2.769 (Simulation time: 00 hr 03 min 13 sec)
Heartbeat CPU 0 instructions: 57000362 cycles: 12531780 heartbeat IPC: 2.768 cumulative IPC: 2.769 (Simulation time: 00 hr 03 min 16 sec)
Heartbeat CPU 0 instructions: 57500368 cycles: 12712710 heartbeat IPC: 2.764 cumulative IPC: 2.768 (Simulation time: 00 hr 03 min 18 sec)
Heartbeat CPU 0 instructions: 58000368 cycles: 12893620 heartbeat IPC: 2.764 cumulative IPC: 2.768 (Simulation time: 00 hr 03 min 20 sec)
Heartbeat CPU 0 instructions: 58500372 cycles: 13074191 heartbeat IPC: 2.769 cumulative IPC: 2.768 (Simulation time: 00 hr 03 min 23 sec)
Heartbeat CPU 0 instructions: 59000377 cycles: 13255075 heartbeat IPC: 2.764 cumulative IPC: 2.768 (Simulation time: 00 hr 03 min 25 sec)
Heartbeat CPU 0 instructions: 59500377 cycles: 13435936 heartbeat IPC: 2.765 cumulative IPC: 2.768 (Simulation time: 00 hr 03 min 27 sec)
Heartbeat CPU 0 instructions: 60000383 cycles: 13616374 heartbeat IPC: 2.771 cumulative IPC: 2.768 (Simulation time: 00 hr 03 min 30 sec)
Heartbeat CPU 0 instructions: 60500383 cycles: 13797458 heartbeat IPC: 2.761 cumulative IPC: 2.768 (Simulation time: 00 hr 03 min 32 sec)
Heartbeat CPU 0 instructions: 61000389 cycles: 13978323 heartbeat IPC: 2.765 cumulative IPC: 2.768 (Simulation time: 00 hr 03 min 34 sec)
Heartbeat CPU 0 instructions: 61500390 cycles: 14158842 heartbeat IPC: 2.77 cumulative IPC: 2.768 (Simulation time: 00 hr 03 min 37 sec)
Heartbeat CPU 0 instructions: 62000391 cycles: 14339584 heartbeat IPC: 2.766 cumulative IPC: 2.768 (Simulation time: 00 hr 03 min 39 sec)
Heartbeat CPU 0 instructions: 62500391 cycles: 14520275 heartbeat IPC: 2.767 cumulative IPC: 2.768 (Simulation time: 00 hr 03 min 41 sec)
Heartbeat CPU 0 instructions: 63000392 cycles: 14700700 heartbeat IPC: 2.771 cumulative IPC: 2.768 (Simulation time: 00 hr 03 min 44 sec)
Heartbeat CPU 0 instructions: 63500396 cycles: 14881667 heartbeat IPC: 2.763 cumulative IPC: 2.768 (Simulation time: 00 hr 03 min 46 sec)
Heartbeat CPU 0 instructions: 64000397 cycles: 15062814 heartbeat IPC: 2.76 cumulative IPC: 2.767 (Simulation time: 00 hr 03 min 48 sec)
Heartbeat CPU 0 instructions: 64500398 cycles: 15243179 heartbeat IPC: 2.772 cumulative IPC: 2.767 (Simulation time: 00 hr 03 min 51 sec)
Heartbeat CPU 0 instructions: 65000401 cycles: 15423545 heartbeat IPC: 2.772 cumulative IPC: 2.768 (Simulation time: 00 hr 03 min 53 sec)
Heartbeat CPU 0 instructions: 65500401 cycles: 15604256 heartbeat IPC: 2.767 cumulative IPC: 2.768 (Simulation time: 00 hr 03 min 55 sec)
Heartbeat CPU 0 instructions: 66000403 cycles: 15784955 heartbeat IPC: 2.767 cumulative IPC: 2.768 (Simulation time: 00 hr 03 min 58 sec)
Heartbeat CPU 0 instructions: 66500404 cycles: 15965577 heartbeat IPC: 2.768 cumulative IPC: 2.768 (Simulation time: 00 hr 04 min 00 sec)
Heartbeat CPU 0 instructions: 67000405 cycles: 16146025 heartbeat IPC: 2.771 cumulative IPC: 2.768 (Simulation time: 00 hr 04 min 02 sec)
Heartbeat CPU 0 instructions: 67500406 cycles: 16326281 heartbeat IPC: 2.774 cumulative IPC: 2.768 (Simulation time: 00 hr 04 min 04 sec)
Heartbeat CPU 0 instructions: 68000409 cycles: 16506728 heartbeat IPC: 2.771 cumulative IPC: 2.768 (Simulation time: 00 hr 04 min 07 sec)
Heartbeat CPU 0 instructions: 68500416 cycles: 16687660 heartbeat IPC: 2.764 cumulative IPC: 2.768 (Simulation time: 00 hr 04 min 09 sec)
Heartbeat CPU 0 instructions: 69000421 cycles: 16868832 heartbeat IPC: 2.76 cumulative IPC: 2.768 (Simulation time: 00 hr 04 min 11 sec)
Heartbeat CPU 0 instructions: 69500423 cycles: 17049417 heartbeat IPC: 2.769 cumulative IPC: 2.768 (Simulation time: 00 hr 04 min 14 sec)
Heartbeat CPU 0 instructions: 70000428 cycles: 17229790 heartbeat IPC: 2.772 cumulative IPC: 2.768 (Simulation time: 00 hr 04 min 16 sec)
Heartbeat CPU 0 instructions: 70500432 cycles: 17410416 heartbeat IPC: 2.768 cumulative IPC: 2.768 (Simulation time: 00 hr 04 min 18 sec)
Heartbeat CPU 0 instructions: 71000432 cycles: 17591059 heartbeat IPC: 2.768 cumulative IPC: 2.768 (Simulation time: 00 hr 04 min 21 sec)
Heartbeat CPU 0 instructions: 71500433 cycles: 17771400 heartbeat IPC: 2.773 cumulative IPC: 2.768 (Simulation time: 00 hr 04 min 23 sec)
Heartbeat CPU 0 instructions: 72000434 cycles: 17951990 heartbeat IPC: 2.769 cumulative IPC: 2.768 (Simulation time: 00 hr 04 min 25 sec)
Heartbeat CPU 0 instructions: 72500441 cycles: 18132461 heartbeat IPC: 2.771 cumulative IPC: 2.768 (Simulation time: 00 hr 04 min 28 sec)
Heartbeat CPU 0 instructions: 73000441 cycles: 18312869 heartbeat IPC: 2.771 cumulative IPC: 2.768 (Simulation time: 00 hr 04 min 30 sec)
Heartbeat CPU 0 instructions: 73500448 cycles: 18493342 heartbeat IPC: 2.771 cumulative IPC: 2.768 (Simulation time: 00 hr 04 min 32 sec)
Heartbeat CPU 0 instructions: 74000453 cycles: 18673802 heartbeat IPC: 2.771 cumulative IPC: 2.768 (Simulation time: 00 hr 04 min 35 sec)
Heartbeat CPU 0 instructions: 74500460 cycles: 18854281 heartbeat IPC: 2.77 cumulative IPC: 2.768 (Simulation time: 00 hr 04 min 37 sec)
Heartbeat CPU 0 instructions: 75000460 cycles: 19034569 heartbeat IPC: 2.773 cumulative IPC: 2.768 (Simulation time: 00 hr 04 min 39 sec)
Heartbeat CPU 0 instructions: 75500467 cycles: 19215155 heartbeat IPC: 2.769 cumulative IPC: 2.768 (Simulation time: 00 hr 04 min 42 sec)
Heartbeat CPU 0 instructions: 76000471 cycles: 19395623 heartbeat IPC: 2.771 cumulative IPC: 2.768 (Simulation time: 00 hr 04 min 44 sec)
Heartbeat CPU 0 instructions: 76500476 cycles: 19576053 heartbeat IPC: 2.771 cumulative IPC: 2.768 (Simulation time: 00 hr 04 min 46 sec)
Heartbeat CPU 0 instructions: 77000479 cycles: 19756452 heartbeat IPC: 2.772 cumulative IPC: 2.768 (Simulation time: 00 hr 04 min 48 sec)
Heartbeat CPU 0 instructions: 77500482 cycles: 19936870 heartbeat IPC: 2.771 cumulative IPC: 2.768 (Simulation time: 00 hr 04 min 51 sec)
Heartbeat CPU 0 instructions: 78000489 cycles: 20117233 heartbeat IPC: 2.772 cumulative IPC: 2.769 (Simulation time: 00 hr 04 min 53 sec)
Heartbeat CPU 0 instructions: 78500490 cycles: 20298017 heartbeat IPC: 2.766 cumulative IPC: 2.769 (Simulation time: 00 hr 04 min 55 sec)
Heartbeat CPU 0 instructions: 79000491 cycles: 20478514 heartbeat IPC: 2.77 cumulative IPC: 2.769 (Simulation time: 00 hr 04 min 58 sec)
Heartbeat CPU 0 instructions: 79500494 cycles: 20659044 heartbeat IPC: 2.77 cumulative IPC: 2.769 (Simulation time: 00 hr 05 min 00 sec)
Heartbeat CPU 0 instructions: 80000494 cycles: 20839327 heartbeat IPC: 2.773 cumulative IPC: 2.769 (Simulation time: 00 hr 05 min 02 sec)
Heartbeat CPU 0 instructions: 80500494 cycles: 21019665 heartbeat IPC: 2.773 cumulative IPC: 2.769 (Simulation time: 00 hr 05 min 05 sec)
Heartbeat CPU 0 instructions: 81000497 cycles: 21200417 heartbeat IPC: 2.766 cumulative IPC: 2.769 (Simulation time: 00 hr 05 min 07 sec)
Heartbeat CPU 0 instructions: 81500501 cycles: 21380999 heartbeat IPC: 2.769 cumulative IPC: 2.769 (Simulation time: 00 hr 05 min 09 sec)
Heartbeat CPU 0 instructions: 82000503 cycles: 21561412 heartbeat IPC: 2.771 cumulative IPC: 2.769 (Simulation time: 00 hr 05 min 12 sec)
Heartbeat CPU 0 instructions: 82500504 cycles: 21742244 heartbeat IPC: 2.765 cumulative IPC: 2.769 (Simulation time: 00 hr 05 min 14 sec)
Heartbeat CPU 0 instructions: 83000504 cycles: 21923027 heartbeat IPC: 2.766 cumulative IPC: 2.769 (Simulation time: 00 hr 05 min 16 sec)
Heartbeat CPU 0 instructions: 83500506 cycles: 22103819 heartbeat IPC: 2.766 cumulative IPC: 2.769 (Simulation time: 00 hr 05 min 19 sec)
Heartbeat CPU 0 instructions: 84000513 cycles: 22284209 heartbeat IPC: 2.772 cumulative IPC: 2.769 (Simulation time: 00 hr 05 min 21 sec)
Heartbeat CPU 0 instructions: 84500514 cycles: 22464874 heartbeat IPC: 2.768 cumulative IPC: 2.769 (Simulation time: 00 hr 05 min 23 sec)
Heartbeat CPU 0 instructions: 85000516 cycles: 22645193 heartbeat IPC: 2.773 cumulative IPC: 2.769 (Simulation time: 00 hr 05 min 26 sec)
Heartbeat CPU 0 instructions: 85500521 cycles: 22826013 heartbeat IPC: 2.765 cumulative IPC: 2.769 (Simulation time: 00 hr 05 min 28 sec)
Heartbeat CPU 0 instructions: 86000521 cycles: 23006733 heartbeat IPC: 2.767 cumulative IPC: 2.769 (Simulation time: 00 hr 05 min 30 sec)
Heartbeat CPU 0 instructions: 86500521 cycles: 23187602 heartbeat IPC: 2.764 cumulative IPC: 2.769 (Simulation time: 00 hr 05 min 33 sec)
Heartbeat CPU 0 instructions: 87000526 cycles: 23368417 heartbeat IPC: 2.765 cumulative IPC: 2.768 (Simulation time: 00 hr 05 min 35 sec)
Heartbeat CPU 0 instructions: 87500530 cycles: 23549384 heartbeat IPC: 2.763 cumulative IPC: 2.768 (Simulation time: 00 hr 05 min 37 sec)
Heartbeat CPU 0 instructions: 88000533 cycles: 23730373 heartbeat IPC: 2.763 cumulative IPC: 2.768 (Simulation time: 00 hr 05 min 40 sec)
Heartbeat CPU 0 instructions: 88500539 cycles: 23910754 heartbeat IPC: 2.772 cumulative IPC: 2.768 (Simulation time: 00 hr 05 min 42 sec)
Heartbeat CPU 0 instructions: 89000541 cycles: 24091175 heartbeat IPC: 2.771 cumulative IPC: 2.768 (Simulation time: 00 hr 05 min 44 sec)
Heartbeat CPU 0 instructions: 89500547 cycles: 24272111 heartbeat IPC: 2.763 cumulative IPC: 2.768 (Simulation time: 00 hr 05 min 46 sec)
Heartbeat CPU 0 instructions: 90000548 cycles: 24452838 heartbeat IPC: 2.767 cumulative IPC: 2.768 (Simulation time: 00 hr 05 min 49 sec)
Heartbeat CPU 0 instructions: 90500548 cycles: 24633306 heartbeat IPC: 2.771 cumulative IPC: 2.768 (Simulation time: 00 hr 05 min 51 sec)
Heartbeat CPU 0 instructions: 91000554 cycles: 24813868 heartbeat IPC: 2.769 cumulative IPC: 2.768 (Simulation time: 00 hr 05 min 53 sec)
Heartbeat CPU 0 instructions: 91500556 cycles: 24994263 heartbeat IPC: 2.772 cumulative IPC: 2.768 (Simulation time: 00 hr 05 min 56 sec)
Heartbeat CPU 0 instructions: 92000558 cycles: 25174670 heartbeat IPC: 2.772 cumulative IPC: 2.768 (Simulation time: 00 hr 05 min 58 sec)
Heartbeat CPU 0 instructions: 92500564 cycles: 25355297 heartbeat IPC: 2.768 cumulative IPC: 2.768 (Simulation time: 00 hr 06 min 00 sec)
Heartbeat CPU 0 instructions: 93000568 cycles: 25535780 heartbeat IPC: 2.77 cumulative IPC: 2.768 (Simulation time: 00 hr 06 min 03 sec)
Heartbeat CPU 0 instructions: 93500569 cycles: 25716170 heartbeat IPC: 2.772 cumulative IPC: 2.768 (Simulation time: 00 hr 06 min 05 sec)
Heartbeat CPU 0 instructions: 94000569 cycles: 25897269 heartbeat IPC: 2.761 cumulative IPC: 2.768 (Simulation time: 00 hr 06 min 07 sec)
Heartbeat CPU 0 instructions: 94500571 cycles: 26078202 heartbeat IPC: 2.763 cumulative IPC: 2.768 (Simulation time: 00 hr 06 min 10 sec)
Heartbeat CPU 0 instructions: 95000572 cycles: 26258868 heartbeat IPC: 2.768 cumulative IPC: 2.768 (Simulation time: 00 hr 06 min 12 sec)
Heartbeat CPU 0 instructions: 95500579 cycles: 26439354 heartbeat IPC: 2.77 cumulative IPC: 2.768 (Simulation time: 00 hr 06 min 14 sec)
Heartbeat CPU 0 instructions: 96000579 cycles: 26619931 heartbeat IPC: 2.769 cumulative IPC: 2.768 (Simulation time: 00 hr 06 min 17 sec)
Heartbeat CPU 0 instructions: 96500579 cycles: 26800331 heartbeat IPC: 2.772 cumulative IPC: 2.768 (Simulation time: 00 hr 06 min 19 sec)
Heartbeat CPU 0 instructions: 97000580 cycles: 26981113 heartbeat IPC: 2.766 cumulative IPC: 2.768 (Simulation time: 00 hr 06 min 21 sec)
Heartbeat CPU 0 instructions: 97500582 cycles: 27161461 heartbeat IPC: 2.772 cumulative IPC: 2.768 (Simulation time: 00 hr 06 min 24 sec)
Heartbeat CPU 0 instructions: 98000585 cycles: 27341864 heartbeat IPC: 2.772 cumulative IPC: 2.768 (Simulation time: 00 hr 06 min 26 sec)
Heartbeat CPU 0 instructions: 98500588 cycles: 27522539 heartbeat IPC: 2.767 cumulative IPC: 2.768 (Simulation time: 00 hr 06 min 28 sec)
Heartbeat CPU 0 instructions: 99000590 cycles: 27703131 heartbeat IPC: 2.769 cumulative IPC: 2.768 (Simulation time: 00 hr 06 min 31 sec)
Heartbeat CPU 0 instructions: 99500590 cycles: 27883745 heartbeat IPC: 2.768 cumulative IPC: 2.768 (Simulation time: 00 hr 06 min 33 sec)
Heartbeat CPU 0 instructions: 100000590 cycles: 28064876 heartbeat IPC: 2.76 cumulative IPC: 2.768 (Simulation time: 00 hr 06 min 35 sec)
Heartbeat CPU 0 instructions: 100500593 cycles: 28245753 heartbeat IPC: 2.764 cumulative IPC: 2.768 (Simulation time: 00 hr 06 min 38 sec)
Heartbeat CPU 0 instructions: 101000600 cycles: 28426691 heartbeat IPC: 2.763 cumulative IPC: 2.768 (Simulation time: 00 hr 06 min 40 sec)
Heartbeat CPU 0 instructions: 101500604 cycles: 28607444 heartbeat IPC: 2.766 cumulative IPC: 2.768 (Simulation time: 00 hr 06 min 42 sec)
Heartbeat CPU 0 instructions: 102000608 cycles: 28788538 heartbeat IPC: 2.761 cumulative IPC: 2.768 (Simulation time: 00 hr 06 min 45 sec)
Heartbeat CPU 0 instructions: 102500615 cycles: 28969149 heartbeat IPC: 2.768 cumulative IPC: 2.768 (Simulation time: 00 hr 06 min 47 sec)
Heartbeat CPU 0 instructions: 103000616 cycles: 29149655 heartbeat IPC: 2.77 cumulative IPC: 2.768 (Simulation time: 00 hr 06 min 49 sec)
Heartbeat CPU 0 instructions: 103500623 cycles: 29330177 heartbeat IPC: 2.77 cumulative IPC: 2.768 (Simulation time: 00 hr 06 min 52 sec)
Heartbeat CPU 0 instructions: 104000627 cycles: 29511046 heartbeat IPC: 2.764 cumulative IPC: 2.768 (Simulation time: 00 hr 06 min 54 sec)
Heartbeat CPU 0 instructions: 104500634 cycles: 29691930 heartbeat IPC: 2.764 cumulative IPC: 2.768 (Simulation time: 00 hr 06 min 56 sec)
Heartbeat CPU 0 instructions: 105000634 cycles: 29872364 heartbeat IPC: 2.771 cumulative IPC: 2.768 (Simulation time: 00 hr 06 min 58 sec)
Heartbeat CPU 0 instructions: 105500636 cycles: 30053147 heartbeat IPC: 2.766 cumulative IPC: 2.768 (Simulation time: 00 hr 07 min 01 sec)
Heartbeat CPU 0 instructions: 106000641 cycles: 30233928 heartbeat IPC: 2.766 cumulative IPC: 2.768 (Simulation time: 00 hr 07 min 03 sec)
Heartbeat CPU 0 instructions: 106500646 cycles: 30414742 heartbeat IPC: 2.765 cumulative IPC: 2.768 (Simulation time: 00 hr 07 min 05 sec)
Heartbeat CPU 0 instructions: 107000653 cycles: 30595424 heartbeat IPC: 2.767 cumulative IPC: 2.768 (Simulation time: 00 hr 07 min 08 sec)
Heartbeat CPU 0 instructions: 107500659 cycles: 30776172 heartbeat IPC: 2.766 cumulative IPC: 2.768 (Simulation time: 00 hr 07 min 10 sec)
Heartbeat CPU 0 instructions: 108000660 cycles: 30957126 heartbeat IPC: 2.763 cumulative IPC: 2.768 (Simulation time: 00 hr 07 min 12 sec)
Heartbeat CPU 0 instructions: 108500660 cycles: 31137948 heartbeat IPC: 2.765 cumulative IPC: 2.768 (Simulation time: 00 hr 07 min 15 sec)
Heartbeat CPU 0 instructions: 109000662 cycles: 31318561 heartbeat IPC: 2.768 cumulative IPC: 2.768 (Simulation time: 00 hr 07 min 17 sec)
Heartbeat CPU 0 instructions: 109500666 cycles: 31499141 heartbeat IPC: 2.769 cumulative IPC: 2.768 (Simulation time: 00 hr 07 min 19 sec)
Heartbeat CPU 0 instructions: 110000666 cycles: 31679637 heartbeat IPC: 2.77 cumulative IPC: 2.768 (Simulation time: 00 hr 07 min 22 sec)
Heartbeat CPU 0 instructions: 110500666 cycles: 31860285 heartbeat IPC: 2.768 cumulative IPC: 2.768 (Simulation time: 00 hr 07 min 24 sec)
Heartbeat CPU 0 instructions: 111000667 cycles: 32040819 heartbeat IPC: 2.77 cumulative IPC: 2.768 (Simulation time: 00 hr 07 min 26 sec)
Heartbeat CPU 0 instructions: 111500667 cycles: 32221832 heartbeat IPC: 2.762 cumulative IPC: 2.768 (Simulation time: 00 hr 07 min 29 sec)
Heartbeat CPU 0 instructions: 112000672 cycles: 32402693 heartbeat IPC: 2.765 cumulative IPC: 2.768 (Simulation time: 00 hr 07 min 31 sec)
Heartbeat CPU 0 instructions: 112500677 cycles: 32583159 heartbeat IPC: 2.771 cumulative IPC: 2.768 (Simulation time: 00 hr 07 min 33 sec)
Heartbeat CPU 0 instructions: 113000677 cycles: 32763957 heartbeat IPC: 2.766 cumulative IPC: 2.768 (Simulation time: 00 hr 07 min 36 sec)
Heartbeat CPU 0 instructions: 113500679 cycles: 32944600 heartbeat IPC: 2.768 cumulative IPC: 2.768 (Simulation time: 00 hr 07 min 38 sec)
Heartbeat CPU 0 instructions: 114000684 cycles: 33125214 heartbeat IPC: 2.768 cumulative IPC: 2.768 (Simulation time: 00 hr 07 min 40 sec)
Heartbeat CPU 0 instructions: 114500684 cycles: 33306358 heartbeat IPC: 2.76 cumulative IPC: 2.768 (Simulation time: 00 hr 07 min 43 sec)
Heartbeat CPU 0 instructions: 115000685 cycles: 33487463 heartbeat IPC: 2.761 cumulative IPC: 2.768 (Simulation time: 00 hr 07 min 45 sec)
Heartbeat CPU 0 instructions: 115500686 cycles: 33667991 heartbeat IPC: 2.77 cumulative IPC: 2.768 (Simulation time: 00 hr 07 min 47 sec)
Heartbeat CPU 0 instructions: 116000686 cycles: 33849143 heartbeat IPC: 2.76 cumulative IPC: 2.768 (Simulation time: 00 hr 07 min 50 sec)
Heartbeat CPU 0 instructions: 116500687 cycles: 34029762 heartbeat IPC: 2.768 cumulative IPC: 2.768 (Simulation time: 00 hr 07 min 52 sec)
Heartbeat CPU 0 instructions: 117000691 cycles: 34210157 heartbeat IPC: 2.772 cumulative IPC: 2.768 (Simulation time: 00 hr 07 min 54 sec)
Heartbeat CPU 0 instructions: 117500697 cycles: 34390762 heartbeat IPC: 2.769 cumulative IPC: 2.768 (Simulation time: 00 hr 07 min 57 sec)
Heartbeat CPU 0 instructions: 118000699 cycles: 34571996 heartbeat IPC: 2.759 cumulative IPC: 2.768 (Simulation time: 00 hr 07 min 59 sec)
Heartbeat CPU 0 instructions: 118500703 cycles: 34752893 heartbeat IPC: 2.764 cumulative IPC: 2.768 (Simulation time: 00 hr 08 min 01 sec)
Heartbeat CPU 0 instructions: 119000705 cycles: 34933655 heartbeat IPC: 2.766 cumulative IPC: 2.768 (Simulation time: 00 hr 08 min 04 sec)
Heartbeat CPU 0 instructions: 119500711 cycles: 35114371 heartbeat IPC: 2.767 cumulative IPC: 2.768 (Simulation time: 00 hr 08 min 06 sec)
Heartbeat CPU 0 instructions: 120000712 cycles: 35294975 heartbeat IPC: 2.768 cumulative IPC: 2.768 (Simulation time: 00 hr 08 min 08 sec)
Heartbeat CPU 0 instructions: 120500719 cycles: 35475545 heartbeat IPC: 2.769 cumulative IPC: 2.768 (Simulation time: 00 hr 08 min 11 sec)
Heartbeat CPU 0 instructions: 121000722 cycles: 35656450 heartbeat IPC: 2.764 cumulative IPC: 2.768 (Simulation time: 00 hr 08 min 13 sec)
Heartbeat CPU 0 instructions: 121500722 cycles: 35837102 heartbeat IPC: 2.768 cumulative IPC: 2.768 (Simulation time: 00 hr 08 min 15 sec)
Heartbeat CPU 0 instructions: 122000722 cycles: 36017720 heartbeat IPC: 2.768 cumulative IPC: 2.768 (Simulation time: 00 hr 08 min 17 sec)
Heartbeat CPU 0 instructions: 122500724 cycles: 36198484 heartbeat IPC: 2.766 cumulative IPC: 2.768 (Simulation time: 00 hr 08 min 20 sec)
Heartbeat CPU 0 instructions: 123000727 cycles: 36379733 heartbeat IPC: 2.759 cumulative IPC: 2.768 (Simulation time: 00 hr 08 min 22 sec)
Heartbeat CPU 0 instructions: 123500727 cycles: 36560569 heartbeat IPC: 2.765 cumulative IPC: 2.768 (Simulation time: 00 hr 08 min 24 sec)
Heartbeat CPU 0 instructions: 124000734 cycles: 36741202 heartbeat IPC: 2.768 cumulative IPC: 2.768 (Simulation time: 00 hr 08 min 27 sec)
Heartbeat CPU 0 instructions: 124500741 cycles: 36921769 heartbeat IPC: 2.769 cumulative IPC: 2.768 (Simulation time: 00 hr 08 min 29 sec)
Heartbeat CPU 0 instructions: 125000744 cycles: 37102395 heartbeat IPC: 2.768 cumulative IPC: 2.768 (Simulation time: 00 hr 08 min 31 sec)
Heartbeat CPU 0 instructions: 125500746 cycles: 37283148 heartbeat IPC: 2.766 cumulative IPC: 2.768 (Simulation time: 00 hr 08 min 34 sec)
Heartbeat CPU 0 instructions: 126000748 cycles: 37463914 heartbeat IPC: 2.766 cumulative IPC: 2.768 (Simulation time: 00 hr 08 min 36 sec)
Heartbeat CPU 0 instructions: 126500750 cycles: 37644687 heartbeat IPC: 2.766 cumulative IPC: 2.768 (Simulation time: 00 hr 08 min 38 sec)
Heartbeat CPU 0 instructions: 127000751 cycles: 37825418 heartbeat IPC: 2.767 cumulative IPC: 2.768 (Simulation time: 00 hr 08 min 41 sec)
Heartbeat CPU 0 instructions: 127500751 cycles: 38006116 heartbeat IPC: 2.767 cumulative IPC: 2.768 (Simulation time: 00 hr 08 min 43 sec)
Heartbeat CPU 0 instructions: 128000757 cycles: 38187258 heartbeat IPC: 2.76 cumulative IPC: 2.768 (Simulation time: 00 hr 08 min 45 sec)
Heartbeat CPU 0 instructions: 128500757 cycles: 38367882 heartbeat IPC: 2.768 cumulative IPC: 2.768 (Simulation time: 00 hr 08 min 48 sec)
Heartbeat CPU 0 instructions: 129000757 cycles: 38548717 heartbeat IPC: 2.765 cumulative IPC: 2.768 (Simulation time: 00 hr 08 min 50 sec)
Heartbeat CPU 0 instructions: 129500760 cycles: 38729753 heartbeat IPC: 2.762 cumulative IPC: 2.768 (Simulation time: 00 hr 08 min 52 sec)
Heartbeat CPU 0 instructions: 130000760 cycles: 38910863 heartbeat IPC: 2.761 cumulative IPC: 2.767 (Simulation time: 00 hr 08 min 55 sec)
Heartbeat CPU 0 instructions: 130500760 cycles: 39091370 heartbeat IPC: 2.77 cumulative IPC: 2.768 (Simulation time: 00 hr 08 min 57 sec)
Heartbeat CPU 0 instructions: 131000760 cycles: 39272272 heartbeat IPC: 2.764 cumulative IPC: 2.767 (Simulation time: 00 hr 08 min 59 sec)
Heartbeat CPU 0 instructions: 131500764 cycles: 39452834 heartbeat IPC: 2.769 cumulative IPC: 2.767 (Simulation time: 00 hr 09 min 02 sec)
Heartbeat CPU 0 instructions: 132000767 cycles: 39632823 heartbeat IPC: 2.778 cumulative IPC: 2.768 (Simulation time: 00 hr 09 min 04 sec)
Heartbeat CPU 0 instructions: 132500769 cycles: 39813159 heartbeat IPC: 2.773 cumulative IPC: 2.768 (Simulation time: 00 hr 09 min 06 sec)
Heartbeat CPU 0 instructions: 133000769 cycles: 39993682 heartbeat IPC: 2.77 cumulative IPC: 2.768 (Simulation time: 00 hr 09 min 09 sec)
Heartbeat CPU 0 instructions: 133500773 cycles: 40174468 heartbeat IPC: 2.766 cumulative IPC: 2.768 (Simulation time: 00 hr 09 min 11 sec)
Heartbeat CPU 0 instructions: 134000773 cycles: 40355420 heartbeat IPC: 2.763 cumulative IPC: 2.768 (Simulation time: 00 hr 09 min 13 sec)
Heartbeat CPU 0 instructions: 134500774 cycles: 40536479 heartbeat IPC: 2.762 cumulative IPC: 2.768 (Simulation time: 00 hr 09 min 15 sec)
Heartbeat CPU 0 instructions: 135000774 cycles: 40717042 heartbeat IPC: 2.769 cumulative IPC: 2.768 (Simulation time: 00 hr 09 min 18 sec)
Heartbeat CPU 0 instructions: 135500777 cycles: 40897780 heartbeat IPC: 2.766 cumulative IPC: 2.768 (Simulation time: 00 hr 09 min 20 sec)
Heartbeat CPU 0 instructions: 136000782 cycles: 41078304 heartbeat IPC: 2.77 cumulative IPC: 2.768 (Simulation time: 00 hr 09 min 22 sec)
Heartbeat CPU 0 instructions: 136500785 cycles: 41258868 heartbeat IPC: 2.769 cumulative IPC: 2.768 (Simulation time: 00 hr 09 min 25 sec)
Heartbeat CPU 0 instructions: 137000785 cycles: 41439342 heartbeat IPC: 2.77 cumulative IPC: 2.768 (Simulation time: 00 hr 09 min 27 sec)
Heartbeat CPU 0 instructions: 137500788 cycles: 41619697 heartbeat IPC: 2.772 cumulative IPC: 2.768 (Simulation time: 00 hr 09 min 29 sec)
Heartbeat CPU 0 instructions: 138000791 cycles: 41800287 heartbeat IPC: 2.769 cumulative IPC: 2.768 (Simulation time: 00 hr 09 min 32 sec)
Heartbeat CPU 0 instructions: 138500791 cycles: 41980750 heartbeat IPC: 2.771 cumulative IPC: 2.768 (Simulation time: 00 hr 09 min 34 sec)
Heartbeat CPU 0 instructions: 139000797 cycles: 42161317 heartbeat IPC: 2.769 cumulative IPC: 2.768 (Simulation time: 00 hr 09 min 36 sec)
Heartbeat CPU 0 instructions: 139500797 cycles: 42341830 heartbeat IPC: 2.77 cumulative IPC: 2.768 (Simulation time: 00 hr 09 min 39 sec)
Heartbeat CPU 0 instructions: 140000801 cycles: 42522308 heartbeat IPC: 2.77 cumulative IPC: 2.768 (Simulation time: 00 hr 09 min 41 sec)
Heartbeat CPU 0 instructions: 140500801 cycles: 42702819 heartbeat IPC: 2.77 cumulative IPC: 2.768 (Simulation time: 00 hr 09 min 43 sec)
Heartbeat CPU 0 instructions: 141000804 cycles: 42883197 heartbeat IPC: 2.772 cumulative IPC: 2.768 (Simulation time: 00 hr 09 min 45 sec)
Heartbeat CPU 0 instructions: 141500804 cycles: 43063701 heartbeat IPC: 2.77 cumulative IPC: 2.768 (Simulation time: 00 hr 09 min 48 sec)
Heartbeat CPU 0 instructions: 142000806 cycles: 43244248 heartbeat IPC: 2.769 cumulative IPC: 2.768 (Simulation time: 00 hr 09 min 50 sec)
Heartbeat CPU 0 instructions: 142500809 cycles: 43425108 heartbeat IPC: 2.765 cumulative IPC: 2.768 (Simulation time: 00 hr 09 min 52 sec)
Heartbeat CPU 0 instructions: 143000814 cycles: 43605511 heartbeat IPC: 2.772 cumulative IPC: 2.768 (Simulation time: 00 hr 09 min 55 sec)
Heartbeat CPU 0 instructions: 143500814 cycles: 43785881 heartbeat IPC: 2.772 cumulative IPC: 2.768 (Simulation time: 00 hr 09 min 57 sec)
Heartbeat CPU 0 instructions: 144000814 cycles: 43966643 heartbeat IPC: 2.766 cumulative IPC: 2.768 (Simulation time: 00 hr 09 min 59 sec)
Heartbeat CPU 0 instructions: 144500818 cycles: 44147536 heartbeat IPC: 2.764 cumulative IPC: 2.768 (Simulation time: 00 hr 10 min 02 sec)
Heartbeat CPU 0 instructions: 145000821 cycles: 44328638 heartbeat IPC: 2.761 cumulative IPC: 2.768 (Simulation time: 00 hr 10 min 04 sec)
Heartbeat CPU 0 instructions: 145500826 cycles: 44509542 heartbeat IPC: 2.764 cumulative IPC: 2.768 (Simulation time: 00 hr 10 min 06 sec)
Heartbeat CPU 0 instructions: 146000827 cycles: 44690359 heartbeat IPC: 2.765 cumulative IPC: 2.768 (Simulation time: 00 hr 10 min 09 sec)
Heartbeat CPU 0 instructions: 146500830 cycles: 44871313 heartbeat IPC: 2.763 cumulative IPC: 2.768 (Simulation time: 00 hr 10 min 11 sec)
Heartbeat CPU 0 instructions: 147000836 cycles: 45051919 heartbeat IPC: 2.768 cumulative IPC: 2.768 (Simulation time: 00 hr 10 min 13 sec)
Heartbeat CPU 0 instructions: 147500836 cycles: 45232338 heartbeat IPC: 2.771 cumulative IPC: 2.768 (Simulation time: 00 hr 10 min 15 sec)
Heartbeat CPU 0 instructions: 148000838 cycles: 45413051 heartbeat IPC: 2.767 cumulative IPC: 2.768 (Simulation time: 00 hr 10 min 18 sec)
Heartbeat CPU 0 instructions: 148500839 cycles: 45593467 heartbeat IPC: 2.771 cumulative IPC: 2.768 (Simulation time: 00 hr 10 min 20 sec)
Heartbeat CPU 0 instructions: 149000844 cycles: 45774591 heartbeat IPC: 2.761 cumulative IPC: 2.768 (Simulation time: 00 hr 10 min 22 sec)
Heartbeat CPU 0 instructions: 149500845 cycles: 45955485 heartbeat IPC: 2.764 cumulative IPC: 2.768 (Simulation time: 00 hr 10 min 25 sec)
Heartbeat CPU 0 instructions: 150000848 cycles: 46136025 heartbeat IPC: 2.769 cumulative IPC: 2.768 (Simulation time: 00 hr 10 min 27 sec)
Heartbeat CPU 0 instructions: 150500850 cycles: 46316751 heartbeat IPC: 2.767 cumulative IPC: 2.768 (Simulation time: 00 hr 10 min 29 sec)
Heartbeat CPU 0 instructions: 151000852 cycles: 46497539 heartbeat IPC: 2.766 cumulative IPC: 2.768 (Simulation time: 00 hr 10 min 32 sec)
Heartbeat CPU 0 instructions: 151500858 cycles: 46678367 heartbeat IPC: 2.765 cumulative IPC: 2.768 (Simulation time: 00 hr 10 min 34 sec)
Heartbeat CPU 0 instructions: 152000862 cycles: 46858807 heartbeat IPC: 2.771 cumulative IPC: 2.768 (Simulation time: 00 hr 10 min 36 sec)
Heartbeat CPU 0 instructions: 152500863 cycles: 47039643 heartbeat IPC: 2.765 cumulative IPC: 2.768 (Simulation time: 00 hr 10 min 39 sec)
Heartbeat CPU 0 instructions: 153000867 cycles: 47220238 heartbeat IPC: 2.769 cumulative IPC: 2.768 (Simulation time: 00 hr 10 min 41 sec)
Heartbeat CPU 0 instructions: 153500869 cycles: 47400893 heartbeat IPC: 2.768 cumulative IPC: 2.768 (Simulation time: 00 hr 10 min 43 sec)
Heartbeat CPU 0 instructions: 154000870 cycles: 47581999 heartbeat IPC: 2.761 cumulative IPC: 2.768 (Simulation time: 00 hr 10 min 45 sec)
Heartbeat CPU 0 instructions: 154500870 cycles: 47763131 heartbeat IPC: 2.76 cumulative IPC: 2.768 (Simulation time: 00 hr 10 min 48 sec)
Heartbeat CPU 0 instructions: 155000871 cycles: 47943873 heartbeat IPC: 2.766 cumulative IPC: 2.768 (Simulation time: 00 hr 10 min 50 sec)
Heartbeat CPU 0 instructions: 155500875 cycles: 48124902 heartbeat IPC: 2.762 cumulative IPC: 2.767 (Simulation time: 00 hr 10 min 52 sec)
Heartbeat CPU 0 instructions: 156000881 cycles: 48305770 heartbeat IPC: 2.764 cumulative IPC: 2.767 (Simulation time: 00 hr 10 min 55 sec)
Heartbeat CPU 0 instructions: 156500882 cycles: 48486713 heartbeat IPC: 2.763 cumulative IPC: 2.767 (Simulation time: 00 hr 10 min 57 sec)
Heartbeat CPU 0 instructions: 157000882 cycles: 48667594 heartbeat IPC: 2.764 cumulative IPC: 2.767 (Simulation time: 00 hr 10 min 59 sec)
Heartbeat CPU 0 instructions: 157500884 cycles: 48848292 heartbeat IPC: 2.767 cumulative IPC: 2.767 (Simulation time: 00 hr 11 min 02 sec)
Heartbeat CPU 0 instructions: 158000887 cycles: 49028715 heartbeat IPC: 2.771 cumulative IPC: 2.767 (Simulation time: 00 hr 11 min 04 sec)
Heartbeat CPU 0 instructions: 158500888 cycles: 49209139 heartbeat IPC: 2.771 cumulative IPC: 2.767 (Simulation time: 00 hr 11 min 06 sec)
Heartbeat CPU 0 instructions: 159000889 cycles: 49389955 heartbeat IPC: 2.765 cumulative IPC: 2.767 (Simulation time: 00 hr 11 min 09 sec)
Heartbeat CPU 0 instructions: 159500895 cycles: 49571038 heartbeat IPC: 2.761 cumulative IPC: 2.767 (Simulation time: 00 hr 11 min 11 sec)
Heartbeat CPU 0 instructions: 160000896 cycles: 49752582 heartbeat IPC: 2.754 cumulative IPC: 2.767 (Simulation time: 00 hr 11 min 13 sec)
Heartbeat CPU 0 instructions: 160500897 cycles: 49933371 heartbeat IPC: 2.766 cumulative IPC: 2.767 (Simulation time: 00 hr 11 min 15 sec)
Heartbeat CPU 0 instructions: 161000898 cycles: 50113684 heartbeat IPC: 2.773 cumulative IPC: 2.767 (Simulation time: 00 hr 11 min 18 sec)
Heartbeat CPU 0 instructions: 161500905 cycles: 50294320 heartbeat IPC: 2.768 cumulative IPC: 2.767 (Simulation time: 00 hr 11 min 20 sec)
Heartbeat CPU 0 instructions: 162000907 cycles: 50475162 heartbeat IPC: 2.765 cumulative IPC: 2.767 (Simulation time: 00 hr 11 min 22 sec)
Heartbeat CPU 0 instructions: 162500910 cycles: 50656210 heartbeat IPC: 2.762 cumulative IPC: 2.767 (Simulation time: 00 hr 11 min 25 sec)
Heartbeat CPU 0 instructions: 163000916 cycles: 50836860 heartbeat IPC: 2.768 cumulative IPC: 2.767 (Simulation time: 00 hr 11 min 27 sec)
Heartbeat CPU 0 instructions: 163500922 cycles: 51018020 heartbeat IPC: 2.76 cumulative IPC: 2.767 (Simulation time: 00 hr 11 min 29 sec)
Heartbeat CPU 0 instructions: 164000926 cycles: 51199237 heartbeat IPC: 2.759 cumulative IPC: 2.767 (Simulation time: 00 hr 11 min 32 sec)
Heartbeat CPU 0 instructions: 164500928 cycles: 51380762 heartbeat IPC: 2.754 cumulative IPC: 2.767 (Simulation time: 00 hr 11 min 34 sec)
Heartbeat CPU 0 instructions: 165000932 cycles: 51562037 heartbeat IPC: 2.758 cumulative IPC: 2.767 (Simulation time: 00 hr 11 min 36 sec)
Heartbeat CPU 0 instructions: 165500932 cycles: 51743170 heartbeat IPC: 2.76 cumulative IPC: 2.767 (Simulation time: 00 hr 11 min 39 sec)
Heartbeat CPU 0 instructions: 166000933 cycles: 51923682 heartbeat IPC: 2.77 cumulative IPC: 2.767 (Simulation time: 00 hr 11 min 41 sec)
Heartbeat CPU 0 instructions: 166500933 cycles: 52104250 heartbeat IPC: 2.769 cumulative IPC: 2.767 (Simulation time: 00 hr 11 min 43 sec)
Heartbeat CPU 0 instructions: 167000936 cycles: 52284816 heartbeat IPC: 2.769 cumulative IPC: 2.767 (Simulation time: 00 hr 11 min 45 sec)
Heartbeat CPU 0 instructions: 167500939 cycles: 52465670 heartbeat IPC: 2.765 cumulative IPC: 2.767 (Simulation time: 00 hr 11 min 48 sec)
Heartbeat CPU 0 instructions: 168000941 cycles: 52646473 heartbeat IPC: 2.765 cumulative IPC: 2.767 (Simulation time: 00 hr 11 min 50 sec)
Heartbeat CPU 0 instructions: 168500945 cycles: 52827554 heartbeat IPC: 2.761 cumulative IPC: 2.767 (Simulation time: 00 hr 11 min 52 sec)
Heartbeat CPU 0 instructions: 169000951 cycles: 53008294 heartbeat IPC: 2.766 cumulative IPC: 2.767 (Simulation time: 00 hr 11 min 55 sec)
Heartbeat CPU 0 instructions: 169500957 cycles: 53188748 heartbeat IPC: 2.771 cumulative IPC: 2.767 (Simulation time: 00 hr 11 min 57 sec)
Heartbeat CPU 0 instructions: 170000963 cycles: 53369012 heartbeat IPC: 2.774 cumulative IPC: 2.767 (Simulation time: 00 hr 11 min 59 sec)
Heartbeat CPU 0 instructions: 170500966 cycles: 53549498 heartbeat IPC: 2.77 cumulative IPC: 2.767 (Simulation time: 00 hr 12 min 02 sec)
Heartbeat CPU 0 instructions: 171000967 cycles: 53730090 heartbeat IPC: 2.769 cumulative IPC: 2.767 (Simulation time: 00 hr 12 min 04 sec)
Heartbeat CPU 0 instructions: 171500968 cycles: 53910678 heartbeat IPC: 2.769 cumulative IPC: 2.767 (Simulation time: 00 hr 12 min 06 sec)
Heartbeat CPU 0 instructions: 172000970 cycles: 54092047 heartbeat IPC: 2.757 cumulative IPC: 2.767 (Simulation time: 00 hr 12 min 08 sec)
Heartbeat CPU 0 instructions: 172500970 cycles: 54273517 heartbeat IPC: 2.755 cumulative IPC: 2.767 (Simulation time: 00 hr 12 min 11 sec)
Heartbeat CPU 0 instructions: 173000973 cycles: 54453905 heartbeat IPC: 2.772 cumulative IPC: 2.767 (Simulation time: 00 hr 12 min 13 sec)
Heartbeat CPU 0 instructions: 173500978 cycles: 54634767 heartbeat IPC: 2.765 cumulative IPC: 2.767 (Simulation time: 00 hr 12 min 15 sec)
Heartbeat CPU 0 instructions: 174000984 cycles: 54815554 heartbeat IPC: 2.766 cumulative IPC: 2.767 (Simulation time: 00 hr 12 min 18 sec)
Heartbeat CPU 0 instructions: 174500985 cycles: 54996175 heartbeat IPC: 2.768 cumulative IPC: 2.767 (Simulation time: 00 hr 12 min 20 sec)
Heartbeat CPU 0 instructions: 175000986 cycles: 55176665 heartbeat IPC: 2.77 cumulative IPC: 2.767 (Simulation time: 00 hr 12 min 22 sec)
Heartbeat CPU 0 instructions: 175500987 cycles: 55357465 heartbeat IPC: 2.765 cumulative IPC: 2.767 (Simulation time: 00 hr 12 min 25 sec)
Heartbeat CPU 0 instructions: 176000992 cycles: 55538080 heartbeat IPC: 2.768 cumulative IPC: 2.767 (Simulation time: 00 hr 12 min 27 sec)
Heartbeat CPU 0 instructions: 176500992 cycles: 55718721 heartbeat IPC: 2.768 cumulative IPC: 2.767 (Simulation time: 00 hr 12 min 29 sec)
Heartbeat CPU 0 instructions: 177000994 cycles: 55899139 heartbeat IPC: 2.771 cumulative IPC: 2.767 (Simulation time: 00 hr 12 min 32 sec)
Heartbeat CPU 0 instructions: 177500999 cycles: 56080183 heartbeat IPC: 2.762 cumulative IPC: 2.767 (Simulation time: 00 hr 12 min 34 sec)
Heartbeat CPU 0 instructions: 178000999 cycles: 56260664 heartbeat IPC: 2.77 cumulative IPC: 2.767 (Simulation time: 00 hr 12 min 36 sec)
Heartbeat CPU 0 instructions: 178501003 cycles: 56441335 heartbeat IPC: 2.767 cumulative IPC: 2.767 (Simulation time: 00 hr 12 min 38 sec)
Heartbeat CPU 0 instructions: 179001004 cycles: 56621815 heartbeat IPC: 2.77 cumulative IPC: 2.767 (Simulation time: 00 hr 12 min 41 sec)
Heartbeat CPU 0 instructions: 179501005 cycles: 56802277 heartbeat IPC: 2.771 cumulative IPC: 2.767 (Simulation time: 00 hr 12 min 43 sec)
Heartbeat CPU 0 instructions: 180001007 cycles: 56982851 heartbeat IPC: 2.769 cumulative IPC: 2.767 (Simulation time: 00 hr 12 min 45 sec)
Heartbeat CPU 0 instructions: 180501007 cycles: 57163324 heartbeat IPC: 2.77 cumulative IPC: 2.767 (Simulation time: 00 hr 12 min 48 sec)
Heartbeat CPU 0 instructions: 181001011 cycles: 57343588 heartbeat IPC: 2.774 cumulative IPC: 2.767 (Simulation time: 00 hr 12 min 50 sec)
Heartbeat CPU 0 instructions: 181501013 cycles: 57524396 heartbeat IPC: 2.765 cumulative IPC: 2.767 (Simulation time: 00 hr 12 min 52 sec)
Heartbeat CPU 0 instructions: 182001018 cycles: 57704828 heartbeat IPC: 2.771 cumulative IPC: 2.767 (Simulation time: 00 hr 12 min 55 sec)
Heartbeat CPU 0 instructions: 182501018 cycles: 57885512 heartbeat IPC: 2.767 cumulative IPC: 2.767 (Simulation time: 00 hr 12 min 57 sec)
Heartbeat CPU 0 instructions: 183001018 cycles: 58066046 heartbeat IPC: 2.77 cumulative IPC: 2.767 (Simulation time: 00 hr 12 min 59 sec)
Heartbeat CPU 0 instructions: 183501019 cycles: 58246996 heartbeat IPC: 2.763 cumulative IPC: 2.767 (Simulation time: 00 hr 13 min 02 sec)
Heartbeat CPU 0 instructions: 184001024 cycles: 58427622 heartbeat IPC: 2.768 cumulative IPC: 2.767 (Simulation time: 00 hr 13 min 04 sec)
Heartbeat CPU 0 instructions: 184501029 cycles: 58608868 heartbeat IPC: 2.759 cumulative IPC: 2.767 (Simulation time: 00 hr 13 min 06 sec)
Heartbeat CPU 0 instructions: 185001029 cycles: 58789578 heartbeat IPC: 2.767 cumulative IPC: 2.767 (Simulation time: 00 hr 13 min 08 sec)
Heartbeat CPU 0 instructions: 185501035 cycles: 58970182 heartbeat IPC: 2.769 cumulative IPC: 2.767 (Simulation time: 00 hr 13 min 11 sec)
Heartbeat CPU 0 instructions: 186001036 cycles: 59150817 heartbeat IPC: 2.768 cumulative IPC: 2.767 (Simulation time: 00 hr 13 min 13 sec)
Heartbeat CPU 0 instructions: 186501042 cycles: 59331301 heartbeat IPC: 2.77 cumulative IPC: 2.767 (Simulation time: 00 hr 13 min 15 sec)
Heartbeat CPU 0 instructions: 187001044 cycles: 59511702 heartbeat IPC: 2.772 cumulative IPC: 2.767 (Simulation time: 00 hr 13 min 18 sec)
Heartbeat CPU 0 instructions: 187501046 cycles: 59692227 heartbeat IPC: 2.77 cumulative IPC: 2.767 (Simulation time: 00 hr 13 min 20 sec)
Heartbeat CPU 0 instructions: 188001047 cycles: 59873045 heartbeat IPC: 2.765 cumulative IPC: 2.767 (Simulation time: 00 hr 13 min 22 sec)
Heartbeat CPU 0 instructions: 188501053 cycles: 60053782 heartbeat IPC: 2.766 cumulative IPC: 2.767 (Simulation time: 00 hr 13 min 25 sec)
Heartbeat CPU 0 instructions: 189001053 cycles: 60234487 heartbeat IPC: 2.767 cumulative IPC: 2.767 (Simulation time: 00 hr 13 min 27 sec)
Heartbeat CPU 0 instructions: 189501058 cycles: 60414941 heartbeat IPC: 2.771 cumulative IPC: 2.767 (Simulation time: 00 hr 13 min 29 sec)
Heartbeat CPU 0 instructions: 190001059 cycles: 60595827 heartbeat IPC: 2.764 cumulative IPC: 2.767 (Simulation time: 00 hr 13 min 32 sec)
Heartbeat CPU 0 instructions: 190501065 cycles: 60776794 heartbeat IPC: 2.763 cumulative IPC: 2.767 (Simulation time: 00 hr 13 min 34 sec)
Heartbeat CPU 0 instructions: 191001069 cycles: 60957537 heartbeat IPC: 2.766 cumulative IPC: 2.767 (Simulation time: 00 hr 13 min 36 sec)
Heartbeat CPU 0 instructions: 191501069 cycles: 61138262 heartbeat IPC: 2.767 cumulative IPC: 2.767 (Simulation time: 00 hr 13 min 38 sec)
Heartbeat CPU 0 instructions: 192001069 cycles: 61318888 heartbeat IPC: 2.768 cumulative IPC: 2.767 (Simulation time: 00 hr 13 min 41 sec)
Heartbeat CPU 0 instructions: 192501073 cycles: 61499401 heartbeat IPC: 2.77 cumulative IPC: 2.767 (Simulation time: 00 hr 13 min 43 sec)
Heartbeat CPU 0 instructions: 193001075 cycles: 61680006 heartbeat IPC: 2.768 cumulative IPC: 2.767 (Simulation time: 00 hr 13 min 45 sec)
Heartbeat CPU 0 instructions: 193501078 cycles: 61860823 heartbeat IPC: 2.765 cumulative IPC: 2.767 (Simulation time: 00 hr 13 min 48 sec)
Heartbeat CPU 0 instructions: 194001080 cycles: 62041347 heartbeat IPC: 2.77 cumulative IPC: 2.767 (Simulation time: 00 hr 13 min 50 sec)
Heartbeat CPU 0 instructions: 194501082 cycles: 62221941 heartbeat IPC: 2.769 cumulative IPC: 2.767 (Simulation time: 00 hr 13 min 52 sec)
Heartbeat CPU 0 instructions: 195001084 cycles: 62402579 heartbeat IPC: 2.768 cumulative IPC: 2.767 (Simulation time: 00 hr 13 min 55 sec)
Heartbeat CPU 0 instructions: 195501085 cycles: 62583109 heartbeat IPC: 2.77 cumulative IPC: 2.767 (Simulation time: 00 hr 13 min 57 sec)
Heartbeat CPU 0 instructions: 196001085 cycles: 62763989 heartbeat IPC: 2.764 cumulative IPC: 2.767 (Simulation time: 00 hr 13 min 59 sec)
Heartbeat CPU 0 instructions: 196501085 cycles: 62944344 heartbeat IPC: 2.772 cumulative IPC: 2.767 (Simulation time: 00 hr 14 min 02 sec)
Heartbeat CPU 0 instructions: 197001092 cycles: 63124982 heartbeat IPC: 2.768 cumulative IPC: 2.767 (Simulation time: 00 hr 14 min 04 sec)
Heartbeat CPU 0 instructions: 197501094 cycles: 63306240 heartbeat IPC: 2.759 cumulative IPC: 2.767 (Simulation time: 00 hr 14 min 06 sec)
Heartbeat CPU 0 instructions: 198001094 cycles: 63486764 heartbeat IPC: 2.77 cumulative IPC: 2.767 (Simulation time: 00 hr 14 min 08 sec)
Heartbeat CPU 0 instructions: 198501095 cycles: 63667274 heartbeat IPC: 2.77 cumulative IPC: 2.767 (Simulation time: 00 hr 14 min 11 sec)
Heartbeat CPU 0 instructions: 199001098 cycles: 63848150 heartbeat IPC: 2.764 cumulative IPC: 2.767 (Simulation time: 00 hr 14 min 13 sec)
Heartbeat CPU 0 instructions: 199501098 cycles: 64028780 heartbeat IPC: 2.768 cumulative IPC: 2.767 (Simulation time: 00 hr 14 min 15 sec)
Heartbeat CPU 0 instructions: 200001098 cycles: 64209243 heartbeat IPC: 2.771 cumulative IPC: 2.767 (Simulation time: 00 hr 14 min 18 sec)
Heartbeat CPU 0 instructions: 200501098 cycles: 64390184 heartbeat IPC: 2.763 cumulative IPC: 2.767 (Simulation time: 00 hr 14 min 20 sec)
Heartbeat CPU 0 instructions: 201001101 cycles: 64570797 heartbeat IPC: 2.768 cumulative IPC: 2.767 (Simulation time: 00 hr 14 min 22 sec)
Heartbeat CPU 0 instructions: 201501105 cycles: 64751371 heartbeat IPC: 2.769 cumulative IPC: 2.767 (Simulation time: 00 hr 14 min 25 sec)
Heartbeat CPU 0 instructions: 202001107 cycles: 64931805 heartbeat IPC: 2.771 cumulative IPC: 2.767 (Simulation time: 00 hr 14 min 27 sec)
Heartbeat CPU 0 instructions: 202501113 cycles: 65112838 heartbeat IPC: 2.762 cumulative IPC: 2.767 (Simulation time: 00 hr 14 min 29 sec)
Heartbeat CPU 0 instructions: 203001118 cycles: 65293503 heartbeat IPC: 2.768 cumulative IPC: 2.767 (Simulation time: 00 hr 14 min 32 sec)
Heartbeat CPU 0 instructions: 203501123 cycles: 65474284 heartbeat IPC: 2.766 cumulative IPC: 2.767 (Simulation time: 00 hr 14 min 34 sec)
Heartbeat CPU 0 instructions: 204001123 cycles: 65654782 heartbeat IPC: 2.77 cumulative IPC: 2.767 (Simulation time: 00 hr 14 min 36 sec)
Heartbeat CPU 0 instructions: 204501124 cycles: 65835388 heartbeat IPC: 2.768 cumulative IPC: 2.767 (Simulation time: 00 hr 14 min 38 sec)
Heartbeat CPU 0 instructions: 205001126 cycles: 66016240 heartbeat IPC: 2.765 cumulative IPC: 2.767 (Simulation time: 00 hr 14 min 41 sec)
Heartbeat CPU 0 instructions: 205501127 cycles: 66196977 heartbeat IPC: 2.766 cumulative IPC: 2.767 (Simulation time: 00 hr 14 min 43 sec)
Heartbeat CPU 0 instructions: 206001129 cycles: 66377472 heartbeat IPC: 2.77 cumulative IPC: 2.767 (Simulation time: 00 hr 14 min 45 sec)
Heartbeat CPU 0 instructions: 206501133 cycles: 66557667 heartbeat IPC: 2.775 cumulative IPC: 2.767 (Simulation time: 00 hr 14 min 48 sec)
Heartbeat CPU 0 instructions: 207001139 cycles: 66738192 heartbeat IPC: 2.77 cumulative IPC: 2.767 (Simulation time: 00 hr 14 min 50 sec)
Heartbeat CPU 0 instructions: 207501139 cycles: 66918498 heartbeat IPC: 2.773 cumulative IPC: 2.767 (Simulation time: 00 hr 14 min 52 sec)
Heartbeat CPU 0 instructions: 208001139 cycles: 67098928 heartbeat IPC: 2.771 cumulative IPC: 2.767 (Simulation time: 00 hr 14 min 55 sec)
Heartbeat CPU 0 instructions: 208501140 cycles: 67279735 heartbeat IPC: 2.765 cumulative IPC: 2.767 (Simulation time: 00 hr 14 min 57 sec)
Heartbeat CPU 0 instructions: 209001141 cycles: 67460512 heartbeat IPC: 2.766 cumulative IPC: 2.767 (Simulation time: 00 hr 14 min 59 sec)
Heartbeat CPU 0 instructions: 209501142 cycles: 67641093 heartbeat IPC: 2.769 cumulative IPC: 2.767 (Simulation time: 00 hr 15 min 02 sec)
Heartbeat CPU 0 instructions: 210001147 cycles: 67821607 heartbeat IPC: 2.77 cumulative IPC: 2.767 (Simulation time: 00 hr 15 min 04 sec)
Heartbeat CPU 0 instructions: 210501147 cycles: 68002367 heartbeat IPC: 2.766 cumulative IPC: 2.767 (Simulation time: 00 hr 15 min 06 sec)
Heartbeat CPU 0 instructions: 211001147 cycles: 68182735 heartbeat IPC: 2.772 cumulative IPC: 2.767 (Simulation time: 00 hr 15 min 08 sec)
Heartbeat CPU 0 instructions: 211501147 cycles: 68363429 heartbeat IPC: 2.767 cumulative IPC: 2.767 (Simulation time: 00 hr 15 min 11 sec)
Heartbeat CPU 0 instructions: 212001148 cycles: 68543858 heartbeat IPC: 2.771 cumulative IPC: 2.767 (Simulation time: 00 hr 15 min 13 sec)
Heartbeat CPU 0 instructions: 212501154 cycles: 68724679 heartbeat IPC: 2.765 cumulative IPC: 2.767 (Simulation time: 00 hr 15 min 15 sec)
Heartbeat CPU 0 instructions: 213001157 cycles: 68905345 heartbeat IPC: 2.768 cumulative IPC: 2.767 (Simulation time: 00 hr 15 min 18 sec)
Heartbeat CPU 0 instructions: 213501157 cycles: 69085844 heartbeat IPC: 2.77 cumulative IPC: 2.767 (Simulation time: 00 hr 15 min 20 sec)
Heartbeat CPU 0 instructions: 214001158 cycles: 69266406 heartbeat IPC: 2.769 cumulative IPC: 2.767 (Simulation time: 00 hr 15 min 22 sec)
Heartbeat CPU 0 instructions: 214501158 cycles: 69446854 heartbeat IPC: 2.771 cumulative IPC: 2.767 (Simulation time: 00 hr 15 min 25 sec)
Heartbeat CPU 0 instructions: 215001161 cycles: 69627420 heartbeat IPC: 2.769 cumulative IPC: 2.767 (Simulation time: 00 hr 15 min 27 sec)
Heartbeat CPU 0 instructions: 215501161 cycles: 69808043 heartbeat IPC: 2.768 cumulative IPC: 2.767 (Simulation time: 00 hr 15 min 29 sec)
Heartbeat CPU 0 instructions: 216001161 cycles: 69988763 heartbeat IPC: 2.767 cumulative IPC: 2.767 (Simulation time: 00 hr 15 min 32 sec)
Heartbeat CPU 0 instructions: 216501163 cycles: 70169276 heartbeat IPC: 2.77 cumulative IPC: 2.767 (Simulation time: 00 hr 15 min 34 sec)
Heartbeat CPU 0 instructions: 217001164 cycles: 70349949 heartbeat IPC: 2.767 cumulative IPC: 2.767 (Simulation time: 00 hr 15 min 36 sec)
Heartbeat CPU 0 instructions: 217501166 cycles: 70616522 heartbeat IPC: 1.876 cumulative IPC: 2.763 (Simulation time: 00 hr 15 min 39 sec)
Heartbeat CPU 0 instructions: 218001166 cycles: 71200190 heartbeat IPC: 0.8567 cumulative IPC: 2.745 (Simulation time: 00 hr 15 min 46 sec)
Heartbeat CPU 0 instructions: 218501166 cycles: 71998642 heartbeat IPC: 0.6262 cumulative IPC: 2.718 (Simulation time: 00 hr 15 min 55 sec)
Heartbeat CPU 0 instructions: 219001166 cycles: 72769305 heartbeat IPC: 0.6488 cumulative IPC: 2.693 (Simulation time: 00 hr 16 min 04 sec)
Heartbeat CPU 0 instructions: 219501166 cycles: 73564421 heartbeat IPC: 0.6288 cumulative IPC: 2.667 (Simulation time: 00 hr 16 min 14 sec)
Heartbeat CPU 0 instructions: 220001166 cycles: 74372486 heartbeat IPC: 0.6188 cumulative IPC: 2.641 (Simulation time: 00 hr 16 min 23 sec)
Heartbeat CPU 0 instructions: 220501166 cycles: 75186738 heartbeat IPC: 0.6141 cumulative IPC: 2.616 (Simulation time: 00 hr 16 min 33 sec)
Heartbeat CPU 0 instructions: 221001166 cycles: 75987586 heartbeat IPC: 0.6243 cumulative IPC: 2.592 (Simulation time: 00 hr 16 min 42 sec)
Heartbeat CPU 0 instructions: 221501166 cycles: 76813662 heartbeat IPC: 0.6053 cumulative IPC: 2.567 (Simulation time: 00 hr 16 min 52 sec)
Heartbeat CPU 0 instructions: 222001166 cycles: 77611129 heartbeat IPC: 0.627 cumulative IPC: 2.544 (Simulation time: 00 hr 17 min 02 sec)
Heartbeat CPU 0 instructions: 222501166 cycles: 78418855 heartbeat IPC: 0.619 cumulative IPC: 2.521 (Simulation time: 00 hr 17 min 11 sec)
Heartbeat CPU 0 instructions: 223001166 cycles: 79232360 heartbeat IPC: 0.6146 cumulative IPC: 2.499 (Simulation time: 00 hr 17 min 21 sec)
Heartbeat CPU 0 instructions: 223501166 cycles: 80060634 heartbeat IPC: 0.6037 cumulative IPC: 2.477 (Simulation time: 00 hr 17 min 31 sec)
Heartbeat CPU 0 instructions: 224001166 cycles: 80848842 heartbeat IPC: 0.6344 cumulative IPC: 2.456 (Simulation time: 00 hr 17 min 40 sec)
Heartbeat CPU 0 instructions: 224501166 cycles: 81673288 heartbeat IPC: 0.6065 cumulative IPC: 2.435 (Simulation time: 00 hr 17 min 50 sec)
Heartbeat CPU 0 instructions: 225001166 cycles: 82478755 heartbeat IPC: 0.6208 cumulative IPC: 2.415 (Simulation time: 00 hr 18 min 00 sec)
Heartbeat CPU 0 instructions: 225501166 cycles: 83278793 heartbeat IPC: 0.625 cumulative IPC: 2.395 (Simulation time: 00 hr 18 min 09 sec)
Heartbeat CPU 0 instructions: 226001166 cycles: 84086209 heartbeat IPC: 0.6193 cumulative IPC: 2.376 (Simulation time: 00 hr 18 min 19 sec)
Heartbeat CPU 0 instructions: 226501166 cycles: 84904142 heartbeat IPC: 0.6113 cumulative IPC: 2.356 (Simulation time: 00 hr 18 min 28 sec)
Heartbeat CPU 0 instructions: 227001166 cycles: 85705320 heartbeat IPC: 0.6241 cumulative IPC: 2.338 (Simulation time: 00 hr 18 min 38 sec)
Heartbeat CPU 0 instructions: 227501166 cycles: 86523607 heartbeat IPC: 0.611 cumulative IPC: 2.32 (Simulation time: 00 hr 18 min 47 sec)
Heartbeat CPU 0 instructions: 228001166 cycles: 87340220 heartbeat IPC: 0.6123 cumulative IPC: 2.302 (Simulation time: 00 hr 18 min 57 sec)
Heartbeat CPU 0 instructions: 228501166 cycles: 88147348 heartbeat IPC: 0.6195 cumulative IPC: 2.284 (Simulation time: 00 hr 19 min 07 sec)
Heartbeat CPU 0 instructions: 229001166 cycles: 88965886 heartbeat IPC: 0.6108 cumulative IPC: 2.267 (Simulation time: 00 hr 19 min 16 sec)
Heartbeat CPU 0 instructions: 229501166 cycles: 89780328 heartbeat IPC: 0.6139 cumulative IPC: 2.25 (Simulation time: 00 hr 19 min 26 sec)
Heartbeat CPU 0 instructions: 230001166 cycles: 90589479 heartbeat IPC: 0.6179 cumulative IPC: 2.234 (Simulation time: 00 hr 19 min 35 sec)
Heartbeat CPU 0 instructions: 230501166 cycles: 91390495 heartbeat IPC: 0.6242 cumulative IPC: 2.218 (Simulation time: 00 hr 19 min 44 sec)
Heartbeat CPU 0 instructions: 231001166 cycles: 92199356 heartbeat IPC: 0.6182 cumulative IPC: 2.202 (Simulation time: 00 hr 19 min 54 sec)
Heartbeat CPU 0 instructions: 231501166 cycles: 92999553 heartbeat IPC: 0.6248 cumulative IPC: 2.187 (Simulation time: 00 hr 20 min 03 sec)
Heartbeat CPU 0 instructions: 232001166 cycles: 93809872 heartbeat IPC: 0.617 cumulative IPC: 2.172 (Simulation time: 00 hr 20 min 13 sec)
Heartbeat CPU 0 instructions: 232501166 cycles: 94637610 heartbeat IPC: 0.6041 cumulative IPC: 2.156 (Simulation time: 00 hr 20 min 22 sec)
Heartbeat CPU 0 instructions: 233001166 cycles: 95446763 heartbeat IPC: 0.6179 cumulative IPC: 2.142 (Simulation time: 00 hr 20 min 32 sec)
Heartbeat CPU 0 instructions: 233501166 cycles: 96273068 heartbeat IPC: 0.6051 cumulative IPC: 2.127 (Simulation time: 00 hr 20 min 41 sec)
Heartbeat CPU 0 instructions: 234001166 cycles: 97088078 heartbeat IPC: 0.6135 cumulative IPC: 2.113 (Simulation time: 00 hr 20 min 51 sec)
Heartbeat CPU 0 instructions: 234501166 cycles: 97887294 heartbeat IPC: 0.6256 cumulative IPC: 2.099 (Simulation time: 00 hr 21 min 00 sec)
Heartbeat CPU 0 instructions: 235001166 cycles: 98698133 heartbeat IPC: 0.6166 cumulative IPC: 2.086 (Simulation time: 00 hr 21 min 10 sec)
Heartbeat CPU 0 instructions: 235501166 cycles: 99499585 heartbeat IPC: 0.6239 cumulative IPC: 2.073 (Simulation time: 00 hr 21 min 19 sec)
Heartbeat CPU 0 instructions: 236001166 cycles: 100327948 heartbeat IPC: 0.6036 cumulative IPC: 2.059 (Simulation time: 00 hr 21 min 29 sec)
Heartbeat CPU 0 instructions: 236501166 cycles: 101129164 heartbeat IPC: 0.6241 cumulative IPC: 2.047 (Simulation time: 00 hr 21 min 38 sec)
Heartbeat CPU 0 instructions: 237001166 cycles: 101955712 heartbeat IPC: 0.6049 cumulative IPC: 2.034 (Simulation time: 00 hr 21 min 47 sec)
Heartbeat CPU 0 instructions: 237501166 cycles: 102771107 heartbeat IPC: 0.6132 cumulative IPC: 2.021 (Simulation time: 00 hr 21 min 57 sec)
Heartbeat CPU 0 instructions: 238001166 cycles: 103581464 heartbeat IPC: 0.617 cumulative IPC: 2.009 (Simulation time: 00 hr 22 min 06 sec)
Heartbeat CPU 0 instructions: 238501166 cycles: 104282395 heartbeat IPC: 0.7133 cumulative IPC: 1.999 (Simulation time: 00 hr 22 min 14 sec)
Heartbeat CPU 0 instructions: 239001166 cycles: 104460511 heartbeat IPC: 2.807 cumulative IPC: 2.001 (Simulation time: 00 hr 22 min 16 sec)
Heartbeat CPU 0 instructions: 239501167 cycles: 104640853 heartbeat IPC: 2.773 cumulative IPC: 2.002 (Simulation time: 00 hr 22 min 19 sec)
Heartbeat CPU 0 instructions: 240001167 cycles: 104819161 heartbeat IPC: 2.804 cumulative IPC: 2.004 (Simulation time: 00 hr 22 min 21 sec)
Heartbeat CPU 0 instructions: 240501173 cycles: 104996513 heartbeat IPC: 2.819 cumulative IPC: 2.005 (Simulation time: 00 hr 22 min 23 sec)
Heartbeat CPU 0 instructions: 241001178 cycles: 105173972 heartbeat IPC: 2.818 cumulative IPC: 2.007 (Simulation time: 00 hr 22 min 25 sec)
Heartbeat CPU 0 instructions: 241501178 cycles: 105351553 heartbeat IPC: 2.816 cumulative IPC: 2.008 (Simulation time: 00 hr 22 min 28 sec)
Heartbeat CPU 0 instructions: 242001178 cycles: 105528889 heartbeat IPC: 2.82 cumulative IPC: 2.01 (Simulation time: 00 hr 22 min 30 sec)
Heartbeat CPU 0 instructions: 242501179 cycles: 105706701 heartbeat IPC: 2.812 cumulative IPC: 2.011 (Simulation time: 00 hr 22 min 32 sec)
Heartbeat CPU 0 instructions: 243001186 cycles: 105883860 heartbeat IPC: 2.822 cumulative IPC: 2.013 (Simulation time: 00 hr 22 min 34 sec)
Heartbeat CPU 0 instructions: 243501186 cycles: 106061544 heartbeat IPC: 2.814 cumulative IPC: 2.014 (Simulation time: 00 hr 22 min 37 sec)
Heartbeat CPU 0 instructions: 244001186 cycles: 106238851 heartbeat IPC: 2.82 cumulative IPC: 2.016 (Simulation time: 00 hr 22 min 39 sec)
Heartbeat CPU 0 instructions: 244501192 cycles: 106416223 heartbeat IPC: 2.819 cumulative IPC: 2.017 (Simulation time: 00 hr 22 min 41 sec)
Heartbeat CPU 0 instructions: 245001192 cycles: 106594018 heartbeat IPC: 2.812 cumulative IPC: 2.019 (Simulation time: 00 hr 22 min 43 sec)
Heartbeat CPU 0 instructions: 245501192 cycles: 106771690 heartbeat IPC: 2.814 cumulative IPC: 2.02 (Simulation time: 00 hr 22 min 46 sec)
Heartbeat CPU 0 instructions: 246001196 cycles: 106949407 heartbeat IPC: 2.813 cumulative IPC: 2.022 (Simulation time: 00 hr 22 min 48 sec)
Heartbeat CPU 0 instructions: 246501196 cycles: 107127426 heartbeat IPC: 2.809 cumulative IPC: 2.023 (Simulation time: 00 hr 22 min 50 sec)
Heartbeat CPU 0 instructions: 247001198 cycles: 107304829 heartbeat IPC: 2.818 cumulative IPC: 2.025 (Simulation time: 00 hr 22 min 52 sec)
Heartbeat CPU 0 instructions: 247501205 cycles: 107481888 heartbeat IPC: 2.824 cumulative IPC: 2.026 (Simulation time: 00 hr 22 min 55 sec)
Heartbeat CPU 0 instructions: 248001207 cycles: 107659852 heartbeat IPC: 2.81 cumulative IPC: 2.028 (Simulation time: 00 hr 22 min 57 sec)
Heartbeat CPU 0 instructions: 248501207 cycles: 107837434 heartbeat IPC: 2.816 cumulative IPC: 2.029 (Simulation time: 00 hr 22 min 59 sec)
Heartbeat CPU 0 instructions: 249001207 cycles: 108015647 heartbeat IPC: 2.806 cumulative IPC: 2.03 (Simulation time: 00 hr 23 min 01 sec)
Heartbeat CPU 0 instructions: 249501210 cycles: 108193456 heartbeat IPC: 2.812 cumulative IPC: 2.032 (Simulation time: 00 hr 23 min 04 sec)
Simulation finished CPU 0 instructions: 200000003 cycles: 98367045 cumulative IPC: 2.033 (Simulation time: 00 hr 23 min 06 sec)
Simulation complete CPU 0 instructions: 200000003 cycles: 98367045 cumulative IPC: 2.033 (Simulation time: 00 hr 23 min 06 sec)

ChampSim completed all CPUs

=== Simulation ===
CPU 0 runs /local-ssd/ben/dpc4-traces/Graph/GMS/gms.k_clique_count_set_based.soc-pokec-relationships.slice-4.champsimtrace.gz

Region of Interest Statistics

CPU 0 cumulative IPC: 2.033 instructions: 200000003 cycles: 98367045
CPU 0 Branch Prediction Accuracy: 99.3% MPKI: 1.499 Average ROB Occupancy at Mispredict: 306.8
Branch type MPKI
BRANCH_DIRECT_JUMP: 0.000125
BRANCH_INDIRECT: 0
BRANCH_CONDITIONAL: 1.498
BRANCH_DIRECT_CALL: 0.000135
BRANCH_INDIRECT_CALL: 5e-06
BRANCH_RETURN: 0.00014

cpu0->cpu0_STLB TOTAL        ACCESS:      16820 HIT:         83 MISS:      16737 MSHR_MERGE:          0
cpu0->cpu0_STLB LOAD         ACCESS:      16820 HIT:         83 MISS:      16737 MSHR_MERGE:          0
cpu0->cpu0_STLB RFO          ACCESS:          0 HIT:          0 MISS:          0 MSHR_MERGE:          0
cpu0->cpu0_STLB PREFETCH     ACCESS:          0 HIT:          0 MISS:          0 MSHR_MERGE:          0
cpu0->cpu0_STLB WRITE        ACCESS:          0 HIT:          0 MISS:          0 MSHR_MERGE:          0
cpu0->cpu0_STLB TRANSLATION  ACCESS:          0 HIT:          0 MISS:          0 MSHR_MERGE:          0
cpu0->cpu0_STLB PREFETCH REQUESTED:          0 ISSUED:          0 USEFUL:          0 USELESS:          0
cpu0->cpu0_STLB AVERAGE MISS LATENCY: 270 cycles
cpu0->cpu0_L2C TOTAL        ACCESS:    1613137 HIT:     543196 MISS:    1069941 MSHR_MERGE:          0
cpu0->cpu0_L2C LOAD         ACCESS:     217575 HIT:          0 MISS:     217575 MSHR_MERGE:          0
cpu0->cpu0_L2C RFO          ACCESS:     543022 HIT:         37 MISS:     542985 MSHR_MERGE:          0
cpu0->cpu0_L2C PREFETCH     ACCESS:     307273 HIT:         50 MISS:     307223 MSHR_MERGE:          0
cpu0->cpu0_L2C WRITE        ACCESS:     543102 HIT:     543102 MISS:          0 MSHR_MERGE:          0
cpu0->cpu0_L2C TRANSLATION  ACCESS:       2165 HIT:          7 MISS:       2158 MSHR_MERGE:          0
cpu0->cpu0_L2C PREFETCH REQUESTED:          0 ISSUED:          0 USEFUL:          0 USELESS:          0
cpu0->cpu0_L2C AVERAGE MISS LATENCY: 397.6 cycles
cpu0->cpu0_L1I TOTAL        ACCESS:   18835451 HIT:   18835312 MISS:        139 MSHR_MERGE:          3
cpu0->cpu0_L1I LOAD         ACCESS:   18835451 HIT:   18835312 MISS:        139 MSHR_MERGE:          3
cpu0->cpu0_L1I RFO          ACCESS:          0 HIT:          0 MISS:          0 MSHR_MERGE:          0
cpu0->cpu0_L1I PREFETCH     ACCESS:          0 HIT:          0 MISS:          0 MSHR_MERGE:          0
cpu0->cpu0_L1I WRITE        ACCESS:          0 HIT:          0 MISS:          0 MSHR_MERGE:          0
cpu0->cpu0_L1I TRANSLATION  ACCESS:          0 HIT:          0 MISS:          0 MSHR_MERGE:          0
cpu0->cpu0_L1I PREFETCH REQUESTED:          0 ISSUED:          0 USEFUL:          0 USELESS:          0
cpu0->cpu0_L1I AVERAGE MISS LATENCY: 231.4 cycles
cpu0->cpu0_L1D TOTAL        ACCESS:   73402526 HIT:   67040231 MISS:    6362295 MSHR_MERGE:    5292396
cpu0->cpu0_L1D LOAD         ACCESS:   25373056 HIT:   24452060 MISS:     920996 MSHR_MERGE:     703557
cpu0->cpu0_L1D RFO          ACCESS:          0 HIT:          0 MISS:          0 MSHR_MERGE:          0
cpu0->cpu0_L1D PREFETCH     ACCESS:   20272159 HIT:   19046416 MISS:    1225743 MSHR_MERGE:     918470
cpu0->cpu0_L1D WRITE        ACCESS:   27723789 HIT:   23510398 MISS:    4213391 MSHR_MERGE:    3670369
cpu0->cpu0_L1D TRANSLATION  ACCESS:      33522 HIT:      31357 MISS:       2165 MSHR_MERGE:          0
cpu0->cpu0_L1D PREFETCH REQUESTED:   27629965 ISSUED:   20272151 USEFUL:     307091 USELESS:        132
cpu0->cpu0_L1D AVERAGE MISS LATENCY: 405.7 cycles
cpu0->cpu0_ITLB TOTAL        ACCESS:   14543213 HIT:   14543192 MISS:         21 MSHR_MERGE:          3
cpu0->cpu0_ITLB LOAD         ACCESS:   14543213 HIT:   14543192 MISS:         21 MSHR_MERGE:          3
cpu0->cpu0_ITLB RFO          ACCESS:          0 HIT:          0 MISS:          0 MSHR_MERGE:          0
cpu0->cpu0_ITLB PREFETCH     ACCESS:          0 HIT:          0 MISS:          0 MSHR_MERGE:          0
cpu0->cpu0_ITLB WRITE        ACCESS:          0 HIT:          0 MISS:          0 MSHR_MERGE:          0
cpu0->cpu0_ITLB TRANSLATION  ACCESS:          0 HIT:          0 MISS:          0 MSHR_MERGE:          0
cpu0->cpu0_ITLB PREFETCH REQUESTED:          0 ISSUED:          0 USEFUL:          0 USELESS:          0
cpu0->cpu0_ITLB AVERAGE MISS LATENCY: 371.7 cycles
cpu0->cpu0_DTLB TOTAL        ACCESS:   59594772 HIT:   59395518 MISS:     199254 MSHR_MERGE:     182452
cpu0->cpu0_DTLB LOAD         ACCESS:   59594772 HIT:   59395518 MISS:     199254 MSHR_MERGE:     182452
cpu0->cpu0_DTLB RFO          ACCESS:          0 HIT:          0 MISS:          0 MSHR_MERGE:          0
cpu0->cpu0_DTLB PREFETCH     ACCESS:          0 HIT:          0 MISS:          0 MSHR_MERGE:          0
cpu0->cpu0_DTLB WRITE        ACCESS:          0 HIT:          0 MISS:          0 MSHR_MERGE:          0
cpu0->cpu0_DTLB TRANSLATION  ACCESS:          0 HIT:          0 MISS:          0 MSHR_MERGE:          0
cpu0->cpu0_DTLB PREFETCH REQUESTED:          0 ISSUED:          0 USEFUL:          0 USELESS:          0
cpu0->cpu0_DTLB AVERAGE MISS LATENCY: 274.5 cycles
cpu0->LLC TOTAL        ACCESS:    1600893 HIT:     219601 MISS:    1381292 MSHR_MERGE:          0
cpu0->LLC LOAD         ACCESS:     217575 HIT:          0 MISS:     217575 MSHR_MERGE:          0
cpu0->LLC RFO          ACCESS:     542985 HIT:          0 MISS:     542985 MSHR_MERGE:          0
cpu0->LLC PREFETCH     ACCESS:     307223 HIT:          0 MISS:     307223 MSHR_MERGE:          0
cpu0->LLC WRITE        ACCESS:     530952 HIT:     219599 MISS:     311353 MSHR_MERGE:          0
cpu0->LLC TRANSLATION  ACCESS:       2158 HIT:          2 MISS:       2156 MSHR_MERGE:          0
cpu0->LLC PREFETCH REQUESTED:          0 ISSUED:          0 USEFUL:          0 USELESS:          0
cpu0->LLC AVERAGE MISS LATENCY: 270.9 cycles

DRAM Statistics

Channel 0 RQ ROW_BUFFER_HIT:      39949
  ROW_BUFFER_MISS:    1029990
  AVG DBUS CONGESTED CYCLE: 12.23
Channel 0 WQ ROW_BUFFER_HIT:      73235
  ROW_BUFFER_MISS:     437683
  FULL:      27091
Channel 0 REFRESHES ISSUED:       8197
