[VMEM] WARNING: physical memory size is smaller than virtual memory size.

*** ChampSim Multicore Out-of-Order Simulator ***
Warmup Instructions: 50000000
Simulation Instructions: 200000000
Number of CPUs: 1
Page size: 4096
Core 0: /local-ssd/ben/dpc4-traces/gtraces_v2/tahoe_0000.champsim.gz
Off-chip DRAM Size: 64 GiB Channels: 1 Width: 64-bit Data Rate: 4807 MT/s
[BTB] WARNING: target of return is a lower address than the corresponding call. This is usually a problem with your trace.
[BTB] WARNING: target of return is a lower address than the corresponding call. This is usually a problem with your trace.
[BTB] WARNING: target of return is a lower address than the corresponding call. This is usually a problem with your trace.
[BTB] WARNING: target of return is a lower address than the corresponding call. This is usually a problem with your trace.
[BTB] WARNING: target of return is a lower address than the corresponding call. This is usually a problem with your trace.
Heartbeat CPU 0 instructions: 500007 cycles: 303259 heartbeat IPC: 1.649 cumulative IPC: 1.649 (Simulation time: 00 hr 00 min 04 sec)
[BTB] WARNING: target of return is a lower address than the corresponding call. This is usually a problem with your trace.
Heartbeat CPU 0 instructions: 1000014 cycles: 706076 heartbeat IPC: 1.241 cumulative IPC: 1.416 (Simulation time: 00 hr 00 min 10 sec)
Heartbeat CPU 0 instructions: 1500018 cycles: 989053 heartbeat IPC: 1.767 cumulative IPC: 1.517 (Simulation time: 00 hr 00 min 15 sec)
Heartbeat CPU 0 instructions: 2000022 cycles: 1213921 heartbeat IPC: 2.224 cumulative IPC: 1.648 (Simulation time: 00 hr 00 min 18 sec)
Heartbeat CPU 0 instructions: 2500029 cycles: 1406052 heartbeat IPC: 2.602 cumulative IPC: 1.778 (Simulation time: 00 hr 00 min 22 sec)
Heartbeat CPU 0 instructions: 3000036 cycles: 1614107 heartbeat IPC: 2.403 cumulative IPC: 1.859 (Simulation time: 00 hr 00 min 25 sec)
[BTB] WARNING: target of return is a lower address than the corresponding call. This is usually a problem with your trace.
[BTB] WARNING: target of return is a lower address than the corresponding call. This is usually a problem with your trace.
[BTB] WARNING: target of return is a lower address than the corresponding call. This is usually a problem with your trace.
[BTB] WARNING: target of return is a lower address than the corresponding call. This is usually a problem with your trace.
Heartbeat CPU 0 instructions: 3500041 cycles: 1750250 heartbeat IPC: 3.673 cumulative IPC: 2 (Simulation time: 00 hr 00 min 28 sec)
Heartbeat CPU 0 instructions: 4000043 cycles: 1862851 heartbeat IPC: 4.44 cumulative IPC: 2.147 (Simulation time: 00 hr 00 min 30 sec)
Heartbeat CPU 0 instructions: 4500050 cycles: 1975896 heartbeat IPC: 4.423 cumulative IPC: 2.277 (Simulation time: 00 hr 00 min 32 sec)
Heartbeat CPU 0 instructions: 5000056 cycles: 2086143 heartbeat IPC: 4.535 cumulative IPC: 2.397 (Simulation time: 00 hr 00 min 34 sec)
Heartbeat CPU 0 instructions: 5500057 cycles: 2196684 heartbeat IPC: 4.523 cumulative IPC: 2.504 (Simulation time: 00 hr 00 min 36 sec)
Heartbeat CPU 0 instructions: 6000058 cycles: 2307754 heartbeat IPC: 4.502 cumulative IPC: 2.6 (Simulation time: 00 hr 00 min 38 sec)
Heartbeat CPU 0 instructions: 6500059 cycles: 2416949 heartbeat IPC: 4.579 cumulative IPC: 2.689 (Simulation time: 00 hr 00 min 40 sec)
Heartbeat CPU 0 instructions: 7000063 cycles: 2525746 heartbeat IPC: 4.596 cumulative IPC: 2.771 (Simulation time: 00 hr 00 min 42 sec)
Heartbeat CPU 0 instructions: 7500065 cycles: 2633518 heartbeat IPC: 4.639 cumulative IPC: 2.848 (Simulation time: 00 hr 00 min 44 sec)
Heartbeat CPU 0 instructions: 8000069 cycles: 2744670 heartbeat IPC: 4.498 cumulative IPC: 2.915 (Simulation time: 00 hr 00 min 46 sec)
Heartbeat CPU 0 instructions: 8500074 cycles: 2850906 heartbeat IPC: 4.707 cumulative IPC: 2.982 (Simulation time: 00 hr 00 min 48 sec)
Heartbeat CPU 0 instructions: 9000076 cycles: 2959902 heartbeat IPC: 4.587 cumulative IPC: 3.041 (Simulation time: 00 hr 00 min 50 sec)
Heartbeat CPU 0 instructions: 9500077 cycles: 3070574 heartbeat IPC: 4.518 cumulative IPC: 3.094 (Simulation time: 00 hr 00 min 52 sec)
Heartbeat CPU 0 instructions: 10000083 cycles: 3250155 heartbeat IPC: 2.784 cumulative IPC: 3.077 (Simulation time: 00 hr 00 min 54 sec)
Heartbeat CPU 0 instructions: 10500083 cycles: 3573206 heartbeat IPC: 1.548 cumulative IPC: 2.939 (Simulation time: 00 hr 00 min 58 sec)
Heartbeat CPU 0 instructions: 11000086 cycles: 3788262 heartbeat IPC: 2.325 cumulative IPC: 2.904 (Simulation time: 00 hr 01 min 01 sec)
Heartbeat CPU 0 instructions: 11500090 cycles: 3954816 heartbeat IPC: 3.002 cumulative IPC: 2.908 (Simulation time: 00 hr 01 min 03 sec)
Heartbeat CPU 0 instructions: 12000093 cycles: 4090058 heartbeat IPC: 3.697 cumulative IPC: 2.934 (Simulation time: 00 hr 01 min 05 sec)
Heartbeat CPU 0 instructions: 12500095 cycles: 4290640 heartbeat IPC: 2.493 cumulative IPC: 2.913 (Simulation time: 00 hr 01 min 09 sec)
Heartbeat CPU 0 instructions: 13000096 cycles: 4472475 heartbeat IPC: 2.75 cumulative IPC: 2.907 (Simulation time: 00 hr 01 min 11 sec)
Heartbeat CPU 0 instructions: 13500100 cycles: 4628941 heartbeat IPC: 3.196 cumulative IPC: 2.916 (Simulation time: 00 hr 01 min 14 sec)
Heartbeat CPU 0 instructions: 14000101 cycles: 4803333 heartbeat IPC: 2.867 cumulative IPC: 2.915 (Simulation time: 00 hr 01 min 16 sec)
Heartbeat CPU 0 instructions: 14500103 cycles: 4960853 heartbeat IPC: 3.174 cumulative IPC: 2.923 (Simulation time: 00 hr 01 min 19 sec)
Heartbeat CPU 0 instructions: 15000106 cycles: 5119841 heartbeat IPC: 3.145 cumulative IPC: 2.93 (Simulation time: 00 hr 01 min 21 sec)
Heartbeat CPU 0 instructions: 15500112 cycles: 5223321 heartbeat IPC: 4.832 cumulative IPC: 2.967 (Simulation time: 00 hr 01 min 23 sec)
Heartbeat CPU 0 instructions: 16000112 cycles: 5362023 heartbeat IPC: 3.605 cumulative IPC: 2.984 (Simulation time: 00 hr 01 min 25 sec)
Heartbeat CPU 0 instructions: 16500115 cycles: 5492493 heartbeat IPC: 3.832 cumulative IPC: 3.004 (Simulation time: 00 hr 01 min 27 sec)
Heartbeat CPU 0 instructions: 17000119 cycles: 5656705 heartbeat IPC: 3.045 cumulative IPC: 3.005 (Simulation time: 00 hr 01 min 30 sec)
Heartbeat CPU 0 instructions: 17500120 cycles: 5805262 heartbeat IPC: 3.366 cumulative IPC: 3.015 (Simulation time: 00 hr 01 min 32 sec)
Heartbeat CPU 0 instructions: 18000123 cycles: 5940190 heartbeat IPC: 3.706 cumulative IPC: 3.03 (Simulation time: 00 hr 01 min 35 sec)
Heartbeat CPU 0 instructions: 18500130 cycles: 6064015 heartbeat IPC: 4.038 cumulative IPC: 3.051 (Simulation time: 00 hr 01 min 36 sec)
Heartbeat CPU 0 instructions: 19000133 cycles: 6231153 heartbeat IPC: 2.992 cumulative IPC: 3.049 (Simulation time: 00 hr 01 min 39 sec)
Heartbeat CPU 0 instructions: 19500133 cycles: 6403377 heartbeat IPC: 2.903 cumulative IPC: 3.045 (Simulation time: 00 hr 01 min 42 sec)
Heartbeat CPU 0 instructions: 20000140 cycles: 6564540 heartbeat IPC: 3.102 cumulative IPC: 3.047 (Simulation time: 00 hr 01 min 44 sec)
Heartbeat CPU 0 instructions: 20500140 cycles: 6736878 heartbeat IPC: 2.901 cumulative IPC: 3.043 (Simulation time: 00 hr 01 min 47 sec)
Heartbeat CPU 0 instructions: 21000143 cycles: 6899270 heartbeat IPC: 3.079 cumulative IPC: 3.044 (Simulation time: 00 hr 01 min 49 sec)
Heartbeat CPU 0 instructions: 21500147 cycles: 7023844 heartbeat IPC: 4.014 cumulative IPC: 3.061 (Simulation time: 00 hr 01 min 51 sec)
Heartbeat CPU 0 instructions: 22000149 cycles: 7157584 heartbeat IPC: 3.739 cumulative IPC: 3.074 (Simulation time: 00 hr 01 min 53 sec)
Heartbeat CPU 0 instructions: 22500153 cycles: 7315156 heartbeat IPC: 3.173 cumulative IPC: 3.076 (Simulation time: 00 hr 01 min 56 sec)
Heartbeat CPU 0 instructions: 23000154 cycles: 7472588 heartbeat IPC: 3.176 cumulative IPC: 3.078 (Simulation time: 00 hr 01 min 58 sec)
Heartbeat CPU 0 instructions: 23500156 cycles: 7600396 heartbeat IPC: 3.912 cumulative IPC: 3.092 (Simulation time: 00 hr 02 min 01 sec)
Heartbeat CPU 0 instructions: 24000160 cycles: 7701283 heartbeat IPC: 4.956 cumulative IPC: 3.116 (Simulation time: 00 hr 02 min 02 sec)
Heartbeat CPU 0 instructions: 24500161 cycles: 7804249 heartbeat IPC: 4.856 cumulative IPC: 3.139 (Simulation time: 00 hr 02 min 04 sec)
Heartbeat CPU 0 instructions: 25000164 cycles: 7905925 heartbeat IPC: 4.918 cumulative IPC: 3.162 (Simulation time: 00 hr 02 min 05 sec)
Heartbeat CPU 0 instructions: 25500167 cycles: 8006293 heartbeat IPC: 4.982 cumulative IPC: 3.185 (Simulation time: 00 hr 02 min 07 sec)
Heartbeat CPU 0 instructions: 26000173 cycles: 8106937 heartbeat IPC: 4.968 cumulative IPC: 3.207 (Simulation time: 00 hr 02 min 08 sec)
Heartbeat CPU 0 instructions: 26500179 cycles: 8207285 heartbeat IPC: 4.983 cumulative IPC: 3.229 (Simulation time: 00 hr 02 min 10 sec)
Heartbeat CPU 0 instructions: 27000180 cycles: 8308087 heartbeat IPC: 4.96 cumulative IPC: 3.25 (Simulation time: 00 hr 02 min 11 sec)
Heartbeat CPU 0 instructions: 27500186 cycles: 8409149 heartbeat IPC: 4.948 cumulative IPC: 3.27 (Simulation time: 00 hr 02 min 13 sec)
Heartbeat CPU 0 instructions: 28000190 cycles: 8509826 heartbeat IPC: 4.966 cumulative IPC: 3.29 (Simulation time: 00 hr 02 min 15 sec)
Heartbeat CPU 0 instructions: 28500194 cycles: 8610797 heartbeat IPC: 4.952 cumulative IPC: 3.31 (Simulation time: 00 hr 02 min 16 sec)
Heartbeat CPU 0 instructions: 29000199 cycles: 8711564 heartbeat IPC: 4.962 cumulative IPC: 3.329 (Simulation time: 00 hr 02 min 18 sec)
Heartbeat CPU 0 instructions: 29500205 cycles: 8812655 heartbeat IPC: 4.946 cumulative IPC: 3.347 (Simulation time: 00 hr 02 min 19 sec)
Heartbeat CPU 0 instructions: 30000210 cycles: 8913096 heartbeat IPC: 4.978 cumulative IPC: 3.366 (Simulation time: 00 hr 02 min 21 sec)
Heartbeat CPU 0 instructions: 30500215 cycles: 9013867 heartbeat IPC: 4.962 cumulative IPC: 3.384 (Simulation time: 00 hr 02 min 22 sec)
Heartbeat CPU 0 instructions: 31000220 cycles: 9114414 heartbeat IPC: 4.973 cumulative IPC: 3.401 (Simulation time: 00 hr 02 min 24 sec)
Heartbeat CPU 0 instructions: 31500226 cycles: 9214958 heartbeat IPC: 4.973 cumulative IPC: 3.418 (Simulation time: 00 hr 02 min 26 sec)
Heartbeat CPU 0 instructions: 32000230 cycles: 9316002 heartbeat IPC: 4.948 cumulative IPC: 3.435 (Simulation time: 00 hr 02 min 27 sec)
Heartbeat CPU 0 instructions: 32500236 cycles: 9423733 heartbeat IPC: 4.641 cumulative IPC: 3.449 (Simulation time: 00 hr 02 min 29 sec)
Heartbeat CPU 0 instructions: 33000243 cycles: 9523949 heartbeat IPC: 4.989 cumulative IPC: 3.465 (Simulation time: 00 hr 02 min 30 sec)
Heartbeat CPU 0 instructions: 33500245 cycles: 9625772 heartbeat IPC: 4.911 cumulative IPC: 3.48 (Simulation time: 00 hr 02 min 32 sec)
Heartbeat CPU 0 instructions: 34000249 cycles: 9727305 heartbeat IPC: 4.925 cumulative IPC: 3.495 (Simulation time: 00 hr 02 min 34 sec)
Heartbeat CPU 0 instructions: 34500252 cycles: 9861036 heartbeat IPC: 3.739 cumulative IPC: 3.499 (Simulation time: 00 hr 02 min 35 sec)
Heartbeat CPU 0 instructions: 35000253 cycles: 9992333 heartbeat IPC: 3.808 cumulative IPC: 3.503 (Simulation time: 00 hr 02 min 38 sec)
Heartbeat CPU 0 instructions: 35500256 cycles: 10134901 heartbeat IPC: 3.507 cumulative IPC: 3.503 (Simulation time: 00 hr 02 min 40 sec)
Heartbeat CPU 0 instructions: 36000259 cycles: 10281377 heartbeat IPC: 3.414 cumulative IPC: 3.502 (Simulation time: 00 hr 02 min 42 sec)
Heartbeat CPU 0 instructions: 36500265 cycles: 10419416 heartbeat IPC: 3.622 cumulative IPC: 3.503 (Simulation time: 00 hr 02 min 45 sec)
Heartbeat CPU 0 instructions: 37000265 cycles: 10600066 heartbeat IPC: 2.768 cumulative IPC: 3.491 (Simulation time: 00 hr 02 min 48 sec)
Heartbeat CPU 0 instructions: 37500272 cycles: 10741448 heartbeat IPC: 3.537 cumulative IPC: 3.491 (Simulation time: 00 hr 02 min 50 sec)
Heartbeat CPU 0 instructions: 38000279 cycles: 10877518 heartbeat IPC: 3.675 cumulative IPC: 3.493 (Simulation time: 00 hr 02 min 52 sec)
Heartbeat CPU 0 instructions: 38500279 cycles: 11045166 heartbeat IPC: 2.982 cumulative IPC: 3.486 (Simulation time: 00 hr 02 min 55 sec)
Heartbeat CPU 0 instructions: 39000279 cycles: 11165317 heartbeat IPC: 4.161 cumulative IPC: 3.493 (Simulation time: 00 hr 02 min 57 sec)
Heartbeat CPU 0 instructions: 39500280 cycles: 11316583 heartbeat IPC: 3.305 cumulative IPC: 3.49 (Simulation time: 00 hr 02 min 59 sec)
Heartbeat CPU 0 instructions: 40000286 cycles: 11464810 heartbeat IPC: 3.373 cumulative IPC: 3.489 (Simulation time: 00 hr 03 min 02 sec)
Heartbeat CPU 0 instructions: 40500290 cycles: 11611809 heartbeat IPC: 3.401 cumulative IPC: 3.488 (Simulation time: 00 hr 03 min 04 sec)
Heartbeat CPU 0 instructions: 41000290 cycles: 11755008 heartbeat IPC: 3.492 cumulative IPC: 3.488 (Simulation time: 00 hr 03 min 07 sec)
Heartbeat CPU 0 instructions: 41500293 cycles: 11897089 heartbeat IPC: 3.519 cumulative IPC: 3.488 (Simulation time: 00 hr 03 min 09 sec)
Heartbeat CPU 0 instructions: 42000296 cycles: 12030083 heartbeat IPC: 3.76 cumulative IPC: 3.491 (Simulation time: 00 hr 03 min 11 sec)
Heartbeat CPU 0 instructions: 42500299 cycles: 12172957 heartbeat IPC: 3.5 cumulative IPC: 3.491 (Simulation time: 00 hr 03 min 13 sec)
Heartbeat CPU 0 instructions: 43000300 cycles: 12329272 heartbeat IPC: 3.199 cumulative IPC: 3.488 (Simulation time: 00 hr 03 min 16 sec)
Heartbeat CPU 0 instructions: 43500300 cycles: 12470762 heartbeat IPC: 3.534 cumulative IPC: 3.488 (Simulation time: 00 hr 03 min 18 sec)
Heartbeat CPU 0 instructions: 44000300 cycles: 12618198 heartbeat IPC: 3.391 cumulative IPC: 3.487 (Simulation time: 00 hr 03 min 20 sec)
Heartbeat CPU 0 instructions: 44500301 cycles: 12752400 heartbeat IPC: 3.726 cumulative IPC: 3.49 (Simulation time: 00 hr 03 min 22 sec)
Heartbeat CPU 0 instructions: 45000305 cycles: 12922368 heartbeat IPC: 2.942 cumulative IPC: 3.482 (Simulation time: 00 hr 03 min 25 sec)
Heartbeat CPU 0 instructions: 45500308 cycles: 13049711 heartbeat IPC: 3.926 cumulative IPC: 3.487 (Simulation time: 00 hr 03 min 27 sec)
Heartbeat CPU 0 instructions: 46000313 cycles: 13198664 heartbeat IPC: 3.357 cumulative IPC: 3.485 (Simulation time: 00 hr 03 min 29 sec)
Heartbeat CPU 0 instructions: 46500313 cycles: 13351240 heartbeat IPC: 3.277 cumulative IPC: 3.483 (Simulation time: 00 hr 03 min 32 sec)
Heartbeat CPU 0 instructions: 47000318 cycles: 13500773 heartbeat IPC: 3.344 cumulative IPC: 3.481 (Simulation time: 00 hr 03 min 34 sec)
Heartbeat CPU 0 instructions: 47500325 cycles: 13645151 heartbeat IPC: 3.463 cumulative IPC: 3.481 (Simulation time: 00 hr 03 min 37 sec)
Heartbeat CPU 0 instructions: 48000330 cycles: 13786876 heartbeat IPC: 3.528 cumulative IPC: 3.482 (Simulation time: 00 hr 03 min 39 sec)
Heartbeat CPU 0 instructions: 48500334 cycles: 13916282 heartbeat IPC: 3.864 cumulative IPC: 3.485 (Simulation time: 00 hr 03 min 41 sec)
Heartbeat CPU 0 instructions: 49000339 cycles: 14018528 heartbeat IPC: 4.89 cumulative IPC: 3.495 (Simulation time: 00 hr 03 min 42 sec)
Heartbeat CPU 0 instructions: 49500343 cycles: 14121294 heartbeat IPC: 4.865 cumulative IPC: 3.505 (Simulation time: 00 hr 03 min 44 sec)
Warmup halting CPU 0 at instruction 50000004 cycle 14221780 for remainder of phase
Warmup finished CPU 0 instructions: 50000004 cycles: 14221780 cumulative IPC: 3.516 (Simulation time: 00 hr 03 min 45 sec)
Warmup complete CPU 0 instructions: 50000004 cycles: 14221780 cumulative IPC: 3.516 (Simulation time: 00 hr 03 min 45 sec)
Heartbeat CPU 0 instructions: 50000348 cycles: 14221864 heartbeat IPC: 4.972 cumulative IPC: 4.095 (Simulation time: 00 hr 03 min 45 sec)
Heartbeat CPU 0 instructions: 50500351 cycles: 15541073 heartbeat IPC: 0.379 cumulative IPC: 0.3793 (Simulation time: 00 hr 03 min 57 sec)
Heartbeat CPU 0 instructions: 51000352 cycles: 16430920 heartbeat IPC: 0.5619 cumulative IPC: 0.4528 (Simulation time: 00 hr 04 min 05 sec)
Heartbeat CPU 0 instructions: 51500358 cycles: 17626582 heartbeat IPC: 0.4182 cumulative IPC: 0.4407 (Simulation time: 00 hr 04 min 15 sec)
Heartbeat CPU 0 instructions: 52000359 cycles: 18726091 heartbeat IPC: 0.4547 cumulative IPC: 0.4441 (Simulation time: 00 hr 04 min 25 sec)
Heartbeat CPU 0 instructions: 52500359 cycles: 19738748 heartbeat IPC: 0.4938 cumulative IPC: 0.4532 (Simulation time: 00 hr 04 min 34 sec)
Heartbeat CPU 0 instructions: 53000359 cycles: 20709267 heartbeat IPC: 0.5152 cumulative IPC: 0.4625 (Simulation time: 00 hr 04 min 42 sec)
Heartbeat CPU 0 instructions: 53500363 cycles: 21595118 heartbeat IPC: 0.5644 cumulative IPC: 0.4747 (Simulation time: 00 hr 04 min 50 sec)
Heartbeat CPU 0 instructions: 54000364 cycles: 22508718 heartbeat IPC: 0.5473 cumulative IPC: 0.4827 (Simulation time: 00 hr 04 min 58 sec)
Heartbeat CPU 0 instructions: 54500367 cycles: 23579287 heartbeat IPC: 0.467 cumulative IPC: 0.4809 (Simulation time: 00 hr 05 min 07 sec)
Heartbeat CPU 0 instructions: 55000373 cycles: 24349693 heartbeat IPC: 0.649 cumulative IPC: 0.4937 (Simulation time: 00 hr 05 min 14 sec)
Heartbeat CPU 0 instructions: 55500380 cycles: 25603154 heartbeat IPC: 0.3989 cumulative IPC: 0.4833 (Simulation time: 00 hr 05 min 25 sec)
Heartbeat CPU 0 instructions: 56000384 cycles: 26676886 heartbeat IPC: 0.4657 cumulative IPC: 0.4818 (Simulation time: 00 hr 05 min 34 sec)
Heartbeat CPU 0 instructions: 56500386 cycles: 27517464 heartbeat IPC: 0.5948 cumulative IPC: 0.4889 (Simulation time: 00 hr 05 min 41 sec)
Heartbeat CPU 0 instructions: 57000386 cycles: 28612485 heartbeat IPC: 0.4566 cumulative IPC: 0.4865 (Simulation time: 00 hr 05 min 51 sec)
Heartbeat CPU 0 instructions: 57500387 cycles: 29467421 heartbeat IPC: 0.5848 cumulative IPC: 0.492 (Simulation time: 00 hr 05 min 58 sec)
Heartbeat CPU 0 instructions: 58000394 cycles: 30452187 heartbeat IPC: 0.5077 cumulative IPC: 0.4929 (Simulation time: 00 hr 06 min 06 sec)
Heartbeat CPU 0 instructions: 58500396 cycles: 32487380 heartbeat IPC: 0.2457 cumulative IPC: 0.4654 (Simulation time: 00 hr 06 min 20 sec)
Heartbeat CPU 0 instructions: 59000403 cycles: 33427715 heartbeat IPC: 0.5317 cumulative IPC: 0.4686 (Simulation time: 00 hr 06 min 28 sec)
Heartbeat CPU 0 instructions: 59500407 cycles: 34952065 heartbeat IPC: 0.328 cumulative IPC: 0.4583 (Simulation time: 00 hr 06 min 41 sec)
Heartbeat CPU 0 instructions: 60000409 cycles: 35798910 heartbeat IPC: 0.5904 cumulative IPC: 0.4635 (Simulation time: 00 hr 06 min 47 sec)
Heartbeat CPU 0 instructions: 60500410 cycles: 37990163 heartbeat IPC: 0.2282 cumulative IPC: 0.4418 (Simulation time: 00 hr 07 min 01 sec)
Heartbeat CPU 0 instructions: 61000410 cycles: 40186910 heartbeat IPC: 0.2276 cumulative IPC: 0.4237 (Simulation time: 00 hr 07 min 15 sec)
Heartbeat CPU 0 instructions: 61500410 cycles: 41040838 heartbeat IPC: 0.5855 cumulative IPC: 0.4288 (Simulation time: 00 hr 07 min 22 sec)
Heartbeat CPU 0 instructions: 62000412 cycles: 42277130 heartbeat IPC: 0.4044 cumulative IPC: 0.4277 (Simulation time: 00 hr 07 min 30 sec)
Heartbeat CPU 0 instructions: 62500412 cycles: 43181422 heartbeat IPC: 0.5529 cumulative IPC: 0.4316 (Simulation time: 00 hr 07 min 37 sec)
Heartbeat CPU 0 instructions: 63000412 cycles: 44668250 heartbeat IPC: 0.3363 cumulative IPC: 0.427 (Simulation time: 00 hr 07 min 47 sec)
Heartbeat CPU 0 instructions: 63500412 cycles: 46361685 heartbeat IPC: 0.2953 cumulative IPC: 0.4201 (Simulation time: 00 hr 07 min 58 sec)
Heartbeat CPU 0 instructions: 64000415 cycles: 47656787 heartbeat IPC: 0.3861 cumulative IPC: 0.4187 (Simulation time: 00 hr 08 min 08 sec)
Heartbeat CPU 0 instructions: 64500417 cycles: 49459760 heartbeat IPC: 0.2773 cumulative IPC: 0.4115 (Simulation time: 00 hr 08 min 19 sec)
Heartbeat CPU 0 instructions: 65000420 cycles: 50847693 heartbeat IPC: 0.3603 cumulative IPC: 0.4096 (Simulation time: 00 hr 08 min 28 sec)
Heartbeat CPU 0 instructions: 65500420 cycles: 51141631 heartbeat IPC: 1.701 cumulative IPC: 0.4198 (Simulation time: 00 hr 08 min 32 sec)
Heartbeat CPU 0 instructions: 66000420 cycles: 51389421 heartbeat IPC: 2.018 cumulative IPC: 0.4305 (Simulation time: 00 hr 08 min 35 sec)
Heartbeat CPU 0 instructions: 66500420 cycles: 52468663 heartbeat IPC: 0.4633 cumulative IPC: 0.4314 (Simulation time: 00 hr 08 min 42 sec)
Heartbeat CPU 0 instructions: 67000423 cycles: 55238307 heartbeat IPC: 0.1805 cumulative IPC: 0.4145 (Simulation time: 00 hr 09 min 00 sec)
Heartbeat CPU 0 instructions: 67500423 cycles: 56430112 heartbeat IPC: 0.4195 cumulative IPC: 0.4146 (Simulation time: 00 hr 09 min 08 sec)
Heartbeat CPU 0 instructions: 68000430 cycles: 57109936 heartbeat IPC: 0.7355 cumulative IPC: 0.4197 (Simulation time: 00 hr 09 min 14 sec)
Heartbeat CPU 0 instructions: 68500433 cycles: 58754701 heartbeat IPC: 0.304 cumulative IPC: 0.4154 (Simulation time: 00 hr 09 min 24 sec)
Heartbeat CPU 0 instructions: 69000433 cycles: 60301041 heartbeat IPC: 0.3233 cumulative IPC: 0.4123 (Simulation time: 00 hr 09 min 35 sec)
Heartbeat CPU 0 instructions: 69500437 cycles: 61330824 heartbeat IPC: 0.4855 cumulative IPC: 0.4139 (Simulation time: 00 hr 09 min 42 sec)
Heartbeat CPU 0 instructions: 70000442 cycles: 63083548 heartbeat IPC: 0.2853 cumulative IPC: 0.4093 (Simulation time: 00 hr 09 min 53 sec)
Heartbeat CPU 0 instructions: 70500442 cycles: 63859018 heartbeat IPC: 0.6448 cumulative IPC: 0.413 (Simulation time: 00 hr 09 min 59 sec)
Heartbeat CPU 0 instructions: 71000449 cycles: 65166085 heartbeat IPC: 0.3825 cumulative IPC: 0.4122 (Simulation time: 00 hr 10 min 08 sec)
Heartbeat CPU 0 instructions: 71500449 cycles: 65973128 heartbeat IPC: 0.6195 cumulative IPC: 0.4155 (Simulation time: 00 hr 10 min 14 sec)
Heartbeat CPU 0 instructions: 72000452 cycles: 66887745 heartbeat IPC: 0.5467 cumulative IPC: 0.4177 (Simulation time: 00 hr 10 min 21 sec)
Heartbeat CPU 0 instructions: 72500456 cycles: 68382938 heartbeat IPC: 0.3344 cumulative IPC: 0.4154 (Simulation time: 00 hr 10 min 31 sec)
Heartbeat CPU 0 instructions: 73000456 cycles: 68886688 heartbeat IPC: 0.9926 cumulative IPC: 0.4208 (Simulation time: 00 hr 10 min 35 sec)
Heartbeat CPU 0 instructions: 73500458 cycles: 70904481 heartbeat IPC: 0.2478 cumulative IPC: 0.4146 (Simulation time: 00 hr 10 min 47 sec)
Heartbeat CPU 0 instructions: 74000458 cycles: 72088586 heartbeat IPC: 0.4223 cumulative IPC: 0.4148 (Simulation time: 00 hr 10 min 56 sec)
Heartbeat CPU 0 instructions: 74500458 cycles: 72507329 heartbeat IPC: 1.194 cumulative IPC: 0.4204 (Simulation time: 00 hr 11 min 00 sec)
Heartbeat CPU 0 instructions: 75000463 cycles: 72759797 heartbeat IPC: 1.98 cumulative IPC: 0.4271 (Simulation time: 00 hr 11 min 03 sec)
Heartbeat CPU 0 instructions: 75500466 cycles: 72951125 heartbeat IPC: 2.613 cumulative IPC: 0.4342 (Simulation time: 00 hr 11 min 05 sec)
Heartbeat CPU 0 instructions: 76000469 cycles: 73662747 heartbeat IPC: 0.7026 cumulative IPC: 0.4374 (Simulation time: 00 hr 11 min 10 sec)
Heartbeat CPU 0 instructions: 76500473 cycles: 74788126 heartbeat IPC: 0.4443 cumulative IPC: 0.4375 (Simulation time: 00 hr 11 min 18 sec)
Heartbeat CPU 0 instructions: 77000476 cycles: 76674317 heartbeat IPC: 0.2651 cumulative IPC: 0.4323 (Simulation time: 00 hr 11 min 30 sec)
Heartbeat CPU 0 instructions: 77500478 cycles: 78072029 heartbeat IPC: 0.3577 cumulative IPC: 0.4307 (Simulation time: 00 hr 11 min 40 sec)
Heartbeat CPU 0 instructions: 78000478 cycles: 80030668 heartbeat IPC: 0.2553 cumulative IPC: 0.4255 (Simulation time: 00 hr 11 min 52 sec)
Heartbeat CPU 0 instructions: 78500480 cycles: 82392961 heartbeat IPC: 0.2117 cumulative IPC: 0.4181 (Simulation time: 00 hr 12 min 07 sec)
Heartbeat CPU 0 instructions: 79000483 cycles: 84000451 heartbeat IPC: 0.311 cumulative IPC: 0.4156 (Simulation time: 00 hr 12 min 18 sec)
Heartbeat CPU 0 instructions: 79500488 cycles: 85679036 heartbeat IPC: 0.2979 cumulative IPC: 0.4128 (Simulation time: 00 hr 12 min 29 sec)
Heartbeat CPU 0 instructions: 80000493 cycles: 86589317 heartbeat IPC: 0.5493 cumulative IPC: 0.4146 (Simulation time: 00 hr 12 min 36 sec)
Heartbeat CPU 0 instructions: 80500494 cycles: 87196532 heartbeat IPC: 0.8234 cumulative IPC: 0.418 (Simulation time: 00 hr 12 min 41 sec)
Heartbeat CPU 0 instructions: 81000496 cycles: 87696230 heartbeat IPC: 1.001 cumulative IPC: 0.4219 (Simulation time: 00 hr 12 min 45 sec)
Heartbeat CPU 0 instructions: 81500500 cycles: 89547039 heartbeat IPC: 0.2702 cumulative IPC: 0.4182 (Simulation time: 00 hr 12 min 57 sec)
Heartbeat CPU 0 instructions: 82000503 cycles: 91515185 heartbeat IPC: 0.254 cumulative IPC: 0.414 (Simulation time: 00 hr 13 min 09 sec)
Heartbeat CPU 0 instructions: 82500505 cycles: 92041499 heartbeat IPC: 0.95 cumulative IPC: 0.4176 (Simulation time: 00 hr 13 min 14 sec)
Heartbeat CPU 0 instructions: 83000505 cycles: 93450379 heartbeat IPC: 0.3549 cumulative IPC: 0.4165 (Simulation time: 00 hr 13 min 24 sec)
Heartbeat CPU 0 instructions: 83500506 cycles: 94310604 heartbeat IPC: 0.5812 cumulative IPC: 0.4183 (Simulation time: 00 hr 13 min 30 sec)
Heartbeat CPU 0 instructions: 84000509 cycles: 94862887 heartbeat IPC: 0.9053 cumulative IPC: 0.4216 (Simulation time: 00 hr 13 min 35 sec)
Heartbeat CPU 0 instructions: 84500510 cycles: 96659106 heartbeat IPC: 0.2784 cumulative IPC: 0.4185 (Simulation time: 00 hr 13 min 47 sec)
Heartbeat CPU 0 instructions: 85000514 cycles: 98030321 heartbeat IPC: 0.3646 cumulative IPC: 0.4176 (Simulation time: 00 hr 13 min 56 sec)
Heartbeat CPU 0 instructions: 85500515 cycles: 98879253 heartbeat IPC: 0.589 cumulative IPC: 0.4193 (Simulation time: 00 hr 14 min 03 sec)
Heartbeat CPU 0 instructions: 86000519 cycles: 99670428 heartbeat IPC: 0.632 cumulative IPC: 0.4213 (Simulation time: 00 hr 14 min 09 sec)
Heartbeat CPU 0 instructions: 86500520 cycles: 100350057 heartbeat IPC: 0.7357 cumulative IPC: 0.4238 (Simulation time: 00 hr 14 min 15 sec)
Heartbeat CPU 0 instructions: 87000524 cycles: 100829295 heartbeat IPC: 1.043 cumulative IPC: 0.4272 (Simulation time: 00 hr 14 min 19 sec)
Heartbeat CPU 0 instructions: 87500526 cycles: 101145354 heartbeat IPC: 1.582 cumulative IPC: 0.4314 (Simulation time: 00 hr 14 min 22 sec)
Heartbeat CPU 0 instructions: 88000530 cycles: 101436171 heartbeat IPC: 1.719 cumulative IPC: 0.4357 (Simulation time: 00 hr 14 min 25 sec)
Heartbeat CPU 0 instructions: 88500530 cycles: 101800624 heartbeat IPC: 1.372 cumulative IPC: 0.4396 (Simulation time: 00 hr 14 min 28 sec)
Heartbeat CPU 0 instructions: 89000532 cycles: 102471944 heartbeat IPC: 0.7448 cumulative IPC: 0.4419 (Simulation time: 00 hr 14 min 33 sec)
Heartbeat CPU 0 instructions: 89500535 cycles: 104783544 heartbeat IPC: 0.2163 cumulative IPC: 0.4362 (Simulation time: 00 hr 14 min 48 sec)
Heartbeat CPU 0 instructions: 90000537 cycles: 105638001 heartbeat IPC: 0.5852 cumulative IPC: 0.4376 (Simulation time: 00 hr 14 min 54 sec)
Heartbeat CPU 0 instructions: 90500538 cycles: 105885564 heartbeat IPC: 2.02 cumulative IPC: 0.4418 (Simulation time: 00 hr 14 min 56 sec)
Heartbeat CPU 0 instructions: 91000538 cycles: 107126060 heartbeat IPC: 0.4031 cumulative IPC: 0.4413 (Simulation time: 00 hr 15 min 04 sec)
Heartbeat CPU 0 instructions: 91500543 cycles: 108562386 heartbeat IPC: 0.3481 cumulative IPC: 0.4399 (Simulation time: 00 hr 15 min 14 sec)
Heartbeat CPU 0 instructions: 92000547 cycles: 109720347 heartbeat IPC: 0.4318 cumulative IPC: 0.4398 (Simulation time: 00 hr 15 min 22 sec)
Heartbeat CPU 0 instructions: 92500552 cycles: 110350296 heartbeat IPC: 0.7937 cumulative IPC: 0.4421 (Simulation time: 00 hr 15 min 28 sec)
Heartbeat CPU 0 instructions: 93000552 cycles: 112883568 heartbeat IPC: 0.1974 cumulative IPC: 0.4358 (Simulation time: 00 hr 15 min 44 sec)
Heartbeat CPU 0 instructions: 93500552 cycles: 113700431 heartbeat IPC: 0.6121 cumulative IPC: 0.4373 (Simulation time: 00 hr 15 min 50 sec)
Heartbeat CPU 0 instructions: 94000556 cycles: 115198643 heartbeat IPC: 0.3337 cumulative IPC: 0.4357 (Simulation time: 00 hr 16 min 01 sec)
Heartbeat CPU 0 instructions: 94500560 cycles: 116206213 heartbeat IPC: 0.4962 cumulative IPC: 0.4363 (Simulation time: 00 hr 16 min 08 sec)
Heartbeat CPU 0 instructions: 95000560 cycles: 117281585 heartbeat IPC: 0.465 cumulative IPC: 0.4366 (Simulation time: 00 hr 16 min 16 sec)
Heartbeat CPU 0 instructions: 95500565 cycles: 118375218 heartbeat IPC: 0.4572 cumulative IPC: 0.4369 (Simulation time: 00 hr 16 min 24 sec)
Heartbeat CPU 0 instructions: 96000566 cycles: 119450564 heartbeat IPC: 0.465 cumulative IPC: 0.4371 (Simulation time: 00 hr 16 min 31 sec)
Heartbeat CPU 0 instructions: 96500567 cycles: 119828389 heartbeat IPC: 1.323 cumulative IPC: 0.4403 (Simulation time: 00 hr 16 min 35 sec)
Heartbeat CPU 0 instructions: 97000569 cycles: 120201001 heartbeat IPC: 1.342 cumulative IPC: 0.4435 (Simulation time: 00 hr 16 min 38 sec)
Heartbeat CPU 0 instructions: 97500569 cycles: 120576884 heartbeat IPC: 1.33 cumulative IPC: 0.4466 (Simulation time: 00 hr 16 min 41 sec)
Heartbeat CPU 0 instructions: 98000574 cycles: 120946539 heartbeat IPC: 1.353 cumulative IPC: 0.4498 (Simulation time: 00 hr 16 min 45 sec)
Heartbeat CPU 0 instructions: 98500580 cycles: 121313146 heartbeat IPC: 1.364 cumulative IPC: 0.4529 (Simulation time: 00 hr 16 min 48 sec)
Heartbeat CPU 0 instructions: 99000580 cycles: 121682559 heartbeat IPC: 1.353 cumulative IPC: 0.456 (Simulation time: 00 hr 16 min 51 sec)
Heartbeat CPU 0 instructions: 99500581 cycles: 122046743 heartbeat IPC: 1.373 cumulative IPC: 0.4591 (Simulation time: 00 hr 16 min 54 sec)
Heartbeat CPU 0 instructions: 100000581 cycles: 122412764 heartbeat IPC: 1.366 cumulative IPC: 0.4622 (Simulation time: 00 hr 16 min 58 sec)
Heartbeat CPU 0 instructions: 100500585 cycles: 122770164 heartbeat IPC: 1.399 cumulative IPC: 0.4652 (Simulation time: 00 hr 17 min 01 sec)
Heartbeat CPU 0 instructions: 101000586 cycles: 123136243 heartbeat IPC: 1.366 cumulative IPC: 0.4683 (Simulation time: 00 hr 17 min 04 sec)
Heartbeat CPU 0 instructions: 101500587 cycles: 123484686 heartbeat IPC: 1.435 cumulative IPC: 0.4713 (Simulation time: 00 hr 17 min 07 sec)
Heartbeat CPU 0 instructions: 102000589 cycles: 123837110 heartbeat IPC: 1.419 cumulative IPC: 0.4744 (Simulation time: 00 hr 17 min 10 sec)
Heartbeat CPU 0 instructions: 102500593 cycles: 124196569 heartbeat IPC: 1.391 cumulative IPC: 0.4774 (Simulation time: 00 hr 17 min 14 sec)
Heartbeat CPU 0 instructions: 103000593 cycles: 124555261 heartbeat IPC: 1.394 cumulative IPC: 0.4804 (Simulation time: 00 hr 17 min 17 sec)
Heartbeat CPU 0 instructions: 103500594 cycles: 125910167 heartbeat IPC: 0.369 cumulative IPC: 0.479 (Simulation time: 00 hr 17 min 26 sec)
Heartbeat CPU 0 instructions: 104000600 cycles: 127428597 heartbeat IPC: 0.3293 cumulative IPC: 0.477 (Simulation time: 00 hr 17 min 36 sec)
Heartbeat CPU 0 instructions: 104500600 cycles: 130111323 heartbeat IPC: 0.1864 cumulative IPC: 0.4703 (Simulation time: 00 hr 17 min 53 sec)
Heartbeat CPU 0 instructions: 105000600 cycles: 131279287 heartbeat IPC: 0.4281 cumulative IPC: 0.4699 (Simulation time: 00 hr 18 min 02 sec)
Heartbeat CPU 0 instructions: 105500600 cycles: 132168744 heartbeat IPC: 0.5621 cumulative IPC: 0.4706 (Simulation time: 00 hr 18 min 09 sec)
Heartbeat CPU 0 instructions: 106000605 cycles: 133843261 heartbeat IPC: 0.2986 cumulative IPC: 0.4681 (Simulation time: 00 hr 18 min 20 sec)
Heartbeat CPU 0 instructions: 106500610 cycles: 134909222 heartbeat IPC: 0.4691 cumulative IPC: 0.4682 (Simulation time: 00 hr 18 min 28 sec)
Heartbeat CPU 0 instructions: 107000617 cycles: 136261677 heartbeat IPC: 0.3697 cumulative IPC: 0.4671 (Simulation time: 00 hr 18 min 37 sec)
Heartbeat CPU 0 instructions: 107500622 cycles: 137760228 heartbeat IPC: 0.3337 cumulative IPC: 0.4654 (Simulation time: 00 hr 18 min 48 sec)
Heartbeat CPU 0 instructions: 108000625 cycles: 138596755 heartbeat IPC: 0.5977 cumulative IPC: 0.4663 (Simulation time: 00 hr 18 min 54 sec)
Heartbeat CPU 0 instructions: 108500625 cycles: 139625479 heartbeat IPC: 0.486 cumulative IPC: 0.4665 (Simulation time: 00 hr 19 min 00 sec)
Heartbeat CPU 0 instructions: 109000629 cycles: 140789851 heartbeat IPC: 0.4294 cumulative IPC: 0.4662 (Simulation time: 00 hr 19 min 09 sec)
Heartbeat CPU 0 instructions: 109500630 cycles: 141619021 heartbeat IPC: 0.603 cumulative IPC: 0.467 (Simulation time: 00 hr 19 min 16 sec)
Heartbeat CPU 0 instructions: 110000630 cycles: 142225799 heartbeat IPC: 0.824 cumulative IPC: 0.4687 (Simulation time: 00 hr 19 min 23 sec)
Heartbeat CPU 0 instructions: 110500631 cycles: 143847006 heartbeat IPC: 0.3084 cumulative IPC: 0.4667 (Simulation time: 00 hr 19 min 34 sec)
Heartbeat CPU 0 instructions: 111000633 cycles: 145140475 heartbeat IPC: 0.3866 cumulative IPC: 0.4659 (Simulation time: 00 hr 19 min 43 sec)
Heartbeat CPU 0 instructions: 111500633 cycles: 146747243 heartbeat IPC: 0.3112 cumulative IPC: 0.4641 (Simulation time: 00 hr 19 min 54 sec)
Heartbeat CPU 0 instructions: 112000638 cycles: 148065070 heartbeat IPC: 0.3794 cumulative IPC: 0.4632 (Simulation time: 00 hr 20 min 03 sec)
Heartbeat CPU 0 instructions: 112500642 cycles: 148745814 heartbeat IPC: 0.7345 cumulative IPC: 0.4646 (Simulation time: 00 hr 20 min 09 sec)
Heartbeat CPU 0 instructions: 113000643 cycles: 150103632 heartbeat IPC: 0.3682 cumulative IPC: 0.4636 (Simulation time: 00 hr 20 min 19 sec)
Heartbeat CPU 0 instructions: 113500648 cycles: 151717720 heartbeat IPC: 0.3098 cumulative IPC: 0.4618 (Simulation time: 00 hr 20 min 30 sec)
Heartbeat CPU 0 instructions: 114000648 cycles: 153062046 heartbeat IPC: 0.3719 cumulative IPC: 0.461 (Simulation time: 00 hr 20 min 39 sec)
Heartbeat CPU 0 instructions: 114500654 cycles: 154878546 heartbeat IPC: 0.2753 cumulative IPC: 0.4586 (Simulation time: 00 hr 20 min 51 sec)
Heartbeat CPU 0 instructions: 115000654 cycles: 155850397 heartbeat IPC: 0.5145 cumulative IPC: 0.459 (Simulation time: 00 hr 20 min 58 sec)
Heartbeat CPU 0 instructions: 115500657 cycles: 157051395 heartbeat IPC: 0.4163 cumulative IPC: 0.4586 (Simulation time: 00 hr 21 min 07 sec)
Heartbeat CPU 0 instructions: 116000657 cycles: 158385604 heartbeat IPC: 0.3748 cumulative IPC: 0.4578 (Simulation time: 00 hr 21 min 16 sec)
Heartbeat CPU 0 instructions: 116500658 cycles: 159296021 heartbeat IPC: 0.5492 cumulative IPC: 0.4584 (Simulation time: 00 hr 21 min 22 sec)
Heartbeat CPU 0 instructions: 117000661 cycles: 160583716 heartbeat IPC: 0.3883 cumulative IPC: 0.4578 (Simulation time: 00 hr 21 min 31 sec)
Heartbeat CPU 0 instructions: 117500661 cycles: 161834978 heartbeat IPC: 0.3996 cumulative IPC: 0.4573 (Simulation time: 00 hr 21 min 40 sec)
Heartbeat CPU 0 instructions: 118000662 cycles: 162765145 heartbeat IPC: 0.5375 cumulative IPC: 0.4578 (Simulation time: 00 hr 21 min 46 sec)
Heartbeat CPU 0 instructions: 118500663 cycles: 163990812 heartbeat IPC: 0.4079 cumulative IPC: 0.4574 (Simulation time: 00 hr 21 min 55 sec)
Heartbeat CPU 0 instructions: 119000663 cycles: 164583610 heartbeat IPC: 0.8435 cumulative IPC: 0.4589 (Simulation time: 00 hr 22 min 00 sec)
Heartbeat CPU 0 instructions: 119500669 cycles: 165850576 heartbeat IPC: 0.3946 cumulative IPC: 0.4584 (Simulation time: 00 hr 22 min 09 sec)
Heartbeat CPU 0 instructions: 120000669 cycles: 167689958 heartbeat IPC: 0.2718 cumulative IPC: 0.4561 (Simulation time: 00 hr 22 min 20 sec)
Heartbeat CPU 0 instructions: 120500671 cycles: 169076583 heartbeat IPC: 0.3606 cumulative IPC: 0.4553 (Simulation time: 00 hr 22 min 29 sec)
Heartbeat CPU 0 instructions: 121000675 cycles: 172355935 heartbeat IPC: 0.1525 cumulative IPC: 0.449 (Simulation time: 00 hr 22 min 48 sec)
Heartbeat CPU 0 instructions: 121500675 cycles: 174500582 heartbeat IPC: 0.2331 cumulative IPC: 0.4461 (Simulation time: 00 hr 23 min 01 sec)
Heartbeat CPU 0 instructions: 122000676 cycles: 175064990 heartbeat IPC: 0.8859 cumulative IPC: 0.4476 (Simulation time: 00 hr 23 min 06 sec)
Heartbeat CPU 0 instructions: 122500678 cycles: 176060056 heartbeat IPC: 0.5025 cumulative IPC: 0.448 (Simulation time: 00 hr 23 min 13 sec)
Heartbeat CPU 0 instructions: 123000678 cycles: 177626273 heartbeat IPC: 0.3192 cumulative IPC: 0.4467 (Simulation time: 00 hr 23 min 23 sec)
Heartbeat CPU 0 instructions: 123500682 cycles: 180074280 heartbeat IPC: 0.2042 cumulative IPC: 0.4432 (Simulation time: 00 hr 23 min 38 sec)
Heartbeat CPU 0 instructions: 124000682 cycles: 181036025 heartbeat IPC: 0.5199 cumulative IPC: 0.4436 (Simulation time: 00 hr 23 min 45 sec)
Heartbeat CPU 0 instructions: 124500687 cycles: 182314940 heartbeat IPC: 0.391 cumulative IPC: 0.4432 (Simulation time: 00 hr 23 min 53 sec)
Heartbeat CPU 0 instructions: 125000688 cycles: 182806819 heartbeat IPC: 1.017 cumulative IPC: 0.4449 (Simulation time: 00 hr 23 min 57 sec)
Heartbeat CPU 0 instructions: 125500688 cycles: 183637855 heartbeat IPC: 0.6017 cumulative IPC: 0.4457 (Simulation time: 00 hr 24 min 03 sec)
Heartbeat CPU 0 instructions: 126000692 cycles: 184345492 heartbeat IPC: 0.7066 cumulative IPC: 0.4467 (Simulation time: 00 hr 24 min 08 sec)
Heartbeat CPU 0 instructions: 126500692 cycles: 185875670 heartbeat IPC: 0.3268 cumulative IPC: 0.4457 (Simulation time: 00 hr 24 min 18 sec)
Heartbeat CPU 0 instructions: 127000693 cycles: 187952949 heartbeat IPC: 0.2407 cumulative IPC: 0.4432 (Simulation time: 00 hr 24 min 31 sec)
Heartbeat CPU 0 instructions: 127500693 cycles: 189386303 heartbeat IPC: 0.3488 cumulative IPC: 0.4424 (Simulation time: 00 hr 24 min 41 sec)
Heartbeat CPU 0 instructions: 128000693 cycles: 190121102 heartbeat IPC: 0.6805 cumulative IPC: 0.4434 (Simulation time: 00 hr 24 min 46 sec)
Heartbeat CPU 0 instructions: 128500698 cycles: 190534779 heartbeat IPC: 1.209 cumulative IPC: 0.4452 (Simulation time: 00 hr 24 min 49 sec)
Heartbeat CPU 0 instructions: 129000704 cycles: 190786054 heartbeat IPC: 1.99 cumulative IPC: 0.4474 (Simulation time: 00 hr 24 min 52 sec)
Heartbeat CPU 0 instructions: 129500706 cycles: 191350533 heartbeat IPC: 0.8858 cumulative IPC: 0.4488 (Simulation time: 00 hr 24 min 56 sec)
Heartbeat CPU 0 instructions: 130000706 cycles: 192004670 heartbeat IPC: 0.7644 cumulative IPC: 0.45 (Simulation time: 00 hr 25 min 01 sec)
Heartbeat CPU 0 instructions: 130500708 cycles: 192754830 heartbeat IPC: 0.6665 cumulative IPC: 0.4509 (Simulation time: 00 hr 25 min 06 sec)
Heartbeat CPU 0 instructions: 131000710 cycles: 193311063 heartbeat IPC: 0.8989 cumulative IPC: 0.4523 (Simulation time: 00 hr 25 min 10 sec)
Heartbeat CPU 0 instructions: 131500714 cycles: 193889310 heartbeat IPC: 0.8647 cumulative IPC: 0.4536 (Simulation time: 00 hr 25 min 14 sec)
Heartbeat CPU 0 instructions: 132000715 cycles: 194324396 heartbeat IPC: 1.149 cumulative IPC: 0.4553 (Simulation time: 00 hr 25 min 18 sec)
Heartbeat CPU 0 instructions: 132500715 cycles: 194786144 heartbeat IPC: 1.083 cumulative IPC: 0.4569 (Simulation time: 00 hr 25 min 21 sec)
Heartbeat CPU 0 instructions: 133000715 cycles: 196583205 heartbeat IPC: 0.2782 cumulative IPC: 0.4551 (Simulation time: 00 hr 25 min 33 sec)
Heartbeat CPU 0 instructions: 133500715 cycles: 199144163 heartbeat IPC: 0.1952 cumulative IPC: 0.4515 (Simulation time: 00 hr 25 min 48 sec)
Heartbeat CPU 0 instructions: 134000716 cycles: 200267861 heartbeat IPC: 0.445 cumulative IPC: 0.4515 (Simulation time: 00 hr 25 min 56 sec)
Heartbeat CPU 0 instructions: 134500718 cycles: 202254654 heartbeat IPC: 0.2517 cumulative IPC: 0.4494 (Simulation time: 00 hr 26 min 08 sec)
Heartbeat CPU 0 instructions: 135000719 cycles: 203812645 heartbeat IPC: 0.3209 cumulative IPC: 0.4483 (Simulation time: 00 hr 26 min 18 sec)
Heartbeat CPU 0 instructions: 135500720 cycles: 204220335 heartbeat IPC: 1.226 cumulative IPC: 0.45 (Simulation time: 00 hr 26 min 21 sec)
Heartbeat CPU 0 instructions: 136000722 cycles: 204859771 heartbeat IPC: 0.7819 cumulative IPC: 0.4511 (Simulation time: 00 hr 26 min 26 sec)
Heartbeat CPU 0 instructions: 136500726 cycles: 205474120 heartbeat IPC: 0.8139 cumulative IPC: 0.4523 (Simulation time: 00 hr 26 min 30 sec)
Heartbeat CPU 0 instructions: 137000728 cycles: 206200374 heartbeat IPC: 0.6885 cumulative IPC: 0.4532 (Simulation time: 00 hr 26 min 35 sec)
Heartbeat CPU 0 instructions: 137500734 cycles: 206800429 heartbeat IPC: 0.8333 cumulative IPC: 0.4544 (Simulation time: 00 hr 26 min 40 sec)
Heartbeat CPU 0 instructions: 138000737 cycles: 207351096 heartbeat IPC: 0.908 cumulative IPC: 0.4557 (Simulation time: 00 hr 26 min 44 sec)
Heartbeat CPU 0 instructions: 138500737 cycles: 208075735 heartbeat IPC: 0.69 cumulative IPC: 0.4565 (Simulation time: 00 hr 26 min 49 sec)
Heartbeat CPU 0 instructions: 139000740 cycles: 210366919 heartbeat IPC: 0.2182 cumulative IPC: 0.4537 (Simulation time: 00 hr 27 min 03 sec)
Heartbeat CPU 0 instructions: 139500745 cycles: 212085214 heartbeat IPC: 0.291 cumulative IPC: 0.4523 (Simulation time: 00 hr 27 min 14 sec)
Heartbeat CPU 0 instructions: 140000749 cycles: 213485345 heartbeat IPC: 0.3571 cumulative IPC: 0.4517 (Simulation time: 00 hr 27 min 23 sec)
Heartbeat CPU 0 instructions: 140500754 cycles: 214891950 heartbeat IPC: 0.3555 cumulative IPC: 0.451 (Simulation time: 00 hr 27 min 32 sec)
Heartbeat CPU 0 instructions: 141000757 cycles: 216460186 heartbeat IPC: 0.3188 cumulative IPC: 0.45 (Simulation time: 00 hr 27 min 42 sec)
Heartbeat CPU 0 instructions: 141500760 cycles: 217693217 heartbeat IPC: 0.4055 cumulative IPC: 0.4497 (Simulation time: 00 hr 27 min 50 sec)
Heartbeat CPU 0 instructions: 142000767 cycles: 219644657 heartbeat IPC: 0.2562 cumulative IPC: 0.4479 (Simulation time: 00 hr 28 min 02 sec)
Heartbeat CPU 0 instructions: 142500770 cycles: 220984572 heartbeat IPC: 0.3732 cumulative IPC: 0.4474 (Simulation time: 00 hr 28 min 11 sec)
Heartbeat CPU 0 instructions: 143000771 cycles: 222585640 heartbeat IPC: 0.3123 cumulative IPC: 0.4463 (Simulation time: 00 hr 28 min 21 sec)
Heartbeat CPU 0 instructions: 143500771 cycles: 223624286 heartbeat IPC: 0.4814 cumulative IPC: 0.4465 (Simulation time: 00 hr 28 min 28 sec)
Heartbeat CPU 0 instructions: 144000776 cycles: 224155582 heartbeat IPC: 0.9411 cumulative IPC: 0.4478 (Simulation time: 00 hr 28 min 33 sec)
Heartbeat CPU 0 instructions: 144500779 cycles: 225593414 heartbeat IPC: 0.3477 cumulative IPC: 0.4471 (Simulation time: 00 hr 28 min 43 sec)
Heartbeat CPU 0 instructions: 145000780 cycles: 227215365 heartbeat IPC: 0.3083 cumulative IPC: 0.446 (Simulation time: 00 hr 28 min 53 sec)
Heartbeat CPU 0 instructions: 145500787 cycles: 228547871 heartbeat IPC: 0.3752 cumulative IPC: 0.4456 (Simulation time: 00 hr 29 min 01 sec)
Heartbeat CPU 0 instructions: 146000787 cycles: 229639581 heartbeat IPC: 0.458 cumulative IPC: 0.4456 (Simulation time: 00 hr 29 min 08 sec)
Heartbeat CPU 0 instructions: 146500793 cycles: 230639438 heartbeat IPC: 0.5001 cumulative IPC: 0.4459 (Simulation time: 00 hr 29 min 15 sec)
Heartbeat CPU 0 instructions: 147000793 cycles: 231840364 heartbeat IPC: 0.4163 cumulative IPC: 0.4457 (Simulation time: 00 hr 29 min 23 sec)
Heartbeat CPU 0 instructions: 147500799 cycles: 233034521 heartbeat IPC: 0.4187 cumulative IPC: 0.4456 (Simulation time: 00 hr 29 min 31 sec)
Heartbeat CPU 0 instructions: 148000801 cycles: 234673582 heartbeat IPC: 0.3051 cumulative IPC: 0.4445 (Simulation time: 00 hr 29 min 40 sec)
Heartbeat CPU 0 instructions: 148500807 cycles: 236559019 heartbeat IPC: 0.2652 cumulative IPC: 0.443 (Simulation time: 00 hr 29 min 52 sec)
Heartbeat CPU 0 instructions: 149000809 cycles: 237018903 heartbeat IPC: 1.087 cumulative IPC: 0.4444 (Simulation time: 00 hr 29 min 56 sec)
Heartbeat CPU 0 instructions: 149500816 cycles: 237914562 heartbeat IPC: 0.5583 cumulative IPC: 0.4448 (Simulation time: 00 hr 30 min 02 sec)
Heartbeat CPU 0 instructions: 150000817 cycles: 239706994 heartbeat IPC: 0.279 cumulative IPC: 0.4435 (Simulation time: 00 hr 30 min 13 sec)
Heartbeat CPU 0 instructions: 150500818 cycles: 240355501 heartbeat IPC: 0.771 cumulative IPC: 0.4444 (Simulation time: 00 hr 30 min 17 sec)
Heartbeat CPU 0 instructions: 151000818 cycles: 241343707 heartbeat IPC: 0.506 cumulative IPC: 0.4447 (Simulation time: 00 hr 30 min 24 sec)
Heartbeat CPU 0 instructions: 151500820 cycles: 243314579 heartbeat IPC: 0.2537 cumulative IPC: 0.4431 (Simulation time: 00 hr 30 min 36 sec)
Heartbeat CPU 0 instructions: 152000821 cycles: 244471586 heartbeat IPC: 0.4322 cumulative IPC: 0.443 (Simulation time: 00 hr 30 min 43 sec)
Heartbeat CPU 0 instructions: 152500821 cycles: 246218687 heartbeat IPC: 0.2862 cumulative IPC: 0.4418 (Simulation time: 00 hr 30 min 53 sec)
Heartbeat CPU 0 instructions: 153000822 cycles: 247749014 heartbeat IPC: 0.3267 cumulative IPC: 0.4411 (Simulation time: 00 hr 31 min 02 sec)
Heartbeat CPU 0 instructions: 153500827 cycles: 249457767 heartbeat IPC: 0.2926 cumulative IPC: 0.44 (Simulation time: 00 hr 31 min 12 sec)
Heartbeat CPU 0 instructions: 154000827 cycles: 250521056 heartbeat IPC: 0.4702 cumulative IPC: 0.4401 (Simulation time: 00 hr 31 min 19 sec)
Heartbeat CPU 0 instructions: 154500827 cycles: 252593687 heartbeat IPC: 0.2412 cumulative IPC: 0.4384 (Simulation time: 00 hr 31 min 30 sec)
Heartbeat CPU 0 instructions: 155000830 cycles: 253767798 heartbeat IPC: 0.4259 cumulative IPC: 0.4383 (Simulation time: 00 hr 31 min 38 sec)
Heartbeat CPU 0 instructions: 155500830 cycles: 255506876 heartbeat IPC: 0.2875 cumulative IPC: 0.4372 (Simulation time: 00 hr 31 min 48 sec)
Heartbeat CPU 0 instructions: 156000830 cycles: 256478493 heartbeat IPC: 0.5146 cumulative IPC: 0.4376 (Simulation time: 00 hr 31 min 54 sec)
Heartbeat CPU 0 instructions: 156500831 cycles: 257785316 heartbeat IPC: 0.3826 cumulative IPC: 0.4373 (Simulation time: 00 hr 32 min 02 sec)
Heartbeat CPU 0 instructions: 157000831 cycles: 259282981 heartbeat IPC: 0.3339 cumulative IPC: 0.4366 (Simulation time: 00 hr 32 min 11 sec)
Heartbeat CPU 0 instructions: 157500834 cycles: 260722485 heartbeat IPC: 0.3473 cumulative IPC: 0.4361 (Simulation time: 00 hr 32 min 19 sec)
Heartbeat CPU 0 instructions: 158000836 cycles: 262802577 heartbeat IPC: 0.2404 cumulative IPC: 0.4345 (Simulation time: 00 hr 32 min 30 sec)
Heartbeat CPU 0 instructions: 158500842 cycles: 264870765 heartbeat IPC: 0.2418 cumulative IPC: 0.4329 (Simulation time: 00 hr 32 min 42 sec)
Heartbeat CPU 0 instructions: 159000846 cycles: 265646004 heartbeat IPC: 0.645 cumulative IPC: 0.4335 (Simulation time: 00 hr 32 min 47 sec)
Heartbeat CPU 0 instructions: 159500848 cycles: 266785629 heartbeat IPC: 0.4387 cumulative IPC: 0.4336 (Simulation time: 00 hr 32 min 54 sec)
Heartbeat CPU 0 instructions: 160000848 cycles: 268433473 heartbeat IPC: 0.3034 cumulative IPC: 0.4327 (Simulation time: 00 hr 33 min 03 sec)
Heartbeat CPU 0 instructions: 160500850 cycles: 269517748 heartbeat IPC: 0.4611 cumulative IPC: 0.4328 (Simulation time: 00 hr 33 min 10 sec)
Heartbeat CPU 0 instructions: 161000850 cycles: 271315464 heartbeat IPC: 0.2781 cumulative IPC: 0.4318 (Simulation time: 00 hr 33 min 20 sec)
Heartbeat CPU 0 instructions: 161500852 cycles: 272660565 heartbeat IPC: 0.3717 cumulative IPC: 0.4314 (Simulation time: 00 hr 33 min 29 sec)
Heartbeat CPU 0 instructions: 162000853 cycles: 273320987 heartbeat IPC: 0.7571 cumulative IPC: 0.4323 (Simulation time: 00 hr 33 min 34 sec)
Heartbeat CPU 0 instructions: 162500853 cycles: 273794438 heartbeat IPC: 1.056 cumulative IPC: 0.4334 (Simulation time: 00 hr 33 min 39 sec)
Heartbeat CPU 0 instructions: 163000855 cycles: 274995382 heartbeat IPC: 0.4163 cumulative IPC: 0.4333 (Simulation time: 00 hr 33 min 46 sec)
Heartbeat CPU 0 instructions: 163500856 cycles: 276853428 heartbeat IPC: 0.2691 cumulative IPC: 0.4322 (Simulation time: 00 hr 33 min 57 sec)
Heartbeat CPU 0 instructions: 164000856 cycles: 279215075 heartbeat IPC: 0.2117 cumulative IPC: 0.4302 (Simulation time: 00 hr 34 min 10 sec)
Heartbeat CPU 0 instructions: 164500858 cycles: 280588046 heartbeat IPC: 0.3642 cumulative IPC: 0.4299 (Simulation time: 00 hr 34 min 18 sec)
Heartbeat CPU 0 instructions: 165000865 cycles: 281711655 heartbeat IPC: 0.445 cumulative IPC: 0.4299 (Simulation time: 00 hr 34 min 25 sec)
Heartbeat CPU 0 instructions: 165500870 cycles: 282743957 heartbeat IPC: 0.4844 cumulative IPC: 0.4301 (Simulation time: 00 hr 34 min 32 sec)
Heartbeat CPU 0 instructions: 166000876 cycles: 283705106 heartbeat IPC: 0.5202 cumulative IPC: 0.4305 (Simulation time: 00 hr 34 min 38 sec)
Heartbeat CPU 0 instructions: 166500883 cycles: 283951297 heartbeat IPC: 2.031 cumulative IPC: 0.4319 (Simulation time: 00 hr 34 min 40 sec)
Heartbeat CPU 0 instructions: 167000889 cycles: 284153601 heartbeat IPC: 2.472 cumulative IPC: 0.4334 (Simulation time: 00 hr 34 min 42 sec)
Heartbeat CPU 0 instructions: 167500891 cycles: 285505395 heartbeat IPC: 0.3699 cumulative IPC: 0.4331 (Simulation time: 00 hr 34 min 50 sec)
Heartbeat CPU 0 instructions: 168000894 cycles: 286699238 heartbeat IPC: 0.4188 cumulative IPC: 0.4331 (Simulation time: 00 hr 34 min 57 sec)
Heartbeat CPU 0 instructions: 168500894 cycles: 287638182 heartbeat IPC: 0.5325 cumulative IPC: 0.4334 (Simulation time: 00 hr 35 min 03 sec)
Heartbeat CPU 0 instructions: 169000897 cycles: 288994634 heartbeat IPC: 0.3686 cumulative IPC: 0.4331 (Simulation time: 00 hr 35 min 11 sec)
Heartbeat CPU 0 instructions: 169500897 cycles: 291834944 heartbeat IPC: 0.176 cumulative IPC: 0.4305 (Simulation time: 00 hr 35 min 30 sec)
Heartbeat CPU 0 instructions: 170000898 cycles: 293402749 heartbeat IPC: 0.3189 cumulative IPC: 0.4298 (Simulation time: 00 hr 35 min 39 sec)
Heartbeat CPU 0 instructions: 170500898 cycles: 295379568 heartbeat IPC: 0.2529 cumulative IPC: 0.4286 (Simulation time: 00 hr 35 min 50 sec)
Heartbeat CPU 0 instructions: 171000905 cycles: 297281781 heartbeat IPC: 0.2629 cumulative IPC: 0.4275 (Simulation time: 00 hr 36 min 01 sec)
Heartbeat CPU 0 instructions: 171500911 cycles: 299082424 heartbeat IPC: 0.2777 cumulative IPC: 0.4265 (Simulation time: 00 hr 36 min 11 sec)
Heartbeat CPU 0 instructions: 172000915 cycles: 300157828 heartbeat IPC: 0.4649 cumulative IPC: 0.4267 (Simulation time: 00 hr 36 min 18 sec)
Heartbeat CPU 0 instructions: 172500918 cycles: 301427290 heartbeat IPC: 0.3939 cumulative IPC: 0.4265 (Simulation time: 00 hr 36 min 25 sec)
Heartbeat CPU 0 instructions: 173000920 cycles: 302766191 heartbeat IPC: 0.3734 cumulative IPC: 0.4263 (Simulation time: 00 hr 36 min 33 sec)
Heartbeat CPU 0 instructions: 173500920 cycles: 303141139 heartbeat IPC: 1.334 cumulative IPC: 0.4275 (Simulation time: 00 hr 36 min 36 sec)
Heartbeat CPU 0 instructions: 174000921 cycles: 303314422 heartbeat IPC: 2.885 cumulative IPC: 0.4289 (Simulation time: 00 hr 36 min 39 sec)
Heartbeat CPU 0 instructions: 174500921 cycles: 303495288 heartbeat IPC: 2.764 cumulative IPC: 0.4304 (Simulation time: 00 hr 36 min 41 sec)
Heartbeat CPU 0 instructions: 175000922 cycles: 304121532 heartbeat IPC: 0.7984 cumulative IPC: 0.4312 (Simulation time: 00 hr 36 min 45 sec)
Heartbeat CPU 0 instructions: 175500925 cycles: 304516547 heartbeat IPC: 1.266 cumulative IPC: 0.4323 (Simulation time: 00 hr 36 min 48 sec)
Heartbeat CPU 0 instructions: 176000927 cycles: 304696328 heartbeat IPC: 2.781 cumulative IPC: 0.4338 (Simulation time: 00 hr 36 min 51 sec)
Heartbeat CPU 0 instructions: 176500931 cycles: 304878887 heartbeat IPC: 2.739 cumulative IPC: 0.4352 (Simulation time: 00 hr 36 min 53 sec)
Heartbeat CPU 0 instructions: 177000937 cycles: 305068828 heartbeat IPC: 2.632 cumulative IPC: 0.4367 (Simulation time: 00 hr 36 min 55 sec)
Heartbeat CPU 0 instructions: 177500938 cycles: 305258653 heartbeat IPC: 2.634 cumulative IPC: 0.4381 (Simulation time: 00 hr 36 min 57 sec)
Heartbeat CPU 0 instructions: 178000939 cycles: 305456575 heartbeat IPC: 2.526 cumulative IPC: 0.4395 (Simulation time: 00 hr 36 min 59 sec)
Heartbeat CPU 0 instructions: 178500941 cycles: 305656756 heartbeat IPC: 2.498 cumulative IPC: 0.4409 (Simulation time: 00 hr 37 min 01 sec)
Heartbeat CPU 0 instructions: 179000943 cycles: 305860596 heartbeat IPC: 2.453 cumulative IPC: 0.4423 (Simulation time: 00 hr 37 min 04 sec)
Heartbeat CPU 0 instructions: 179500943 cycles: 306061885 heartbeat IPC: 2.484 cumulative IPC: 0.4437 (Simulation time: 00 hr 37 min 06 sec)
Heartbeat CPU 0 instructions: 180000944 cycles: 306245926 heartbeat IPC: 2.717 cumulative IPC: 0.4452 (Simulation time: 00 hr 37 min 08 sec)
Heartbeat CPU 0 instructions: 180500946 cycles: 306460029 heartbeat IPC: 2.335 cumulative IPC: 0.4466 (Simulation time: 00 hr 37 min 10 sec)
Heartbeat CPU 0 instructions: 181000951 cycles: 306648651 heartbeat IPC: 2.651 cumulative IPC: 0.448 (Simulation time: 00 hr 37 min 12 sec)
Heartbeat CPU 0 instructions: 181500957 cycles: 306837775 heartbeat IPC: 2.644 cumulative IPC: 0.4494 (Simulation time: 00 hr 37 min 15 sec)
Heartbeat CPU 0 instructions: 182000957 cycles: 307064079 heartbeat IPC: 2.209 cumulative IPC: 0.4508 (Simulation time: 00 hr 37 min 17 sec)
Heartbeat CPU 0 instructions: 182500959 cycles: 308203511 heartbeat IPC: 0.4388 cumulative IPC: 0.4507 (Simulation time: 00 hr 37 min 25 sec)
Heartbeat CPU 0 instructions: 183000959 cycles: 309683815 heartbeat IPC: 0.3378 cumulative IPC: 0.4501 (Simulation time: 00 hr 37 min 34 sec)
Heartbeat CPU 0 instructions: 183500959 cycles: 310185385 heartbeat IPC: 0.9969 cumulative IPC: 0.4511 (Simulation time: 00 hr 37 min 37 sec)
Heartbeat CPU 0 instructions: 184000961 cycles: 310352624 heartbeat IPC: 2.99 cumulative IPC: 0.4525 (Simulation time: 00 hr 37 min 39 sec)
Heartbeat CPU 0 instructions: 184500961 cycles: 310545813 heartbeat IPC: 2.588 cumulative IPC: 0.4539 (Simulation time: 00 hr 37 min 41 sec)
Heartbeat CPU 0 instructions: 185000963 cycles: 310718919 heartbeat IPC: 2.888 cumulative IPC: 0.4553 (Simulation time: 00 hr 37 min 44 sec)
Heartbeat CPU 0 instructions: 185500965 cycles: 310904095 heartbeat IPC: 2.7 cumulative IPC: 0.4567 (Simulation time: 00 hr 37 min 46 sec)
Heartbeat CPU 0 instructions: 186000965 cycles: 311093678 heartbeat IPC: 2.637 cumulative IPC: 0.4581 (Simulation time: 00 hr 37 min 48 sec)
Heartbeat CPU 0 instructions: 186500966 cycles: 311270255 heartbeat IPC: 2.832 cumulative IPC: 0.4595 (Simulation time: 00 hr 37 min 50 sec)
Heartbeat CPU 0 instructions: 187000969 cycles: 311467128 heartbeat IPC: 2.54 cumulative IPC: 0.4609 (Simulation time: 00 hr 37 min 52 sec)
Heartbeat CPU 0 instructions: 187500969 cycles: 311656028 heartbeat IPC: 2.647 cumulative IPC: 0.4623 (Simulation time: 00 hr 37 min 54 sec)
Heartbeat CPU 0 instructions: 188000970 cycles: 311843919 heartbeat IPC: 2.661 cumulative IPC: 0.4637 (Simulation time: 00 hr 37 min 56 sec)
Heartbeat CPU 0 instructions: 188500974 cycles: 312047678 heartbeat IPC: 2.454 cumulative IPC: 0.465 (Simulation time: 00 hr 37 min 58 sec)
Heartbeat CPU 0 instructions: 189000974 cycles: 312256726 heartbeat IPC: 2.392 cumulative IPC: 0.4664 (Simulation time: 00 hr 38 min 01 sec)
Heartbeat CPU 0 instructions: 189500979 cycles: 312444027 heartbeat IPC: 2.67 cumulative IPC: 0.4678 (Simulation time: 00 hr 38 min 03 sec)
Heartbeat CPU 0 instructions: 190000980 cycles: 312628303 heartbeat IPC: 2.713 cumulative IPC: 0.4692 (Simulation time: 00 hr 38 min 05 sec)
Heartbeat CPU 0 instructions: 190500982 cycles: 312835597 heartbeat IPC: 2.412 cumulative IPC: 0.4705 (Simulation time: 00 hr 38 min 07 sec)
Heartbeat CPU 0 instructions: 191000982 cycles: 313049869 heartbeat IPC: 2.333 cumulative IPC: 0.4718 (Simulation time: 00 hr 38 min 09 sec)
Heartbeat CPU 0 instructions: 191500983 cycles: 313268976 heartbeat IPC: 2.282 cumulative IPC: 0.4732 (Simulation time: 00 hr 38 min 12 sec)
Heartbeat CPU 0 instructions: 192000987 cycles: 313475473 heartbeat IPC: 2.421 cumulative IPC: 0.4745 (Simulation time: 00 hr 38 min 14 sec)
Heartbeat CPU 0 instructions: 192500990 cycles: 313697457 heartbeat IPC: 2.252 cumulative IPC: 0.4758 (Simulation time: 00 hr 38 min 16 sec)
Heartbeat CPU 0 instructions: 193000996 cycles: 313899877 heartbeat IPC: 2.47 cumulative IPC: 0.4772 (Simulation time: 00 hr 38 min 18 sec)
Heartbeat CPU 0 instructions: 193500999 cycles: 314124846 heartbeat IPC: 2.223 cumulative IPC: 0.4785 (Simulation time: 00 hr 38 min 21 sec)
Heartbeat CPU 0 instructions: 194001002 cycles: 314346774 heartbeat IPC: 2.253 cumulative IPC: 0.4798 (Simulation time: 00 hr 38 min 23 sec)
Heartbeat CPU 0 instructions: 194501008 cycles: 314937038 heartbeat IPC: 0.8471 cumulative IPC: 0.4805 (Simulation time: 00 hr 38 min 28 sec)
Heartbeat CPU 0 instructions: 195001009 cycles: 316648198 heartbeat IPC: 0.2922 cumulative IPC: 0.4795 (Simulation time: 00 hr 38 min 38 sec)
Heartbeat CPU 0 instructions: 195501010 cycles: 317983386 heartbeat IPC: 0.3745 cumulative IPC: 0.479 (Simulation time: 00 hr 38 min 46 sec)
Heartbeat CPU 0 instructions: 196001011 cycles: 319025229 heartbeat IPC: 0.4799 cumulative IPC: 0.479 (Simulation time: 00 hr 38 min 53 sec)
Heartbeat CPU 0 instructions: 196501013 cycles: 320225484 heartbeat IPC: 0.4166 cumulative IPC: 0.4788 (Simulation time: 00 hr 39 min 00 sec)
Heartbeat CPU 0 instructions: 197001019 cycles: 321264891 heartbeat IPC: 0.481 cumulative IPC: 0.4788 (Simulation time: 00 hr 39 min 07 sec)
Heartbeat CPU 0 instructions: 197501022 cycles: 323257103 heartbeat IPC: 0.251 cumulative IPC: 0.4773 (Simulation time: 00 hr 39 min 18 sec)
Heartbeat CPU 0 instructions: 198001022 cycles: 324106349 heartbeat IPC: 0.5888 cumulative IPC: 0.4776 (Simulation time: 00 hr 39 min 24 sec)
Heartbeat CPU 0 instructions: 198501022 cycles: 325598914 heartbeat IPC: 0.335 cumulative IPC: 0.4769 (Simulation time: 00 hr 39 min 33 sec)
Heartbeat CPU 0 instructions: 199001023 cycles: 326413530 heartbeat IPC: 0.6138 cumulative IPC: 0.4773 (Simulation time: 00 hr 39 min 38 sec)
Heartbeat CPU 0 instructions: 199501024 cycles: 327362878 heartbeat IPC: 0.5267 cumulative IPC: 0.4774 (Simulation time: 00 hr 39 min 44 sec)
Heartbeat CPU 0 instructions: 200001024 cycles: 329327459 heartbeat IPC: 0.2545 cumulative IPC: 0.476 (Simulation time: 00 hr 39 min 55 sec)
Heartbeat CPU 0 instructions: 200501027 cycles: 330216300 heartbeat IPC: 0.5625 cumulative IPC: 0.4763 (Simulation time: 00 hr 40 min 01 sec)
Heartbeat CPU 0 instructions: 201001027 cycles: 332795347 heartbeat IPC: 0.1939 cumulative IPC: 0.474 (Simulation time: 00 hr 40 min 16 sec)
Heartbeat CPU 0 instructions: 201501027 cycles: 335110279 heartbeat IPC: 0.216 cumulative IPC: 0.4721 (Simulation time: 00 hr 40 min 28 sec)
Heartbeat CPU 0 instructions: 202001030 cycles: 336268739 heartbeat IPC: 0.4316 cumulative IPC: 0.472 (Simulation time: 00 hr 40 min 35 sec)
Heartbeat CPU 0 instructions: 202501033 cycles: 337873527 heartbeat IPC: 0.3116 cumulative IPC: 0.4712 (Simulation time: 00 hr 40 min 45 sec)
Heartbeat CPU 0 instructions: 203001034 cycles: 338735810 heartbeat IPC: 0.5799 cumulative IPC: 0.4715 (Simulation time: 00 hr 40 min 50 sec)
Heartbeat CPU 0 instructions: 203501039 cycles: 340400717 heartbeat IPC: 0.3003 cumulative IPC: 0.4706 (Simulation time: 00 hr 41 min 00 sec)
Heartbeat CPU 0 instructions: 204001039 cycles: 342417530 heartbeat IPC: 0.2479 cumulative IPC: 0.4692 (Simulation time: 00 hr 41 min 11 sec)
Heartbeat CPU 0 instructions: 204501040 cycles: 343451295 heartbeat IPC: 0.4837 cumulative IPC: 0.4693 (Simulation time: 00 hr 41 min 19 sec)
Heartbeat CPU 0 instructions: 205001041 cycles: 344063461 heartbeat IPC: 0.8168 cumulative IPC: 0.4699 (Simulation time: 00 hr 41 min 24 sec)
Heartbeat CPU 0 instructions: 205501045 cycles: 344703151 heartbeat IPC: 0.7816 cumulative IPC: 0.4705 (Simulation time: 00 hr 41 min 29 sec)
Heartbeat CPU 0 instructions: 206001046 cycles: 346834164 heartbeat IPC: 0.2346 cumulative IPC: 0.469 (Simulation time: 00 hr 41 min 41 sec)
Heartbeat CPU 0 instructions: 206501048 cycles: 347879573 heartbeat IPC: 0.4783 cumulative IPC: 0.469 (Simulation time: 00 hr 41 min 48 sec)
Heartbeat CPU 0 instructions: 207001048 cycles: 348900976 heartbeat IPC: 0.4895 cumulative IPC: 0.4691 (Simulation time: 00 hr 41 min 54 sec)
Heartbeat CPU 0 instructions: 207501048 cycles: 349291820 heartbeat IPC: 1.279 cumulative IPC: 0.4701 (Simulation time: 00 hr 41 min 57 sec)
Heartbeat CPU 0 instructions: 208001051 cycles: 349746641 heartbeat IPC: 1.099 cumulative IPC: 0.4709 (Simulation time: 00 hr 42 min 00 sec)
Heartbeat CPU 0 instructions: 208501053 cycles: 350173587 heartbeat IPC: 1.171 cumulative IPC: 0.4718 (Simulation time: 00 hr 42 min 03 sec)
Heartbeat CPU 0 instructions: 209001055 cycles: 351557761 heartbeat IPC: 0.3612 cumulative IPC: 0.4713 (Simulation time: 00 hr 42 min 12 sec)
Heartbeat CPU 0 instructions: 209501055 cycles: 351944805 heartbeat IPC: 1.292 cumulative IPC: 0.4723 (Simulation time: 00 hr 42 min 14 sec)
Heartbeat CPU 0 instructions: 210001056 cycles: 352340478 heartbeat IPC: 1.264 cumulative IPC: 0.4732 (Simulation time: 00 hr 42 min 17 sec)
Heartbeat CPU 0 instructions: 210501057 cycles: 352747994 heartbeat IPC: 1.227 cumulative IPC: 0.4741 (Simulation time: 00 hr 42 min 20 sec)
Heartbeat CPU 0 instructions: 211001059 cycles: 353130674 heartbeat IPC: 1.307 cumulative IPC: 0.4751 (Simulation time: 00 hr 42 min 23 sec)
Heartbeat CPU 0 instructions: 211501060 cycles: 354555177 heartbeat IPC: 0.351 cumulative IPC: 0.4745 (Simulation time: 00 hr 42 min 31 sec)
Heartbeat CPU 0 instructions: 212001061 cycles: 354957152 heartbeat IPC: 1.244 cumulative IPC: 0.4754 (Simulation time: 00 hr 42 min 34 sec)
Heartbeat CPU 0 instructions: 212501064 cycles: 355331488 heartbeat IPC: 1.336 cumulative IPC: 0.4764 (Simulation time: 00 hr 42 min 37 sec)
Heartbeat CPU 0 instructions: 213001064 cycles: 355706773 heartbeat IPC: 1.332 cumulative IPC: 0.4773 (Simulation time: 00 hr 42 min 40 sec)
Heartbeat CPU 0 instructions: 213501071 cycles: 356090470 heartbeat IPC: 1.303 cumulative IPC: 0.4783 (Simulation time: 00 hr 42 min 42 sec)
Heartbeat CPU 0 instructions: 214001075 cycles: 356465185 heartbeat IPC: 1.334 cumulative IPC: 0.4792 (Simulation time: 00 hr 42 min 45 sec)
Heartbeat CPU 0 instructions: 214501075 cycles: 356840638 heartbeat IPC: 1.332 cumulative IPC: 0.4801 (Simulation time: 00 hr 42 min 48 sec)
Heartbeat CPU 0 instructions: 215001077 cycles: 357210286 heartbeat IPC: 1.353 cumulative IPC: 0.4811 (Simulation time: 00 hr 42 min 51 sec)
Heartbeat CPU 0 instructions: 215501078 cycles: 357582852 heartbeat IPC: 1.342 cumulative IPC: 0.482 (Simulation time: 00 hr 42 min 54 sec)
Heartbeat CPU 0 instructions: 216001081 cycles: 357950734 heartbeat IPC: 1.359 cumulative IPC: 0.4829 (Simulation time: 00 hr 42 min 56 sec)
Heartbeat CPU 0 instructions: 216501081 cycles: 358318986 heartbeat IPC: 1.358 cumulative IPC: 0.4839 (Simulation time: 00 hr 42 min 59 sec)
Heartbeat CPU 0 instructions: 217001082 cycles: 358684410 heartbeat IPC: 1.368 cumulative IPC: 0.4848 (Simulation time: 00 hr 43 min 02 sec)
Heartbeat CPU 0 instructions: 217501085 cycles: 359078128 heartbeat IPC: 1.27 cumulative IPC: 0.4857 (Simulation time: 00 hr 43 min 05 sec)
Heartbeat CPU 0 instructions: 218001085 cycles: 359451939 heartbeat IPC: 1.338 cumulative IPC: 0.4866 (Simulation time: 00 hr 43 min 07 sec)
Heartbeat CPU 0 instructions: 218501088 cycles: 359826128 heartbeat IPC: 1.336 cumulative IPC: 0.4876 (Simulation time: 00 hr 43 min 10 sec)
Heartbeat CPU 0 instructions: 219001089 cycles: 360198293 heartbeat IPC: 1.343 cumulative IPC: 0.4885 (Simulation time: 00 hr 43 min 13 sec)
Heartbeat CPU 0 instructions: 219501090 cycles: 360574041 heartbeat IPC: 1.331 cumulative IPC: 0.4894 (Simulation time: 00 hr 43 min 16 sec)
Heartbeat CPU 0 instructions: 220001090 cycles: 360941637 heartbeat IPC: 1.36 cumulative IPC: 0.4903 (Simulation time: 00 hr 43 min 18 sec)
Heartbeat CPU 0 instructions: 220501091 cycles: 361314432 heartbeat IPC: 1.341 cumulative IPC: 0.4912 (Simulation time: 00 hr 43 min 21 sec)
Heartbeat CPU 0 instructions: 221001092 cycles: 361675662 heartbeat IPC: 1.384 cumulative IPC: 0.4922 (Simulation time: 00 hr 43 min 24 sec)
Heartbeat CPU 0 instructions: 221501092 cycles: 362268506 heartbeat IPC: 0.8434 cumulative IPC: 0.4928 (Simulation time: 00 hr 43 min 28 sec)
Heartbeat CPU 0 instructions: 222001095 cycles: 363006030 heartbeat IPC: 0.6779 cumulative IPC: 0.4931 (Simulation time: 00 hr 43 min 32 sec)
Heartbeat CPU 0 instructions: 222501096 cycles: 363370745 heartbeat IPC: 1.371 cumulative IPC: 0.4941 (Simulation time: 00 hr 43 min 35 sec)
Heartbeat CPU 0 instructions: 223001097 cycles: 363749769 heartbeat IPC: 1.319 cumulative IPC: 0.495 (Simulation time: 00 hr 43 min 38 sec)
Heartbeat CPU 0 instructions: 223501097 cycles: 364122150 heartbeat IPC: 1.343 cumulative IPC: 0.4959 (Simulation time: 00 hr 43 min 41 sec)
Heartbeat CPU 0 instructions: 224001097 cycles: 364502795 heartbeat IPC: 1.314 cumulative IPC: 0.4967 (Simulation time: 00 hr 43 min 43 sec)
Heartbeat CPU 0 instructions: 224501101 cycles: 364875281 heartbeat IPC: 1.342 cumulative IPC: 0.4976 (Simulation time: 00 hr 43 min 46 sec)
Heartbeat CPU 0 instructions: 225001101 cycles: 365245003 heartbeat IPC: 1.352 cumulative IPC: 0.4985 (Simulation time: 00 hr 43 min 49 sec)
Heartbeat CPU 0 instructions: 225501102 cycles: 365620240 heartbeat IPC: 1.332 cumulative IPC: 0.4994 (Simulation time: 00 hr 43 min 52 sec)
Heartbeat CPU 0 instructions: 226001104 cycles: 365995914 heartbeat IPC: 1.331 cumulative IPC: 0.5003 (Simulation time: 00 hr 43 min 54 sec)
Heartbeat CPU 0 instructions: 226501107 cycles: 366369675 heartbeat IPC: 1.338 cumulative IPC: 0.5012 (Simulation time: 00 hr 43 min 57 sec)
Heartbeat CPU 0 instructions: 227001109 cycles: 366737451 heartbeat IPC: 1.36 cumulative IPC: 0.5021 (Simulation time: 00 hr 44 min 00 sec)
Heartbeat CPU 0 instructions: 227501110 cycles: 367110036 heartbeat IPC: 1.342 cumulative IPC: 0.503 (Simulation time: 00 hr 44 min 03 sec)
Heartbeat CPU 0 instructions: 228001112 cycles: 367486316 heartbeat IPC: 1.329 cumulative IPC: 0.5039 (Simulation time: 00 hr 44 min 05 sec)
Heartbeat CPU 0 instructions: 228501115 cycles: 367860214 heartbeat IPC: 1.337 cumulative IPC: 0.5048 (Simulation time: 00 hr 44 min 08 sec)
Heartbeat CPU 0 instructions: 229001115 cycles: 368235836 heartbeat IPC: 1.331 cumulative IPC: 0.5056 (Simulation time: 00 hr 44 min 11 sec)
Heartbeat CPU 0 instructions: 229501117 cycles: 368608803 heartbeat IPC: 1.341 cumulative IPC: 0.5065 (Simulation time: 00 hr 44 min 14 sec)
Heartbeat CPU 0 instructions: 230001118 cycles: 368985720 heartbeat IPC: 1.327 cumulative IPC: 0.5074 (Simulation time: 00 hr 44 min 16 sec)
Heartbeat CPU 0 instructions: 230501118 cycles: 369364049 heartbeat IPC: 1.322 cumulative IPC: 0.5083 (Simulation time: 00 hr 44 min 19 sec)
Heartbeat CPU 0 instructions: 231001118 cycles: 369737747 heartbeat IPC: 1.338 cumulative IPC: 0.5091 (Simulation time: 00 hr 44 min 22 sec)
Heartbeat CPU 0 instructions: 231501120 cycles: 370110251 heartbeat IPC: 1.342 cumulative IPC: 0.51 (Simulation time: 00 hr 44 min 25 sec)
Heartbeat CPU 0 instructions: 232001121 cycles: 370823846 heartbeat IPC: 0.7007 cumulative IPC: 0.5104 (Simulation time: 00 hr 44 min 29 sec)
Heartbeat CPU 0 instructions: 232501121 cycles: 371271304 heartbeat IPC: 1.117 cumulative IPC: 0.5111 (Simulation time: 00 hr 44 min 32 sec)
Heartbeat CPU 0 instructions: 233001121 cycles: 371667894 heartbeat IPC: 1.261 cumulative IPC: 0.512 (Simulation time: 00 hr 44 min 35 sec)
Heartbeat CPU 0 instructions: 233501127 cycles: 372034520 heartbeat IPC: 1.364 cumulative IPC: 0.5128 (Simulation time: 00 hr 44 min 38 sec)
Heartbeat CPU 0 instructions: 234001131 cycles: 372397861 heartbeat IPC: 1.376 cumulative IPC: 0.5137 (Simulation time: 00 hr 44 min 41 sec)
Heartbeat CPU 0 instructions: 234501134 cycles: 372765994 heartbeat IPC: 1.358 cumulative IPC: 0.5146 (Simulation time: 00 hr 44 min 44 sec)
Heartbeat CPU 0 instructions: 235001134 cycles: 373137551 heartbeat IPC: 1.346 cumulative IPC: 0.5154 (Simulation time: 00 hr 44 min 46 sec)
Heartbeat CPU 0 instructions: 235501136 cycles: 373503933 heartbeat IPC: 1.365 cumulative IPC: 0.5163 (Simulation time: 00 hr 44 min 49 sec)
Heartbeat CPU 0 instructions: 236001136 cycles: 373865095 heartbeat IPC: 1.384 cumulative IPC: 0.5172 (Simulation time: 00 hr 44 min 52 sec)
Heartbeat CPU 0 instructions: 236501142 cycles: 374240302 heartbeat IPC: 1.333 cumulative IPC: 0.518 (Simulation time: 00 hr 44 min 55 sec)
Heartbeat CPU 0 instructions: 237001142 cycles: 374613091 heartbeat IPC: 1.341 cumulative IPC: 0.5189 (Simulation time: 00 hr 44 min 57 sec)
Heartbeat CPU 0 instructions: 237501145 cycles: 374985758 heartbeat IPC: 1.342 cumulative IPC: 0.5197 (Simulation time: 00 hr 45 min 00 sec)
Heartbeat CPU 0 instructions: 238001145 cycles: 375357529 heartbeat IPC: 1.345 cumulative IPC: 0.5206 (Simulation time: 00 hr 45 min 03 sec)
Heartbeat CPU 0 instructions: 238501149 cycles: 375717135 heartbeat IPC: 1.39 cumulative IPC: 0.5214 (Simulation time: 00 hr 45 min 06 sec)
Heartbeat CPU 0 instructions: 239001153 cycles: 376077475 heartbeat IPC: 1.388 cumulative IPC: 0.5223 (Simulation time: 00 hr 45 min 08 sec)
Heartbeat CPU 0 instructions: 239501156 cycles: 376442869 heartbeat IPC: 1.368 cumulative IPC: 0.5232 (Simulation time: 00 hr 45 min 11 sec)
Heartbeat CPU 0 instructions: 240001159 cycles: 376807109 heartbeat IPC: 1.373 cumulative IPC: 0.524 (Simulation time: 00 hr 45 min 14 sec)
Heartbeat CPU 0 instructions: 240501160 cycles: 377169166 heartbeat IPC: 1.381 cumulative IPC: 0.5249 (Simulation time: 00 hr 45 min 16 sec)
Heartbeat CPU 0 instructions: 241001160 cycles: 377538833 heartbeat IPC: 1.353 cumulative IPC: 0.5257 (Simulation time: 00 hr 45 min 19 sec)
Heartbeat CPU 0 instructions: 241501164 cycles: 377908176 heartbeat IPC: 1.354 cumulative IPC: 0.5266 (Simulation time: 00 hr 45 min 22 sec)
Heartbeat CPU 0 instructions: 242001167 cycles: 378276652 heartbeat IPC: 1.357 cumulative IPC: 0.5274 (Simulation time: 00 hr 45 min 25 sec)
Heartbeat CPU 0 instructions: 242501167 cycles: 378648582 heartbeat IPC: 1.344 cumulative IPC: 0.5282 (Simulation time: 00 hr 45 min 27 sec)
Heartbeat CPU 0 instructions: 243001167 cycles: 379082597 heartbeat IPC: 1.152 cumulative IPC: 0.529 (Simulation time: 00 hr 45 min 31 sec)
Heartbeat CPU 0 instructions: 243501171 cycles: 379493850 heartbeat IPC: 1.216 cumulative IPC: 0.5297 (Simulation time: 00 hr 45 min 34 sec)
Heartbeat CPU 0 instructions: 244001171 cycles: 379866001 heartbeat IPC: 1.344 cumulative IPC: 0.5306 (Simulation time: 00 hr 45 min 36 sec)
Heartbeat CPU 0 instructions: 244501172 cycles: 380244985 heartbeat IPC: 1.319 cumulative IPC: 0.5314 (Simulation time: 00 hr 45 min 39 sec)
Heartbeat CPU 0 instructions: 245001173 cycles: 380643726 heartbeat IPC: 1.254 cumulative IPC: 0.5322 (Simulation time: 00 hr 45 min 42 sec)
Heartbeat CPU 0 instructions: 245501178 cycles: 381021937 heartbeat IPC: 1.322 cumulative IPC: 0.533 (Simulation time: 00 hr 45 min 45 sec)
Heartbeat CPU 0 instructions: 246001181 cycles: 381390140 heartbeat IPC: 1.358 cumulative IPC: 0.5338 (Simulation time: 00 hr 45 min 48 sec)
Heartbeat CPU 0 instructions: 246501182 cycles: 381753832 heartbeat IPC: 1.375 cumulative IPC: 0.5347 (Simulation time: 00 hr 45 min 50 sec)
Heartbeat CPU 0 instructions: 247001185 cycles: 382124668 heartbeat IPC: 1.348 cumulative IPC: 0.5355 (Simulation time: 00 hr 45 min 53 sec)
Heartbeat CPU 0 instructions: 247501189 cycles: 382494307 heartbeat IPC: 1.353 cumulative IPC: 0.5363 (Simulation time: 00 hr 45 min 56 sec)
Heartbeat CPU 0 instructions: 248001193 cycles: 382864320 heartbeat IPC: 1.351 cumulative IPC: 0.5371 (Simulation time: 00 hr 45 min 59 sec)
Heartbeat CPU 0 instructions: 248501193 cycles: 383229609 heartbeat IPC: 1.369 cumulative IPC: 0.5379 (Simulation time: 00 hr 46 min 01 sec)
Heartbeat CPU 0 instructions: 249001198 cycles: 383589604 heartbeat IPC: 1.389 cumulative IPC: 0.5388 (Simulation time: 00 hr 46 min 04 sec)
Heartbeat CPU 0 instructions: 249501198 cycles: 383959179 heartbeat IPC: 1.353 cumulative IPC: 0.5396 (Simulation time: 00 hr 46 min 07 sec)
Simulation finished CPU 0 instructions: 200000001 cycles: 370099955 cumulative IPC: 0.5404 (Simulation time: 00 hr 46 min 09 sec)
Simulation complete CPU 0 instructions: 200000001 cycles: 370099955 cumulative IPC: 0.5404 (Simulation time: 00 hr 46 min 09 sec)

ChampSim completed all CPUs

=== Simulation ===
CPU 0 runs /local-ssd/ben/dpc4-traces/gtraces_v2/tahoe_0000.champsim.gz

Region of Interest Statistics

CPU 0 cumulative IPC: 0.5404 instructions: 200000001 cycles: 370099955
CPU 0 Branch Prediction Accuracy: 91.57% MPKI: 17.21 Average ROB Occupancy at Mispredict: 28
Branch type MPKI
BRANCH_DIRECT_JUMP: 0.5547
BRANCH_INDIRECT: 0.2599
BRANCH_CONDITIONAL: 14.62
BRANCH_DIRECT_CALL: 0.6872
BRANCH_INDIRECT_CALL: 0.4285
BRANCH_RETURN: 0.6621

cpu0->cpu0_STLB TOTAL        ACCESS:    2207313 HIT:    1612680 MISS:     594633 MSHR_MERGE:          0
cpu0->cpu0_STLB LOAD         ACCESS:    2207313 HIT:    1612680 MISS:     594633 MSHR_MERGE:          0
cpu0->cpu0_STLB RFO          ACCESS:          0 HIT:          0 MISS:          0 MSHR_MERGE:          0
cpu0->cpu0_STLB PREFETCH     ACCESS:          0 HIT:          0 MISS:          0 MSHR_MERGE:          0
cpu0->cpu0_STLB WRITE        ACCESS:          0 HIT:          0 MISS:          0 MSHR_MERGE:          0
cpu0->cpu0_STLB TRANSLATION  ACCESS:          0 HIT:          0 MISS:          0 MSHR_MERGE:          0
cpu0->cpu0_STLB PREFETCH REQUESTED:          0 ISSUED:          0 USEFUL:          0 USELESS:          0
cpu0->cpu0_STLB AVERAGE MISS LATENCY: 120.2 cycles
cpu0->cpu0_L2C TOTAL        ACCESS:    6965680 HIT:    3914331 MISS:    3051349 MSHR_MERGE:          0
cpu0->cpu0_L2C LOAD         ACCESS:    3202527 HIT:    1710063 MISS:    1492464 MSHR_MERGE:          0
cpu0->cpu0_L2C RFO          ACCESS:     508056 HIT:     169456 MISS:     338600 MSHR_MERGE:          0
cpu0->cpu0_L2C PREFETCH     ACCESS:    1847499 HIT:     841329 MISS:    1006170 MSHR_MERGE:          0
cpu0->cpu0_L2C WRITE        ACCESS:     828915 HIT:     828898 MISS:         17 MSHR_MERGE:          0
cpu0->cpu0_L2C TRANSLATION  ACCESS:     578683 HIT:     364585 MISS:     214098 MSHR_MERGE:          0
cpu0->cpu0_L2C PREFETCH REQUESTED:          0 ISSUED:          0 USEFUL:          0 USELESS:          0
cpu0->cpu0_L2C AVERAGE MISS LATENCY: 203.7 cycles
cpu0->cpu0_L1I TOTAL        ACCESS:   12887738 HIT:   10853710 MISS:    2034028 MSHR_MERGE:     382210
cpu0->cpu0_L1I LOAD         ACCESS:   12887738 HIT:   10853710 MISS:    2034028 MSHR_MERGE:     382210
cpu0->cpu0_L1I RFO          ACCESS:          0 HIT:          0 MISS:          0 MSHR_MERGE:          0
cpu0->cpu0_L1I PREFETCH     ACCESS:          0 HIT:          0 MISS:          0 MSHR_MERGE:          0
cpu0->cpu0_L1I WRITE        ACCESS:          0 HIT:          0 MISS:          0 MSHR_MERGE:          0
cpu0->cpu0_L1I TRANSLATION  ACCESS:          0 HIT:          0 MISS:          0 MSHR_MERGE:          0
cpu0->cpu0_L1I PREFETCH REQUESTED:          0 ISSUED:          0 USEFUL:          0 USELESS:          0
cpu0->cpu0_L1I AVERAGE MISS LATENCY: 86.92 cycles
cpu0->cpu0_L1D TOTAL        ACCESS:   90281067 HIT:   82942066 MISS:    7339001 MSHR_MERGE:    2854004
cpu0->cpu0_L1D LOAD         ACCESS:   35416164 HIT:   33348663 MISS:    2067501 MSHR_MERGE:     516783
cpu0->cpu0_L1D RFO          ACCESS:          0 HIT:          0 MISS:          0 MSHR_MERGE:          0
cpu0->cpu0_L1D PREFETCH     ACCESS:   31370791 HIT:   28431513 MISS:    2939278 MSHR_MERGE:    1091777
cpu0->cpu0_L1D WRITE        ACCESS:   22022426 HIT:   20272830 MISS:    1749596 MSHR_MERGE:    1241501
cpu0->cpu0_L1D TRANSLATION  ACCESS:    1471686 HIT:     889060 MISS:     582626 MSHR_MERGE:       3943
cpu0->cpu0_L1D PREFETCH REQUESTED:   36131162 ISSUED:   31370783 USEFUL:     240383 USELESS:    1606966
cpu0->cpu0_L1D AVERAGE MISS LATENCY: 116.6 cycles
cpu0->cpu0_ITLB TOTAL        ACCESS:   10808124 HIT:   10495632 MISS:     312492 MSHR_MERGE:     135917
cpu0->cpu0_ITLB LOAD         ACCESS:   10808124 HIT:   10495632 MISS:     312492 MSHR_MERGE:     135917
cpu0->cpu0_ITLB RFO          ACCESS:          0 HIT:          0 MISS:          0 MSHR_MERGE:          0
cpu0->cpu0_ITLB PREFETCH     ACCESS:          0 HIT:          0 MISS:          0 MSHR_MERGE:          0
cpu0->cpu0_ITLB WRITE        ACCESS:          0 HIT:          0 MISS:          0 MSHR_MERGE:          0
cpu0->cpu0_ITLB TRANSLATION  ACCESS:          0 HIT:          0 MISS:          0 MSHR_MERGE:          0
cpu0->cpu0_ITLB PREFETCH REQUESTED:          0 ISSUED:          0 USEFUL:          0 USELESS:          0
cpu0->cpu0_ITLB AVERAGE MISS LATENCY: 36.87 cycles
cpu0->cpu0_DTLB TOTAL        ACCESS:   80657700 HIT:   77604058 MISS:    3053642 MSHR_MERGE:    1022904
cpu0->cpu0_DTLB LOAD         ACCESS:   80657700 HIT:   77604058 MISS:    3053642 MSHR_MERGE:    1022904
cpu0->cpu0_DTLB RFO          ACCESS:          0 HIT:          0 MISS:          0 MSHR_MERGE:          0
cpu0->cpu0_DTLB PREFETCH     ACCESS:          0 HIT:          0 MISS:          0 MSHR_MERGE:          0
cpu0->cpu0_DTLB WRITE        ACCESS:          0 HIT:          0 MISS:          0 MSHR_MERGE:          0
cpu0->cpu0_DTLB TRANSLATION  ACCESS:          0 HIT:          0 MISS:          0 MSHR_MERGE:          0
cpu0->cpu0_DTLB PREFETCH REQUESTED:          0 ISSUED:          0 USEFUL:          0 USELESS:          0
cpu0->cpu0_DTLB AVERAGE MISS LATENCY: 37.73 cycles
cpu0->LLC TOTAL        ACCESS:    3567049 HIT:     778819 MISS:    2788230 MSHR_MERGE:          0
cpu0->LLC LOAD         ACCESS:    1492464 HIT:     303227 MISS:    1189237 MSHR_MERGE:          0
cpu0->LLC RFO          ACCESS:     338600 HIT:      11086 MISS:     327514 MSHR_MERGE:          0
cpu0->LLC PREFETCH     ACCESS:    1006170 HIT:      75053 MISS:     931117 MSHR_MERGE:          0
cpu0->LLC WRITE        ACCESS:     515717 HIT:     350751 MISS:     164966 MSHR_MERGE:          0
cpu0->LLC TRANSLATION  ACCESS:     214098 HIT:      38702 MISS:     175396 MSHR_MERGE:          0
cpu0->LLC PREFETCH REQUESTED:          0 ISSUED:          0 USEFUL:          0 USELESS:          0
cpu0->LLC AVERAGE MISS LATENCY: 200.7 cycles

DRAM Statistics

Channel 0 RQ ROW_BUFFER_HIT:      67756
  ROW_BUFFER_MISS:    2555474
  AVG DBUS CONGESTED CYCLE: 26.35
Channel 0 WQ ROW_BUFFER_HIT:     134760
  ROW_BUFFER_MISS:     351277
  FULL:          0
Channel 0 REFRESHES ISSUED:      30839
