[VMEM] WARNING: physical memory size is smaller than virtual memory size.

*** ChampSim Multicore Out-of-Order Simulator ***
Warmup Instructions: 50000000
Simulation Instructions: 200000000
Number of CPUs: 1
Page size: 4096
Core 0: /local-ssd/ben/dpc4-traces/gtraces_v2/arizona_0002.champsim.gz
Off-chip DRAM Size: 64 GiB Channels: 1 Width: 64-bit Data Rate: 4807 MT/s
[BTB] WARNING: target of return is a lower address than the corresponding call. This is usually a problem with your trace.
[BTB] WARNING: target of return is a lower address than the corresponding call. This is usually a problem with your trace.
[BTB] WARNING: target of return is a lower address than the corresponding call. This is usually a problem with your trace.
[BTB] WARNING: target of return is a lower address than the corresponding call. This is usually a problem with your trace.
[BTB] WARNING: target of return is a lower address than the corresponding call. This is usually a problem with your trace.
[BTB] WARNING: target of return is a lower address than the corresponding call. This is usually a problem with your trace.
[BTB] WARNING: target of return is a lower address than the corresponding call. This is usually a problem with your trace.
[BTB] WARNING: target of return is a lower address than the corresponding call. This is usually a problem with your trace.
[BTB] WARNING: target of return is a lower address than the corresponding call. This is usually a problem with your trace.
[BTB] WARNING: target of return is a lower address than the corresponding call. This is usually a problem with your trace.
Heartbeat CPU 0 instructions: 500005 cycles: 283537 heartbeat IPC: 1.763 cumulative IPC: 1.763 (Simulation time: 00 hr 00 min 04 sec)
Heartbeat CPU 0 instructions: 1000006 cycles: 540789 heartbeat IPC: 1.944 cumulative IPC: 1.849 (Simulation time: 00 hr 00 min 07 sec)
Heartbeat CPU 0 instructions: 1500007 cycles: 730705 heartbeat IPC: 2.633 cumulative IPC: 2.053 (Simulation time: 00 hr 00 min 10 sec)
Heartbeat CPU 0 instructions: 2000014 cycles: 949165 heartbeat IPC: 2.289 cumulative IPC: 2.107 (Simulation time: 00 hr 00 min 13 sec)
Heartbeat CPU 0 instructions: 2500016 cycles: 1121939 heartbeat IPC: 2.894 cumulative IPC: 2.228 (Simulation time: 00 hr 00 min 15 sec)
Heartbeat CPU 0 instructions: 3000021 cycles: 1305542 heartbeat IPC: 2.723 cumulative IPC: 2.298 (Simulation time: 00 hr 00 min 18 sec)
Heartbeat CPU 0 instructions: 3500022 cycles: 1455859 heartbeat IPC: 3.326 cumulative IPC: 2.404 (Simulation time: 00 hr 00 min 20 sec)
Heartbeat CPU 0 instructions: 4000026 cycles: 1593129 heartbeat IPC: 3.642 cumulative IPC: 2.511 (Simulation time: 00 hr 00 min 22 sec)
Heartbeat CPU 0 instructions: 4500033 cycles: 1754406 heartbeat IPC: 3.1 cumulative IPC: 2.565 (Simulation time: 00 hr 00 min 25 sec)
Heartbeat CPU 0 instructions: 5000034 cycles: 1908419 heartbeat IPC: 3.246 cumulative IPC: 2.62 (Simulation time: 00 hr 00 min 27 sec)
Heartbeat CPU 0 instructions: 5500040 cycles: 2098240 heartbeat IPC: 2.634 cumulative IPC: 2.621 (Simulation time: 00 hr 00 min 31 sec)
Heartbeat CPU 0 instructions: 6000041 cycles: 2268171 heartbeat IPC: 2.942 cumulative IPC: 2.645 (Simulation time: 00 hr 00 min 33 sec)
Heartbeat CPU 0 instructions: 6500048 cycles: 2421029 heartbeat IPC: 3.271 cumulative IPC: 2.685 (Simulation time: 00 hr 00 min 36 sec)
Heartbeat CPU 0 instructions: 7000050 cycles: 2569668 heartbeat IPC: 3.364 cumulative IPC: 2.724 (Simulation time: 00 hr 00 min 39 sec)
Heartbeat CPU 0 instructions: 7500053 cycles: 2715286 heartbeat IPC: 3.434 cumulative IPC: 2.762 (Simulation time: 00 hr 00 min 41 sec)
Heartbeat CPU 0 instructions: 8000054 cycles: 2872446 heartbeat IPC: 3.181 cumulative IPC: 2.785 (Simulation time: 00 hr 00 min 44 sec)
Heartbeat CPU 0 instructions: 8500057 cycles: 3042548 heartbeat IPC: 2.939 cumulative IPC: 2.794 (Simulation time: 00 hr 00 min 47 sec)
Heartbeat CPU 0 instructions: 9000060 cycles: 3159960 heartbeat IPC: 4.259 cumulative IPC: 2.848 (Simulation time: 00 hr 00 min 48 sec)
Heartbeat CPU 0 instructions: 9500063 cycles: 3260910 heartbeat IPC: 4.953 cumulative IPC: 2.913 (Simulation time: 00 hr 00 min 50 sec)
Heartbeat CPU 0 instructions: 10000063 cycles: 3362881 heartbeat IPC: 4.903 cumulative IPC: 2.974 (Simulation time: 00 hr 00 min 51 sec)
Heartbeat CPU 0 instructions: 10500066 cycles: 3464818 heartbeat IPC: 4.905 cumulative IPC: 3.03 (Simulation time: 00 hr 00 min 52 sec)
Heartbeat CPU 0 instructions: 11000069 cycles: 3566067 heartbeat IPC: 4.938 cumulative IPC: 3.085 (Simulation time: 00 hr 00 min 53 sec)
Heartbeat CPU 0 instructions: 11500076 cycles: 3666068 heartbeat IPC: 5 cumulative IPC: 3.137 (Simulation time: 00 hr 00 min 55 sec)
Heartbeat CPU 0 instructions: 12000078 cycles: 3767683 heartbeat IPC: 4.921 cumulative IPC: 3.185 (Simulation time: 00 hr 00 min 56 sec)
Heartbeat CPU 0 instructions: 12500084 cycles: 3869069 heartbeat IPC: 4.932 cumulative IPC: 3.231 (Simulation time: 00 hr 00 min 57 sec)
Heartbeat CPU 0 instructions: 13000087 cycles: 3969383 heartbeat IPC: 4.984 cumulative IPC: 3.275 (Simulation time: 00 hr 00 min 59 sec)
Heartbeat CPU 0 instructions: 13500093 cycles: 4070284 heartbeat IPC: 4.955 cumulative IPC: 3.317 (Simulation time: 00 hr 01 min 00 sec)
Heartbeat CPU 0 instructions: 14000099 cycles: 4171072 heartbeat IPC: 4.961 cumulative IPC: 3.356 (Simulation time: 00 hr 01 min 01 sec)
Heartbeat CPU 0 instructions: 14500106 cycles: 4272070 heartbeat IPC: 4.951 cumulative IPC: 3.394 (Simulation time: 00 hr 01 min 03 sec)
Heartbeat CPU 0 instructions: 15000111 cycles: 4372108 heartbeat IPC: 4.998 cumulative IPC: 3.431 (Simulation time: 00 hr 01 min 04 sec)
Heartbeat CPU 0 instructions: 15500111 cycles: 4473123 heartbeat IPC: 4.95 cumulative IPC: 3.465 (Simulation time: 00 hr 01 min 05 sec)
Heartbeat CPU 0 instructions: 16000112 cycles: 4573313 heartbeat IPC: 4.991 cumulative IPC: 3.499 (Simulation time: 00 hr 01 min 06 sec)
Heartbeat CPU 0 instructions: 16500118 cycles: 4674412 heartbeat IPC: 4.946 cumulative IPC: 3.53 (Simulation time: 00 hr 01 min 08 sec)
Heartbeat CPU 0 instructions: 17000121 cycles: 4774412 heartbeat IPC: 5 cumulative IPC: 3.561 (Simulation time: 00 hr 01 min 09 sec)
Heartbeat CPU 0 instructions: 17500125 cycles: 4875843 heartbeat IPC: 4.929 cumulative IPC: 3.589 (Simulation time: 00 hr 01 min 10 sec)
Heartbeat CPU 0 instructions: 18000128 cycles: 4975844 heartbeat IPC: 5 cumulative IPC: 3.618 (Simulation time: 00 hr 01 min 12 sec)
Heartbeat CPU 0 instructions: 18500134 cycles: 5102870 heartbeat IPC: 3.936 cumulative IPC: 3.625 (Simulation time: 00 hr 01 min 13 sec)
Heartbeat CPU 0 instructions: 19000140 cycles: 5203044 heartbeat IPC: 4.991 cumulative IPC: 3.652 (Simulation time: 00 hr 01 min 15 sec)
Heartbeat CPU 0 instructions: 19500140 cycles: 5304611 heartbeat IPC: 4.923 cumulative IPC: 3.676 (Simulation time: 00 hr 01 min 16 sec)
Heartbeat CPU 0 instructions: 20000145 cycles: 5404816 heartbeat IPC: 4.99 cumulative IPC: 3.7 (Simulation time: 00 hr 01 min 17 sec)
Heartbeat CPU 0 instructions: 20500150 cycles: 5506326 heartbeat IPC: 4.926 cumulative IPC: 3.723 (Simulation time: 00 hr 01 min 19 sec)
Heartbeat CPU 0 instructions: 21000155 cycles: 5607545 heartbeat IPC: 4.94 cumulative IPC: 3.745 (Simulation time: 00 hr 01 min 20 sec)
Heartbeat CPU 0 instructions: 21500157 cycles: 5709244 heartbeat IPC: 4.916 cumulative IPC: 3.766 (Simulation time: 00 hr 01 min 21 sec)
Heartbeat CPU 0 instructions: 22000161 cycles: 5810032 heartbeat IPC: 4.961 cumulative IPC: 3.787 (Simulation time: 00 hr 01 min 23 sec)
Heartbeat CPU 0 instructions: 22500163 cycles: 5911600 heartbeat IPC: 4.923 cumulative IPC: 3.806 (Simulation time: 00 hr 01 min 24 sec)
Heartbeat CPU 0 instructions: 23000169 cycles: 6013383 heartbeat IPC: 4.912 cumulative IPC: 3.825 (Simulation time: 00 hr 01 min 25 sec)
Heartbeat CPU 0 instructions: 23500174 cycles: 6114054 heartbeat IPC: 4.967 cumulative IPC: 3.844 (Simulation time: 00 hr 01 min 27 sec)
Heartbeat CPU 0 instructions: 24000176 cycles: 6216403 heartbeat IPC: 4.885 cumulative IPC: 3.861 (Simulation time: 00 hr 01 min 28 sec)
Heartbeat CPU 0 instructions: 24500177 cycles: 6317012 heartbeat IPC: 4.97 cumulative IPC: 3.878 (Simulation time: 00 hr 01 min 29 sec)
Heartbeat CPU 0 instructions: 25000177 cycles: 6418232 heartbeat IPC: 4.94 cumulative IPC: 3.895 (Simulation time: 00 hr 01 min 30 sec)
Heartbeat CPU 0 instructions: 25500181 cycles: 6519026 heartbeat IPC: 4.961 cumulative IPC: 3.912 (Simulation time: 00 hr 01 min 32 sec)
Heartbeat CPU 0 instructions: 26000184 cycles: 6620338 heartbeat IPC: 4.935 cumulative IPC: 3.927 (Simulation time: 00 hr 01 min 33 sec)
Heartbeat CPU 0 instructions: 26500190 cycles: 6720487 heartbeat IPC: 4.993 cumulative IPC: 3.943 (Simulation time: 00 hr 01 min 34 sec)
Heartbeat CPU 0 instructions: 27000196 cycles: 6821517 heartbeat IPC: 4.949 cumulative IPC: 3.958 (Simulation time: 00 hr 01 min 36 sec)
Heartbeat CPU 0 instructions: 27500196 cycles: 6921517 heartbeat IPC: 5 cumulative IPC: 3.973 (Simulation time: 00 hr 01 min 37 sec)
Heartbeat CPU 0 instructions: 28000199 cycles: 7022613 heartbeat IPC: 4.946 cumulative IPC: 3.987 (Simulation time: 00 hr 01 min 38 sec)
Heartbeat CPU 0 instructions: 28500204 cycles: 7131354 heartbeat IPC: 4.598 cumulative IPC: 3.996 (Simulation time: 00 hr 01 min 40 sec)
Heartbeat CPU 0 instructions: 29000206 cycles: 7247905 heartbeat IPC: 4.29 cumulative IPC: 4.001 (Simulation time: 00 hr 01 min 42 sec)
Heartbeat CPU 0 instructions: 29500208 cycles: 7375055 heartbeat IPC: 3.932 cumulative IPC: 4 (Simulation time: 00 hr 01 min 44 sec)
Heartbeat CPU 0 instructions: 30000208 cycles: 7476730 heartbeat IPC: 4.918 cumulative IPC: 4.012 (Simulation time: 00 hr 01 min 45 sec)
Heartbeat CPU 0 instructions: 30500214 cycles: 7577646 heartbeat IPC: 4.955 cumulative IPC: 4.025 (Simulation time: 00 hr 01 min 46 sec)
Heartbeat CPU 0 instructions: 31000215 cycles: 7678832 heartbeat IPC: 4.941 cumulative IPC: 4.037 (Simulation time: 00 hr 01 min 48 sec)
Heartbeat CPU 0 instructions: 31500216 cycles: 7778833 heartbeat IPC: 5 cumulative IPC: 4.049 (Simulation time: 00 hr 01 min 49 sec)
Heartbeat CPU 0 instructions: 32000216 cycles: 7879877 heartbeat IPC: 4.948 cumulative IPC: 4.061 (Simulation time: 00 hr 01 min 50 sec)
Heartbeat CPU 0 instructions: 32500217 cycles: 7979912 heartbeat IPC: 4.998 cumulative IPC: 4.073 (Simulation time: 00 hr 01 min 51 sec)
Heartbeat CPU 0 instructions: 33000224 cycles: 8080912 heartbeat IPC: 4.951 cumulative IPC: 4.084 (Simulation time: 00 hr 01 min 53 sec)
Heartbeat CPU 0 instructions: 33500231 cycles: 8181804 heartbeat IPC: 4.956 cumulative IPC: 4.094 (Simulation time: 00 hr 01 min 54 sec)
Heartbeat CPU 0 instructions: 34000235 cycles: 8282130 heartbeat IPC: 4.984 cumulative IPC: 4.105 (Simulation time: 00 hr 01 min 55 sec)
Heartbeat CPU 0 instructions: 34500239 cycles: 8382785 heartbeat IPC: 4.968 cumulative IPC: 4.116 (Simulation time: 00 hr 01 min 57 sec)
Heartbeat CPU 0 instructions: 35000242 cycles: 8482925 heartbeat IPC: 4.993 cumulative IPC: 4.126 (Simulation time: 00 hr 01 min 58 sec)
Heartbeat CPU 0 instructions: 35500246 cycles: 8583956 heartbeat IPC: 4.949 cumulative IPC: 4.136 (Simulation time: 00 hr 01 min 59 sec)
Heartbeat CPU 0 instructions: 36000248 cycles: 8684123 heartbeat IPC: 4.992 cumulative IPC: 4.146 (Simulation time: 00 hr 02 min 00 sec)
Heartbeat CPU 0 instructions: 36500251 cycles: 8785166 heartbeat IPC: 4.948 cumulative IPC: 4.155 (Simulation time: 00 hr 02 min 02 sec)
Heartbeat CPU 0 instructions: 37000253 cycles: 8885171 heartbeat IPC: 5 cumulative IPC: 4.164 (Simulation time: 00 hr 02 min 03 sec)
Heartbeat CPU 0 instructions: 37500256 cycles: 8986427 heartbeat IPC: 4.938 cumulative IPC: 4.173 (Simulation time: 00 hr 02 min 04 sec)
Heartbeat CPU 0 instructions: 38000262 cycles: 9087889 heartbeat IPC: 4.928 cumulative IPC: 4.181 (Simulation time: 00 hr 02 min 06 sec)
Heartbeat CPU 0 instructions: 38500265 cycles: 9190417 heartbeat IPC: 4.877 cumulative IPC: 4.189 (Simulation time: 00 hr 02 min 07 sec)
Heartbeat CPU 0 instructions: 39000268 cycles: 9290418 heartbeat IPC: 5 cumulative IPC: 4.198 (Simulation time: 00 hr 02 min 08 sec)
Heartbeat CPU 0 instructions: 39500271 cycles: 9408656 heartbeat IPC: 4.229 cumulative IPC: 4.198 (Simulation time: 00 hr 02 min 10 sec)
Heartbeat CPU 0 instructions: 40000274 cycles: 9516439 heartbeat IPC: 4.639 cumulative IPC: 4.203 (Simulation time: 00 hr 02 min 12 sec)
Heartbeat CPU 0 instructions: 40500280 cycles: 9620003 heartbeat IPC: 4.828 cumulative IPC: 4.21 (Simulation time: 00 hr 02 min 13 sec)
Heartbeat CPU 0 instructions: 41000285 cycles: 9723725 heartbeat IPC: 4.821 cumulative IPC: 4.217 (Simulation time: 00 hr 02 min 15 sec)
Heartbeat CPU 0 instructions: 41500289 cycles: 9828831 heartbeat IPC: 4.757 cumulative IPC: 4.222 (Simulation time: 00 hr 02 min 16 sec)
Heartbeat CPU 0 instructions: 42000291 cycles: 9943334 heartbeat IPC: 4.367 cumulative IPC: 4.224 (Simulation time: 00 hr 02 min 18 sec)
Heartbeat CPU 0 instructions: 42500296 cycles: 10046162 heartbeat IPC: 4.863 cumulative IPC: 4.231 (Simulation time: 00 hr 02 min 19 sec)
Heartbeat CPU 0 instructions: 43000300 cycles: 10146609 heartbeat IPC: 4.978 cumulative IPC: 4.238 (Simulation time: 00 hr 02 min 21 sec)
Heartbeat CPU 0 instructions: 43500300 cycles: 10248275 heartbeat IPC: 4.918 cumulative IPC: 4.245 (Simulation time: 00 hr 02 min 22 sec)
Heartbeat CPU 0 instructions: 44000307 cycles: 10348630 heartbeat IPC: 4.982 cumulative IPC: 4.252 (Simulation time: 00 hr 02 min 23 sec)
Heartbeat CPU 0 instructions: 44500311 cycles: 10450064 heartbeat IPC: 4.929 cumulative IPC: 4.258 (Simulation time: 00 hr 02 min 25 sec)
Heartbeat CPU 0 instructions: 45000312 cycles: 10550059 heartbeat IPC: 5 cumulative IPC: 4.265 (Simulation time: 00 hr 02 min 26 sec)
Heartbeat CPU 0 instructions: 45500318 cycles: 10651820 heartbeat IPC: 4.914 cumulative IPC: 4.272 (Simulation time: 00 hr 02 min 27 sec)
Heartbeat CPU 0 instructions: 46000319 cycles: 10751854 heartbeat IPC: 4.998 cumulative IPC: 4.278 (Simulation time: 00 hr 02 min 28 sec)
Heartbeat CPU 0 instructions: 46500326 cycles: 10853278 heartbeat IPC: 4.93 cumulative IPC: 4.284 (Simulation time: 00 hr 02 min 30 sec)
Heartbeat CPU 0 instructions: 47000326 cycles: 10954203 heartbeat IPC: 4.954 cumulative IPC: 4.291 (Simulation time: 00 hr 02 min 31 sec)
Heartbeat CPU 0 instructions: 47500328 cycles: 11055141 heartbeat IPC: 4.954 cumulative IPC: 4.297 (Simulation time: 00 hr 02 min 32 sec)
Heartbeat CPU 0 instructions: 48000334 cycles: 11156459 heartbeat IPC: 4.935 cumulative IPC: 4.302 (Simulation time: 00 hr 02 min 34 sec)
Heartbeat CPU 0 instructions: 48500337 cycles: 11256768 heartbeat IPC: 4.985 cumulative IPC: 4.309 (Simulation time: 00 hr 02 min 35 sec)
Heartbeat CPU 0 instructions: 49000340 cycles: 11357822 heartbeat IPC: 4.948 cumulative IPC: 4.314 (Simulation time: 00 hr 02 min 36 sec)
Heartbeat CPU 0 instructions: 49500347 cycles: 11457986 heartbeat IPC: 4.992 cumulative IPC: 4.32 (Simulation time: 00 hr 02 min 37 sec)
Warmup halting CPU 0 at instruction 50000002 cycle 11558967 for remainder of phase
Warmup finished CPU 0 instructions: 50000002 cycles: 11558967 cumulative IPC: 4.326 (Simulation time: 00 hr 02 min 39 sec)
Warmup complete CPU 0 instructions: 50000002 cycles: 11558967 cumulative IPC: 4.326 (Simulation time: 00 hr 02 min 39 sec)
Heartbeat CPU 0 instructions: 50000348 cycles: 11559054 heartbeat IPC: 4.947 cumulative IPC: 3.977 (Simulation time: 00 hr 02 min 39 sec)
Heartbeat CPU 0 instructions: 50500349 cycles: 11678784 heartbeat IPC: 4.176 cumulative IPC: 4.176 (Simulation time: 00 hr 02 min 41 sec)
Heartbeat CPU 0 instructions: 51000349 cycles: 11813789 heartbeat IPC: 3.704 cumulative IPC: 3.926 (Simulation time: 00 hr 02 min 43 sec)
Heartbeat CPU 0 instructions: 51500351 cycles: 11931323 heartbeat IPC: 4.254 cumulative IPC: 4.029 (Simulation time: 00 hr 02 min 45 sec)
Heartbeat CPU 0 instructions: 52000351 cycles: 13958229 heartbeat IPC: 0.2467 cumulative IPC: 0.8337 (Simulation time: 00 hr 03 min 04 sec)
Heartbeat CPU 0 instructions: 52500351 cycles: 15089538 heartbeat IPC: 0.442 cumulative IPC: 0.7082 (Simulation time: 00 hr 03 min 13 sec)
Heartbeat CPU 0 instructions: 53000354 cycles: 15382849 heartbeat IPC: 1.705 cumulative IPC: 0.7846 (Simulation time: 00 hr 03 min 16 sec)
Heartbeat CPU 0 instructions: 53500356 cycles: 15667677 heartbeat IPC: 1.755 cumulative IPC: 0.8519 (Simulation time: 00 hr 03 min 19 sec)
Heartbeat CPU 0 instructions: 54000359 cycles: 15935533 heartbeat IPC: 1.867 cumulative IPC: 0.914 (Simulation time: 00 hr 03 min 22 sec)
Heartbeat CPU 0 instructions: 54500363 cycles: 16207343 heartbeat IPC: 1.84 cumulative IPC: 0.9682 (Simulation time: 00 hr 03 min 25 sec)
Heartbeat CPU 0 instructions: 55000370 cycles: 16525137 heartbeat IPC: 1.573 cumulative IPC: 1.007 (Simulation time: 00 hr 03 min 28 sec)
Heartbeat CPU 0 instructions: 55500372 cycles: 16787284 heartbeat IPC: 1.907 cumulative IPC: 1.052 (Simulation time: 00 hr 03 min 31 sec)
Heartbeat CPU 0 instructions: 56000377 cycles: 17030654 heartbeat IPC: 2.055 cumulative IPC: 1.097 (Simulation time: 00 hr 03 min 34 sec)
Heartbeat CPU 0 instructions: 56500378 cycles: 17279327 heartbeat IPC: 2.011 cumulative IPC: 1.136 (Simulation time: 00 hr 03 min 36 sec)
Heartbeat CPU 0 instructions: 57000378 cycles: 17533186 heartbeat IPC: 1.97 cumulative IPC: 1.172 (Simulation time: 00 hr 03 min 39 sec)
Heartbeat CPU 0 instructions: 57500380 cycles: 17785018 heartbeat IPC: 1.985 cumulative IPC: 1.205 (Simulation time: 00 hr 03 min 42 sec)
Heartbeat CPU 0 instructions: 58000382 cycles: 18425678 heartbeat IPC: 0.7804 cumulative IPC: 1.165 (Simulation time: 00 hr 03 min 47 sec)
Heartbeat CPU 0 instructions: 58500384 cycles: 18906767 heartbeat IPC: 1.039 cumulative IPC: 1.157 (Simulation time: 00 hr 03 min 51 sec)
Heartbeat CPU 0 instructions: 59000391 cycles: 19032546 heartbeat IPC: 3.975 cumulative IPC: 1.204 (Simulation time: 00 hr 03 min 54 sec)
Heartbeat CPU 0 instructions: 59500391 cycles: 19171803 heartbeat IPC: 3.59 cumulative IPC: 1.248 (Simulation time: 00 hr 03 min 56 sec)
Heartbeat CPU 0 instructions: 60000391 cycles: 19297952 heartbeat IPC: 3.964 cumulative IPC: 1.292 (Simulation time: 00 hr 03 min 58 sec)
Heartbeat CPU 0 instructions: 60500392 cycles: 19433806 heartbeat IPC: 3.68 cumulative IPC: 1.333 (Simulation time: 00 hr 04 min 00 sec)
Heartbeat CPU 0 instructions: 61000396 cycles: 19553415 heartbeat IPC: 4.18 cumulative IPC: 1.376 (Simulation time: 00 hr 04 min 02 sec)
Heartbeat CPU 0 instructions: 61500399 cycles: 19688335 heartbeat IPC: 3.706 cumulative IPC: 1.415 (Simulation time: 00 hr 04 min 04 sec)
Heartbeat CPU 0 instructions: 62000400 cycles: 19808088 heartbeat IPC: 4.175 cumulative IPC: 1.455 (Simulation time: 00 hr 04 min 06 sec)
Heartbeat CPU 0 instructions: 62500400 cycles: 19956140 heartbeat IPC: 3.377 cumulative IPC: 1.489 (Simulation time: 00 hr 04 min 08 sec)
Heartbeat CPU 0 instructions: 63000405 cycles: 20105749 heartbeat IPC: 3.342 cumulative IPC: 1.521 (Simulation time: 00 hr 04 min 10 sec)
Heartbeat CPU 0 instructions: 63500409 cycles: 20267455 heartbeat IPC: 3.092 cumulative IPC: 1.55 (Simulation time: 00 hr 04 min 13 sec)
Heartbeat CPU 0 instructions: 64000413 cycles: 20438723 heartbeat IPC: 2.919 cumulative IPC: 1.577 (Simulation time: 00 hr 04 min 15 sec)
Heartbeat CPU 0 instructions: 64500416 cycles: 20566064 heartbeat IPC: 3.926 cumulative IPC: 1.61 (Simulation time: 00 hr 04 min 17 sec)
Heartbeat CPU 0 instructions: 65000421 cycles: 20696924 heartbeat IPC: 3.821 cumulative IPC: 1.642 (Simulation time: 00 hr 04 min 19 sec)
Heartbeat CPU 0 instructions: 65500422 cycles: 20823153 heartbeat IPC: 3.961 cumulative IPC: 1.673 (Simulation time: 00 hr 04 min 21 sec)
Heartbeat CPU 0 instructions: 66000423 cycles: 20956961 heartbeat IPC: 3.737 cumulative IPC: 1.703 (Simulation time: 00 hr 04 min 24 sec)
Heartbeat CPU 0 instructions: 66500424 cycles: 21076846 heartbeat IPC: 4.171 cumulative IPC: 1.734 (Simulation time: 00 hr 04 min 26 sec)
Heartbeat CPU 0 instructions: 67000424 cycles: 21208691 heartbeat IPC: 3.792 cumulative IPC: 1.762 (Simulation time: 00 hr 04 min 28 sec)
Heartbeat CPU 0 instructions: 67500430 cycles: 21329850 heartbeat IPC: 4.127 cumulative IPC: 1.791 (Simulation time: 00 hr 04 min 30 sec)
Heartbeat CPU 0 instructions: 68000433 cycles: 21463716 heartbeat IPC: 3.735 cumulative IPC: 1.817 (Simulation time: 00 hr 04 min 32 sec)
Heartbeat CPU 0 instructions: 68500435 cycles: 21982562 heartbeat IPC: 0.9637 cumulative IPC: 1.775 (Simulation time: 00 hr 04 min 37 sec)
Heartbeat CPU 0 instructions: 69000435 cycles: 22126940 heartbeat IPC: 3.463 cumulative IPC: 1.798 (Simulation time: 00 hr 04 min 39 sec)
Heartbeat CPU 0 instructions: 69500437 cycles: 22249180 heartbeat IPC: 4.09 cumulative IPC: 1.824 (Simulation time: 00 hr 04 min 41 sec)
Heartbeat CPU 0 instructions: 70000438 cycles: 22381647 heartbeat IPC: 3.775 cumulative IPC: 1.848 (Simulation time: 00 hr 04 min 43 sec)
Heartbeat CPU 0 instructions: 70500438 cycles: 22507042 heartbeat IPC: 3.987 cumulative IPC: 1.873 (Simulation time: 00 hr 04 min 45 sec)
Heartbeat CPU 0 instructions: 71000438 cycles: 22644165 heartbeat IPC: 3.646 cumulative IPC: 1.894 (Simulation time: 00 hr 04 min 47 sec)
Heartbeat CPU 0 instructions: 71500439 cycles: 22769192 heartbeat IPC: 3.999 cumulative IPC: 1.918 (Simulation time: 00 hr 04 min 49 sec)
Heartbeat CPU 0 instructions: 72000439 cycles: 22917709 heartbeat IPC: 3.367 cumulative IPC: 1.937 (Simulation time: 00 hr 04 min 52 sec)
Heartbeat CPU 0 instructions: 72500441 cycles: 23035694 heartbeat IPC: 4.238 cumulative IPC: 1.961 (Simulation time: 00 hr 04 min 54 sec)
Heartbeat CPU 0 instructions: 73000443 cycles: 23177322 heartbeat IPC: 3.53 cumulative IPC: 1.98 (Simulation time: 00 hr 04 min 56 sec)
Heartbeat CPU 0 instructions: 73500443 cycles: 23307165 heartbeat IPC: 3.851 cumulative IPC: 2 (Simulation time: 00 hr 04 min 58 sec)
Heartbeat CPU 0 instructions: 74000443 cycles: 23438279 heartbeat IPC: 3.813 cumulative IPC: 2.02 (Simulation time: 00 hr 05 min 00 sec)
Heartbeat CPU 0 instructions: 74500443 cycles: 23565439 heartbeat IPC: 3.932 cumulative IPC: 2.041 (Simulation time: 00 hr 05 min 02 sec)
Heartbeat CPU 0 instructions: 75000444 cycles: 23690442 heartbeat IPC: 4 cumulative IPC: 2.061 (Simulation time: 00 hr 05 min 04 sec)
Heartbeat CPU 0 instructions: 75500447 cycles: 23823000 heartbeat IPC: 3.772 cumulative IPC: 2.079 (Simulation time: 00 hr 05 min 06 sec)
Heartbeat CPU 0 instructions: 76000448 cycles: 23943186 heartbeat IPC: 4.16 cumulative IPC: 2.099 (Simulation time: 00 hr 05 min 08 sec)
Heartbeat CPU 0 instructions: 76500450 cycles: 24074464 heartbeat IPC: 3.809 cumulative IPC: 2.117 (Simulation time: 00 hr 05 min 11 sec)
Heartbeat CPU 0 instructions: 77000455 cycles: 24193177 heartbeat IPC: 4.212 cumulative IPC: 2.137 (Simulation time: 00 hr 05 min 13 sec)
Heartbeat CPU 0 instructions: 77500457 cycles: 24325377 heartbeat IPC: 3.782 cumulative IPC: 2.154 (Simulation time: 00 hr 05 min 15 sec)
Heartbeat CPU 0 instructions: 78000458 cycles: 24445979 heartbeat IPC: 4.146 cumulative IPC: 2.173 (Simulation time: 00 hr 05 min 17 sec)
Heartbeat CPU 0 instructions: 78500458 cycles: 24952037 heartbeat IPC: 0.988 cumulative IPC: 2.128 (Simulation time: 00 hr 05 min 21 sec)
Heartbeat CPU 0 instructions: 79000459 cycles: 25901552 heartbeat IPC: 0.5266 cumulative IPC: 2.022 (Simulation time: 00 hr 05 min 29 sec)
Heartbeat CPU 0 instructions: 79500464 cycles: 26371079 heartbeat IPC: 1.065 cumulative IPC: 1.992 (Simulation time: 00 hr 05 min 33 sec)
Heartbeat CPU 0 instructions: 80000465 cycles: 26774725 heartbeat IPC: 1.239 cumulative IPC: 1.972 (Simulation time: 00 hr 05 min 37 sec)
Heartbeat CPU 0 instructions: 80500468 cycles: 26943151 heartbeat IPC: 2.969 cumulative IPC: 1.983 (Simulation time: 00 hr 05 min 39 sec)
Heartbeat CPU 0 instructions: 81000474 cycles: 27066088 heartbeat IPC: 4.067 cumulative IPC: 1.999 (Simulation time: 00 hr 05 min 41 sec)
Heartbeat CPU 0 instructions: 81500474 cycles: 27201912 heartbeat IPC: 3.681 cumulative IPC: 2.014 (Simulation time: 00 hr 05 min 44 sec)
Heartbeat CPU 0 instructions: 82000475 cycles: 27331707 heartbeat IPC: 3.852 cumulative IPC: 2.029 (Simulation time: 00 hr 05 min 46 sec)
Heartbeat CPU 0 instructions: 82500478 cycles: 27466881 heartbeat IPC: 3.699 cumulative IPC: 2.043 (Simulation time: 00 hr 05 min 48 sec)
Heartbeat CPU 0 instructions: 83000478 cycles: 27585486 heartbeat IPC: 4.216 cumulative IPC: 2.059 (Simulation time: 00 hr 05 min 50 sec)
Heartbeat CPU 0 instructions: 83500481 cycles: 27720259 heartbeat IPC: 3.71 cumulative IPC: 2.073 (Simulation time: 00 hr 05 min 52 sec)
Heartbeat CPU 0 instructions: 84000485 cycles: 27838595 heartbeat IPC: 4.225 cumulative IPC: 2.089 (Simulation time: 00 hr 05 min 54 sec)
Heartbeat CPU 0 instructions: 84500487 cycles: 27971547 heartbeat IPC: 3.761 cumulative IPC: 2.102 (Simulation time: 00 hr 05 min 56 sec)
Heartbeat CPU 0 instructions: 85000490 cycles: 28098548 heartbeat IPC: 3.937 cumulative IPC: 2.116 (Simulation time: 00 hr 05 min 58 sec)
Heartbeat CPU 0 instructions: 85500496 cycles: 28228183 heartbeat IPC: 3.857 cumulative IPC: 2.13 (Simulation time: 00 hr 06 min 00 sec)
Heartbeat CPU 0 instructions: 86000498 cycles: 28356000 heartbeat IPC: 3.912 cumulative IPC: 2.143 (Simulation time: 00 hr 06 min 02 sec)
Heartbeat CPU 0 instructions: 86500501 cycles: 28479779 heartbeat IPC: 4.039 cumulative IPC: 2.157 (Simulation time: 00 hr 06 min 05 sec)
Heartbeat CPU 0 instructions: 87000506 cycles: 28611749 heartbeat IPC: 3.789 cumulative IPC: 2.17 (Simulation time: 00 hr 06 min 07 sec)
Heartbeat CPU 0 instructions: 87500511 cycles: 28732183 heartbeat IPC: 4.152 cumulative IPC: 2.184 (Simulation time: 00 hr 06 min 09 sec)
Heartbeat CPU 0 instructions: 88000517 cycles: 28863471 heartbeat IPC: 3.808 cumulative IPC: 2.196 (Simulation time: 00 hr 06 min 11 sec)
Heartbeat CPU 0 instructions: 88500523 cycles: 28987080 heartbeat IPC: 4.045 cumulative IPC: 2.209 (Simulation time: 00 hr 06 min 13 sec)
Heartbeat CPU 0 instructions: 89000528 cycles: 29136244 heartbeat IPC: 3.352 cumulative IPC: 2.219 (Simulation time: 00 hr 06 min 15 sec)
Heartbeat CPU 0 instructions: 89500529 cycles: 29257007 heartbeat IPC: 4.14 cumulative IPC: 2.232 (Simulation time: 00 hr 06 min 17 sec)
Heartbeat CPU 0 instructions: 90000529 cycles: 30448239 heartbeat IPC: 0.4197 cumulative IPC: 2.118 (Simulation time: 00 hr 06 min 27 sec)
Heartbeat CPU 0 instructions: 90500529 cycles: 30882037 heartbeat IPC: 1.153 cumulative IPC: 2.096 (Simulation time: 00 hr 06 min 31 sec)
Heartbeat CPU 0 instructions: 91000530 cycles: 31005700 heartbeat IPC: 4.043 cumulative IPC: 2.108 (Simulation time: 00 hr 06 min 33 sec)
Heartbeat CPU 0 instructions: 91500532 cycles: 31143530 heartbeat IPC: 3.628 cumulative IPC: 2.119 (Simulation time: 00 hr 06 min 36 sec)
Heartbeat CPU 0 instructions: 92000534 cycles: 31265143 heartbeat IPC: 4.111 cumulative IPC: 2.131 (Simulation time: 00 hr 06 min 38 sec)
Heartbeat CPU 0 instructions: 92500534 cycles: 31407157 heartbeat IPC: 3.521 cumulative IPC: 2.141 (Simulation time: 00 hr 06 min 40 sec)
Heartbeat CPU 0 instructions: 93000534 cycles: 31531614 heartbeat IPC: 4.017 cumulative IPC: 2.153 (Simulation time: 00 hr 06 min 42 sec)
Heartbeat CPU 0 instructions: 93500541 cycles: 31691010 heartbeat IPC: 3.137 cumulative IPC: 2.161 (Simulation time: 00 hr 06 min 44 sec)
Heartbeat CPU 0 instructions: 94000543 cycles: 31850185 heartbeat IPC: 3.141 cumulative IPC: 2.168 (Simulation time: 00 hr 06 min 47 sec)
Heartbeat CPU 0 instructions: 94500547 cycles: 31987977 heartbeat IPC: 3.629 cumulative IPC: 2.178 (Simulation time: 00 hr 06 min 49 sec)
Heartbeat CPU 0 instructions: 95000549 cycles: 32118299 heartbeat IPC: 3.837 cumulative IPC: 2.189 (Simulation time: 00 hr 06 min 51 sec)
Heartbeat CPU 0 instructions: 95500550 cycles: 32260243 heartbeat IPC: 3.523 cumulative IPC: 2.198 (Simulation time: 00 hr 06 min 53 sec)
Heartbeat CPU 0 instructions: 96000557 cycles: 32426877 heartbeat IPC: 3.001 cumulative IPC: 2.204 (Simulation time: 00 hr 06 min 55 sec)
Heartbeat CPU 0 instructions: 96500562 cycles: 32560306 heartbeat IPC: 3.747 cumulative IPC: 2.214 (Simulation time: 00 hr 06 min 58 sec)
Heartbeat CPU 0 instructions: 97000563 cycles: 32693818 heartbeat IPC: 3.745 cumulative IPC: 2.224 (Simulation time: 00 hr 07 min 00 sec)
Heartbeat CPU 0 instructions: 97500566 cycles: 32817749 heartbeat IPC: 4.035 cumulative IPC: 2.234 (Simulation time: 00 hr 07 min 02 sec)
Heartbeat CPU 0 instructions: 98000570 cycles: 32952319 heartbeat IPC: 3.716 cumulative IPC: 2.244 (Simulation time: 00 hr 07 min 04 sec)
Heartbeat CPU 0 instructions: 98500573 cycles: 33069870 heartbeat IPC: 4.253 cumulative IPC: 2.255 (Simulation time: 00 hr 07 min 06 sec)
Heartbeat CPU 0 instructions: 99000576 cycles: 33206711 heartbeat IPC: 3.654 cumulative IPC: 2.264 (Simulation time: 00 hr 07 min 08 sec)
Heartbeat CPU 0 instructions: 99500577 cycles: 33323910 heartbeat IPC: 4.266 cumulative IPC: 2.274 (Simulation time: 00 hr 07 min 10 sec)
Heartbeat CPU 0 instructions: 100000579 cycles: 33487404 heartbeat IPC: 3.058 cumulative IPC: 2.28 (Simulation time: 00 hr 07 min 12 sec)
Heartbeat CPU 0 instructions: 100500581 cycles: 34092477 heartbeat IPC: 0.8263 cumulative IPC: 2.241 (Simulation time: 00 hr 07 min 18 sec)
Heartbeat CPU 0 instructions: 101000584 cycles: 34238540 heartbeat IPC: 3.423 cumulative IPC: 2.249 (Simulation time: 00 hr 07 min 20 sec)
Heartbeat CPU 0 instructions: 101500584 cycles: 34369663 heartbeat IPC: 3.813 cumulative IPC: 2.258 (Simulation time: 00 hr 07 min 22 sec)
Heartbeat CPU 0 instructions: 102000586 cycles: 34502653 heartbeat IPC: 3.76 cumulative IPC: 2.266 (Simulation time: 00 hr 07 min 24 sec)
Heartbeat CPU 0 instructions: 102500587 cycles: 34624074 heartbeat IPC: 4.118 cumulative IPC: 2.276 (Simulation time: 00 hr 07 min 26 sec)
Heartbeat CPU 0 instructions: 103000588 cycles: 34756887 heartbeat IPC: 3.765 cumulative IPC: 2.285 (Simulation time: 00 hr 07 min 28 sec)
Heartbeat CPU 0 instructions: 103500591 cycles: 34878702 heartbeat IPC: 4.105 cumulative IPC: 2.294 (Simulation time: 00 hr 07 min 30 sec)
Heartbeat CPU 0 instructions: 104000595 cycles: 35013042 heartbeat IPC: 3.722 cumulative IPC: 2.302 (Simulation time: 00 hr 07 min 32 sec)
Heartbeat CPU 0 instructions: 104500596 cycles: 35131073 heartbeat IPC: 4.236 cumulative IPC: 2.312 (Simulation time: 00 hr 07 min 34 sec)
Heartbeat CPU 0 instructions: 105000597 cycles: 35265022 heartbeat IPC: 3.733 cumulative IPC: 2.32 (Simulation time: 00 hr 07 min 37 sec)
Heartbeat CPU 0 instructions: 105500598 cycles: 35383022 heartbeat IPC: 4.237 cumulative IPC: 2.33 (Simulation time: 00 hr 07 min 39 sec)
Heartbeat CPU 0 instructions: 106000599 cycles: 35536320 heartbeat IPC: 3.262 cumulative IPC: 2.336 (Simulation time: 00 hr 07 min 41 sec)
Heartbeat CPU 0 instructions: 106500600 cycles: 35690340 heartbeat IPC: 3.246 cumulative IPC: 2.341 (Simulation time: 00 hr 07 min 43 sec)
Heartbeat CPU 0 instructions: 107000600 cycles: 35850264 heartbeat IPC: 3.126 cumulative IPC: 2.347 (Simulation time: 00 hr 07 min 45 sec)
Heartbeat CPU 0 instructions: 107500600 cycles: 36014564 heartbeat IPC: 3.043 cumulative IPC: 2.351 (Simulation time: 00 hr 07 min 48 sec)
Heartbeat CPU 0 instructions: 108000603 cycles: 36173260 heartbeat IPC: 3.151 cumulative IPC: 2.356 (Simulation time: 00 hr 07 min 50 sec)
Heartbeat CPU 0 instructions: 108500606 cycles: 36317281 heartbeat IPC: 3.472 cumulative IPC: 2.363 (Simulation time: 00 hr 07 min 52 sec)
Heartbeat CPU 0 instructions: 109000612 cycles: 36437988 heartbeat IPC: 4.142 cumulative IPC: 2.372 (Simulation time: 00 hr 07 min 54 sec)
Heartbeat CPU 0 instructions: 109500615 cycles: 36573102 heartbeat IPC: 3.701 cumulative IPC: 2.379 (Simulation time: 00 hr 07 min 57 sec)
Heartbeat CPU 0 instructions: 110000620 cycles: 36694497 heartbeat IPC: 4.119 cumulative IPC: 2.387 (Simulation time: 00 hr 07 min 59 sec)
Heartbeat CPU 0 instructions: 110500620 cycles: 36965707 heartbeat IPC: 1.844 cumulative IPC: 2.381 (Simulation time: 00 hr 08 min 02 sec)
Heartbeat CPU 0 instructions: 111000620 cycles: 39304465 heartbeat IPC: 0.2138 cumulative IPC: 2.199 (Simulation time: 00 hr 08 min 21 sec)
Heartbeat CPU 0 instructions: 111500621 cycles: 39727941 heartbeat IPC: 1.181 cumulative IPC: 2.183 (Simulation time: 00 hr 08 min 26 sec)
Heartbeat CPU 0 instructions: 112000622 cycles: 40427710 heartbeat IPC: 0.7145 cumulative IPC: 2.148 (Simulation time: 00 hr 08 min 31 sec)
Heartbeat CPU 0 instructions: 112500625 cycles: 42095680 heartbeat IPC: 0.2998 cumulative IPC: 2.047 (Simulation time: 00 hr 08 min 43 sec)
Heartbeat CPU 0 instructions: 113000626 cycles: 42931249 heartbeat IPC: 0.5984 cumulative IPC: 2.008 (Simulation time: 00 hr 08 min 49 sec)
Heartbeat CPU 0 instructions: 113500628 cycles: 44320774 heartbeat IPC: 0.3598 cumulative IPC: 1.938 (Simulation time: 00 hr 09 min 00 sec)
Heartbeat CPU 0 instructions: 114000632 cycles: 45056263 heartbeat IPC: 0.6798 cumulative IPC: 1.911 (Simulation time: 00 hr 09 min 06 sec)
Heartbeat CPU 0 instructions: 114500633 cycles: 45382105 heartbeat IPC: 1.534 cumulative IPC: 1.907 (Simulation time: 00 hr 09 min 09 sec)
Heartbeat CPU 0 instructions: 115000637 cycles: 45677427 heartbeat IPC: 1.693 cumulative IPC: 1.905 (Simulation time: 00 hr 09 min 12 sec)
Heartbeat CPU 0 instructions: 115500640 cycles: 45978007 heartbeat IPC: 1.663 cumulative IPC: 1.903 (Simulation time: 00 hr 09 min 15 sec)
Heartbeat CPU 0 instructions: 116000642 cycles: 46265998 heartbeat IPC: 1.736 cumulative IPC: 1.902 (Simulation time: 00 hr 09 min 18 sec)
Heartbeat CPU 0 instructions: 116500645 cycles: 46921178 heartbeat IPC: 0.7632 cumulative IPC: 1.881 (Simulation time: 00 hr 09 min 24 sec)
Heartbeat CPU 0 instructions: 117000651 cycles: 47268859 heartbeat IPC: 1.438 cumulative IPC: 1.876 (Simulation time: 00 hr 09 min 27 sec)
Heartbeat CPU 0 instructions: 117500658 cycles: 47536103 heartbeat IPC: 1.871 cumulative IPC: 1.876 (Simulation time: 00 hr 09 min 30 sec)
Heartbeat CPU 0 instructions: 118000658 cycles: 47797008 heartbeat IPC: 1.916 cumulative IPC: 1.876 (Simulation time: 00 hr 09 min 33 sec)
Heartbeat CPU 0 instructions: 118500658 cycles: 48050710 heartbeat IPC: 1.971 cumulative IPC: 1.877 (Simulation time: 00 hr 09 min 36 sec)
Heartbeat CPU 0 instructions: 119000661 cycles: 48333364 heartbeat IPC: 1.769 cumulative IPC: 1.876 (Simulation time: 00 hr 09 min 39 sec)
Heartbeat CPU 0 instructions: 119500661 cycles: 48588835 heartbeat IPC: 1.957 cumulative IPC: 1.877 (Simulation time: 00 hr 09 min 42 sec)
Heartbeat CPU 0 instructions: 120000661 cycles: 48834995 heartbeat IPC: 2.031 cumulative IPC: 1.878 (Simulation time: 00 hr 09 min 45 sec)
Heartbeat CPU 0 instructions: 120500662 cycles: 49088911 heartbeat IPC: 1.969 cumulative IPC: 1.879 (Simulation time: 00 hr 09 min 48 sec)
Heartbeat CPU 0 instructions: 121000666 cycles: 49327676 heartbeat IPC: 2.094 cumulative IPC: 1.88 (Simulation time: 00 hr 09 min 50 sec)
Heartbeat CPU 0 instructions: 121500667 cycles: 49994742 heartbeat IPC: 0.7496 cumulative IPC: 1.86 (Simulation time: 00 hr 09 min 55 sec)
Heartbeat CPU 0 instructions: 122000667 cycles: 50728989 heartbeat IPC: 0.681 cumulative IPC: 1.838 (Simulation time: 00 hr 10 min 01 sec)
Heartbeat CPU 0 instructions: 122500671 cycles: 51428481 heartbeat IPC: 0.7148 cumulative IPC: 1.818 (Simulation time: 00 hr 10 min 07 sec)
Heartbeat CPU 0 instructions: 123000671 cycles: 52121575 heartbeat IPC: 0.7214 cumulative IPC: 1.8 (Simulation time: 00 hr 10 min 13 sec)
Heartbeat CPU 0 instructions: 123500672 cycles: 53840158 heartbeat IPC: 0.2909 cumulative IPC: 1.738 (Simulation time: 00 hr 10 min 25 sec)
Heartbeat CPU 0 instructions: 124000674 cycles: 54632983 heartbeat IPC: 0.6307 cumulative IPC: 1.718 (Simulation time: 00 hr 10 min 30 sec)
Heartbeat CPU 0 instructions: 124500674 cycles: 56040157 heartbeat IPC: 0.3553 cumulative IPC: 1.675 (Simulation time: 00 hr 10 min 40 sec)
Heartbeat CPU 0 instructions: 125000675 cycles: 56608055 heartbeat IPC: 0.8804 cumulative IPC: 1.665 (Simulation time: 00 hr 10 min 45 sec)
Heartbeat CPU 0 instructions: 125500677 cycles: 57442106 heartbeat IPC: 0.5995 cumulative IPC: 1.645 (Simulation time: 00 hr 10 min 52 sec)
Heartbeat CPU 0 instructions: 126000682 cycles: 58044630 heartbeat IPC: 0.8299 cumulative IPC: 1.635 (Simulation time: 00 hr 10 min 57 sec)
Heartbeat CPU 0 instructions: 126500686 cycles: 58168156 heartbeat IPC: 4.048 cumulative IPC: 1.641 (Simulation time: 00 hr 10 min 59 sec)
Heartbeat CPU 0 instructions: 127000686 cycles: 58318503 heartbeat IPC: 3.326 cumulative IPC: 1.647 (Simulation time: 00 hr 11 min 01 sec)
Heartbeat CPU 0 instructions: 127500688 cycles: 58441059 heartbeat IPC: 4.08 cumulative IPC: 1.653 (Simulation time: 00 hr 11 min 03 sec)
Heartbeat CPU 0 instructions: 128000690 cycles: 58582073 heartbeat IPC: 3.546 cumulative IPC: 1.659 (Simulation time: 00 hr 11 min 05 sec)
Heartbeat CPU 0 instructions: 128500691 cycles: 58701715 heartbeat IPC: 4.179 cumulative IPC: 1.665 (Simulation time: 00 hr 11 min 07 sec)
Heartbeat CPU 0 instructions: 129000698 cycles: 58835596 heartbeat IPC: 3.735 cumulative IPC: 1.671 (Simulation time: 00 hr 11 min 09 sec)
Heartbeat CPU 0 instructions: 129500703 cycles: 58969340 heartbeat IPC: 3.739 cumulative IPC: 1.677 (Simulation time: 00 hr 11 min 11 sec)
Heartbeat CPU 0 instructions: 130000706 cycles: 59094888 heartbeat IPC: 3.983 cumulative IPC: 1.683 (Simulation time: 00 hr 11 min 14 sec)
Heartbeat CPU 0 instructions: 130500713 cycles: 59223033 heartbeat IPC: 3.902 cumulative IPC: 1.689 (Simulation time: 00 hr 11 min 16 sec)
Heartbeat CPU 0 instructions: 131000719 cycles: 59349954 heartbeat IPC: 3.94 cumulative IPC: 1.695 (Simulation time: 00 hr 11 min 18 sec)
Heartbeat CPU 0 instructions: 131500720 cycles: 59482934 heartbeat IPC: 3.76 cumulative IPC: 1.701 (Simulation time: 00 hr 11 min 20 sec)
Heartbeat CPU 0 instructions: 132000721 cycles: 59604416 heartbeat IPC: 4.116 cumulative IPC: 1.707 (Simulation time: 00 hr 11 min 22 sec)
Heartbeat CPU 0 instructions: 132500724 cycles: 59737745 heartbeat IPC: 3.75 cumulative IPC: 1.712 (Simulation time: 00 hr 11 min 24 sec)
Heartbeat CPU 0 instructions: 133000726 cycles: 59857357 heartbeat IPC: 4.18 cumulative IPC: 1.718 (Simulation time: 00 hr 11 min 26 sec)
Heartbeat CPU 0 instructions: 133500727 cycles: 59993585 heartbeat IPC: 3.67 cumulative IPC: 1.724 (Simulation time: 00 hr 11 min 28 sec)
Heartbeat CPU 0 instructions: 134000729 cycles: 60111311 heartbeat IPC: 4.247 cumulative IPC: 1.73 (Simulation time: 00 hr 11 min 30 sec)
Heartbeat CPU 0 instructions: 134500729 cycles: 60745915 heartbeat IPC: 0.7879 cumulative IPC: 1.718 (Simulation time: 00 hr 11 min 35 sec)
Heartbeat CPU 0 instructions: 135000729 cycles: 61433282 heartbeat IPC: 0.7274 cumulative IPC: 1.704 (Simulation time: 00 hr 11 min 41 sec)
Heartbeat CPU 0 instructions: 135500729 cycles: 61609639 heartbeat IPC: 2.835 cumulative IPC: 1.708 (Simulation time: 00 hr 11 min 43 sec)
Heartbeat CPU 0 instructions: 136000730 cycles: 61741464 heartbeat IPC: 3.793 cumulative IPC: 1.714 (Simulation time: 00 hr 11 min 45 sec)
Heartbeat CPU 0 instructions: 136500733 cycles: 61867676 heartbeat IPC: 3.962 cumulative IPC: 1.719 (Simulation time: 00 hr 11 min 47 sec)
Heartbeat CPU 0 instructions: 137000736 cycles: 61999342 heartbeat IPC: 3.798 cumulative IPC: 1.725 (Simulation time: 00 hr 11 min 50 sec)
Heartbeat CPU 0 instructions: 137500736 cycles: 62123310 heartbeat IPC: 4.033 cumulative IPC: 1.73 (Simulation time: 00 hr 11 min 52 sec)
Heartbeat CPU 0 instructions: 138000737 cycles: 62256957 heartbeat IPC: 3.741 cumulative IPC: 1.736 (Simulation time: 00 hr 11 min 54 sec)
Heartbeat CPU 0 instructions: 138500737 cycles: 62377059 heartbeat IPC: 4.163 cumulative IPC: 1.742 (Simulation time: 00 hr 11 min 56 sec)
Heartbeat CPU 0 instructions: 139000739 cycles: 62510070 heartbeat IPC: 3.759 cumulative IPC: 1.747 (Simulation time: 00 hr 11 min 58 sec)
Heartbeat CPU 0 instructions: 139500742 cycles: 62631771 heartbeat IPC: 4.108 cumulative IPC: 1.752 (Simulation time: 00 hr 12 min 00 sec)
Heartbeat CPU 0 instructions: 140000742 cycles: 62770589 heartbeat IPC: 3.602 cumulative IPC: 1.757 (Simulation time: 00 hr 12 min 02 sec)
Heartbeat CPU 0 instructions: 140500745 cycles: 62913793 heartbeat IPC: 3.492 cumulative IPC: 1.762 (Simulation time: 00 hr 12 min 04 sec)
Heartbeat CPU 0 instructions: 141000752 cycles: 63066786 heartbeat IPC: 3.268 cumulative IPC: 1.767 (Simulation time: 00 hr 12 min 07 sec)
Heartbeat CPU 0 instructions: 141500757 cycles: 63210222 heartbeat IPC: 3.486 cumulative IPC: 1.772 (Simulation time: 00 hr 12 min 09 sec)
Heartbeat CPU 0 instructions: 142000759 cycles: 63365839 heartbeat IPC: 3.213 cumulative IPC: 1.776 (Simulation time: 00 hr 12 min 11 sec)
Heartbeat CPU 0 instructions: 142500766 cycles: 63488092 heartbeat IPC: 4.09 cumulative IPC: 1.781 (Simulation time: 00 hr 12 min 13 sec)
Heartbeat CPU 0 instructions: 143000773 cycles: 63625406 heartbeat IPC: 3.641 cumulative IPC: 1.786 (Simulation time: 00 hr 12 min 15 sec)
Heartbeat CPU 0 instructions: 143500773 cycles: 63756248 heartbeat IPC: 3.821 cumulative IPC: 1.791 (Simulation time: 00 hr 12 min 17 sec)
Heartbeat CPU 0 instructions: 144000777 cycles: 63880839 heartbeat IPC: 4.013 cumulative IPC: 1.797 (Simulation time: 00 hr 12 min 20 sec)
Heartbeat CPU 0 instructions: 144500777 cycles: 64007503 heartbeat IPC: 3.947 cumulative IPC: 1.802 (Simulation time: 00 hr 12 min 22 sec)
Heartbeat CPU 0 instructions: 145000779 cycles: 64130010 heartbeat IPC: 4.081 cumulative IPC: 1.807 (Simulation time: 00 hr 12 min 24 sec)
Heartbeat CPU 0 instructions: 145500779 cycles: 65346347 heartbeat IPC: 0.4111 cumulative IPC: 1.776 (Simulation time: 00 hr 12 min 33 sec)
Heartbeat CPU 0 instructions: 146000783 cycles: 65488634 heartbeat IPC: 3.514 cumulative IPC: 1.78 (Simulation time: 00 hr 12 min 36 sec)
Heartbeat CPU 0 instructions: 146500785 cycles: 65607683 heartbeat IPC: 4.2 cumulative IPC: 1.785 (Simulation time: 00 hr 12 min 38 sec)
Heartbeat CPU 0 instructions: 147000785 cycles: 65746274 heartbeat IPC: 3.608 cumulative IPC: 1.79 (Simulation time: 00 hr 12 min 40 sec)
Heartbeat CPU 0 instructions: 147500788 cycles: 65864826 heartbeat IPC: 4.218 cumulative IPC: 1.795 (Simulation time: 00 hr 12 min 42 sec)
Heartbeat CPU 0 instructions: 148000791 cycles: 66003844 heartbeat IPC: 3.597 cumulative IPC: 1.8 (Simulation time: 00 hr 12 min 44 sec)
Heartbeat CPU 0 instructions: 148500794 cycles: 66125873 heartbeat IPC: 4.097 cumulative IPC: 1.805 (Simulation time: 00 hr 12 min 46 sec)
Heartbeat CPU 0 instructions: 149000801 cycles: 66259934 heartbeat IPC: 3.73 cumulative IPC: 1.81 (Simulation time: 00 hr 12 min 48 sec)
Heartbeat CPU 0 instructions: 149500803 cycles: 66388882 heartbeat IPC: 3.878 cumulative IPC: 1.815 (Simulation time: 00 hr 12 min 50 sec)
Heartbeat CPU 0 instructions: 150000804 cycles: 66513378 heartbeat IPC: 4.016 cumulative IPC: 1.82 (Simulation time: 00 hr 12 min 52 sec)
Heartbeat CPU 0 instructions: 150500804 cycles: 66641918 heartbeat IPC: 3.89 cumulative IPC: 1.825 (Simulation time: 00 hr 12 min 54 sec)
Heartbeat CPU 0 instructions: 151000807 cycles: 66766294 heartbeat IPC: 4.02 cumulative IPC: 1.829 (Simulation time: 00 hr 12 min 56 sec)
Heartbeat CPU 0 instructions: 151500809 cycles: 66896614 heartbeat IPC: 3.837 cumulative IPC: 1.834 (Simulation time: 00 hr 12 min 58 sec)
Heartbeat CPU 0 instructions: 152000810 cycles: 67038375 heartbeat IPC: 3.527 cumulative IPC: 1.839 (Simulation time: 00 hr 13 min 01 sec)
Heartbeat CPU 0 instructions: 152500815 cycles: 67188286 heartbeat IPC: 3.335 cumulative IPC: 1.843 (Simulation time: 00 hr 13 min 03 sec)
Heartbeat CPU 0 instructions: 153000817 cycles: 67306495 heartbeat IPC: 4.23 cumulative IPC: 1.848 (Simulation time: 00 hr 13 min 05 sec)
Heartbeat CPU 0 instructions: 153500818 cycles: 67444284 heartbeat IPC: 3.629 cumulative IPC: 1.852 (Simulation time: 00 hr 13 min 07 sec)
Heartbeat CPU 0 instructions: 154000820 cycles: 67564455 heartbeat IPC: 4.161 cumulative IPC: 1.857 (Simulation time: 00 hr 13 min 09 sec)
Heartbeat CPU 0 instructions: 154500823 cycles: 67698304 heartbeat IPC: 3.736 cumulative IPC: 1.861 (Simulation time: 00 hr 13 min 11 sec)
Heartbeat CPU 0 instructions: 155000824 cycles: 67815667 heartbeat IPC: 4.26 cumulative IPC: 1.866 (Simulation time: 00 hr 13 min 13 sec)
Heartbeat CPU 0 instructions: 155500824 cycles: 68234152 heartbeat IPC: 1.195 cumulative IPC: 1.861 (Simulation time: 00 hr 13 min 17 sec)
Heartbeat CPU 0 instructions: 156000827 cycles: 68738190 heartbeat IPC: 0.992 cumulative IPC: 1.854 (Simulation time: 00 hr 13 min 22 sec)
Heartbeat CPU 0 instructions: 156500833 cycles: 68900013 heartbeat IPC: 3.09 cumulative IPC: 1.857 (Simulation time: 00 hr 13 min 24 sec)
Heartbeat CPU 0 instructions: 157000835 cycles: 69044357 heartbeat IPC: 3.464 cumulative IPC: 1.861 (Simulation time: 00 hr 13 min 27 sec)
Heartbeat CPU 0 instructions: 157500836 cycles: 69215935 heartbeat IPC: 2.914 cumulative IPC: 1.864 (Simulation time: 00 hr 13 min 29 sec)
Heartbeat CPU 0 instructions: 158000838 cycles: 69340588 heartbeat IPC: 4.011 cumulative IPC: 1.869 (Simulation time: 00 hr 13 min 31 sec)
Heartbeat CPU 0 instructions: 158500842 cycles: 69480769 heartbeat IPC: 3.567 cumulative IPC: 1.873 (Simulation time: 00 hr 13 min 33 sec)
Heartbeat CPU 0 instructions: 159000844 cycles: 69604308 heartbeat IPC: 4.047 cumulative IPC: 1.878 (Simulation time: 00 hr 13 min 35 sec)
Heartbeat CPU 0 instructions: 159500847 cycles: 69739637 heartbeat IPC: 3.695 cumulative IPC: 1.882 (Simulation time: 00 hr 13 min 38 sec)
Heartbeat CPU 0 instructions: 160000850 cycles: 69857246 heartbeat IPC: 4.251 cumulative IPC: 1.887 (Simulation time: 00 hr 13 min 40 sec)
Heartbeat CPU 0 instructions: 160500852 cycles: 69988797 heartbeat IPC: 3.801 cumulative IPC: 1.891 (Simulation time: 00 hr 13 min 42 sec)
Heartbeat CPU 0 instructions: 161000856 cycles: 70106135 heartbeat IPC: 4.261 cumulative IPC: 1.896 (Simulation time: 00 hr 13 min 44 sec)
Heartbeat CPU 0 instructions: 161500857 cycles: 70239035 heartbeat IPC: 3.762 cumulative IPC: 1.9 (Simulation time: 00 hr 13 min 46 sec)
Heartbeat CPU 0 instructions: 162000858 cycles: 70356066 heartbeat IPC: 4.272 cumulative IPC: 1.905 (Simulation time: 00 hr 13 min 48 sec)
Heartbeat CPU 0 instructions: 162500860 cycles: 70491338 heartbeat IPC: 3.696 cumulative IPC: 1.909 (Simulation time: 00 hr 13 min 50 sec)
Heartbeat CPU 0 instructions: 163000860 cycles: 70619950 heartbeat IPC: 3.888 cumulative IPC: 1.913 (Simulation time: 00 hr 13 min 52 sec)
Heartbeat CPU 0 instructions: 163500861 cycles: 70743177 heartbeat IPC: 4.058 cumulative IPC: 1.918 (Simulation time: 00 hr 13 min 54 sec)
Heartbeat CPU 0 instructions: 164000861 cycles: 70869794 heartbeat IPC: 3.949 cumulative IPC: 1.922 (Simulation time: 00 hr 13 min 56 sec)
Heartbeat CPU 0 instructions: 164500865 cycles: 70992836 heartbeat IPC: 4.064 cumulative IPC: 1.927 (Simulation time: 00 hr 13 min 58 sec)
Heartbeat CPU 0 instructions: 165000866 cycles: 71123043 heartbeat IPC: 3.84 cumulative IPC: 1.931 (Simulation time: 00 hr 14 min 00 sec)
Heartbeat CPU 0 instructions: 165500868 cycles: 71241719 heartbeat IPC: 4.213 cumulative IPC: 1.935 (Simulation time: 00 hr 14 min 02 sec)
Heartbeat CPU 0 instructions: 166000869 cycles: 71875867 heartbeat IPC: 0.7885 cumulative IPC: 1.923 (Simulation time: 00 hr 14 min 08 sec)
Heartbeat CPU 0 instructions: 166500872 cycles: 72000036 heartbeat IPC: 4.027 cumulative IPC: 1.928 (Simulation time: 00 hr 14 min 10 sec)
Heartbeat CPU 0 instructions: 167000875 cycles: 72132470 heartbeat IPC: 3.775 cumulative IPC: 1.932 (Simulation time: 00 hr 14 min 12 sec)
Heartbeat CPU 0 instructions: 167500877 cycles: 72267127 heartbeat IPC: 3.713 cumulative IPC: 1.936 (Simulation time: 00 hr 14 min 14 sec)
Heartbeat CPU 0 instructions: 168000879 cycles: 72401926 heartbeat IPC: 3.709 cumulative IPC: 1.939 (Simulation time: 00 hr 14 min 16 sec)
Heartbeat CPU 0 instructions: 168500885 cycles: 72530874 heartbeat IPC: 3.878 cumulative IPC: 1.944 (Simulation time: 00 hr 14 min 18 sec)
Heartbeat CPU 0 instructions: 169000885 cycles: 72669989 heartbeat IPC: 3.594 cumulative IPC: 1.947 (Simulation time: 00 hr 14 min 20 sec)
Heartbeat CPU 0 instructions: 169500886 cycles: 72792214 heartbeat IPC: 4.091 cumulative IPC: 1.952 (Simulation time: 00 hr 14 min 23 sec)
Heartbeat CPU 0 instructions: 170000886 cycles: 72932438 heartbeat IPC: 3.566 cumulative IPC: 1.955 (Simulation time: 00 hr 14 min 25 sec)
Heartbeat CPU 0 instructions: 170500893 cycles: 73075505 heartbeat IPC: 3.495 cumulative IPC: 1.959 (Simulation time: 00 hr 14 min 27 sec)
Heartbeat CPU 0 instructions: 171000896 cycles: 73214133 heartbeat IPC: 3.607 cumulative IPC: 1.963 (Simulation time: 00 hr 14 min 29 sec)
Heartbeat CPU 0 instructions: 171500897 cycles: 73331599 heartbeat IPC: 4.257 cumulative IPC: 1.967 (Simulation time: 00 hr 14 min 31 sec)
Heartbeat CPU 0 instructions: 172000899 cycles: 73485835 heartbeat IPC: 3.242 cumulative IPC: 1.97 (Simulation time: 00 hr 14 min 33 sec)
Heartbeat CPU 0 instructions: 172500905 cycles: 73637971 heartbeat IPC: 3.287 cumulative IPC: 1.973 (Simulation time: 00 hr 14 min 36 sec)
Heartbeat CPU 0 instructions: 173000906 cycles: 73782385 heartbeat IPC: 3.462 cumulative IPC: 1.977 (Simulation time: 00 hr 14 min 38 sec)
Heartbeat CPU 0 instructions: 173500908 cycles: 73910821 heartbeat IPC: 3.893 cumulative IPC: 1.981 (Simulation time: 00 hr 14 min 40 sec)
Heartbeat CPU 0 instructions: 174000910 cycles: 74038846 heartbeat IPC: 3.906 cumulative IPC: 1.985 (Simulation time: 00 hr 14 min 42 sec)
Heartbeat CPU 0 instructions: 174500912 cycles: 74168478 heartbeat IPC: 3.857 cumulative IPC: 1.989 (Simulation time: 00 hr 14 min 44 sec)
Heartbeat CPU 0 instructions: 175000916 cycles: 74291995 heartbeat IPC: 4.048 cumulative IPC: 1.993 (Simulation time: 00 hr 14 min 46 sec)
Heartbeat CPU 0 instructions: 175500918 cycles: 74423049 heartbeat IPC: 3.815 cumulative IPC: 1.996 (Simulation time: 00 hr 14 min 48 sec)
Heartbeat CPU 0 instructions: 176000919 cycles: 74977802 heartbeat IPC: 0.9013 cumulative IPC: 1.987 (Simulation time: 00 hr 14 min 53 sec)
Heartbeat CPU 0 instructions: 176500925 cycles: 75676359 heartbeat IPC: 0.7158 cumulative IPC: 1.973 (Simulation time: 00 hr 14 min 59 sec)
Heartbeat CPU 0 instructions: 177000925 cycles: 76024742 heartbeat IPC: 1.435 cumulative IPC: 1.97 (Simulation time: 00 hr 15 min 02 sec)
Heartbeat CPU 0 instructions: 177500925 cycles: 76151868 heartbeat IPC: 3.933 cumulative IPC: 1.974 (Simulation time: 00 hr 15 min 04 sec)
Heartbeat CPU 0 instructions: 178000930 cycles: 76281214 heartbeat IPC: 3.866 cumulative IPC: 1.978 (Simulation time: 00 hr 15 min 07 sec)
Heartbeat CPU 0 instructions: 178500931 cycles: 76407320 heartbeat IPC: 3.965 cumulative IPC: 1.982 (Simulation time: 00 hr 15 min 09 sec)
Heartbeat CPU 0 instructions: 179000932 cycles: 76539083 heartbeat IPC: 3.795 cumulative IPC: 1.985 (Simulation time: 00 hr 15 min 11 sec)
Heartbeat CPU 0 instructions: 179500935 cycles: 76659930 heartbeat IPC: 4.137 cumulative IPC: 1.989 (Simulation time: 00 hr 15 min 13 sec)
Heartbeat CPU 0 instructions: 180000937 cycles: 76792886 heartbeat IPC: 3.761 cumulative IPC: 1.993 (Simulation time: 00 hr 15 min 15 sec)
Heartbeat CPU 0 instructions: 180500943 cycles: 76912002 heartbeat IPC: 4.198 cumulative IPC: 1.997 (Simulation time: 00 hr 15 min 17 sec)
Heartbeat CPU 0 instructions: 181000945 cycles: 77046741 heartbeat IPC: 3.711 cumulative IPC: 2 (Simulation time: 00 hr 15 min 19 sec)
Heartbeat CPU 0 instructions: 181500951 cycles: 77164250 heartbeat IPC: 4.255 cumulative IPC: 2.004 (Simulation time: 00 hr 15 min 21 sec)
Heartbeat CPU 0 instructions: 182000953 cycles: 77296484 heartbeat IPC: 3.781 cumulative IPC: 2.008 (Simulation time: 00 hr 15 min 23 sec)
Heartbeat CPU 0 instructions: 182500954 cycles: 77414214 heartbeat IPC: 4.247 cumulative IPC: 2.012 (Simulation time: 00 hr 15 min 25 sec)
Heartbeat CPU 0 instructions: 183000954 cycles: 77547716 heartbeat IPC: 3.745 cumulative IPC: 2.016 (Simulation time: 00 hr 15 min 27 sec)
Heartbeat CPU 0 instructions: 183500954 cycles: 77665011 heartbeat IPC: 4.263 cumulative IPC: 2.019 (Simulation time: 00 hr 15 min 29 sec)
Heartbeat CPU 0 instructions: 184000955 cycles: 77810594 heartbeat IPC: 3.434 cumulative IPC: 2.023 (Simulation time: 00 hr 15 min 31 sec)
Heartbeat CPU 0 instructions: 184500958 cycles: 77964644 heartbeat IPC: 3.246 cumulative IPC: 2.025 (Simulation time: 00 hr 15 min 34 sec)
Heartbeat CPU 0 instructions: 185000960 cycles: 78113053 heartbeat IPC: 3.369 cumulative IPC: 2.028 (Simulation time: 00 hr 15 min 36 sec)
Heartbeat CPU 0 instructions: 185500962 cycles: 78271042 heartbeat IPC: 3.165 cumulative IPC: 2.031 (Simulation time: 00 hr 15 min 38 sec)
Heartbeat CPU 0 instructions: 186000969 cycles: 78417522 heartbeat IPC: 3.413 cumulative IPC: 2.034 (Simulation time: 00 hr 15 min 40 sec)
Heartbeat CPU 0 instructions: 186500970 cycles: 78579848 heartbeat IPC: 3.08 cumulative IPC: 2.037 (Simulation time: 00 hr 15 min 43 sec)
Heartbeat CPU 0 instructions: 187000970 cycles: 79003281 heartbeat IPC: 1.181 cumulative IPC: 2.031 (Simulation time: 00 hr 15 min 47 sec)
Heartbeat CPU 0 instructions: 187500970 cycles: 79167065 heartbeat IPC: 3.053 cumulative IPC: 2.034 (Simulation time: 00 hr 15 min 49 sec)
Heartbeat CPU 0 instructions: 188000970 cycles: 79318682 heartbeat IPC: 3.298 cumulative IPC: 2.037 (Simulation time: 00 hr 15 min 52 sec)
Heartbeat CPU 0 instructions: 188500970 cycles: 79486099 heartbeat IPC: 2.987 cumulative IPC: 2.039 (Simulation time: 00 hr 15 min 54 sec)
Heartbeat CPU 0 instructions: 189000973 cycles: 79614781 heartbeat IPC: 3.886 cumulative IPC: 2.042 (Simulation time: 00 hr 15 min 56 sec)
Heartbeat CPU 0 instructions: 189500977 cycles: 79750390 heartbeat IPC: 3.687 cumulative IPC: 2.046 (Simulation time: 00 hr 15 min 58 sec)
Heartbeat CPU 0 instructions: 190000980 cycles: 79878290 heartbeat IPC: 3.909 cumulative IPC: 2.049 (Simulation time: 00 hr 16 min 00 sec)
Heartbeat CPU 0 instructions: 190500982 cycles: 80014569 heartbeat IPC: 3.669 cumulative IPC: 2.052 (Simulation time: 00 hr 16 min 03 sec)
Heartbeat CPU 0 instructions: 191000985 cycles: 80134074 heartbeat IPC: 4.184 cumulative IPC: 2.056 (Simulation time: 00 hr 16 min 05 sec)
Heartbeat CPU 0 instructions: 191500986 cycles: 80269244 heartbeat IPC: 3.699 cumulative IPC: 2.059 (Simulation time: 00 hr 16 min 07 sec)
Heartbeat CPU 0 instructions: 192000988 cycles: 80386794 heartbeat IPC: 4.254 cumulative IPC: 2.063 (Simulation time: 00 hr 16 min 09 sec)
Heartbeat CPU 0 instructions: 192500989 cycles: 80519849 heartbeat IPC: 3.758 cumulative IPC: 2.066 (Simulation time: 00 hr 16 min 11 sec)
Heartbeat CPU 0 instructions: 193000992 cycles: 80637871 heartbeat IPC: 4.237 cumulative IPC: 2.07 (Simulation time: 00 hr 16 min 13 sec)
Heartbeat CPU 0 instructions: 193500994 cycles: 80772298 heartbeat IPC: 3.72 cumulative IPC: 2.073 (Simulation time: 00 hr 16 min 15 sec)
Heartbeat CPU 0 instructions: 194000998 cycles: 80890169 heartbeat IPC: 4.242 cumulative IPC: 2.077 (Simulation time: 00 hr 16 min 17 sec)
Heartbeat CPU 0 instructions: 194500998 cycles: 81022621 heartbeat IPC: 3.775 cumulative IPC: 2.08 (Simulation time: 00 hr 16 min 19 sec)
Heartbeat CPU 0 instructions: 195001004 cycles: 81148834 heartbeat IPC: 3.962 cumulative IPC: 2.084 (Simulation time: 00 hr 16 min 21 sec)
Heartbeat CPU 0 instructions: 195501004 cycles: 81273409 heartbeat IPC: 4.014 cumulative IPC: 2.087 (Simulation time: 00 hr 16 min 23 sec)
Heartbeat CPU 0 instructions: 196001004 cycles: 81400098 heartbeat IPC: 3.947 cumulative IPC: 2.09 (Simulation time: 00 hr 16 min 25 sec)
Heartbeat CPU 0 instructions: 196501006 cycles: 81523509 heartbeat IPC: 4.052 cumulative IPC: 2.094 (Simulation time: 00 hr 16 min 28 sec)
Heartbeat CPU 0 instructions: 197001007 cycles: 82087276 heartbeat IPC: 0.8869 cumulative IPC: 2.084 (Simulation time: 00 hr 16 min 32 sec)
Heartbeat CPU 0 instructions: 197501007 cycles: 82568791 heartbeat IPC: 1.038 cumulative IPC: 2.077 (Simulation time: 00 hr 16 min 37 sec)
Heartbeat CPU 0 instructions: 198001008 cycles: 83409043 heartbeat IPC: 0.5951 cumulative IPC: 2.06 (Simulation time: 00 hr 16 min 44 sec)
Heartbeat CPU 0 instructions: 198501014 cycles: 84267075 heartbeat IPC: 0.5827 cumulative IPC: 2.042 (Simulation time: 00 hr 16 min 51 sec)
Heartbeat CPU 0 instructions: 199001016 cycles: 84400971 heartbeat IPC: 3.734 cumulative IPC: 2.046 (Simulation time: 00 hr 16 min 54 sec)
Heartbeat CPU 0 instructions: 199501016 cycles: 84540769 heartbeat IPC: 3.577 cumulative IPC: 2.048 (Simulation time: 00 hr 16 min 56 sec)
Heartbeat CPU 0 instructions: 200001021 cycles: 84704126 heartbeat IPC: 3.061 cumulative IPC: 2.051 (Simulation time: 00 hr 16 min 58 sec)
Heartbeat CPU 0 instructions: 200501023 cycles: 84853093 heartbeat IPC: 3.356 cumulative IPC: 2.053 (Simulation time: 00 hr 17 min 00 sec)
Heartbeat CPU 0 instructions: 201001024 cycles: 84975473 heartbeat IPC: 4.086 cumulative IPC: 2.057 (Simulation time: 00 hr 17 min 02 sec)
Heartbeat CPU 0 instructions: 201501031 cycles: 85115519 heartbeat IPC: 3.57 cumulative IPC: 2.06 (Simulation time: 00 hr 17 min 05 sec)
Heartbeat CPU 0 instructions: 202001031 cycles: 85240642 heartbeat IPC: 3.996 cumulative IPC: 2.063 (Simulation time: 00 hr 17 min 07 sec)
Heartbeat CPU 0 instructions: 202501031 cycles: 85377550 heartbeat IPC: 3.652 cumulative IPC: 2.066 (Simulation time: 00 hr 17 min 09 sec)
Heartbeat CPU 0 instructions: 203001036 cycles: 85495635 heartbeat IPC: 4.234 cumulative IPC: 2.069 (Simulation time: 00 hr 17 min 11 sec)
Heartbeat CPU 0 instructions: 203501041 cycles: 85655517 heartbeat IPC: 3.127 cumulative IPC: 2.072 (Simulation time: 00 hr 17 min 13 sec)
Heartbeat CPU 0 instructions: 204001044 cycles: 85798483 heartbeat IPC: 3.497 cumulative IPC: 2.074 (Simulation time: 00 hr 17 min 15 sec)
Heartbeat CPU 0 instructions: 204501048 cycles: 85948079 heartbeat IPC: 3.342 cumulative IPC: 2.077 (Simulation time: 00 hr 17 min 18 sec)
Heartbeat CPU 0 instructions: 205001048 cycles: 86089995 heartbeat IPC: 3.523 cumulative IPC: 2.08 (Simulation time: 00 hr 17 min 20 sec)
Heartbeat CPU 0 instructions: 205501050 cycles: 86244070 heartbeat IPC: 3.245 cumulative IPC: 2.082 (Simulation time: 00 hr 17 min 22 sec)
Heartbeat CPU 0 instructions: 206001051 cycles: 86378311 heartbeat IPC: 3.725 cumulative IPC: 2.085 (Simulation time: 00 hr 17 min 24 sec)
Heartbeat CPU 0 instructions: 206501051 cycles: 86505689 heartbeat IPC: 3.925 cumulative IPC: 2.088 (Simulation time: 00 hr 17 min 26 sec)
Heartbeat CPU 0 instructions: 207001054 cycles: 86646026 heartbeat IPC: 3.563 cumulative IPC: 2.091 (Simulation time: 00 hr 17 min 29 sec)
Heartbeat CPU 0 instructions: 207501057 cycles: 86774632 heartbeat IPC: 3.888 cumulative IPC: 2.094 (Simulation time: 00 hr 17 min 31 sec)
Heartbeat CPU 0 instructions: 208001062 cycles: 86908972 heartbeat IPC: 3.722 cumulative IPC: 2.097 (Simulation time: 00 hr 17 min 33 sec)
Heartbeat CPU 0 instructions: 208501066 cycles: 87508947 heartbeat IPC: 0.8334 cumulative IPC: 2.087 (Simulation time: 00 hr 17 min 38 sec)
Heartbeat CPU 0 instructions: 209001069 cycles: 88512343 heartbeat IPC: 0.4983 cumulative IPC: 2.066 (Simulation time: 00 hr 17 min 46 sec)
Heartbeat CPU 0 instructions: 209501070 cycles: 88747294 heartbeat IPC: 2.128 cumulative IPC: 2.066 (Simulation time: 00 hr 17 min 49 sec)
Heartbeat CPU 0 instructions: 210001072 cycles: 88885831 heartbeat IPC: 3.609 cumulative IPC: 2.069 (Simulation time: 00 hr 17 min 51 sec)
Heartbeat CPU 0 instructions: 210501075 cycles: 89022275 heartbeat IPC: 3.665 cumulative IPC: 2.072 (Simulation time: 00 hr 17 min 53 sec)
Heartbeat CPU 0 instructions: 211001080 cycles: 89151614 heartbeat IPC: 3.866 cumulative IPC: 2.075 (Simulation time: 00 hr 17 min 55 sec)
Heartbeat CPU 0 instructions: 211501084 cycles: 89287144 heartbeat IPC: 3.689 cumulative IPC: 2.078 (Simulation time: 00 hr 17 min 57 sec)
Heartbeat CPU 0 instructions: 212001085 cycles: 89410486 heartbeat IPC: 4.054 cumulative IPC: 2.081 (Simulation time: 00 hr 17 min 59 sec)
Heartbeat CPU 0 instructions: 212501085 cycles: 89545079 heartbeat IPC: 3.715 cumulative IPC: 2.084 (Simulation time: 00 hr 18 min 01 sec)
Heartbeat CPU 0 instructions: 213001088 cycles: 89669467 heartbeat IPC: 4.02 cumulative IPC: 2.087 (Simulation time: 00 hr 18 min 03 sec)
Heartbeat CPU 0 instructions: 213501091 cycles: 89803304 heartbeat IPC: 3.736 cumulative IPC: 2.09 (Simulation time: 00 hr 18 min 05 sec)
Heartbeat CPU 0 instructions: 214001092 cycles: 89921300 heartbeat IPC: 4.237 cumulative IPC: 2.093 (Simulation time: 00 hr 18 min 07 sec)
Heartbeat CPU 0 instructions: 214501092 cycles: 90055978 heartbeat IPC: 3.713 cumulative IPC: 2.096 (Simulation time: 00 hr 18 min 10 sec)
Heartbeat CPU 0 instructions: 215001094 cycles: 90173336 heartbeat IPC: 4.26 cumulative IPC: 2.099 (Simulation time: 00 hr 18 min 11 sec)
Heartbeat CPU 0 instructions: 215501096 cycles: 90317358 heartbeat IPC: 3.472 cumulative IPC: 2.101 (Simulation time: 00 hr 18 min 14 sec)
Heartbeat CPU 0 instructions: 216001098 cycles: 90458748 heartbeat IPC: 3.536 cumulative IPC: 2.104 (Simulation time: 00 hr 18 min 16 sec)
Heartbeat CPU 0 instructions: 216501098 cycles: 90615659 heartbeat IPC: 3.187 cumulative IPC: 2.106 (Simulation time: 00 hr 18 min 18 sec)
Heartbeat CPU 0 instructions: 217001100 cycles: 90773407 heartbeat IPC: 3.17 cumulative IPC: 2.108 (Simulation time: 00 hr 18 min 20 sec)
Heartbeat CPU 0 instructions: 217501104 cycles: 90919111 heartbeat IPC: 3.432 cumulative IPC: 2.111 (Simulation time: 00 hr 18 min 23 sec)
Heartbeat CPU 0 instructions: 218001106 cycles: 91072335 heartbeat IPC: 3.263 cumulative IPC: 2.113 (Simulation time: 00 hr 18 min 25 sec)
Heartbeat CPU 0 instructions: 218501109 cycles: 91225882 heartbeat IPC: 3.256 cumulative IPC: 2.115 (Simulation time: 00 hr 18 min 27 sec)
Heartbeat CPU 0 instructions: 219001109 cycles: 91383307 heartbeat IPC: 3.176 cumulative IPC: 2.117 (Simulation time: 00 hr 18 min 30 sec)
Heartbeat CPU 0 instructions: 219501113 cycles: 92257746 heartbeat IPC: 0.5718 cumulative IPC: 2.1 (Simulation time: 00 hr 18 min 36 sec)
Heartbeat CPU 0 instructions: 220001117 cycles: 92658534 heartbeat IPC: 1.248 cumulative IPC: 2.096 (Simulation time: 00 hr 18 min 40 sec)
Heartbeat CPU 0 instructions: 220501117 cycles: 92820825 heartbeat IPC: 3.081 cumulative IPC: 2.098 (Simulation time: 00 hr 18 min 42 sec)
Heartbeat CPU 0 instructions: 221001122 cycles: 92972024 heartbeat IPC: 3.307 cumulative IPC: 2.1 (Simulation time: 00 hr 18 min 45 sec)
Heartbeat CPU 0 instructions: 221501126 cycles: 93493345 heartbeat IPC: 0.9591 cumulative IPC: 2.093 (Simulation time: 00 hr 18 min 49 sec)
Heartbeat CPU 0 instructions: 222001127 cycles: 94048018 heartbeat IPC: 0.9014 cumulative IPC: 2.085 (Simulation time: 00 hr 18 min 54 sec)
Heartbeat CPU 0 instructions: 222501127 cycles: 95781397 heartbeat IPC: 0.2885 cumulative IPC: 2.048 (Simulation time: 00 hr 19 min 06 sec)
Heartbeat CPU 0 instructions: 223001129 cycles: 97079886 heartbeat IPC: 0.3851 cumulative IPC: 2.023 (Simulation time: 00 hr 19 min 15 sec)
Heartbeat CPU 0 instructions: 223501129 cycles: 98709252 heartbeat IPC: 0.3069 cumulative IPC: 1.991 (Simulation time: 00 hr 19 min 29 sec)
Heartbeat CPU 0 instructions: 224001130 cycles: 99966586 heartbeat IPC: 0.3977 cumulative IPC: 1.968 (Simulation time: 00 hr 19 min 39 sec)
Heartbeat CPU 0 instructions: 224501136 cycles: 100821206 heartbeat IPC: 0.5851 cumulative IPC: 1.955 (Simulation time: 00 hr 19 min 45 sec)
Heartbeat CPU 0 instructions: 225001136 cycles: 101710465 heartbeat IPC: 0.5623 cumulative IPC: 1.941 (Simulation time: 00 hr 19 min 52 sec)
Heartbeat CPU 0 instructions: 225501139 cycles: 102556925 heartbeat IPC: 0.5907 cumulative IPC: 1.929 (Simulation time: 00 hr 19 min 59 sec)
Heartbeat CPU 0 instructions: 226001144 cycles: 103435961 heartbeat IPC: 0.5688 cumulative IPC: 1.916 (Simulation time: 00 hr 20 min 06 sec)
Heartbeat CPU 0 instructions: 226501144 cycles: 104099937 heartbeat IPC: 0.753 cumulative IPC: 1.907 (Simulation time: 00 hr 20 min 12 sec)
Heartbeat CPU 0 instructions: 227001150 cycles: 104627220 heartbeat IPC: 0.9483 cumulative IPC: 1.902 (Simulation time: 00 hr 20 min 17 sec)
Heartbeat CPU 0 instructions: 227501157 cycles: 105269070 heartbeat IPC: 0.779 cumulative IPC: 1.894 (Simulation time: 00 hr 20 min 23 sec)
Heartbeat CPU 0 instructions: 228001164 cycles: 106158113 heartbeat IPC: 0.5624 cumulative IPC: 1.882 (Simulation time: 00 hr 20 min 30 sec)
Heartbeat CPU 0 instructions: 228501168 cycles: 107134320 heartbeat IPC: 0.5122 cumulative IPC: 1.868 (Simulation time: 00 hr 20 min 38 sec)
Heartbeat CPU 0 instructions: 229001175 cycles: 108018993 heartbeat IPC: 0.5652 cumulative IPC: 1.856 (Simulation time: 00 hr 20 min 45 sec)
Heartbeat CPU 0 instructions: 229501175 cycles: 108908903 heartbeat IPC: 0.5619 cumulative IPC: 1.844 (Simulation time: 00 hr 20 min 52 sec)
Heartbeat CPU 0 instructions: 230001181 cycles: 109758861 heartbeat IPC: 0.5883 cumulative IPC: 1.833 (Simulation time: 00 hr 20 min 59 sec)
Heartbeat CPU 0 instructions: 230501182 cycles: 110780790 heartbeat IPC: 0.4893 cumulative IPC: 1.819 (Simulation time: 00 hr 21 min 09 sec)
Heartbeat CPU 0 instructions: 231001188 cycles: 111806692 heartbeat IPC: 0.4874 cumulative IPC: 1.806 (Simulation time: 00 hr 21 min 17 sec)
Heartbeat CPU 0 instructions: 231501195 cycles: 112068111 heartbeat IPC: 1.913 cumulative IPC: 1.806 (Simulation time: 00 hr 21 min 20 sec)
Heartbeat CPU 0 instructions: 232001199 cycles: 112312562 heartbeat IPC: 2.045 cumulative IPC: 1.806 (Simulation time: 00 hr 21 min 23 sec)
Heartbeat CPU 0 instructions: 232501199 cycles: 112561627 heartbeat IPC: 2.008 cumulative IPC: 1.807 (Simulation time: 00 hr 21 min 26 sec)
Heartbeat CPU 0 instructions: 233001200 cycles: 112820566 heartbeat IPC: 1.931 cumulative IPC: 1.807 (Simulation time: 00 hr 21 min 29 sec)
Heartbeat CPU 0 instructions: 233501204 cycles: 113053971 heartbeat IPC: 2.142 cumulative IPC: 1.808 (Simulation time: 00 hr 21 min 32 sec)
Heartbeat CPU 0 instructions: 234001205 cycles: 113328146 heartbeat IPC: 1.824 cumulative IPC: 1.808 (Simulation time: 00 hr 21 min 36 sec)
Heartbeat CPU 0 instructions: 234501212 cycles: 113570467 heartbeat IPC: 2.063 cumulative IPC: 1.809 (Simulation time: 00 hr 21 min 39 sec)
Heartbeat CPU 0 instructions: 235001217 cycles: 113829894 heartbeat IPC: 1.927 cumulative IPC: 1.809 (Simulation time: 00 hr 21 min 42 sec)
Heartbeat CPU 0 instructions: 235501219 cycles: 114063914 heartbeat IPC: 2.137 cumulative IPC: 1.81 (Simulation time: 00 hr 21 min 45 sec)
Heartbeat CPU 0 instructions: 236001224 cycles: 114305706 heartbeat IPC: 2.068 cumulative IPC: 1.81 (Simulation time: 00 hr 21 min 48 sec)
Heartbeat CPU 0 instructions: 236501225 cycles: 114557417 heartbeat IPC: 1.986 cumulative IPC: 1.811 (Simulation time: 00 hr 21 min 51 sec)
Heartbeat CPU 0 instructions: 237001232 cycles: 114821384 heartbeat IPC: 1.894 cumulative IPC: 1.811 (Simulation time: 00 hr 21 min 54 sec)
Heartbeat CPU 0 instructions: 237501239 cycles: 115101660 heartbeat IPC: 1.784 cumulative IPC: 1.811 (Simulation time: 00 hr 21 min 58 sec)
Heartbeat CPU 0 instructions: 238001240 cycles: 115356640 heartbeat IPC: 1.961 cumulative IPC: 1.811 (Simulation time: 00 hr 22 min 01 sec)
Heartbeat CPU 0 instructions: 238501245 cycles: 116518138 heartbeat IPC: 0.4305 cumulative IPC: 1.796 (Simulation time: 00 hr 22 min 10 sec)
Heartbeat CPU 0 instructions: 239001245 cycles: 117103313 heartbeat IPC: 0.8544 cumulative IPC: 1.791 (Simulation time: 00 hr 22 min 16 sec)
Heartbeat CPU 0 instructions: 239501246 cycles: 117360377 heartbeat IPC: 1.945 cumulative IPC: 1.791 (Simulation time: 00 hr 22 min 19 sec)
Heartbeat CPU 0 instructions: 240001249 cycles: 117614594 heartbeat IPC: 1.967 cumulative IPC: 1.792 (Simulation time: 00 hr 22 min 22 sec)
Heartbeat CPU 0 instructions: 240501254 cycles: 117872918 heartbeat IPC: 1.936 cumulative IPC: 1.792 (Simulation time: 00 hr 22 min 26 sec)
Heartbeat CPU 0 instructions: 241001255 cycles: 118170788 heartbeat IPC: 1.679 cumulative IPC: 1.792 (Simulation time: 00 hr 22 min 29 sec)
Heartbeat CPU 0 instructions: 241501259 cycles: 118491261 heartbeat IPC: 1.56 cumulative IPC: 1.791 (Simulation time: 00 hr 22 min 33 sec)
Heartbeat CPU 0 instructions: 242001261 cycles: 118744383 heartbeat IPC: 1.975 cumulative IPC: 1.791 (Simulation time: 00 hr 22 min 36 sec)
Heartbeat CPU 0 instructions: 242501263 cycles: 119017943 heartbeat IPC: 1.828 cumulative IPC: 1.791 (Simulation time: 00 hr 22 min 40 sec)
Heartbeat CPU 0 instructions: 243001266 cycles: 119266679 heartbeat IPC: 2.01 cumulative IPC: 1.792 (Simulation time: 00 hr 22 min 43 sec)
Heartbeat CPU 0 instructions: 243501270 cycles: 119527612 heartbeat IPC: 1.916 cumulative IPC: 1.792 (Simulation time: 00 hr 22 min 47 sec)
Heartbeat CPU 0 instructions: 244001274 cycles: 119786397 heartbeat IPC: 1.932 cumulative IPC: 1.793 (Simulation time: 00 hr 22 min 50 sec)
Heartbeat CPU 0 instructions: 244501280 cycles: 120071263 heartbeat IPC: 1.755 cumulative IPC: 1.792 (Simulation time: 00 hr 22 min 53 sec)
Heartbeat CPU 0 instructions: 245001280 cycles: 120317373 heartbeat IPC: 2.032 cumulative IPC: 1.793 (Simulation time: 00 hr 22 min 57 sec)
Heartbeat CPU 0 instructions: 245501280 cycles: 120577681 heartbeat IPC: 1.921 cumulative IPC: 1.793 (Simulation time: 00 hr 23 min 00 sec)
Heartbeat CPU 0 instructions: 246001287 cycles: 120826617 heartbeat IPC: 2.009 cumulative IPC: 1.794 (Simulation time: 00 hr 23 min 03 sec)
Heartbeat CPU 0 instructions: 246501291 cycles: 121079756 heartbeat IPC: 1.975 cumulative IPC: 1.794 (Simulation time: 00 hr 23 min 06 sec)
Heartbeat CPU 0 instructions: 247001297 cycles: 121323050 heartbeat IPC: 2.055 cumulative IPC: 1.795 (Simulation time: 00 hr 23 min 10 sec)
Heartbeat CPU 0 instructions: 247501300 cycles: 121601139 heartbeat IPC: 1.798 cumulative IPC: 1.795 (Simulation time: 00 hr 23 min 13 sec)
Heartbeat CPU 0 instructions: 248001305 cycles: 121866218 heartbeat IPC: 1.886 cumulative IPC: 1.795 (Simulation time: 00 hr 23 min 16 sec)
Heartbeat CPU 0 instructions: 248501312 cycles: 122118064 heartbeat IPC: 1.985 cumulative IPC: 1.795 (Simulation time: 00 hr 23 min 20 sec)
Heartbeat CPU 0 instructions: 249001317 cycles: 122702846 heartbeat IPC: 0.855 cumulative IPC: 1.79 (Simulation time: 00 hr 23 min 25 sec)
Heartbeat CPU 0 instructions: 249501320 cycles: 122955858 heartbeat IPC: 1.976 cumulative IPC: 1.791 (Simulation time: 00 hr 23 min 28 sec)
Simulation finished CPU 0 instructions: 200000002 cycles: 111660374 cumulative IPC: 1.791 (Simulation time: 00 hr 23 min 32 sec)
Simulation complete CPU 0 instructions: 200000002 cycles: 111660374 cumulative IPC: 1.791 (Simulation time: 00 hr 23 min 32 sec)

ChampSim completed all CPUs

=== Simulation ===
CPU 0 runs /local-ssd/ben/dpc4-traces/gtraces_v2/arizona_0002.champsim.gz

Region of Interest Statistics

CPU 0 cumulative IPC: 1.791 instructions: 200000002 cycles: 111660374
CPU 0 Branch Prediction Accuracy: 93.98% MPKI: 2.853 Average ROB Occupancy at Mispredict: 42.8
Branch type MPKI
BRANCH_DIRECT_JUMP: 0.06592
BRANCH_INDIRECT: 0.01835
BRANCH_CONDITIONAL: 2.632
BRANCH_DIRECT_CALL: 0.04312
BRANCH_INDIRECT_CALL: 0.01607
BRANCH_RETURN: 0.07738

cpu0->cpu0_STLB TOTAL        ACCESS:     557368 HIT:     431009 MISS:     126359 MSHR_MERGE:          0
cpu0->cpu0_STLB LOAD         ACCESS:     557368 HIT:     431009 MISS:     126359 MSHR_MERGE:          0
cpu0->cpu0_STLB RFO          ACCESS:          0 HIT:          0 MISS:          0 MSHR_MERGE:          0
cpu0->cpu0_STLB PREFETCH     ACCESS:          0 HIT:          0 MISS:          0 MSHR_MERGE:          0
cpu0->cpu0_STLB WRITE        ACCESS:          0 HIT:          0 MISS:          0 MSHR_MERGE:          0
cpu0->cpu0_STLB TRANSLATION  ACCESS:          0 HIT:          0 MISS:          0 MSHR_MERGE:          0
cpu0->cpu0_STLB PREFETCH REQUESTED:          0 ISSUED:          0 USEFUL:          0 USELESS:          0
cpu0->cpu0_STLB AVERAGE MISS LATENCY: 172 cycles
cpu0->cpu0_L2C TOTAL        ACCESS:    2843295 HIT:    1824616 MISS:    1018679 MSHR_MERGE:          0
cpu0->cpu0_L2C LOAD         ACCESS:     792572 HIT:     433331 MISS:     359241 MSHR_MERGE:          0
cpu0->cpu0_L2C RFO          ACCESS:     386415 HIT:     261330 MISS:     125085 MSHR_MERGE:          0
cpu0->cpu0_L2C PREFETCH     ACCESS:     974421 HIT:     494022 MISS:     480399 MSHR_MERGE:          0
cpu0->cpu0_L2C WRITE        ACCESS:     568874 HIT:     568864 MISS:         10 MSHR_MERGE:          0
cpu0->cpu0_L2C TRANSLATION  ACCESS:     121013 HIT:      67069 MISS:      53944 MSHR_MERGE:          0
cpu0->cpu0_L2C PREFETCH REQUESTED:          0 ISSUED:          0 USEFUL:          0 USELESS:          0
cpu0->cpu0_L2C AVERAGE MISS LATENCY: 222.2 cycles
cpu0->cpu0_L1I TOTAL        ACCESS:   26947896 HIT:   26733172 MISS:     214724 MSHR_MERGE:      48638
cpu0->cpu0_L1I LOAD         ACCESS:   26947896 HIT:   26733172 MISS:     214724 MSHR_MERGE:      48638
cpu0->cpu0_L1I RFO          ACCESS:          0 HIT:          0 MISS:          0 MSHR_MERGE:          0
cpu0->cpu0_L1I PREFETCH     ACCESS:          0 HIT:          0 MISS:          0 MSHR_MERGE:          0
cpu0->cpu0_L1I WRITE        ACCESS:          0 HIT:          0 MISS:          0 MSHR_MERGE:          0
cpu0->cpu0_L1I TRANSLATION  ACCESS:          0 HIT:          0 MISS:          0 MSHR_MERGE:          0
cpu0->cpu0_L1I PREFETCH REQUESTED:          0 ISSUED:          0 USEFUL:          0 USELESS:          0
cpu0->cpu0_L1I AVERAGE MISS LATENCY: 93.97 cycles
cpu0->cpu0_L1D TOTAL        ACCESS:   54147799 HIT:   50189299 MISS:    3958500 MSHR_MERGE:    1850133
cpu0->cpu0_L1D LOAD         ACCESS:   23106618 HIT:   22229465 MISS:     877153 MSHR_MERGE:     250658
cpu0->cpu0_L1D RFO          ACCESS:          0 HIT:          0 MISS:          0 MSHR_MERGE:          0
cpu0->cpu0_L1D PREFETCH     ACCESS:   20581068 HIT:   18851863 MISS:    1729205 MSHR_MERGE:     754782
cpu0->cpu0_L1D WRITE        ACCESS:   10158815 HIT:    8930840 MISS:    1227975 MSHR_MERGE:     841539
cpu0->cpu0_L1D TRANSLATION  ACCESS:     301298 HIT:     177131 MISS:     124167 MSHR_MERGE:       3154
cpu0->cpu0_L1D PREFETCH REQUESTED:   24176340 ISSUED:   20581066 USEFUL:     496494 USELESS:     477926
cpu0->cpu0_L1D AVERAGE MISS LATENCY: 101.4 cycles
cpu0->cpu0_ITLB TOTAL        ACCESS:   22568071 HIT:   22523044 MISS:      45027 MSHR_MERGE:      22064
cpu0->cpu0_ITLB LOAD         ACCESS:   22568071 HIT:   22523044 MISS:      45027 MSHR_MERGE:      22064
cpu0->cpu0_ITLB RFO          ACCESS:          0 HIT:          0 MISS:          0 MSHR_MERGE:          0
cpu0->cpu0_ITLB PREFETCH     ACCESS:          0 HIT:          0 MISS:          0 MSHR_MERGE:          0
cpu0->cpu0_ITLB WRITE        ACCESS:          0 HIT:          0 MISS:          0 MSHR_MERGE:          0
cpu0->cpu0_ITLB TRANSLATION  ACCESS:          0 HIT:          0 MISS:          0 MSHR_MERGE:          0
cpu0->cpu0_ITLB PREFETCH REQUESTED:          0 ISSUED:          0 USEFUL:          0 USELESS:          0
cpu0->cpu0_ITLB AVERAGE MISS LATENCY: 44.28 cycles
cpu0->cpu0_DTLB TOTAL        ACCESS:   48941127 HIT:   48096843 MISS:     844284 MSHR_MERGE:     309879
cpu0->cpu0_DTLB LOAD         ACCESS:   48941127 HIT:   48096843 MISS:     844284 MSHR_MERGE:     309879
cpu0->cpu0_DTLB RFO          ACCESS:          0 HIT:          0 MISS:          0 MSHR_MERGE:          0
cpu0->cpu0_DTLB PREFETCH     ACCESS:          0 HIT:          0 MISS:          0 MSHR_MERGE:          0
cpu0->cpu0_DTLB WRITE        ACCESS:          0 HIT:          0 MISS:          0 MSHR_MERGE:          0
cpu0->cpu0_DTLB TRANSLATION  ACCESS:          0 HIT:          0 MISS:          0 MSHR_MERGE:          0
cpu0->cpu0_DTLB PREFETCH REQUESTED:          0 ISSUED:          0 USEFUL:          0 USELESS:          0
cpu0->cpu0_DTLB AVERAGE MISS LATENCY: 44.22 cycles
cpu0->LLC TOTAL        ACCESS:    1420234 HIT:     303842 MISS:    1116392 MSHR_MERGE:          0
cpu0->LLC LOAD         ACCESS:     359238 HIT:      76276 MISS:     282962 MSHR_MERGE:          0
cpu0->LLC RFO          ACCESS:     125085 HIT:       9819 MISS:     115266 MSHR_MERGE:          0
cpu0->LLC PREFETCH     ACCESS:     480399 HIT:      27860 MISS:     452539 MSHR_MERGE:          0
cpu0->LLC WRITE        ACCESS:     401568 HIT:     182521 MISS:     219047 MSHR_MERGE:          0
cpu0->LLC TRANSLATION  ACCESS:      53944 HIT:       7366 MISS:      46578 MSHR_MERGE:          0
cpu0->LLC PREFETCH REQUESTED:          0 ISSUED:          0 USEFUL:          0 USELESS:          0
cpu0->LLC AVERAGE MISS LATENCY: 167.3 cycles

DRAM Statistics

Channel 0 RQ ROW_BUFFER_HIT:      56859
  ROW_BUFFER_MISS:     840403
  AVG DBUS CONGESTED CYCLE: 22.97
Channel 0 WQ ROW_BUFFER_HIT:      81528
  ROW_BUFFER_MISS:     306930
  FULL:       1659
Channel 0 REFRESHES ISSUED:       9304
