[VMEM] WARNING: physical memory size is smaller than virtual memory size.

*** ChampSim Multicore Out-of-Order Simulator ***
Warmup Instructions: 50000000
Simulation Instructions: 200000000
Number of CPUs: 1
Page size: 4096
Core 0: /local-ssd/ben/dpc4-traces/gtraces_v2/sierra.a.3_0003.champsim.gz
Off-chip DRAM Size: 64 GiB Channels: 1 Width: 64-bit Data Rate: 4807 MT/s
Heartbeat CPU 0 instructions: 500003 cycles: 260887 heartbeat IPC: 1.917 cumulative IPC: 1.917 (Simulation time: 00 hr 00 min 04 sec)
[BTB] WARNING: target of return is a lower address than the corresponding call. This is usually a problem with your trace.
Heartbeat CPU 0 instructions: 1000006 cycles: 463435 heartbeat IPC: 2.469 cumulative IPC: 2.158 (Simulation time: 00 hr 00 min 07 sec)
Heartbeat CPU 0 instructions: 1500006 cycles: 657180 heartbeat IPC: 2.581 cumulative IPC: 2.282 (Simulation time: 00 hr 00 min 10 sec)
[BTB] WARNING: target of return is a lower address than the corresponding call. This is usually a problem with your trace.
[BTB] WARNING: target of return is a lower address than the corresponding call. This is usually a problem with your trace.
Heartbeat CPU 0 instructions: 2000010 cycles: 848509 heartbeat IPC: 2.613 cumulative IPC: 2.357 (Simulation time: 00 hr 00 min 13 sec)
Heartbeat CPU 0 instructions: 2500010 cycles: 1044847 heartbeat IPC: 2.547 cumulative IPC: 2.393 (Simulation time: 00 hr 00 min 16 sec)
Heartbeat CPU 0 instructions: 3000016 cycles: 1232202 heartbeat IPC: 2.669 cumulative IPC: 2.435 (Simulation time: 00 hr 00 min 19 sec)
[BTB] WARNING: target of return is a lower address than the corresponding call. This is usually a problem with your trace.
Heartbeat CPU 0 instructions: 3500018 cycles: 1418077 heartbeat IPC: 2.69 cumulative IPC: 2.468 (Simulation time: 00 hr 00 min 22 sec)
Heartbeat CPU 0 instructions: 4000018 cycles: 1606576 heartbeat IPC: 2.653 cumulative IPC: 2.49 (Simulation time: 00 hr 00 min 25 sec)
[BTB] WARNING: target of return is a lower address than the corresponding call. This is usually a problem with your trace.
Heartbeat CPU 0 instructions: 4500021 cycles: 1790893 heartbeat IPC: 2.713 cumulative IPC: 2.513 (Simulation time: 00 hr 00 min 28 sec)
[BTB] WARNING: target of return is a lower address than the corresponding call. This is usually a problem with your trace.
[BTB] WARNING: target of return is a lower address than the corresponding call. This is usually a problem with your trace.
Heartbeat CPU 0 instructions: 5000021 cycles: 1966232 heartbeat IPC: 2.852 cumulative IPC: 2.543 (Simulation time: 00 hr 00 min 31 sec)
[BTB] WARNING: target of return is a lower address than the corresponding call. This is usually a problem with your trace.
[BTB] WARNING: target of return is a lower address than the corresponding call. This is usually a problem with your trace.
[BTB] WARNING: target of return is a lower address than the corresponding call. This is usually a problem with your trace.
Heartbeat CPU 0 instructions: 5500027 cycles: 2139320 heartbeat IPC: 2.889 cumulative IPC: 2.571 (Simulation time: 00 hr 00 min 33 sec)
Heartbeat CPU 0 instructions: 6000031 cycles: 2310919 heartbeat IPC: 2.914 cumulative IPC: 2.596 (Simulation time: 00 hr 00 min 36 sec)
Heartbeat CPU 0 instructions: 6500036 cycles: 2482139 heartbeat IPC: 2.92 cumulative IPC: 2.619 (Simulation time: 00 hr 00 min 39 sec)
Heartbeat CPU 0 instructions: 7000040 cycles: 2654616 heartbeat IPC: 2.899 cumulative IPC: 2.637 (Simulation time: 00 hr 00 min 42 sec)
Heartbeat CPU 0 instructions: 7500044 cycles: 2822421 heartbeat IPC: 2.98 cumulative IPC: 2.657 (Simulation time: 00 hr 00 min 45 sec)
Heartbeat CPU 0 instructions: 8000047 cycles: 2991101 heartbeat IPC: 2.964 cumulative IPC: 2.675 (Simulation time: 00 hr 00 min 47 sec)
Heartbeat CPU 0 instructions: 8500050 cycles: 3155013 heartbeat IPC: 3.05 cumulative IPC: 2.694 (Simulation time: 00 hr 00 min 50 sec)
Heartbeat CPU 0 instructions: 9000052 cycles: 3317369 heartbeat IPC: 3.08 cumulative IPC: 2.713 (Simulation time: 00 hr 00 min 53 sec)
Heartbeat CPU 0 instructions: 9500058 cycles: 3480702 heartbeat IPC: 3.061 cumulative IPC: 2.729 (Simulation time: 00 hr 00 min 55 sec)
Heartbeat CPU 0 instructions: 10000064 cycles: 3644626 heartbeat IPC: 3.05 cumulative IPC: 2.744 (Simulation time: 00 hr 00 min 58 sec)
Heartbeat CPU 0 instructions: 10500064 cycles: 3882905 heartbeat IPC: 2.098 cumulative IPC: 2.704 (Simulation time: 00 hr 01 min 01 sec)
Heartbeat CPU 0 instructions: 11000067 cycles: 4056710 heartbeat IPC: 2.877 cumulative IPC: 2.712 (Simulation time: 00 hr 01 min 04 sec)
Heartbeat CPU 0 instructions: 11500074 cycles: 4193972 heartbeat IPC: 3.643 cumulative IPC: 2.742 (Simulation time: 00 hr 01 min 06 sec)
Heartbeat CPU 0 instructions: 12000074 cycles: 4308100 heartbeat IPC: 4.381 cumulative IPC: 2.785 (Simulation time: 00 hr 01 min 08 sec)
Heartbeat CPU 0 instructions: 12500081 cycles: 4450003 heartbeat IPC: 3.524 cumulative IPC: 2.809 (Simulation time: 00 hr 01 min 10 sec)
Heartbeat CPU 0 instructions: 13000084 cycles: 4681570 heartbeat IPC: 2.159 cumulative IPC: 2.777 (Simulation time: 00 hr 01 min 13 sec)
Heartbeat CPU 0 instructions: 13500088 cycles: 4826522 heartbeat IPC: 3.449 cumulative IPC: 2.797 (Simulation time: 00 hr 01 min 16 sec)
Heartbeat CPU 0 instructions: 14000088 cycles: 5015172 heartbeat IPC: 2.65 cumulative IPC: 2.792 (Simulation time: 00 hr 01 min 18 sec)
Heartbeat CPU 0 instructions: 14500093 cycles: 5186917 heartbeat IPC: 2.911 cumulative IPC: 2.796 (Simulation time: 00 hr 01 min 21 sec)
Heartbeat CPU 0 instructions: 15000093 cycles: 5325160 heartbeat IPC: 3.617 cumulative IPC: 2.817 (Simulation time: 00 hr 01 min 24 sec)
Heartbeat CPU 0 instructions: 15500099 cycles: 5474962 heartbeat IPC: 3.338 cumulative IPC: 2.831 (Simulation time: 00 hr 01 min 26 sec)
Heartbeat CPU 0 instructions: 16000099 cycles: 5597856 heartbeat IPC: 4.069 cumulative IPC: 2.858 (Simulation time: 00 hr 01 min 29 sec)
Heartbeat CPU 0 instructions: 16500106 cycles: 5721895 heartbeat IPC: 4.031 cumulative IPC: 2.884 (Simulation time: 00 hr 01 min 31 sec)
Heartbeat CPU 0 instructions: 17000110 cycles: 5847275 heartbeat IPC: 3.988 cumulative IPC: 2.907 (Simulation time: 00 hr 01 min 33 sec)
Heartbeat CPU 0 instructions: 17500115 cycles: 5971669 heartbeat IPC: 4.02 cumulative IPC: 2.931 (Simulation time: 00 hr 01 min 36 sec)
Heartbeat CPU 0 instructions: 18000118 cycles: 6095886 heartbeat IPC: 4.025 cumulative IPC: 2.953 (Simulation time: 00 hr 01 min 38 sec)
Heartbeat CPU 0 instructions: 18500123 cycles: 6218844 heartbeat IPC: 4.066 cumulative IPC: 2.975 (Simulation time: 00 hr 01 min 40 sec)
Heartbeat CPU 0 instructions: 19000128 cycles: 6343812 heartbeat IPC: 4.001 cumulative IPC: 2.995 (Simulation time: 00 hr 01 min 42 sec)
Heartbeat CPU 0 instructions: 19500132 cycles: 6461897 heartbeat IPC: 4.234 cumulative IPC: 3.018 (Simulation time: 00 hr 01 min 44 sec)
Heartbeat CPU 0 instructions: 20000134 cycles: 6566550 heartbeat IPC: 4.778 cumulative IPC: 3.046 (Simulation time: 00 hr 01 min 46 sec)
Heartbeat CPU 0 instructions: 20500134 cycles: 6668731 heartbeat IPC: 4.893 cumulative IPC: 3.074 (Simulation time: 00 hr 01 min 48 sec)
Heartbeat CPU 0 instructions: 21000138 cycles: 6769772 heartbeat IPC: 4.949 cumulative IPC: 3.102 (Simulation time: 00 hr 01 min 50 sec)
Heartbeat CPU 0 instructions: 21500140 cycles: 6870658 heartbeat IPC: 4.956 cumulative IPC: 3.129 (Simulation time: 00 hr 01 min 51 sec)
Heartbeat CPU 0 instructions: 22000147 cycles: 6972434 heartbeat IPC: 4.913 cumulative IPC: 3.155 (Simulation time: 00 hr 01 min 53 sec)
Heartbeat CPU 0 instructions: 22500151 cycles: 7073056 heartbeat IPC: 4.969 cumulative IPC: 3.181 (Simulation time: 00 hr 01 min 55 sec)
Heartbeat CPU 0 instructions: 23000154 cycles: 7193649 heartbeat IPC: 4.146 cumulative IPC: 3.197 (Simulation time: 00 hr 01 min 56 sec)
Heartbeat CPU 0 instructions: 23500161 cycles: 7313262 heartbeat IPC: 4.18 cumulative IPC: 3.213 (Simulation time: 00 hr 01 min 58 sec)
Heartbeat CPU 0 instructions: 24000161 cycles: 7483934 heartbeat IPC: 2.93 cumulative IPC: 3.207 (Simulation time: 00 hr 02 min 01 sec)
Heartbeat CPU 0 instructions: 24500161 cycles: 7637990 heartbeat IPC: 3.246 cumulative IPC: 3.208 (Simulation time: 00 hr 02 min 04 sec)
Heartbeat CPU 0 instructions: 25000162 cycles: 7765687 heartbeat IPC: 3.916 cumulative IPC: 3.219 (Simulation time: 00 hr 02 min 06 sec)
Heartbeat CPU 0 instructions: 25500162 cycles: 7932679 heartbeat IPC: 2.994 cumulative IPC: 3.215 (Simulation time: 00 hr 02 min 08 sec)
Heartbeat CPU 0 instructions: 26000162 cycles: 8104538 heartbeat IPC: 2.909 cumulative IPC: 3.208 (Simulation time: 00 hr 02 min 11 sec)
Heartbeat CPU 0 instructions: 26500162 cycles: 8273445 heartbeat IPC: 2.96 cumulative IPC: 3.203 (Simulation time: 00 hr 02 min 14 sec)
Heartbeat CPU 0 instructions: 27000169 cycles: 8401506 heartbeat IPC: 3.904 cumulative IPC: 3.214 (Simulation time: 00 hr 02 min 16 sec)
Heartbeat CPU 0 instructions: 27500170 cycles: 8539051 heartbeat IPC: 3.635 cumulative IPC: 3.221 (Simulation time: 00 hr 02 min 18 sec)
Heartbeat CPU 0 instructions: 28000175 cycles: 8641605 heartbeat IPC: 4.876 cumulative IPC: 3.24 (Simulation time: 00 hr 02 min 20 sec)
Heartbeat CPU 0 instructions: 28500180 cycles: 8743947 heartbeat IPC: 4.886 cumulative IPC: 3.259 (Simulation time: 00 hr 02 min 21 sec)
Heartbeat CPU 0 instructions: 29000187 cycles: 8902805 heartbeat IPC: 3.148 cumulative IPC: 3.257 (Simulation time: 00 hr 02 min 24 sec)
Heartbeat CPU 0 instructions: 29500190 cycles: 9064787 heartbeat IPC: 3.087 cumulative IPC: 3.254 (Simulation time: 00 hr 02 min 26 sec)
Heartbeat CPU 0 instructions: 30000191 cycles: 9204594 heartbeat IPC: 3.576 cumulative IPC: 3.259 (Simulation time: 00 hr 02 min 29 sec)
Heartbeat CPU 0 instructions: 30500191 cycles: 9329724 heartbeat IPC: 3.996 cumulative IPC: 3.269 (Simulation time: 00 hr 02 min 31 sec)
Heartbeat CPU 0 instructions: 31000192 cycles: 9489671 heartbeat IPC: 3.126 cumulative IPC: 3.267 (Simulation time: 00 hr 02 min 33 sec)
Heartbeat CPU 0 instructions: 31500197 cycles: 9661773 heartbeat IPC: 2.905 cumulative IPC: 3.26 (Simulation time: 00 hr 02 min 36 sec)
Heartbeat CPU 0 instructions: 32000199 cycles: 9814856 heartbeat IPC: 3.266 cumulative IPC: 3.26 (Simulation time: 00 hr 02 min 38 sec)
Heartbeat CPU 0 instructions: 32500205 cycles: 9945658 heartbeat IPC: 3.823 cumulative IPC: 3.268 (Simulation time: 00 hr 02 min 41 sec)
Heartbeat CPU 0 instructions: 33000206 cycles: 10071692 heartbeat IPC: 3.967 cumulative IPC: 3.277 (Simulation time: 00 hr 02 min 43 sec)
Heartbeat CPU 0 instructions: 33500211 cycles: 10202355 heartbeat IPC: 3.827 cumulative IPC: 3.284 (Simulation time: 00 hr 02 min 45 sec)
Heartbeat CPU 0 instructions: 34000216 cycles: 10338901 heartbeat IPC: 3.662 cumulative IPC: 3.289 (Simulation time: 00 hr 02 min 48 sec)
Heartbeat CPU 0 instructions: 34500218 cycles: 10497851 heartbeat IPC: 3.146 cumulative IPC: 3.286 (Simulation time: 00 hr 02 min 50 sec)
Heartbeat CPU 0 instructions: 35000222 cycles: 10663097 heartbeat IPC: 3.026 cumulative IPC: 3.282 (Simulation time: 00 hr 02 min 53 sec)
Heartbeat CPU 0 instructions: 35500223 cycles: 10794188 heartbeat IPC: 3.814 cumulative IPC: 3.289 (Simulation time: 00 hr 02 min 55 sec)
Heartbeat CPU 0 instructions: 36000225 cycles: 10922064 heartbeat IPC: 3.91 cumulative IPC: 3.296 (Simulation time: 00 hr 02 min 58 sec)
Heartbeat CPU 0 instructions: 36500231 cycles: 11077803 heartbeat IPC: 3.211 cumulative IPC: 3.295 (Simulation time: 00 hr 03 min 00 sec)
Heartbeat CPU 0 instructions: 37000235 cycles: 11234433 heartbeat IPC: 3.192 cumulative IPC: 3.293 (Simulation time: 00 hr 03 min 03 sec)
Heartbeat CPU 0 instructions: 37500241 cycles: 11401042 heartbeat IPC: 3.001 cumulative IPC: 3.289 (Simulation time: 00 hr 03 min 05 sec)
Heartbeat CPU 0 instructions: 38000244 cycles: 11538761 heartbeat IPC: 3.631 cumulative IPC: 3.293 (Simulation time: 00 hr 03 min 08 sec)
Heartbeat CPU 0 instructions: 38500251 cycles: 11687348 heartbeat IPC: 3.365 cumulative IPC: 3.294 (Simulation time: 00 hr 03 min 10 sec)
Heartbeat CPU 0 instructions: 39000254 cycles: 11819697 heartbeat IPC: 3.778 cumulative IPC: 3.3 (Simulation time: 00 hr 03 min 13 sec)
Heartbeat CPU 0 instructions: 39500254 cycles: 11932667 heartbeat IPC: 4.426 cumulative IPC: 3.31 (Simulation time: 00 hr 03 min 14 sec)
Heartbeat CPU 0 instructions: 40000255 cycles: 12061527 heartbeat IPC: 3.88 cumulative IPC: 3.316 (Simulation time: 00 hr 03 min 17 sec)
Heartbeat CPU 0 instructions: 40500257 cycles: 12186512 heartbeat IPC: 4 cumulative IPC: 3.323 (Simulation time: 00 hr 03 min 19 sec)
Heartbeat CPU 0 instructions: 41000262 cycles: 12340594 heartbeat IPC: 3.245 cumulative IPC: 3.322 (Simulation time: 00 hr 03 min 21 sec)
Heartbeat CPU 0 instructions: 41500266 cycles: 12491788 heartbeat IPC: 3.307 cumulative IPC: 3.322 (Simulation time: 00 hr 03 min 24 sec)
Heartbeat CPU 0 instructions: 42000273 cycles: 12648001 heartbeat IPC: 3.201 cumulative IPC: 3.321 (Simulation time: 00 hr 03 min 27 sec)
Heartbeat CPU 0 instructions: 42500275 cycles: 12782291 heartbeat IPC: 3.723 cumulative IPC: 3.325 (Simulation time: 00 hr 03 min 29 sec)
Heartbeat CPU 0 instructions: 43000275 cycles: 12924168 heartbeat IPC: 3.524 cumulative IPC: 3.327 (Simulation time: 00 hr 03 min 31 sec)
Heartbeat CPU 0 instructions: 43500275 cycles: 13060651 heartbeat IPC: 3.663 cumulative IPC: 3.331 (Simulation time: 00 hr 03 min 34 sec)
Heartbeat CPU 0 instructions: 44000277 cycles: 13188880 heartbeat IPC: 3.899 cumulative IPC: 3.336 (Simulation time: 00 hr 03 min 36 sec)
Heartbeat CPU 0 instructions: 44500281 cycles: 13312788 heartbeat IPC: 4.035 cumulative IPC: 3.343 (Simulation time: 00 hr 03 min 38 sec)
Heartbeat CPU 0 instructions: 45000284 cycles: 13435708 heartbeat IPC: 4.068 cumulative IPC: 3.349 (Simulation time: 00 hr 03 min 40 sec)
Heartbeat CPU 0 instructions: 45500284 cycles: 13568632 heartbeat IPC: 3.762 cumulative IPC: 3.353 (Simulation time: 00 hr 03 min 43 sec)
Heartbeat CPU 0 instructions: 46000285 cycles: 13696092 heartbeat IPC: 3.923 cumulative IPC: 3.359 (Simulation time: 00 hr 03 min 45 sec)
Heartbeat CPU 0 instructions: 46500291 cycles: 13821306 heartbeat IPC: 3.993 cumulative IPC: 3.364 (Simulation time: 00 hr 03 min 47 sec)
Heartbeat CPU 0 instructions: 47000293 cycles: 13966665 heartbeat IPC: 3.44 cumulative IPC: 3.365 (Simulation time: 00 hr 03 min 50 sec)
Heartbeat CPU 0 instructions: 47500298 cycles: 14138419 heartbeat IPC: 2.911 cumulative IPC: 3.36 (Simulation time: 00 hr 03 min 52 sec)
Heartbeat CPU 0 instructions: 48000305 cycles: 14248391 heartbeat IPC: 4.547 cumulative IPC: 3.369 (Simulation time: 00 hr 03 min 54 sec)
Heartbeat CPU 0 instructions: 48500310 cycles: 14398726 heartbeat IPC: 3.326 cumulative IPC: 3.368 (Simulation time: 00 hr 03 min 57 sec)
Heartbeat CPU 0 instructions: 49000316 cycles: 14563996 heartbeat IPC: 3.025 cumulative IPC: 3.364 (Simulation time: 00 hr 03 min 59 sec)
Heartbeat CPU 0 instructions: 49500323 cycles: 14723903 heartbeat IPC: 3.127 cumulative IPC: 3.362 (Simulation time: 00 hr 04 min 02 sec)
Warmup halting CPU 0 at instruction 50000002 cycle 14872904 for remainder of phase
Warmup finished CPU 0 instructions: 50000002 cycles: 14872904 cumulative IPC: 3.362 (Simulation time: 00 hr 04 min 04 sec)
Warmup complete CPU 0 instructions: 50000002 cycles: 14872904 cumulative IPC: 3.362 (Simulation time: 00 hr 04 min 04 sec)
Heartbeat CPU 0 instructions: 50000325 cycles: 14872969 heartbeat IPC: 3.354 cumulative IPC: 4.969 (Simulation time: 00 hr 04 min 04 sec)
Heartbeat CPU 0 instructions: 50500326 cycles: 16190429 heartbeat IPC: 0.3795 cumulative IPC: 0.3797 (Simulation time: 00 hr 04 min 13 sec)
Heartbeat CPU 0 instructions: 51000327 cycles: 18187099 heartbeat IPC: 0.2504 cumulative IPC: 0.3018 (Simulation time: 00 hr 04 min 26 sec)
Heartbeat CPU 0 instructions: 51500327 cycles: 19692131 heartbeat IPC: 0.3322 cumulative IPC: 0.3113 (Simulation time: 00 hr 04 min 36 sec)
Heartbeat CPU 0 instructions: 52000327 cycles: 21627654 heartbeat IPC: 0.2583 cumulative IPC: 0.2961 (Simulation time: 00 hr 04 min 49 sec)
Heartbeat CPU 0 instructions: 52500327 cycles: 23562158 heartbeat IPC: 0.2585 cumulative IPC: 0.2877 (Simulation time: 00 hr 05 min 01 sec)
Heartbeat CPU 0 instructions: 53000327 cycles: 24955502 heartbeat IPC: 0.3588 cumulative IPC: 0.2976 (Simulation time: 00 hr 05 min 11 sec)
Heartbeat CPU 0 instructions: 53500327 cycles: 25888579 heartbeat IPC: 0.5359 cumulative IPC: 0.3178 (Simulation time: 00 hr 05 min 17 sec)
Heartbeat CPU 0 instructions: 54000328 cycles: 28497917 heartbeat IPC: 0.1916 cumulative IPC: 0.2936 (Simulation time: 00 hr 05 min 33 sec)
Heartbeat CPU 0 instructions: 54500328 cycles: 31382100 heartbeat IPC: 0.1734 cumulative IPC: 0.2726 (Simulation time: 00 hr 05 min 51 sec)
Heartbeat CPU 0 instructions: 55000328 cycles: 32519396 heartbeat IPC: 0.4396 cumulative IPC: 0.2834 (Simulation time: 00 hr 05 min 59 sec)
Heartbeat CPU 0 instructions: 55500329 cycles: 34064830 heartbeat IPC: 0.3235 cumulative IPC: 0.2866 (Simulation time: 00 hr 06 min 09 sec)
Heartbeat CPU 0 instructions: 56000329 cycles: 35082809 heartbeat IPC: 0.4912 cumulative IPC: 0.2969 (Simulation time: 00 hr 06 min 17 sec)
Heartbeat CPU 0 instructions: 56500332 cycles: 37100329 heartbeat IPC: 0.2478 cumulative IPC: 0.2924 (Simulation time: 00 hr 06 min 30 sec)
Heartbeat CPU 0 instructions: 57000338 cycles: 38589762 heartbeat IPC: 0.3357 cumulative IPC: 0.2952 (Simulation time: 00 hr 06 min 40 sec)
Heartbeat CPU 0 instructions: 57500340 cycles: 39796964 heartbeat IPC: 0.4142 cumulative IPC: 0.3009 (Simulation time: 00 hr 06 min 49 sec)
Heartbeat CPU 0 instructions: 58000342 cycles: 41579694 heartbeat IPC: 0.2805 cumulative IPC: 0.2996 (Simulation time: 00 hr 07 min 01 sec)
Heartbeat CPU 0 instructions: 58500342 cycles: 42766105 heartbeat IPC: 0.4214 cumulative IPC: 0.3047 (Simulation time: 00 hr 07 min 09 sec)
Heartbeat CPU 0 instructions: 59000343 cycles: 44762456 heartbeat IPC: 0.2505 cumulative IPC: 0.3011 (Simulation time: 00 hr 07 min 22 sec)
Heartbeat CPU 0 instructions: 59500343 cycles: 46386144 heartbeat IPC: 0.3079 cumulative IPC: 0.3015 (Simulation time: 00 hr 07 min 33 sec)
Heartbeat CPU 0 instructions: 60000349 cycles: 47912159 heartbeat IPC: 0.3277 cumulative IPC: 0.3027 (Simulation time: 00 hr 07 min 43 sec)
Heartbeat CPU 0 instructions: 60500351 cycles: 49310973 heartbeat IPC: 0.3574 cumulative IPC: 0.3049 (Simulation time: 00 hr 07 min 53 sec)
Heartbeat CPU 0 instructions: 61000351 cycles: 50557303 heartbeat IPC: 0.4012 cumulative IPC: 0.3083 (Simulation time: 00 hr 08 min 02 sec)
Heartbeat CPU 0 instructions: 61500356 cycles: 53136417 heartbeat IPC: 0.1939 cumulative IPC: 0.3006 (Simulation time: 00 hr 08 min 18 sec)
Heartbeat CPU 0 instructions: 62000362 cycles: 55530763 heartbeat IPC: 0.2088 cumulative IPC: 0.2952 (Simulation time: 00 hr 08 min 33 sec)
Heartbeat CPU 0 instructions: 62500365 cycles: 57074201 heartbeat IPC: 0.324 cumulative IPC: 0.2962 (Simulation time: 00 hr 08 min 43 sec)
Heartbeat CPU 0 instructions: 63000366 cycles: 58847680 heartbeat IPC: 0.2819 cumulative IPC: 0.2956 (Simulation time: 00 hr 08 min 54 sec)
Heartbeat CPU 0 instructions: 63500366 cycles: 60501667 heartbeat IPC: 0.3023 cumulative IPC: 0.2959 (Simulation time: 00 hr 09 min 05 sec)
Heartbeat CPU 0 instructions: 64000373 cycles: 61307188 heartbeat IPC: 0.6207 cumulative IPC: 0.3015 (Simulation time: 00 hr 09 min 11 sec)
Heartbeat CPU 0 instructions: 64500375 cycles: 63497262 heartbeat IPC: 0.2283 cumulative IPC: 0.2982 (Simulation time: 00 hr 09 min 25 sec)
Heartbeat CPU 0 instructions: 65000377 cycles: 65330951 heartbeat IPC: 0.2727 cumulative IPC: 0.2973 (Simulation time: 00 hr 09 min 37 sec)
Heartbeat CPU 0 instructions: 65500377 cycles: 66637179 heartbeat IPC: 0.3828 cumulative IPC: 0.2994 (Simulation time: 00 hr 09 min 46 sec)
Heartbeat CPU 0 instructions: 66000377 cycles: 67431645 heartbeat IPC: 0.6294 cumulative IPC: 0.3044 (Simulation time: 00 hr 09 min 52 sec)
Heartbeat CPU 0 instructions: 66500380 cycles: 68424806 heartbeat IPC: 0.5034 cumulative IPC: 0.3081 (Simulation time: 00 hr 09 min 59 sec)
Heartbeat CPU 0 instructions: 67000381 cycles: 69525042 heartbeat IPC: 0.4544 cumulative IPC: 0.3111 (Simulation time: 00 hr 10 min 06 sec)
Heartbeat CPU 0 instructions: 67500381 cycles: 71627469 heartbeat IPC: 0.2378 cumulative IPC: 0.3084 (Simulation time: 00 hr 10 min 20 sec)
Heartbeat CPU 0 instructions: 68000383 cycles: 73448801 heartbeat IPC: 0.2745 cumulative IPC: 0.3073 (Simulation time: 00 hr 10 min 32 sec)
Heartbeat CPU 0 instructions: 68500383 cycles: 74052457 heartbeat IPC: 0.8283 cumulative IPC: 0.3126 (Simulation time: 00 hr 10 min 38 sec)
Heartbeat CPU 0 instructions: 69000383 cycles: 75628295 heartbeat IPC: 0.3173 cumulative IPC: 0.3127 (Simulation time: 00 hr 10 min 48 sec)
Heartbeat CPU 0 instructions: 69500383 cycles: 77449515 heartbeat IPC: 0.2745 cumulative IPC: 0.3116 (Simulation time: 00 hr 11 min 00 sec)
Heartbeat CPU 0 instructions: 70000383 cycles: 78807092 heartbeat IPC: 0.3683 cumulative IPC: 0.3128 (Simulation time: 00 hr 11 min 09 sec)
Heartbeat CPU 0 instructions: 70500384 cycles: 81133245 heartbeat IPC: 0.2149 cumulative IPC: 0.3094 (Simulation time: 00 hr 11 min 24 sec)
Heartbeat CPU 0 instructions: 71000384 cycles: 83002789 heartbeat IPC: 0.2674 cumulative IPC: 0.3082 (Simulation time: 00 hr 11 min 35 sec)
Heartbeat CPU 0 instructions: 71500384 cycles: 84711296 heartbeat IPC: 0.2927 cumulative IPC: 0.3079 (Simulation time: 00 hr 11 min 47 sec)
Heartbeat CPU 0 instructions: 72000389 cycles: 85231218 heartbeat IPC: 0.9617 cumulative IPC: 0.3127 (Simulation time: 00 hr 11 min 51 sec)
Heartbeat CPU 0 instructions: 72500390 cycles: 85562296 heartbeat IPC: 1.51 cumulative IPC: 0.3183 (Simulation time: 00 hr 11 min 54 sec)
Heartbeat CPU 0 instructions: 73000390 cycles: 85903493 heartbeat IPC: 1.465 cumulative IPC: 0.3238 (Simulation time: 00 hr 11 min 57 sec)
Heartbeat CPU 0 instructions: 73500391 cycles: 86184335 heartbeat IPC: 1.78 cumulative IPC: 0.3295 (Simulation time: 00 hr 12 min 00 sec)
Heartbeat CPU 0 instructions: 74000391 cycles: 86456490 heartbeat IPC: 1.837 cumulative IPC: 0.3353 (Simulation time: 00 hr 12 min 03 sec)
Heartbeat CPU 0 instructions: 74500396 cycles: 86798958 heartbeat IPC: 1.46 cumulative IPC: 0.3406 (Simulation time: 00 hr 12 min 06 sec)
Heartbeat CPU 0 instructions: 75000398 cycles: 86992428 heartbeat IPC: 2.584 cumulative IPC: 0.3467 (Simulation time: 00 hr 12 min 08 sec)
Heartbeat CPU 0 instructions: 75500398 cycles: 88003887 heartbeat IPC: 0.4943 cumulative IPC: 0.3487 (Simulation time: 00 hr 12 min 15 sec)
Heartbeat CPU 0 instructions: 76000399 cycles: 89553195 heartbeat IPC: 0.3227 cumulative IPC: 0.3482 (Simulation time: 00 hr 12 min 25 sec)
Heartbeat CPU 0 instructions: 76500399 cycles: 92033997 heartbeat IPC: 0.2015 cumulative IPC: 0.3434 (Simulation time: 00 hr 12 min 41 sec)
Heartbeat CPU 0 instructions: 77000404 cycles: 93456376 heartbeat IPC: 0.3515 cumulative IPC: 0.3436 (Simulation time: 00 hr 12 min 51 sec)
Heartbeat CPU 0 instructions: 77500404 cycles: 94939166 heartbeat IPC: 0.3372 cumulative IPC: 0.3435 (Simulation time: 00 hr 13 min 01 sec)
Heartbeat CPU 0 instructions: 78000406 cycles: 95242468 heartbeat IPC: 1.649 cumulative IPC: 0.3484 (Simulation time: 00 hr 13 min 04 sec)
Heartbeat CPU 0 instructions: 78500406 cycles: 95551186 heartbeat IPC: 1.62 cumulative IPC: 0.3533 (Simulation time: 00 hr 13 min 07 sec)
Heartbeat CPU 0 instructions: 79000407 cycles: 95818467 heartbeat IPC: 1.871 cumulative IPC: 0.3583 (Simulation time: 00 hr 13 min 10 sec)
Heartbeat CPU 0 instructions: 79500412 cycles: 96156454 heartbeat IPC: 1.479 cumulative IPC: 0.3629 (Simulation time: 00 hr 13 min 13 sec)
Heartbeat CPU 0 instructions: 80000418 cycles: 96426883 heartbeat IPC: 1.849 cumulative IPC: 0.3679 (Simulation time: 00 hr 13 min 15 sec)
Heartbeat CPU 0 instructions: 80500421 cycles: 96599661 heartbeat IPC: 2.894 cumulative IPC: 0.3732 (Simulation time: 00 hr 13 min 18 sec)
Heartbeat CPU 0 instructions: 81000422 cycles: 97726612 heartbeat IPC: 0.4437 cumulative IPC: 0.3742 (Simulation time: 00 hr 13 min 25 sec)
Heartbeat CPU 0 instructions: 81500424 cycles: 100424589 heartbeat IPC: 0.1853 cumulative IPC: 0.3682 (Simulation time: 00 hr 13 min 42 sec)
Heartbeat CPU 0 instructions: 82000424 cycles: 102894040 heartbeat IPC: 0.2025 cumulative IPC: 0.3636 (Simulation time: 00 hr 13 min 57 sec)
Heartbeat CPU 0 instructions: 82500424 cycles: 104592003 heartbeat IPC: 0.2945 cumulative IPC: 0.3622 (Simulation time: 00 hr 14 min 08 sec)
Heartbeat CPU 0 instructions: 83000424 cycles: 106136115 heartbeat IPC: 0.3238 cumulative IPC: 0.3616 (Simulation time: 00 hr 14 min 18 sec)
Heartbeat CPU 0 instructions: 83500428 cycles: 107593871 heartbeat IPC: 0.343 cumulative IPC: 0.3613 (Simulation time: 00 hr 14 min 28 sec)
Heartbeat CPU 0 instructions: 84000431 cycles: 109100950 heartbeat IPC: 0.3318 cumulative IPC: 0.3608 (Simulation time: 00 hr 14 min 38 sec)
Heartbeat CPU 0 instructions: 84500435 cycles: 110573457 heartbeat IPC: 0.3396 cumulative IPC: 0.3605 (Simulation time: 00 hr 14 min 48 sec)
Heartbeat CPU 0 instructions: 85000439 cycles: 112082325 heartbeat IPC: 0.3314 cumulative IPC: 0.3601 (Simulation time: 00 hr 14 min 58 sec)
Heartbeat CPU 0 instructions: 85500439 cycles: 113530074 heartbeat IPC: 0.3454 cumulative IPC: 0.3598 (Simulation time: 00 hr 15 min 08 sec)
Heartbeat CPU 0 instructions: 86000440 cycles: 115038876 heartbeat IPC: 0.3314 cumulative IPC: 0.3594 (Simulation time: 00 hr 15 min 19 sec)
Heartbeat CPU 0 instructions: 86500440 cycles: 116299534 heartbeat IPC: 0.3966 cumulative IPC: 0.3599 (Simulation time: 00 hr 15 min 27 sec)
Heartbeat CPU 0 instructions: 87000440 cycles: 119336331 heartbeat IPC: 0.1646 cumulative IPC: 0.3542 (Simulation time: 00 hr 15 min 47 sec)
Heartbeat CPU 0 instructions: 87500442 cycles: 120003619 heartbeat IPC: 0.7493 cumulative IPC: 0.3567 (Simulation time: 00 hr 15 min 52 sec)
Heartbeat CPU 0 instructions: 88000442 cycles: 121661244 heartbeat IPC: 0.3016 cumulative IPC: 0.3558 (Simulation time: 00 hr 16 min 03 sec)
Heartbeat CPU 0 instructions: 88500442 cycles: 123073380 heartbeat IPC: 0.3541 cumulative IPC: 0.3558 (Simulation time: 00 hr 16 min 12 sec)
Heartbeat CPU 0 instructions: 89000443 cycles: 124380006 heartbeat IPC: 0.3827 cumulative IPC: 0.3561 (Simulation time: 00 hr 16 min 21 sec)
Heartbeat CPU 0 instructions: 89500444 cycles: 126192811 heartbeat IPC: 0.2758 cumulative IPC: 0.3548 (Simulation time: 00 hr 16 min 33 sec)
Heartbeat CPU 0 instructions: 90000446 cycles: 127833070 heartbeat IPC: 0.3048 cumulative IPC: 0.3541 (Simulation time: 00 hr 16 min 43 sec)
Heartbeat CPU 0 instructions: 90500448 cycles: 128429130 heartbeat IPC: 0.8388 cumulative IPC: 0.3567 (Simulation time: 00 hr 16 min 48 sec)
Heartbeat CPU 0 instructions: 91000448 cycles: 128834250 heartbeat IPC: 1.234 cumulative IPC: 0.3598 (Simulation time: 00 hr 16 min 52 sec)
Heartbeat CPU 0 instructions: 91500448 cycles: 130393378 heartbeat IPC: 0.3207 cumulative IPC: 0.3592 (Simulation time: 00 hr 17 min 02 sec)
Heartbeat CPU 0 instructions: 92000448 cycles: 131355307 heartbeat IPC: 0.5198 cumulative IPC: 0.3606 (Simulation time: 00 hr 17 min 09 sec)
Heartbeat CPU 0 instructions: 92500450 cycles: 131890643 heartbeat IPC: 0.934 cumulative IPC: 0.3632 (Simulation time: 00 hr 17 min 13 sec)
Heartbeat CPU 0 instructions: 93000456 cycles: 132590565 heartbeat IPC: 0.7144 cumulative IPC: 0.3653 (Simulation time: 00 hr 17 min 19 sec)
Heartbeat CPU 0 instructions: 93500458 cycles: 132833103 heartbeat IPC: 2.062 cumulative IPC: 0.3688 (Simulation time: 00 hr 17 min 22 sec)
Heartbeat CPU 0 instructions: 94000459 cycles: 133055432 heartbeat IPC: 2.249 cumulative IPC: 0.3723 (Simulation time: 00 hr 17 min 24 sec)
Heartbeat CPU 0 instructions: 94500466 cycles: 133267436 heartbeat IPC: 2.358 cumulative IPC: 0.3759 (Simulation time: 00 hr 17 min 26 sec)
Heartbeat CPU 0 instructions: 95000472 cycles: 133472159 heartbeat IPC: 2.442 cumulative IPC: 0.3794 (Simulation time: 00 hr 17 min 29 sec)
Heartbeat CPU 0 instructions: 95500473 cycles: 133823844 heartbeat IPC: 1.422 cumulative IPC: 0.3825 (Simulation time: 00 hr 17 min 32 sec)
Heartbeat CPU 0 instructions: 96000478 cycles: 134001353 heartbeat IPC: 2.817 cumulative IPC: 0.3861 (Simulation time: 00 hr 17 min 34 sec)
Heartbeat CPU 0 instructions: 96500478 cycles: 134994083 heartbeat IPC: 0.5037 cumulative IPC: 0.3871 (Simulation time: 00 hr 17 min 42 sec)
Heartbeat CPU 0 instructions: 97000479 cycles: 136226685 heartbeat IPC: 0.4056 cumulative IPC: 0.3873 (Simulation time: 00 hr 17 min 50 sec)
Heartbeat CPU 0 instructions: 97500482 cycles: 136882526 heartbeat IPC: 0.7624 cumulative IPC: 0.3893 (Simulation time: 00 hr 17 min 55 sec)
Heartbeat CPU 0 instructions: 98000482 cycles: 139603566 heartbeat IPC: 0.1838 cumulative IPC: 0.3848 (Simulation time: 00 hr 18 min 13 sec)
Heartbeat CPU 0 instructions: 98500483 cycles: 142408382 heartbeat IPC: 0.1783 cumulative IPC: 0.3803 (Simulation time: 00 hr 18 min 31 sec)
Heartbeat CPU 0 instructions: 99000483 cycles: 145255381 heartbeat IPC: 0.1756 cumulative IPC: 0.3758 (Simulation time: 00 hr 18 min 49 sec)
Heartbeat CPU 0 instructions: 99500483 cycles: 147005428 heartbeat IPC: 0.2857 cumulative IPC: 0.3746 (Simulation time: 00 hr 19 min 00 sec)
Heartbeat CPU 0 instructions: 100000483 cycles: 149010147 heartbeat IPC: 0.2494 cumulative IPC: 0.3728 (Simulation time: 00 hr 19 min 13 sec)
Heartbeat CPU 0 instructions: 100500483 cycles: 149939189 heartbeat IPC: 0.5382 cumulative IPC: 0.3739 (Simulation time: 00 hr 19 min 19 sec)
Heartbeat CPU 0 instructions: 101000487 cycles: 150389697 heartbeat IPC: 1.11 cumulative IPC: 0.3763 (Simulation time: 00 hr 19 min 23 sec)
Heartbeat CPU 0 instructions: 101500494 cycles: 150729258 heartbeat IPC: 1.473 cumulative IPC: 0.3791 (Simulation time: 00 hr 19 min 26 sec)
Heartbeat CPU 0 instructions: 102000494 cycles: 151877542 heartbeat IPC: 0.4354 cumulative IPC: 0.3796 (Simulation time: 00 hr 19 min 34 sec)
Heartbeat CPU 0 instructions: 102500494 cycles: 153655229 heartbeat IPC: 0.2813 cumulative IPC: 0.3783 (Simulation time: 00 hr 19 min 45 sec)
Heartbeat CPU 0 instructions: 103000494 cycles: 154976969 heartbeat IPC: 0.3783 cumulative IPC: 0.3783 (Simulation time: 00 hr 19 min 54 sec)
Heartbeat CPU 0 instructions: 103500494 cycles: 155483691 heartbeat IPC: 0.9867 cumulative IPC: 0.3805 (Simulation time: 00 hr 19 min 58 sec)
Heartbeat CPU 0 instructions: 104000496 cycles: 155853579 heartbeat IPC: 1.352 cumulative IPC: 0.383 (Simulation time: 00 hr 20 min 01 sec)
Heartbeat CPU 0 instructions: 104500500 cycles: 156186353 heartbeat IPC: 1.503 cumulative IPC: 0.3857 (Simulation time: 00 hr 20 min 04 sec)
Heartbeat CPU 0 instructions: 105000500 cycles: 158025042 heartbeat IPC: 0.2719 cumulative IPC: 0.3842 (Simulation time: 00 hr 20 min 16 sec)
Heartbeat CPU 0 instructions: 105500505 cycles: 159348877 heartbeat IPC: 0.3777 cumulative IPC: 0.3842 (Simulation time: 00 hr 20 min 24 sec)
Heartbeat CPU 0 instructions: 106000506 cycles: 160640739 heartbeat IPC: 0.387 cumulative IPC: 0.3842 (Simulation time: 00 hr 20 min 33 sec)
Heartbeat CPU 0 instructions: 106500510 cycles: 162708877 heartbeat IPC: 0.2418 cumulative IPC: 0.3822 (Simulation time: 00 hr 20 min 46 sec)
Heartbeat CPU 0 instructions: 107000516 cycles: 163325566 heartbeat IPC: 0.8108 cumulative IPC: 0.384 (Simulation time: 00 hr 20 min 51 sec)
Heartbeat CPU 0 instructions: 107500522 cycles: 163642468 heartbeat IPC: 1.578 cumulative IPC: 0.3865 (Simulation time: 00 hr 20 min 55 sec)
Heartbeat CPU 0 instructions: 108000523 cycles: 163948173 heartbeat IPC: 1.636 cumulative IPC: 0.3891 (Simulation time: 00 hr 20 min 58 sec)
Heartbeat CPU 0 instructions: 108500524 cycles: 164329368 heartbeat IPC: 1.312 cumulative IPC: 0.3914 (Simulation time: 00 hr 21 min 01 sec)
Heartbeat CPU 0 instructions: 109000526 cycles: 164723521 heartbeat IPC: 1.269 cumulative IPC: 0.3937 (Simulation time: 00 hr 21 min 05 sec)
Heartbeat CPU 0 instructions: 109500532 cycles: 165035545 heartbeat IPC: 1.602 cumulative IPC: 0.3962 (Simulation time: 00 hr 21 min 08 sec)
Heartbeat CPU 0 instructions: 110000539 cycles: 165346432 heartbeat IPC: 1.608 cumulative IPC: 0.3987 (Simulation time: 00 hr 21 min 11 sec)
Heartbeat CPU 0 instructions: 110500539 cycles: 165530649 heartbeat IPC: 2.714 cumulative IPC: 0.4016 (Simulation time: 00 hr 21 min 13 sec)
Heartbeat CPU 0 instructions: 111000542 cycles: 166317298 heartbeat IPC: 0.6356 cumulative IPC: 0.4028 (Simulation time: 00 hr 21 min 19 sec)
Heartbeat CPU 0 instructions: 111500542 cycles: 168217337 heartbeat IPC: 0.2632 cumulative IPC: 0.4011 (Simulation time: 00 hr 21 min 31 sec)
Heartbeat CPU 0 instructions: 112000543 cycles: 170078595 heartbeat IPC: 0.2686 cumulative IPC: 0.3995 (Simulation time: 00 hr 21 min 43 sec)
Heartbeat CPU 0 instructions: 112500543 cycles: 171651501 heartbeat IPC: 0.3179 cumulative IPC: 0.3987 (Simulation time: 00 hr 21 min 53 sec)
Heartbeat CPU 0 instructions: 113000544 cycles: 172982756 heartbeat IPC: 0.3756 cumulative IPC: 0.3985 (Simulation time: 00 hr 22 min 03 sec)
Heartbeat CPU 0 instructions: 113500544 cycles: 174506482 heartbeat IPC: 0.3281 cumulative IPC: 0.3978 (Simulation time: 00 hr 22 min 13 sec)
Heartbeat CPU 0 instructions: 114000551 cycles: 175844106 heartbeat IPC: 0.3738 cumulative IPC: 0.3976 (Simulation time: 00 hr 22 min 21 sec)
Heartbeat CPU 0 instructions: 114500551 cycles: 178064456 heartbeat IPC: 0.2252 cumulative IPC: 0.3952 (Simulation time: 00 hr 22 min 35 sec)
Heartbeat CPU 0 instructions: 115000552 cycles: 179297955 heartbeat IPC: 0.4054 cumulative IPC: 0.3953 (Simulation time: 00 hr 22 min 44 sec)
Heartbeat CPU 0 instructions: 115500555 cycles: 180541618 heartbeat IPC: 0.402 cumulative IPC: 0.3954 (Simulation time: 00 hr 22 min 52 sec)
Heartbeat CPU 0 instructions: 116000556 cycles: 181986893 heartbeat IPC: 0.346 cumulative IPC: 0.3949 (Simulation time: 00 hr 23 min 01 sec)
Heartbeat CPU 0 instructions: 116500558 cycles: 183177065 heartbeat IPC: 0.4201 cumulative IPC: 0.3951 (Simulation time: 00 hr 23 min 10 sec)
Heartbeat CPU 0 instructions: 117000562 cycles: 183805253 heartbeat IPC: 0.7959 cumulative IPC: 0.3966 (Simulation time: 00 hr 23 min 15 sec)
Heartbeat CPU 0 instructions: 117500564 cycles: 184100540 heartbeat IPC: 1.693 cumulative IPC: 0.3989 (Simulation time: 00 hr 23 min 18 sec)
Heartbeat CPU 0 instructions: 118000565 cycles: 184510634 heartbeat IPC: 1.219 cumulative IPC: 0.4009 (Simulation time: 00 hr 23 min 21 sec)
Heartbeat CPU 0 instructions: 118500569 cycles: 184782991 heartbeat IPC: 1.836 cumulative IPC: 0.4032 (Simulation time: 00 hr 23 min 24 sec)
Heartbeat CPU 0 instructions: 119000573 cycles: 185043044 heartbeat IPC: 1.923 cumulative IPC: 0.4055 (Simulation time: 00 hr 23 min 27 sec)
Heartbeat CPU 0 instructions: 119500575 cycles: 185320295 heartbeat IPC: 1.803 cumulative IPC: 0.4078 (Simulation time: 00 hr 23 min 29 sec)
Heartbeat CPU 0 instructions: 120000576 cycles: 185647748 heartbeat IPC: 1.527 cumulative IPC: 0.4099 (Simulation time: 00 hr 23 min 33 sec)
Heartbeat CPU 0 instructions: 120500580 cycles: 185903587 heartbeat IPC: 1.954 cumulative IPC: 0.4122 (Simulation time: 00 hr 23 min 35 sec)
Heartbeat CPU 0 instructions: 121000581 cycles: 186676281 heartbeat IPC: 0.6471 cumulative IPC: 0.4133 (Simulation time: 00 hr 23 min 41 sec)
Heartbeat CPU 0 instructions: 121500582 cycles: 186852287 heartbeat IPC: 2.841 cumulative IPC: 0.4158 (Simulation time: 00 hr 23 min 43 sec)
Heartbeat CPU 0 instructions: 122000584 cycles: 187022145 heartbeat IPC: 2.944 cumulative IPC: 0.4182 (Simulation time: 00 hr 23 min 45 sec)
Heartbeat CPU 0 instructions: 122500586 cycles: 187255998 heartbeat IPC: 2.138 cumulative IPC: 0.4206 (Simulation time: 00 hr 23 min 47 sec)
Heartbeat CPU 0 instructions: 123000589 cycles: 189487451 heartbeat IPC: 0.2241 cumulative IPC: 0.4181 (Simulation time: 00 hr 24 min 01 sec)
Heartbeat CPU 0 instructions: 123500589 cycles: 192015004 heartbeat IPC: 0.1978 cumulative IPC: 0.4149 (Simulation time: 00 hr 24 min 17 sec)
Heartbeat CPU 0 instructions: 124000590 cycles: 194027500 heartbeat IPC: 0.2484 cumulative IPC: 0.4131 (Simulation time: 00 hr 24 min 31 sec)
Heartbeat CPU 0 instructions: 124500590 cycles: 195271866 heartbeat IPC: 0.4018 cumulative IPC: 0.413 (Simulation time: 00 hr 24 min 40 sec)
Heartbeat CPU 0 instructions: 125000592 cycles: 197534275 heartbeat IPC: 0.221 cumulative IPC: 0.4106 (Simulation time: 00 hr 24 min 54 sec)
Heartbeat CPU 0 instructions: 125500596 cycles: 199184335 heartbeat IPC: 0.303 cumulative IPC: 0.4096 (Simulation time: 00 hr 25 min 04 sec)
Heartbeat CPU 0 instructions: 126000596 cycles: 200822440 heartbeat IPC: 0.3052 cumulative IPC: 0.4087 (Simulation time: 00 hr 25 min 14 sec)
Heartbeat CPU 0 instructions: 126500597 cycles: 201617043 heartbeat IPC: 0.6292 cumulative IPC: 0.4097 (Simulation time: 00 hr 25 min 20 sec)
Heartbeat CPU 0 instructions: 127000598 cycles: 202003522 heartbeat IPC: 1.294 cumulative IPC: 0.4115 (Simulation time: 00 hr 25 min 23 sec)
Heartbeat CPU 0 instructions: 127500598 cycles: 202313101 heartbeat IPC: 1.615 cumulative IPC: 0.4135 (Simulation time: 00 hr 25 min 26 sec)
Heartbeat CPU 0 instructions: 128000598 cycles: 202637058 heartbeat IPC: 1.543 cumulative IPC: 0.4154 (Simulation time: 00 hr 25 min 29 sec)
Heartbeat CPU 0 instructions: 128500598 cycles: 202932686 heartbeat IPC: 1.691 cumulative IPC: 0.4174 (Simulation time: 00 hr 25 min 31 sec)
Heartbeat CPU 0 instructions: 129000600 cycles: 203220313 heartbeat IPC: 1.738 cumulative IPC: 0.4194 (Simulation time: 00 hr 25 min 34 sec)
Heartbeat CPU 0 instructions: 129500603 cycles: 203597316 heartbeat IPC: 1.326 cumulative IPC: 0.4213 (Simulation time: 00 hr 25 min 38 sec)
Heartbeat CPU 0 instructions: 130000606 cycles: 203902306 heartbeat IPC: 1.639 cumulative IPC: 0.4232 (Simulation time: 00 hr 25 min 41 sec)
Heartbeat CPU 0 instructions: 130500608 cycles: 205972867 heartbeat IPC: 0.2415 cumulative IPC: 0.4212 (Simulation time: 00 hr 25 min 53 sec)
Heartbeat CPU 0 instructions: 131000612 cycles: 206281510 heartbeat IPC: 1.62 cumulative IPC: 0.4232 (Simulation time: 00 hr 25 min 56 sec)
Heartbeat CPU 0 instructions: 131500612 cycles: 206572103 heartbeat IPC: 1.721 cumulative IPC: 0.4251 (Simulation time: 00 hr 25 min 59 sec)
Heartbeat CPU 0 instructions: 132000612 cycles: 206858259 heartbeat IPC: 1.747 cumulative IPC: 0.4271 (Simulation time: 00 hr 26 min 01 sec)
Heartbeat CPU 0 instructions: 132500613 cycles: 208600976 heartbeat IPC: 0.2869 cumulative IPC: 0.4259 (Simulation time: 00 hr 26 min 12 sec)
Heartbeat CPU 0 instructions: 133000613 cycles: 210123203 heartbeat IPC: 0.3285 cumulative IPC: 0.4251 (Simulation time: 00 hr 26 min 21 sec)
Heartbeat CPU 0 instructions: 133500614 cycles: 211529494 heartbeat IPC: 0.3555 cumulative IPC: 0.4246 (Simulation time: 00 hr 26 min 31 sec)
Heartbeat CPU 0 instructions: 134000620 cycles: 212803459 heartbeat IPC: 0.3925 cumulative IPC: 0.4244 (Simulation time: 00 hr 26 min 39 sec)
Heartbeat CPU 0 instructions: 134500624 cycles: 213167768 heartbeat IPC: 1.372 cumulative IPC: 0.4261 (Simulation time: 00 hr 26 min 42 sec)
Heartbeat CPU 0 instructions: 135000624 cycles: 213551620 heartbeat IPC: 1.303 cumulative IPC: 0.4278 (Simulation time: 00 hr 26 min 45 sec)
Heartbeat CPU 0 instructions: 135500624 cycles: 214066876 heartbeat IPC: 0.9704 cumulative IPC: 0.4292 (Simulation time: 00 hr 26 min 49 sec)
Heartbeat CPU 0 instructions: 136000624 cycles: 214818519 heartbeat IPC: 0.6652 cumulative IPC: 0.4301 (Simulation time: 00 hr 26 min 54 sec)
Heartbeat CPU 0 instructions: 136500631 cycles: 217294348 heartbeat IPC: 0.202 cumulative IPC: 0.4273 (Simulation time: 00 hr 27 min 09 sec)
Heartbeat CPU 0 instructions: 137000631 cycles: 218686565 heartbeat IPC: 0.3591 cumulative IPC: 0.4269 (Simulation time: 00 hr 27 min 17 sec)
Heartbeat CPU 0 instructions: 137500635 cycles: 219054237 heartbeat IPC: 1.36 cumulative IPC: 0.4285 (Simulation time: 00 hr 27 min 21 sec)
Heartbeat CPU 0 instructions: 138000639 cycles: 219447982 heartbeat IPC: 1.27 cumulative IPC: 0.4302 (Simulation time: 00 hr 27 min 24 sec)
Heartbeat CPU 0 instructions: 138500640 cycles: 220485354 heartbeat IPC: 0.482 cumulative IPC: 0.4304 (Simulation time: 00 hr 27 min 31 sec)
Heartbeat CPU 0 instructions: 139000640 cycles: 222273127 heartbeat IPC: 0.2797 cumulative IPC: 0.4291 (Simulation time: 00 hr 27 min 42 sec)
Heartbeat CPU 0 instructions: 139500642 cycles: 223482294 heartbeat IPC: 0.4135 cumulative IPC: 0.429 (Simulation time: 00 hr 27 min 50 sec)
Heartbeat CPU 0 instructions: 140000642 cycles: 225796268 heartbeat IPC: 0.2161 cumulative IPC: 0.4267 (Simulation time: 00 hr 28 min 03 sec)
Heartbeat CPU 0 instructions: 140500647 cycles: 227054645 heartbeat IPC: 0.3973 cumulative IPC: 0.4265 (Simulation time: 00 hr 28 min 11 sec)
Heartbeat CPU 0 instructions: 141000647 cycles: 227994431 heartbeat IPC: 0.532 cumulative IPC: 0.427 (Simulation time: 00 hr 28 min 18 sec)
Heartbeat CPU 0 instructions: 141500653 cycles: 228468693 heartbeat IPC: 1.054 cumulative IPC: 0.4284 (Simulation time: 00 hr 28 min 22 sec)
Heartbeat CPU 0 instructions: 142000653 cycles: 228731573 heartbeat IPC: 1.902 cumulative IPC: 0.4302 (Simulation time: 00 hr 28 min 24 sec)
Heartbeat CPU 0 instructions: 142500655 cycles: 230473729 heartbeat IPC: 0.287 cumulative IPC: 0.429 (Simulation time: 00 hr 28 min 35 sec)
Heartbeat CPU 0 instructions: 143000657 cycles: 232036977 heartbeat IPC: 0.3198 cumulative IPC: 0.4283 (Simulation time: 00 hr 28 min 45 sec)
Heartbeat CPU 0 instructions: 143500657 cycles: 233047403 heartbeat IPC: 0.4948 cumulative IPC: 0.4286 (Simulation time: 00 hr 28 min 52 sec)
Heartbeat CPU 0 instructions: 144000664 cycles: 234124900 heartbeat IPC: 0.464 cumulative IPC: 0.4287 (Simulation time: 00 hr 28 min 59 sec)
Heartbeat CPU 0 instructions: 144500664 cycles: 236462377 heartbeat IPC: 0.2139 cumulative IPC: 0.4265 (Simulation time: 00 hr 29 min 13 sec)
Heartbeat CPU 0 instructions: 145000664 cycles: 237868299 heartbeat IPC: 0.3556 cumulative IPC: 0.426 (Simulation time: 00 hr 29 min 21 sec)
Heartbeat CPU 0 instructions: 145500664 cycles: 238946383 heartbeat IPC: 0.4638 cumulative IPC: 0.4262 (Simulation time: 00 hr 29 min 28 sec)
Heartbeat CPU 0 instructions: 146000668 cycles: 240602093 heartbeat IPC: 0.302 cumulative IPC: 0.4253 (Simulation time: 00 hr 29 min 39 sec)
Heartbeat CPU 0 instructions: 146500671 cycles: 241734126 heartbeat IPC: 0.4417 cumulative IPC: 0.4254 (Simulation time: 00 hr 29 min 46 sec)
Heartbeat CPU 0 instructions: 147000671 cycles: 243323301 heartbeat IPC: 0.3146 cumulative IPC: 0.4246 (Simulation time: 00 hr 29 min 56 sec)
Heartbeat CPU 0 instructions: 147500671 cycles: 244444202 heartbeat IPC: 0.4461 cumulative IPC: 0.4247 (Simulation time: 00 hr 30 min 03 sec)
Heartbeat CPU 0 instructions: 148000672 cycles: 245192630 heartbeat IPC: 0.6681 cumulative IPC: 0.4255 (Simulation time: 00 hr 30 min 08 sec)
Heartbeat CPU 0 instructions: 148500673 cycles: 246457537 heartbeat IPC: 0.3953 cumulative IPC: 0.4253 (Simulation time: 00 hr 30 min 16 sec)
Heartbeat CPU 0 instructions: 149000675 cycles: 247404463 heartbeat IPC: 0.528 cumulative IPC: 0.4258 (Simulation time: 00 hr 30 min 22 sec)
Heartbeat CPU 0 instructions: 149500682 cycles: 249120586 heartbeat IPC: 0.2914 cumulative IPC: 0.4248 (Simulation time: 00 hr 30 min 37 sec)
Heartbeat CPU 0 instructions: 150000683 cycles: 249814105 heartbeat IPC: 0.721 cumulative IPC: 0.4256 (Simulation time: 00 hr 30 min 43 sec)
Heartbeat CPU 0 instructions: 150500686 cycles: 251382575 heartbeat IPC: 0.3188 cumulative IPC: 0.4249 (Simulation time: 00 hr 30 min 53 sec)
Heartbeat CPU 0 instructions: 151000687 cycles: 251854599 heartbeat IPC: 1.059 cumulative IPC: 0.4262 (Simulation time: 00 hr 30 min 56 sec)
Heartbeat CPU 0 instructions: 151500690 cycles: 252206662 heartbeat IPC: 1.42 cumulative IPC: 0.4277 (Simulation time: 00 hr 30 min 59 sec)
Heartbeat CPU 0 instructions: 152000695 cycles: 254533879 heartbeat IPC: 0.2149 cumulative IPC: 0.4256 (Simulation time: 00 hr 31 min 13 sec)
Heartbeat CPU 0 instructions: 152500700 cycles: 256181715 heartbeat IPC: 0.3034 cumulative IPC: 0.4248 (Simulation time: 00 hr 31 min 23 sec)
Heartbeat CPU 0 instructions: 153000701 cycles: 258241430 heartbeat IPC: 0.2428 cumulative IPC: 0.4232 (Simulation time: 00 hr 31 min 35 sec)
Heartbeat CPU 0 instructions: 153500703 cycles: 259671946 heartbeat IPC: 0.3495 cumulative IPC: 0.4228 (Simulation time: 00 hr 31 min 45 sec)
Heartbeat CPU 0 instructions: 154000710 cycles: 260456632 heartbeat IPC: 0.6372 cumulative IPC: 0.4235 (Simulation time: 00 hr 31 min 50 sec)
Heartbeat CPU 0 instructions: 154500711 cycles: 260822136 heartbeat IPC: 1.368 cumulative IPC: 0.4249 (Simulation time: 00 hr 31 min 53 sec)
Heartbeat CPU 0 instructions: 155000716 cycles: 261163357 heartbeat IPC: 1.465 cumulative IPC: 0.4263 (Simulation time: 00 hr 31 min 56 sec)
Heartbeat CPU 0 instructions: 155500722 cycles: 261607907 heartbeat IPC: 1.125 cumulative IPC: 0.4276 (Simulation time: 00 hr 32 min 00 sec)
Heartbeat CPU 0 instructions: 156000724 cycles: 263251855 heartbeat IPC: 0.3041 cumulative IPC: 0.4268 (Simulation time: 00 hr 32 min 09 sec)
Heartbeat CPU 0 instructions: 156500725 cycles: 264424563 heartbeat IPC: 0.4264 cumulative IPC: 0.4268 (Simulation time: 00 hr 32 min 17 sec)
Heartbeat CPU 0 instructions: 157000726 cycles: 264856189 heartbeat IPC: 1.158 cumulative IPC: 0.428 (Simulation time: 00 hr 32 min 20 sec)
Heartbeat CPU 0 instructions: 157500732 cycles: 265242873 heartbeat IPC: 1.293 cumulative IPC: 0.4294 (Simulation time: 00 hr 32 min 23 sec)
Heartbeat CPU 0 instructions: 158000732 cycles: 265640901 heartbeat IPC: 1.256 cumulative IPC: 0.4307 (Simulation time: 00 hr 32 min 27 sec)
Heartbeat CPU 0 instructions: 158500736 cycles: 266026047 heartbeat IPC: 1.298 cumulative IPC: 0.432 (Simulation time: 00 hr 32 min 30 sec)
Heartbeat CPU 0 instructions: 159000737 cycles: 266385722 heartbeat IPC: 1.39 cumulative IPC: 0.4334 (Simulation time: 00 hr 32 min 33 sec)
Heartbeat CPU 0 instructions: 159500738 cycles: 266789506 heartbeat IPC: 1.238 cumulative IPC: 0.4347 (Simulation time: 00 hr 32 min 36 sec)
Heartbeat CPU 0 instructions: 160000740 cycles: 267145027 heartbeat IPC: 1.406 cumulative IPC: 0.436 (Simulation time: 00 hr 32 min 39 sec)
Heartbeat CPU 0 instructions: 160500742 cycles: 267504810 heartbeat IPC: 1.39 cumulative IPC: 0.4374 (Simulation time: 00 hr 32 min 42 sec)
Heartbeat CPU 0 instructions: 161000742 cycles: 267845378 heartbeat IPC: 1.468 cumulative IPC: 0.4388 (Simulation time: 00 hr 32 min 45 sec)
Heartbeat CPU 0 instructions: 161500748 cycles: 268199257 heartbeat IPC: 1.413 cumulative IPC: 0.4401 (Simulation time: 00 hr 32 min 48 sec)
Heartbeat CPU 0 instructions: 162000748 cycles: 269446083 heartbeat IPC: 0.401 cumulative IPC: 0.44 (Simulation time: 00 hr 32 min 56 sec)
Heartbeat CPU 0 instructions: 162500755 cycles: 271282143 heartbeat IPC: 0.2723 cumulative IPC: 0.4388 (Simulation time: 00 hr 33 min 07 sec)
Heartbeat CPU 0 instructions: 163000755 cycles: 272604682 heartbeat IPC: 0.3781 cumulative IPC: 0.4384 (Simulation time: 00 hr 33 min 16 sec)
Heartbeat CPU 0 instructions: 163500755 cycles: 274662243 heartbeat IPC: 0.243 cumulative IPC: 0.4369 (Simulation time: 00 hr 33 min 27 sec)
Heartbeat CPU 0 instructions: 164000759 cycles: 275815980 heartbeat IPC: 0.4334 cumulative IPC: 0.4369 (Simulation time: 00 hr 33 min 35 sec)
Heartbeat CPU 0 instructions: 164500765 cycles: 276935955 heartbeat IPC: 0.4464 cumulative IPC: 0.4369 (Simulation time: 00 hr 33 min 42 sec)
Heartbeat CPU 0 instructions: 165000772 cycles: 277719985 heartbeat IPC: 0.6377 cumulative IPC: 0.4375 (Simulation time: 00 hr 33 min 47 sec)
Heartbeat CPU 0 instructions: 165500778 cycles: 278094113 heartbeat IPC: 1.336 cumulative IPC: 0.4388 (Simulation time: 00 hr 33 min 50 sec)
Heartbeat CPU 0 instructions: 166000778 cycles: 278481776 heartbeat IPC: 1.29 cumulative IPC: 0.44 (Simulation time: 00 hr 33 min 54 sec)
Heartbeat CPU 0 instructions: 166500785 cycles: 280255897 heartbeat IPC: 0.2818 cumulative IPC: 0.439 (Simulation time: 00 hr 34 min 04 sec)
Heartbeat CPU 0 instructions: 167000788 cycles: 280633517 heartbeat IPC: 1.324 cumulative IPC: 0.4402 (Simulation time: 00 hr 34 min 07 sec)
Heartbeat CPU 0 instructions: 167500789 cycles: 280963785 heartbeat IPC: 1.514 cumulative IPC: 0.4416 (Simulation time: 00 hr 34 min 09 sec)
Heartbeat CPU 0 instructions: 168000789 cycles: 281261637 heartbeat IPC: 1.679 cumulative IPC: 0.443 (Simulation time: 00 hr 34 min 12 sec)
Heartbeat CPU 0 instructions: 168500795 cycles: 281565026 heartbeat IPC: 1.648 cumulative IPC: 0.4443 (Simulation time: 00 hr 34 min 15 sec)
Heartbeat CPU 0 instructions: 169000795 cycles: 282177063 heartbeat IPC: 0.8169 cumulative IPC: 0.4452 (Simulation time: 00 hr 34 min 19 sec)
Heartbeat CPU 0 instructions: 169500798 cycles: 283973024 heartbeat IPC: 0.2784 cumulative IPC: 0.4441 (Simulation time: 00 hr 34 min 29 sec)
Heartbeat CPU 0 instructions: 170000801 cycles: 284603743 heartbeat IPC: 0.7928 cumulative IPC: 0.4449 (Simulation time: 00 hr 34 min 33 sec)
Heartbeat CPU 0 instructions: 170500805 cycles: 285034663 heartbeat IPC: 1.16 cumulative IPC: 0.446 (Simulation time: 00 hr 34 min 37 sec)
Heartbeat CPU 0 instructions: 171000810 cycles: 285528334 heartbeat IPC: 1.013 cumulative IPC: 0.4471 (Simulation time: 00 hr 34 min 41 sec)
Heartbeat CPU 0 instructions: 171500815 cycles: 285872918 heartbeat IPC: 1.451 cumulative IPC: 0.4483 (Simulation time: 00 hr 34 min 44 sec)
Heartbeat CPU 0 instructions: 172000819 cycles: 286228399 heartbeat IPC: 1.407 cumulative IPC: 0.4496 (Simulation time: 00 hr 34 min 47 sec)
Heartbeat CPU 0 instructions: 172500819 cycles: 286569178 heartbeat IPC: 1.467 cumulative IPC: 0.4509 (Simulation time: 00 hr 34 min 50 sec)
Heartbeat CPU 0 instructions: 173000819 cycles: 286893896 heartbeat IPC: 1.54 cumulative IPC: 0.4522 (Simulation time: 00 hr 34 min 52 sec)
Heartbeat CPU 0 instructions: 173500819 cycles: 287252732 heartbeat IPC: 1.393 cumulative IPC: 0.4534 (Simulation time: 00 hr 34 min 55 sec)
Heartbeat CPU 0 instructions: 174000826 cycles: 290151265 heartbeat IPC: 0.1725 cumulative IPC: 0.4505 (Simulation time: 00 hr 35 min 15 sec)
Heartbeat CPU 0 instructions: 174500829 cycles: 291469344 heartbeat IPC: 0.3793 cumulative IPC: 0.4501 (Simulation time: 00 hr 35 min 24 sec)
Heartbeat CPU 0 instructions: 175000830 cycles: 291857434 heartbeat IPC: 1.288 cumulative IPC: 0.4513 (Simulation time: 00 hr 35 min 27 sec)
Heartbeat CPU 0 instructions: 175500837 cycles: 292187184 heartbeat IPC: 1.516 cumulative IPC: 0.4526 (Simulation time: 00 hr 35 min 30 sec)
Heartbeat CPU 0 instructions: 176000837 cycles: 293083370 heartbeat IPC: 0.5579 cumulative IPC: 0.4529 (Simulation time: 00 hr 35 min 36 sec)
Heartbeat CPU 0 instructions: 176500843 cycles: 296090604 heartbeat IPC: 0.1663 cumulative IPC: 0.4498 (Simulation time: 00 hr 35 min 54 sec)
Heartbeat CPU 0 instructions: 177000849 cycles: 298324751 heartbeat IPC: 0.2238 cumulative IPC: 0.4481 (Simulation time: 00 hr 36 min 07 sec)
Heartbeat CPU 0 instructions: 177500849 cycles: 299472910 heartbeat IPC: 0.4355 cumulative IPC: 0.448 (Simulation time: 00 hr 36 min 14 sec)
Heartbeat CPU 0 instructions: 178000850 cycles: 300948802 heartbeat IPC: 0.3388 cumulative IPC: 0.4474 (Simulation time: 00 hr 36 min 23 sec)
Heartbeat CPU 0 instructions: 178500854 cycles: 302828860 heartbeat IPC: 0.266 cumulative IPC: 0.4463 (Simulation time: 00 hr 36 min 33 sec)
Heartbeat CPU 0 instructions: 179000854 cycles: 304761104 heartbeat IPC: 0.2588 cumulative IPC: 0.445 (Simulation time: 00 hr 36 min 44 sec)
Heartbeat CPU 0 instructions: 179500855 cycles: 306168025 heartbeat IPC: 0.3554 cumulative IPC: 0.4446 (Simulation time: 00 hr 36 min 53 sec)
Heartbeat CPU 0 instructions: 180000856 cycles: 307110018 heartbeat IPC: 0.5308 cumulative IPC: 0.4448 (Simulation time: 00 hr 36 min 59 sec)
Heartbeat CPU 0 instructions: 180500857 cycles: 309400203 heartbeat IPC: 0.2183 cumulative IPC: 0.4431 (Simulation time: 00 hr 37 min 12 sec)
Heartbeat CPU 0 instructions: 181000858 cycles: 310785664 heartbeat IPC: 0.3609 cumulative IPC: 0.4427 (Simulation time: 00 hr 37 min 20 sec)
Heartbeat CPU 0 instructions: 181500859 cycles: 312410287 heartbeat IPC: 0.3078 cumulative IPC: 0.442 (Simulation time: 00 hr 37 min 30 sec)
Heartbeat CPU 0 instructions: 182000859 cycles: 313913311 heartbeat IPC: 0.3327 cumulative IPC: 0.4414 (Simulation time: 00 hr 37 min 38 sec)
Heartbeat CPU 0 instructions: 182500860 cycles: 315798979 heartbeat IPC: 0.2652 cumulative IPC: 0.4403 (Simulation time: 00 hr 37 min 49 sec)
Heartbeat CPU 0 instructions: 183000860 cycles: 317024151 heartbeat IPC: 0.4081 cumulative IPC: 0.4402 (Simulation time: 00 hr 37 min 57 sec)
Heartbeat CPU 0 instructions: 183500864 cycles: 317966658 heartbeat IPC: 0.5305 cumulative IPC: 0.4405 (Simulation time: 00 hr 38 min 03 sec)
Heartbeat CPU 0 instructions: 184000866 cycles: 319639584 heartbeat IPC: 0.2989 cumulative IPC: 0.4397 (Simulation time: 00 hr 38 min 12 sec)
Heartbeat CPU 0 instructions: 184500869 cycles: 320713594 heartbeat IPC: 0.4655 cumulative IPC: 0.4398 (Simulation time: 00 hr 38 min 19 sec)
Heartbeat CPU 0 instructions: 185000870 cycles: 321362560 heartbeat IPC: 0.7705 cumulative IPC: 0.4405 (Simulation time: 00 hr 38 min 23 sec)
Heartbeat CPU 0 instructions: 185500870 cycles: 323170564 heartbeat IPC: 0.2765 cumulative IPC: 0.4395 (Simulation time: 00 hr 38 min 34 sec)
Heartbeat CPU 0 instructions: 186000875 cycles: 324901817 heartbeat IPC: 0.2888 cumulative IPC: 0.4387 (Simulation time: 00 hr 38 min 44 sec)
Heartbeat CPU 0 instructions: 186500881 cycles: 325834277 heartbeat IPC: 0.5362 cumulative IPC: 0.439 (Simulation time: 00 hr 38 min 50 sec)
Heartbeat CPU 0 instructions: 187000883 cycles: 326186164 heartbeat IPC: 1.421 cumulative IPC: 0.4401 (Simulation time: 00 hr 38 min 52 sec)
Heartbeat CPU 0 instructions: 187500887 cycles: 326607233 heartbeat IPC: 1.187 cumulative IPC: 0.4411 (Simulation time: 00 hr 38 min 56 sec)
Heartbeat CPU 0 instructions: 188000887 cycles: 328566400 heartbeat IPC: 0.2552 cumulative IPC: 0.4399 (Simulation time: 00 hr 39 min 07 sec)
Heartbeat CPU 0 instructions: 188500887 cycles: 330393384 heartbeat IPC: 0.2737 cumulative IPC: 0.439 (Simulation time: 00 hr 39 min 17 sec)
Heartbeat CPU 0 instructions: 189000889 cycles: 332586490 heartbeat IPC: 0.228 cumulative IPC: 0.4375 (Simulation time: 00 hr 39 min 29 sec)
Heartbeat CPU 0 instructions: 189500890 cycles: 334402756 heartbeat IPC: 0.2753 cumulative IPC: 0.4366 (Simulation time: 00 hr 39 min 40 sec)
Heartbeat CPU 0 instructions: 190000890 cycles: 336319161 heartbeat IPC: 0.2609 cumulative IPC: 0.4355 (Simulation time: 00 hr 39 min 50 sec)
Heartbeat CPU 0 instructions: 190500896 cycles: 338536559 heartbeat IPC: 0.2255 cumulative IPC: 0.4341 (Simulation time: 00 hr 40 min 02 sec)
Heartbeat CPU 0 instructions: 191000902 cycles: 340196922 heartbeat IPC: 0.3011 cumulative IPC: 0.4334 (Simulation time: 00 hr 40 min 12 sec)
Heartbeat CPU 0 instructions: 191500903 cycles: 341201871 heartbeat IPC: 0.4975 cumulative IPC: 0.4336 (Simulation time: 00 hr 40 min 18 sec)
Heartbeat CPU 0 instructions: 192000905 cycles: 342930669 heartbeat IPC: 0.2892 cumulative IPC: 0.4329 (Simulation time: 00 hr 40 min 28 sec)
Heartbeat CPU 0 instructions: 192500906 cycles: 344779960 heartbeat IPC: 0.2704 cumulative IPC: 0.4319 (Simulation time: 00 hr 40 min 38 sec)
Heartbeat CPU 0 instructions: 193000910 cycles: 346801128 heartbeat IPC: 0.2474 cumulative IPC: 0.4308 (Simulation time: 00 hr 40 min 50 sec)
Heartbeat CPU 0 instructions: 193500910 cycles: 348221447 heartbeat IPC: 0.352 cumulative IPC: 0.4305 (Simulation time: 00 hr 40 min 58 sec)
Heartbeat CPU 0 instructions: 194000914 cycles: 349370398 heartbeat IPC: 0.4352 cumulative IPC: 0.4305 (Simulation time: 00 hr 41 min 05 sec)
Heartbeat CPU 0 instructions: 194500914 cycles: 350384637 heartbeat IPC: 0.493 cumulative IPC: 0.4307 (Simulation time: 00 hr 41 min 12 sec)
Heartbeat CPU 0 instructions: 195000915 cycles: 351599810 heartbeat IPC: 0.4115 cumulative IPC: 0.4306 (Simulation time: 00 hr 41 min 19 sec)
Heartbeat CPU 0 instructions: 195500918 cycles: 352979549 heartbeat IPC: 0.3624 cumulative IPC: 0.4303 (Simulation time: 00 hr 41 min 27 sec)
Heartbeat CPU 0 instructions: 196000920 cycles: 355196486 heartbeat IPC: 0.2255 cumulative IPC: 0.429 (Simulation time: 00 hr 41 min 40 sec)
Heartbeat CPU 0 instructions: 196500920 cycles: 356498729 heartbeat IPC: 0.384 cumulative IPC: 0.4288 (Simulation time: 00 hr 41 min 48 sec)
Heartbeat CPU 0 instructions: 197000920 cycles: 356984906 heartbeat IPC: 1.028 cumulative IPC: 0.4297 (Simulation time: 00 hr 41 min 51 sec)
Heartbeat CPU 0 instructions: 197500921 cycles: 357305458 heartbeat IPC: 1.56 cumulative IPC: 0.4307 (Simulation time: 00 hr 41 min 54 sec)
Heartbeat CPU 0 instructions: 198000921 cycles: 357675809 heartbeat IPC: 1.35 cumulative IPC: 0.4317 (Simulation time: 00 hr 41 min 57 sec)
Heartbeat CPU 0 instructions: 198500921 cycles: 358010813 heartbeat IPC: 1.493 cumulative IPC: 0.4328 (Simulation time: 00 hr 42 min 00 sec)
Heartbeat CPU 0 instructions: 199000922 cycles: 358924225 heartbeat IPC: 0.5474 cumulative IPC: 0.4331 (Simulation time: 00 hr 42 min 06 sec)
Heartbeat CPU 0 instructions: 199500922 cycles: 360762379 heartbeat IPC: 0.272 cumulative IPC: 0.4322 (Simulation time: 00 hr 42 min 16 sec)
Heartbeat CPU 0 instructions: 200000922 cycles: 361820962 heartbeat IPC: 0.4723 cumulative IPC: 0.4323 (Simulation time: 00 hr 42 min 23 sec)
Heartbeat CPU 0 instructions: 200500922 cycles: 363137577 heartbeat IPC: 0.3798 cumulative IPC: 0.4321 (Simulation time: 00 hr 42 min 30 sec)
Heartbeat CPU 0 instructions: 201000922 cycles: 364375422 heartbeat IPC: 0.4039 cumulative IPC: 0.432 (Simulation time: 00 hr 42 min 38 sec)
Heartbeat CPU 0 instructions: 201500925 cycles: 365629102 heartbeat IPC: 0.3988 cumulative IPC: 0.4319 (Simulation time: 00 hr 42 min 46 sec)
Heartbeat CPU 0 instructions: 202000925 cycles: 366716027 heartbeat IPC: 0.46 cumulative IPC: 0.432 (Simulation time: 00 hr 42 min 52 sec)
Heartbeat CPU 0 instructions: 202500926 cycles: 367826471 heartbeat IPC: 0.4503 cumulative IPC: 0.4321 (Simulation time: 00 hr 42 min 59 sec)
Heartbeat CPU 0 instructions: 203000926 cycles: 368960834 heartbeat IPC: 0.4408 cumulative IPC: 0.4321 (Simulation time: 00 hr 43 min 07 sec)
Heartbeat CPU 0 instructions: 203500930 cycles: 370793782 heartbeat IPC: 0.2728 cumulative IPC: 0.4313 (Simulation time: 00 hr 43 min 17 sec)
Heartbeat CPU 0 instructions: 204000931 cycles: 372249618 heartbeat IPC: 0.3434 cumulative IPC: 0.4309 (Simulation time: 00 hr 43 min 26 sec)
Heartbeat CPU 0 instructions: 204500934 cycles: 373548102 heartbeat IPC: 0.3851 cumulative IPC: 0.4308 (Simulation time: 00 hr 43 min 34 sec)
Heartbeat CPU 0 instructions: 205000937 cycles: 374661106 heartbeat IPC: 0.4492 cumulative IPC: 0.4308 (Simulation time: 00 hr 43 min 41 sec)
Heartbeat CPU 0 instructions: 205500937 cycles: 375673779 heartbeat IPC: 0.4937 cumulative IPC: 0.431 (Simulation time: 00 hr 43 min 47 sec)
Heartbeat CPU 0 instructions: 206000942 cycles: 377040472 heartbeat IPC: 0.3659 cumulative IPC: 0.4307 (Simulation time: 00 hr 43 min 55 sec)
Heartbeat CPU 0 instructions: 206500948 cycles: 378203196 heartbeat IPC: 0.43 cumulative IPC: 0.4307 (Simulation time: 00 hr 44 min 02 sec)
Heartbeat CPU 0 instructions: 207000949 cycles: 379273933 heartbeat IPC: 0.467 cumulative IPC: 0.4308 (Simulation time: 00 hr 44 min 09 sec)
Heartbeat CPU 0 instructions: 207500949 cycles: 380541522 heartbeat IPC: 0.3944 cumulative IPC: 0.4307 (Simulation time: 00 hr 44 min 16 sec)
Heartbeat CPU 0 instructions: 208000950 cycles: 381576497 heartbeat IPC: 0.4831 cumulative IPC: 0.4309 (Simulation time: 00 hr 44 min 23 sec)
Heartbeat CPU 0 instructions: 208500957 cycles: 382649110 heartbeat IPC: 0.4662 cumulative IPC: 0.431 (Simulation time: 00 hr 44 min 29 sec)
Heartbeat CPU 0 instructions: 209000959 cycles: 383843915 heartbeat IPC: 0.4185 cumulative IPC: 0.4309 (Simulation time: 00 hr 44 min 37 sec)
Heartbeat CPU 0 instructions: 209500965 cycles: 384228014 heartbeat IPC: 1.302 cumulative IPC: 0.4318 (Simulation time: 00 hr 44 min 40 sec)
Heartbeat CPU 0 instructions: 210000968 cycles: 384577496 heartbeat IPC: 1.431 cumulative IPC: 0.4328 (Simulation time: 00 hr 44 min 43 sec)
Heartbeat CPU 0 instructions: 210500968 cycles: 384921908 heartbeat IPC: 1.452 cumulative IPC: 0.4337 (Simulation time: 00 hr 44 min 46 sec)
Heartbeat CPU 0 instructions: 211000970 cycles: 385595433 heartbeat IPC: 0.7424 cumulative IPC: 0.4343 (Simulation time: 00 hr 44 min 51 sec)
Heartbeat CPU 0 instructions: 211500971 cycles: 388138224 heartbeat IPC: 0.1966 cumulative IPC: 0.4327 (Simulation time: 00 hr 45 min 05 sec)
Heartbeat CPU 0 instructions: 212000975 cycles: 390799701 heartbeat IPC: 0.1879 cumulative IPC: 0.4309 (Simulation time: 00 hr 45 min 20 sec)
Heartbeat CPU 0 instructions: 212500980 cycles: 392417042 heartbeat IPC: 0.3092 cumulative IPC: 0.4304 (Simulation time: 00 hr 45 min 29 sec)
Heartbeat CPU 0 instructions: 213000981 cycles: 393553780 heartbeat IPC: 0.4399 cumulative IPC: 0.4304 (Simulation time: 00 hr 45 min 37 sec)
Heartbeat CPU 0 instructions: 213500982 cycles: 393897414 heartbeat IPC: 1.455 cumulative IPC: 0.4314 (Simulation time: 00 hr 45 min 40 sec)
Heartbeat CPU 0 instructions: 214000982 cycles: 395845256 heartbeat IPC: 0.2567 cumulative IPC: 0.4305 (Simulation time: 00 hr 45 min 51 sec)
Heartbeat CPU 0 instructions: 214500982 cycles: 398466182 heartbeat IPC: 0.1908 cumulative IPC: 0.4288 (Simulation time: 00 hr 46 min 07 sec)
Heartbeat CPU 0 instructions: 215000982 cycles: 400612981 heartbeat IPC: 0.2329 cumulative IPC: 0.4278 (Simulation time: 00 hr 46 min 19 sec)
Heartbeat CPU 0 instructions: 215500982 cycles: 401487830 heartbeat IPC: 0.5715 cumulative IPC: 0.4281 (Simulation time: 00 hr 46 min 24 sec)
Heartbeat CPU 0 instructions: 216000982 cycles: 403302850 heartbeat IPC: 0.2755 cumulative IPC: 0.4274 (Simulation time: 00 hr 46 min 34 sec)
Heartbeat CPU 0 instructions: 216500982 cycles: 404995310 heartbeat IPC: 0.2954 cumulative IPC: 0.4268 (Simulation time: 00 hr 46 min 44 sec)
Heartbeat CPU 0 instructions: 217000982 cycles: 406821024 heartbeat IPC: 0.2739 cumulative IPC: 0.4261 (Simulation time: 00 hr 46 min 55 sec)
Heartbeat CPU 0 instructions: 217500984 cycles: 408276326 heartbeat IPC: 0.3436 cumulative IPC: 0.4258 (Simulation time: 00 hr 47 min 03 sec)
Heartbeat CPU 0 instructions: 218000984 cycles: 410805905 heartbeat IPC: 0.1977 cumulative IPC: 0.4243 (Simulation time: 00 hr 47 min 17 sec)
Heartbeat CPU 0 instructions: 218500984 cycles: 412805607 heartbeat IPC: 0.25 cumulative IPC: 0.4234 (Simulation time: 00 hr 47 min 28 sec)
Heartbeat CPU 0 instructions: 219000984 cycles: 413989447 heartbeat IPC: 0.4224 cumulative IPC: 0.4234 (Simulation time: 00 hr 47 min 36 sec)
Heartbeat CPU 0 instructions: 219500987 cycles: 415168899 heartbeat IPC: 0.4239 cumulative IPC: 0.4234 (Simulation time: 00 hr 47 min 43 sec)
Heartbeat CPU 0 instructions: 220000988 cycles: 415998852 heartbeat IPC: 0.6024 cumulative IPC: 0.4238 (Simulation time: 00 hr 47 min 48 sec)
Heartbeat CPU 0 instructions: 220500989 cycles: 416201466 heartbeat IPC: 2.468 cumulative IPC: 0.4248 (Simulation time: 00 hr 47 min 50 sec)
Heartbeat CPU 0 instructions: 221000991 cycles: 416734806 heartbeat IPC: 0.9375 cumulative IPC: 0.4255 (Simulation time: 00 hr 47 min 54 sec)
Heartbeat CPU 0 instructions: 221500992 cycles: 416938577 heartbeat IPC: 2.454 cumulative IPC: 0.4265 (Simulation time: 00 hr 47 min 56 sec)
Heartbeat CPU 0 instructions: 222000995 cycles: 417428273 heartbeat IPC: 1.021 cumulative IPC: 0.4273 (Simulation time: 00 hr 48 min 00 sec)
Heartbeat CPU 0 instructions: 222501000 cycles: 419314685 heartbeat IPC: 0.2651 cumulative IPC: 0.4265 (Simulation time: 00 hr 48 min 11 sec)
Heartbeat CPU 0 instructions: 223001002 cycles: 420203047 heartbeat IPC: 0.5628 cumulative IPC: 0.4268 (Simulation time: 00 hr 48 min 17 sec)
Heartbeat CPU 0 instructions: 223501003 cycles: 421000341 heartbeat IPC: 0.6271 cumulative IPC: 0.4272 (Simulation time: 00 hr 48 min 24 sec)
Heartbeat CPU 0 instructions: 224001007 cycles: 421613871 heartbeat IPC: 0.815 cumulative IPC: 0.4278 (Simulation time: 00 hr 48 min 29 sec)
Heartbeat CPU 0 instructions: 224501009 cycles: 422131608 heartbeat IPC: 0.9657 cumulative IPC: 0.4285 (Simulation time: 00 hr 48 min 34 sec)
Heartbeat CPU 0 instructions: 225001014 cycles: 422638347 heartbeat IPC: 0.9867 cumulative IPC: 0.4292 (Simulation time: 00 hr 48 min 39 sec)
Heartbeat CPU 0 instructions: 225501015 cycles: 423190213 heartbeat IPC: 0.906 cumulative IPC: 0.4298 (Simulation time: 00 hr 48 min 44 sec)
Heartbeat CPU 0 instructions: 226001016 cycles: 423731736 heartbeat IPC: 0.9233 cumulative IPC: 0.4305 (Simulation time: 00 hr 48 min 49 sec)
Heartbeat CPU 0 instructions: 226501019 cycles: 424285477 heartbeat IPC: 0.903 cumulative IPC: 0.4311 (Simulation time: 00 hr 48 min 54 sec)
Heartbeat CPU 0 instructions: 227001024 cycles: 424871010 heartbeat IPC: 0.8539 cumulative IPC: 0.4317 (Simulation time: 00 hr 49 min 00 sec)
Heartbeat CPU 0 instructions: 227501031 cycles: 425415362 heartbeat IPC: 0.9185 cumulative IPC: 0.4324 (Simulation time: 00 hr 49 min 05 sec)
Heartbeat CPU 0 instructions: 228001031 cycles: 425925097 heartbeat IPC: 0.9809 cumulative IPC: 0.433 (Simulation time: 00 hr 49 min 10 sec)
Heartbeat CPU 0 instructions: 228501035 cycles: 426432834 heartbeat IPC: 0.9848 cumulative IPC: 0.4337 (Simulation time: 00 hr 49 min 15 sec)
Heartbeat CPU 0 instructions: 229001040 cycles: 426956758 heartbeat IPC: 0.9543 cumulative IPC: 0.4344 (Simulation time: 00 hr 49 min 20 sec)
Heartbeat CPU 0 instructions: 229501043 cycles: 427466892 heartbeat IPC: 0.9801 cumulative IPC: 0.4351 (Simulation time: 00 hr 49 min 25 sec)
Heartbeat CPU 0 instructions: 230001044 cycles: 428230524 heartbeat IPC: 0.6548 cumulative IPC: 0.4355 (Simulation time: 00 hr 49 min 33 sec)
Heartbeat CPU 0 instructions: 230501045 cycles: 429372082 heartbeat IPC: 0.438 cumulative IPC: 0.4355 (Simulation time: 00 hr 49 min 45 sec)
Heartbeat CPU 0 instructions: 231001050 cycles: 430694531 heartbeat IPC: 0.3781 cumulative IPC: 0.4353 (Simulation time: 00 hr 50 min 00 sec)
Heartbeat CPU 0 instructions: 231501055 cycles: 432032970 heartbeat IPC: 0.3736 cumulative IPC: 0.4351 (Simulation time: 00 hr 50 min 14 sec)
Heartbeat CPU 0 instructions: 232001055 cycles: 432780756 heartbeat IPC: 0.6686 cumulative IPC: 0.4355 (Simulation time: 00 hr 50 min 22 sec)
Heartbeat CPU 0 instructions: 232501055 cycles: 433391117 heartbeat IPC: 0.8192 cumulative IPC: 0.4361 (Simulation time: 00 hr 50 min 28 sec)
Heartbeat CPU 0 instructions: 233001057 cycles: 433875740 heartbeat IPC: 1.032 cumulative IPC: 0.4368 (Simulation time: 00 hr 50 min 32 sec)
Heartbeat CPU 0 instructions: 233501064 cycles: 434311885 heartbeat IPC: 1.146 cumulative IPC: 0.4375 (Simulation time: 00 hr 50 min 36 sec)
Heartbeat CPU 0 instructions: 234001064 cycles: 435634749 heartbeat IPC: 0.378 cumulative IPC: 0.4373 (Simulation time: 00 hr 50 min 44 sec)
Heartbeat CPU 0 instructions: 234501071 cycles: 436447948 heartbeat IPC: 0.6149 cumulative IPC: 0.4376 (Simulation time: 00 hr 50 min 50 sec)
Heartbeat CPU 0 instructions: 235001077 cycles: 436968412 heartbeat IPC: 0.9607 cumulative IPC: 0.4383 (Simulation time: 00 hr 50 min 55 sec)
Heartbeat CPU 0 instructions: 235501077 cycles: 437729624 heartbeat IPC: 0.6568 cumulative IPC: 0.4387 (Simulation time: 00 hr 51 min 01 sec)
Heartbeat CPU 0 instructions: 236001081 cycles: 440824278 heartbeat IPC: 0.1616 cumulative IPC: 0.4367 (Simulation time: 00 hr 51 min 19 sec)
Heartbeat CPU 0 instructions: 236501088 cycles: 441638555 heartbeat IPC: 0.6141 cumulative IPC: 0.437 (Simulation time: 00 hr 51 min 26 sec)
Heartbeat CPU 0 instructions: 237001088 cycles: 443554984 heartbeat IPC: 0.2609 cumulative IPC: 0.4362 (Simulation time: 00 hr 51 min 36 sec)
Heartbeat CPU 0 instructions: 237501088 cycles: 444955108 heartbeat IPC: 0.3571 cumulative IPC: 0.436 (Simulation time: 00 hr 51 min 45 sec)
Heartbeat CPU 0 instructions: 238001088 cycles: 446555685 heartbeat IPC: 0.3124 cumulative IPC: 0.4355 (Simulation time: 00 hr 51 min 55 sec)
Heartbeat CPU 0 instructions: 238501088 cycles: 448776847 heartbeat IPC: 0.2251 cumulative IPC: 0.4344 (Simulation time: 00 hr 52 min 09 sec)
Heartbeat CPU 0 instructions: 239001088 cycles: 450115363 heartbeat IPC: 0.3735 cumulative IPC: 0.4342 (Simulation time: 00 hr 52 min 17 sec)
Heartbeat CPU 0 instructions: 239501090 cycles: 452265071 heartbeat IPC: 0.2326 cumulative IPC: 0.4333 (Simulation time: 00 hr 52 min 30 sec)
Heartbeat CPU 0 instructions: 240001093 cycles: 453582900 heartbeat IPC: 0.3794 cumulative IPC: 0.4331 (Simulation time: 00 hr 52 min 38 sec)
Heartbeat CPU 0 instructions: 240501094 cycles: 455887489 heartbeat IPC: 0.217 cumulative IPC: 0.432 (Simulation time: 00 hr 52 min 52 sec)
Heartbeat CPU 0 instructions: 241001094 cycles: 458080966 heartbeat IPC: 0.2279 cumulative IPC: 0.431 (Simulation time: 00 hr 53 min 04 sec)
Heartbeat CPU 0 instructions: 241501096 cycles: 459330860 heartbeat IPC: 0.4 cumulative IPC: 0.4309 (Simulation time: 00 hr 53 min 11 sec)
Heartbeat CPU 0 instructions: 242001096 cycles: 460055117 heartbeat IPC: 0.6904 cumulative IPC: 0.4313 (Simulation time: 00 hr 53 min 16 sec)
Heartbeat CPU 0 instructions: 242501096 cycles: 461393566 heartbeat IPC: 0.3736 cumulative IPC: 0.4311 (Simulation time: 00 hr 53 min 24 sec)
Heartbeat CPU 0 instructions: 243001096 cycles: 462735633 heartbeat IPC: 0.3726 cumulative IPC: 0.4309 (Simulation time: 00 hr 53 min 33 sec)
Heartbeat CPU 0 instructions: 243501097 cycles: 464583136 heartbeat IPC: 0.2706 cumulative IPC: 0.4303 (Simulation time: 00 hr 53 min 43 sec)
Heartbeat CPU 0 instructions: 244001097 cycles: 466060856 heartbeat IPC: 0.3384 cumulative IPC: 0.43 (Simulation time: 00 hr 53 min 52 sec)
Heartbeat CPU 0 instructions: 244501099 cycles: 467576025 heartbeat IPC: 0.33 cumulative IPC: 0.4296 (Simulation time: 00 hr 54 min 01 sec)
Heartbeat CPU 0 instructions: 245001104 cycles: 469065520 heartbeat IPC: 0.3357 cumulative IPC: 0.4293 (Simulation time: 00 hr 54 min 10 sec)
Heartbeat CPU 0 instructions: 245501107 cycles: 470984563 heartbeat IPC: 0.2605 cumulative IPC: 0.4286 (Simulation time: 00 hr 54 min 21 sec)
Heartbeat CPU 0 instructions: 246001108 cycles: 471958475 heartbeat IPC: 0.5134 cumulative IPC: 0.4288 (Simulation time: 00 hr 54 min 28 sec)
Heartbeat CPU 0 instructions: 246501108 cycles: 472441505 heartbeat IPC: 1.035 cumulative IPC: 0.4294 (Simulation time: 00 hr 54 min 32 sec)
Heartbeat CPU 0 instructions: 247001108 cycles: 472814967 heartbeat IPC: 1.339 cumulative IPC: 0.4302 (Simulation time: 00 hr 54 min 35 sec)
Heartbeat CPU 0 instructions: 247501110 cycles: 473160681 heartbeat IPC: 1.446 cumulative IPC: 0.431 (Simulation time: 00 hr 54 min 38 sec)
Heartbeat CPU 0 instructions: 248001111 cycles: 473528860 heartbeat IPC: 1.358 cumulative IPC: 0.4317 (Simulation time: 00 hr 54 min 41 sec)
Heartbeat CPU 0 instructions: 248501111 cycles: 474787856 heartbeat IPC: 0.3971 cumulative IPC: 0.4316 (Simulation time: 00 hr 54 min 49 sec)
Heartbeat CPU 0 instructions: 249001113 cycles: 477515831 heartbeat IPC: 0.1833 cumulative IPC: 0.4301 (Simulation time: 00 hr 55 min 05 sec)
Heartbeat CPU 0 instructions: 249501113 cycles: 479406644 heartbeat IPC: 0.2644 cumulative IPC: 0.4295 (Simulation time: 00 hr 55 min 16 sec)
Simulation finished CPU 0 instructions: 200000004 cycles: 466037804 cumulative IPC: 0.4291 (Simulation time: 00 hr 55 min 25 sec)
Simulation complete CPU 0 instructions: 200000004 cycles: 466037804 cumulative IPC: 0.4291 (Simulation time: 00 hr 55 min 25 sec)

ChampSim completed all CPUs

=== Simulation ===
CPU 0 runs /local-ssd/ben/dpc4-traces/gtraces_v2/sierra.a.3_0003.champsim.gz

Region of Interest Statistics

CPU 0 cumulative IPC: 0.4291 instructions: 200000004 cycles: 466037804
CPU 0 Branch Prediction Accuracy: 85.73% MPKI: 22.43 Average ROB Occupancy at Mispredict: 22.84
Branch type MPKI
BRANCH_DIRECT_JUMP: 1.983
BRANCH_INDIRECT: 0.2217
BRANCH_CONDITIONAL: 17.2
BRANCH_DIRECT_CALL: 1.55
BRANCH_INDIRECT_CALL: 0.3654
BRANCH_RETURN: 1.116

cpu0->cpu0_STLB TOTAL        ACCESS:    3526252 HIT:    2747067 MISS:     779185 MSHR_MERGE:          0
cpu0->cpu0_STLB LOAD         ACCESS:    3526252 HIT:    2747067 MISS:     779185 MSHR_MERGE:          0
cpu0->cpu0_STLB RFO          ACCESS:          0 HIT:          0 MISS:          0 MSHR_MERGE:          0
cpu0->cpu0_STLB PREFETCH     ACCESS:          0 HIT:          0 MISS:          0 MSHR_MERGE:          0
cpu0->cpu0_STLB WRITE        ACCESS:          0 HIT:          0 MISS:          0 MSHR_MERGE:          0
cpu0->cpu0_STLB TRANSLATION  ACCESS:          0 HIT:          0 MISS:          0 MSHR_MERGE:          0
cpu0->cpu0_STLB PREFETCH REQUESTED:          0 ISSUED:          0 USEFUL:          0 USELESS:          0
cpu0->cpu0_STLB AVERAGE MISS LATENCY: 118.5 cycles
cpu0->cpu0_L2C TOTAL        ACCESS:   16637580 HIT:   12267934 MISS:    4369646 MSHR_MERGE:          0
cpu0->cpu0_L2C LOAD         ACCESS:    8278536 HIT:    6061039 MISS:    2217497 MSHR_MERGE:          0
cpu0->cpu0_L2C RFO          ACCESS:    1601206 HIT:     941249 MISS:     659957 MSHR_MERGE:          0
cpu0->cpu0_L2C PREFETCH     ACCESS:    3396784 HIT:    2198354 MISS:    1198430 MSHR_MERGE:          0
cpu0->cpu0_L2C WRITE        ACCESS:    2567194 HIT:    2567127 MISS:         67 MSHR_MERGE:          0
cpu0->cpu0_L2C TRANSLATION  ACCESS:     793860 HIT:     500165 MISS:     293695 MSHR_MERGE:          0
cpu0->cpu0_L2C PREFETCH REQUESTED:          0 ISSUED:          0 USEFUL:          0 USELESS:          0
cpu0->cpu0_L2C AVERAGE MISS LATENCY: 202 cycles
cpu0->cpu0_L1I TOTAL        ACCESS:   21762463 HIT:   15243317 MISS:    6519146 MSHR_MERGE:    1527528
cpu0->cpu0_L1I LOAD         ACCESS:   21762463 HIT:   15243317 MISS:    6519146 MSHR_MERGE:    1527528
cpu0->cpu0_L1I RFO          ACCESS:          0 HIT:          0 MISS:          0 MSHR_MERGE:          0
cpu0->cpu0_L1I PREFETCH     ACCESS:          0 HIT:          0 MISS:          0 MSHR_MERGE:          0
cpu0->cpu0_L1I WRITE        ACCESS:          0 HIT:          0 MISS:          0 MSHR_MERGE:          0
cpu0->cpu0_L1I TRANSLATION  ACCESS:          0 HIT:          0 MISS:          0 MSHR_MERGE:          0
cpu0->cpu0_L1I PREFETCH REQUESTED:          0 ISSUED:          0 USEFUL:          0 USELESS:          0
cpu0->cpu0_L1I AVERAGE MISS LATENCY: 51.33 cycles
cpu0->cpu0_L1D TOTAL        ACCESS:   91616625 HIT:   77411531 MISS:   14205094 MSHR_MERGE:    5125994
cpu0->cpu0_L1D LOAD         ACCESS:   34925600 HIT:   30848973 MISS:    4076627 MSHR_MERGE:     789470
cpu0->cpu0_L1D RFO          ACCESS:          0 HIT:          0 MISS:          0 MSHR_MERGE:          0
cpu0->cpu0_L1D PREFETCH     ACCESS:   30356447 HIT:   25167015 MISS:    5189432 MSHR_MERGE:    1792632
cpu0->cpu0_L1D WRITE        ACCESS:   24381281 HIT:   20241947 MISS:    4139334 MSHR_MERGE:    2538051
cpu0->cpu0_L1D TRANSLATION  ACCESS:    1953297 HIT:    1153596 MISS:     799701 MSHR_MERGE:       5841
cpu0->cpu0_L1D PREFETCH REQUESTED:   39936319 ISSUED:   30356439 USEFUL:     524694 USELESS:    2871982
cpu0->cpu0_L1D AVERAGE MISS LATENCY: 84.13 cycles
cpu0->cpu0_ITLB TOTAL        ACCESS:   17554665 HIT:   16785037 MISS:     769628 MSHR_MERGE:     359694
cpu0->cpu0_ITLB LOAD         ACCESS:   17554665 HIT:   16785037 MISS:     769628 MSHR_MERGE:     359694
cpu0->cpu0_ITLB RFO          ACCESS:          0 HIT:          0 MISS:          0 MSHR_MERGE:          0
cpu0->cpu0_ITLB PREFETCH     ACCESS:          0 HIT:          0 MISS:          0 MSHR_MERGE:          0
cpu0->cpu0_ITLB WRITE        ACCESS:          0 HIT:          0 MISS:          0 MSHR_MERGE:          0
cpu0->cpu0_ITLB TRANSLATION  ACCESS:          0 HIT:          0 MISS:          0 MSHR_MERGE:          0
cpu0->cpu0_ITLB PREFETCH REQUESTED:          0 ISSUED:          0 USEFUL:          0 USELESS:          0
cpu0->cpu0_ITLB AVERAGE MISS LATENCY: 26.36 cycles
cpu0->cpu0_DTLB TOTAL        ACCESS:   81978849 HIT:   77273959 MISS:    4704890 MSHR_MERGE:    1588572
cpu0->cpu0_DTLB LOAD         ACCESS:   81978849 HIT:   77273959 MISS:    4704890 MSHR_MERGE:    1588572
cpu0->cpu0_DTLB RFO          ACCESS:          0 HIT:          0 MISS:          0 MSHR_MERGE:          0
cpu0->cpu0_DTLB PREFETCH     ACCESS:          0 HIT:          0 MISS:          0 MSHR_MERGE:          0
cpu0->cpu0_DTLB WRITE        ACCESS:          0 HIT:          0 MISS:          0 MSHR_MERGE:          0
cpu0->cpu0_DTLB TRANSLATION  ACCESS:          0 HIT:          0 MISS:          0 MSHR_MERGE:          0
cpu0->cpu0_DTLB PREFETCH REQUESTED:          0 ISSUED:          0 USEFUL:          0 USELESS:          0
cpu0->cpu0_DTLB AVERAGE MISS LATENCY: 32.08 cycles
cpu0->LLC TOTAL        ACCESS:    5395578 HIT:    1404052 MISS:    3991526 MSHR_MERGE:          0
cpu0->LLC LOAD         ACCESS:    2217497 HIT:     552106 MISS:    1665391 MSHR_MERGE:          0
cpu0->LLC RFO          ACCESS:     659957 HIT:      45367 MISS:     614590 MSHR_MERGE:          0
cpu0->LLC PREFETCH     ACCESS:    1198430 HIT:     124471 MISS:    1073959 MSHR_MERGE:          0
cpu0->LLC WRITE        ACCESS:    1025999 HIT:     628117 MISS:     397882 MSHR_MERGE:          0
cpu0->LLC TRANSLATION  ACCESS:     293695 HIT:      53991 MISS:     239704 MSHR_MERGE:          0
cpu0->LLC PREFETCH REQUESTED:          0 ISSUED:          0 USEFUL:          0 USELESS:          0
cpu0->LLC AVERAGE MISS LATENCY: 197.1 cycles

DRAM Statistics

Channel 0 RQ ROW_BUFFER_HIT:     154025
  ROW_BUFFER_MISS:    3439331
  AVG DBUS CONGESTED CYCLE: 24.23
Channel 0 WQ ROW_BUFFER_HIT:     236851
  ROW_BUFFER_MISS:     711075
  FULL:       3004
Channel 0 REFRESHES ISSUED:      38834
