[VMEM] WARNING: physical memory size is smaller than virtual memory size.

*** ChampSim Multicore Out-of-Order Simulator ***
Warmup Instructions: 50000000
Simulation Instructions: 200000000
Number of CPUs: 1
Page size: 4096
Core 0: /local-ssd/ben/dpc4-traces/SPEC17/621.wrf_s-6673B.champsimtrace.xz
Off-chip DRAM Size: 64 GiB Channels: 1 Width: 64-bit Data Rate: 4807 MT/s
Heartbeat CPU 0 instructions: 500003 cycles: 105876 heartbeat IPC: 4.723 cumulative IPC: 4.723 (Simulation time: 00 hr 00 min 02 sec)
Heartbeat CPU 0 instructions: 1000003 cycles: 208081 heartbeat IPC: 4.892 cumulative IPC: 4.806 (Simulation time: 00 hr 00 min 03 sec)
Heartbeat CPU 0 instructions: 1500006 cycles: 312949 heartbeat IPC: 4.768 cumulative IPC: 4.793 (Simulation time: 00 hr 00 min 05 sec)
Heartbeat CPU 0 instructions: 2000013 cycles: 418427 heartbeat IPC: 4.74 cumulative IPC: 4.78 (Simulation time: 00 hr 00 min 07 sec)
Heartbeat CPU 0 instructions: 2500016 cycles: 526130 heartbeat IPC: 4.642 cumulative IPC: 4.752 (Simulation time: 00 hr 00 min 08 sec)
Heartbeat CPU 0 instructions: 3000016 cycles: 643330 heartbeat IPC: 4.266 cumulative IPC: 4.663 (Simulation time: 00 hr 00 min 10 sec)
Heartbeat CPU 0 instructions: 3500022 cycles: 761420 heartbeat IPC: 4.234 cumulative IPC: 4.597 (Simulation time: 00 hr 00 min 12 sec)
Heartbeat CPU 0 instructions: 4000024 cycles: 879537 heartbeat IPC: 4.233 cumulative IPC: 4.548 (Simulation time: 00 hr 00 min 15 sec)
Heartbeat CPU 0 instructions: 4500027 cycles: 997332 heartbeat IPC: 4.245 cumulative IPC: 4.512 (Simulation time: 00 hr 00 min 17 sec)
Heartbeat CPU 0 instructions: 5000034 cycles: 1113960 heartbeat IPC: 4.287 cumulative IPC: 4.489 (Simulation time: 00 hr 00 min 19 sec)
Heartbeat CPU 0 instructions: 5500034 cycles: 1232367 heartbeat IPC: 4.223 cumulative IPC: 4.463 (Simulation time: 00 hr 00 min 21 sec)
Heartbeat CPU 0 instructions: 6000034 cycles: 1350721 heartbeat IPC: 4.225 cumulative IPC: 4.442 (Simulation time: 00 hr 00 min 23 sec)
Heartbeat CPU 0 instructions: 6500039 cycles: 1468958 heartbeat IPC: 4.229 cumulative IPC: 4.425 (Simulation time: 00 hr 00 min 25 sec)
Heartbeat CPU 0 instructions: 7000046 cycles: 1587324 heartbeat IPC: 4.224 cumulative IPC: 4.41 (Simulation time: 00 hr 00 min 27 sec)
Heartbeat CPU 0 instructions: 7500050 cycles: 1705611 heartbeat IPC: 4.227 cumulative IPC: 4.397 (Simulation time: 00 hr 00 min 29 sec)
Heartbeat CPU 0 instructions: 8000054 cycles: 1823647 heartbeat IPC: 4.236 cumulative IPC: 4.387 (Simulation time: 00 hr 00 min 31 sec)
Heartbeat CPU 0 instructions: 8500058 cycles: 1941712 heartbeat IPC: 4.235 cumulative IPC: 4.378 (Simulation time: 00 hr 00 min 34 sec)
Heartbeat CPU 0 instructions: 9000061 cycles: 2059787 heartbeat IPC: 4.235 cumulative IPC: 4.369 (Simulation time: 00 hr 00 min 36 sec)
Heartbeat CPU 0 instructions: 9500062 cycles: 2177620 heartbeat IPC: 4.243 cumulative IPC: 4.363 (Simulation time: 00 hr 00 min 38 sec)
Heartbeat CPU 0 instructions: 10000062 cycles: 2286871 heartbeat IPC: 4.577 cumulative IPC: 4.373 (Simulation time: 00 hr 00 min 40 sec)
Heartbeat CPU 0 instructions: 10500062 cycles: 2386868 heartbeat IPC: 5 cumulative IPC: 4.399 (Simulation time: 00 hr 00 min 41 sec)
Heartbeat CPU 0 instructions: 11000067 cycles: 2486880 heartbeat IPC: 4.999 cumulative IPC: 4.423 (Simulation time: 00 hr 00 min 42 sec)
Heartbeat CPU 0 instructions: 11500073 cycles: 2586878 heartbeat IPC: 5 cumulative IPC: 4.446 (Simulation time: 00 hr 00 min 44 sec)
Heartbeat CPU 0 instructions: 12000078 cycles: 2687264 heartbeat IPC: 4.981 cumulative IPC: 4.466 (Simulation time: 00 hr 00 min 45 sec)
Heartbeat CPU 0 instructions: 12500080 cycles: 2787250 heartbeat IPC: 5.001 cumulative IPC: 4.485 (Simulation time: 00 hr 00 min 47 sec)
Heartbeat CPU 0 instructions: 13000083 cycles: 2887248 heartbeat IPC: 5 cumulative IPC: 4.503 (Simulation time: 00 hr 00 min 48 sec)
Heartbeat CPU 0 instructions: 13500089 cycles: 2987249 heartbeat IPC: 5 cumulative IPC: 4.519 (Simulation time: 00 hr 00 min 50 sec)
Heartbeat CPU 0 instructions: 14000091 cycles: 3087368 heartbeat IPC: 4.994 cumulative IPC: 4.535 (Simulation time: 00 hr 00 min 51 sec)
Heartbeat CPU 0 instructions: 14500093 cycles: 3187612 heartbeat IPC: 4.988 cumulative IPC: 4.549 (Simulation time: 00 hr 00 min 53 sec)
Heartbeat CPU 0 instructions: 15000097 cycles: 3287618 heartbeat IPC: 5 cumulative IPC: 4.563 (Simulation time: 00 hr 00 min 54 sec)
Heartbeat CPU 0 instructions: 15500100 cycles: 3387609 heartbeat IPC: 5 cumulative IPC: 4.576 (Simulation time: 00 hr 00 min 56 sec)
Heartbeat CPU 0 instructions: 16000102 cycles: 3488480 heartbeat IPC: 4.957 cumulative IPC: 4.587 (Simulation time: 00 hr 00 min 57 sec)
Heartbeat CPU 0 instructions: 16500109 cycles: 3588565 heartbeat IPC: 4.996 cumulative IPC: 4.598 (Simulation time: 00 hr 00 min 59 sec)
Heartbeat CPU 0 instructions: 17000113 cycles: 3688672 heartbeat IPC: 4.995 cumulative IPC: 4.609 (Simulation time: 00 hr 01 min 00 sec)
Heartbeat CPU 0 instructions: 17500119 cycles: 3795652 heartbeat IPC: 4.674 cumulative IPC: 4.611 (Simulation time: 00 hr 01 min 01 sec)
Heartbeat CPU 0 instructions: 18000121 cycles: 3895655 heartbeat IPC: 5 cumulative IPC: 4.621 (Simulation time: 00 hr 01 min 03 sec)
Heartbeat CPU 0 instructions: 18500127 cycles: 3995658 heartbeat IPC: 5 cumulative IPC: 4.63 (Simulation time: 00 hr 01 min 04 sec)
Heartbeat CPU 0 instructions: 19000131 cycles: 4095860 heartbeat IPC: 4.99 cumulative IPC: 4.639 (Simulation time: 00 hr 01 min 05 sec)
Heartbeat CPU 0 instructions: 19500131 cycles: 4195852 heartbeat IPC: 5 cumulative IPC: 4.647 (Simulation time: 00 hr 01 min 07 sec)
Heartbeat CPU 0 instructions: 20000138 cycles: 4295864 heartbeat IPC: 4.999 cumulative IPC: 4.656 (Simulation time: 00 hr 01 min 08 sec)
Heartbeat CPU 0 instructions: 20500143 cycles: 4395859 heartbeat IPC: 5 cumulative IPC: 4.664 (Simulation time: 00 hr 01 min 10 sec)
Heartbeat CPU 0 instructions: 21000148 cycles: 4496060 heartbeat IPC: 4.99 cumulative IPC: 4.671 (Simulation time: 00 hr 01 min 11 sec)
Heartbeat CPU 0 instructions: 21500152 cycles: 4596058 heartbeat IPC: 5 cumulative IPC: 4.678 (Simulation time: 00 hr 01 min 12 sec)
Heartbeat CPU 0 instructions: 22000153 cycles: 4696059 heartbeat IPC: 5 cumulative IPC: 4.685 (Simulation time: 00 hr 01 min 14 sec)
Heartbeat CPU 0 instructions: 22500158 cycles: 4796062 heartbeat IPC: 5 cumulative IPC: 4.691 (Simulation time: 00 hr 01 min 15 sec)
Heartbeat CPU 0 instructions: 23000163 cycles: 4896073 heartbeat IPC: 5 cumulative IPC: 4.698 (Simulation time: 00 hr 01 min 17 sec)
Heartbeat CPU 0 instructions: 23500170 cycles: 4997441 heartbeat IPC: 4.933 cumulative IPC: 4.702 (Simulation time: 00 hr 01 min 18 sec)
Heartbeat CPU 0 instructions: 24000176 cycles: 5097443 heartbeat IPC: 5 cumulative IPC: 4.708 (Simulation time: 00 hr 01 min 19 sec)
Heartbeat CPU 0 instructions: 24500176 cycles: 5197442 heartbeat IPC: 5 cumulative IPC: 4.714 (Simulation time: 00 hr 01 min 21 sec)
Heartbeat CPU 0 instructions: 25000182 cycles: 5297444 heartbeat IPC: 5 cumulative IPC: 4.719 (Simulation time: 00 hr 01 min 22 sec)
Heartbeat CPU 0 instructions: 25500184 cycles: 5397669 heartbeat IPC: 4.989 cumulative IPC: 4.724 (Simulation time: 00 hr 01 min 23 sec)
Heartbeat CPU 0 instructions: 26000185 cycles: 5497666 heartbeat IPC: 5 cumulative IPC: 4.729 (Simulation time: 00 hr 01 min 25 sec)
Heartbeat CPU 0 instructions: 26500192 cycles: 5597669 heartbeat IPC: 5 cumulative IPC: 4.734 (Simulation time: 00 hr 01 min 26 sec)
Heartbeat CPU 0 instructions: 27000199 cycles: 5698000 heartbeat IPC: 4.984 cumulative IPC: 4.739 (Simulation time: 00 hr 01 min 27 sec)
Heartbeat CPU 0 instructions: 27500203 cycles: 5798001 heartbeat IPC: 5 cumulative IPC: 4.743 (Simulation time: 00 hr 01 min 29 sec)
Heartbeat CPU 0 instructions: 28000203 cycles: 5898003 heartbeat IPC: 5 cumulative IPC: 4.747 (Simulation time: 00 hr 01 min 30 sec)
Heartbeat CPU 0 instructions: 28500209 cycles: 5998002 heartbeat IPC: 5 cumulative IPC: 4.752 (Simulation time: 00 hr 01 min 31 sec)
Heartbeat CPU 0 instructions: 29000216 cycles: 6098004 heartbeat IPC: 5 cumulative IPC: 4.756 (Simulation time: 00 hr 01 min 33 sec)
Heartbeat CPU 0 instructions: 29500220 cycles: 6198208 heartbeat IPC: 4.99 cumulative IPC: 4.759 (Simulation time: 00 hr 01 min 34 sec)
Heartbeat CPU 0 instructions: 30000224 cycles: 6298206 heartbeat IPC: 5 cumulative IPC: 4.763 (Simulation time: 00 hr 01 min 35 sec)
Heartbeat CPU 0 instructions: 30500225 cycles: 6398207 heartbeat IPC: 5 cumulative IPC: 4.767 (Simulation time: 00 hr 01 min 37 sec)
Heartbeat CPU 0 instructions: 31000227 cycles: 6498209 heartbeat IPC: 5 cumulative IPC: 4.771 (Simulation time: 00 hr 01 min 38 sec)
Heartbeat CPU 0 instructions: 31500232 cycles: 6598735 heartbeat IPC: 4.974 cumulative IPC: 4.774 (Simulation time: 00 hr 01 min 39 sec)
Heartbeat CPU 0 instructions: 32000235 cycles: 6698738 heartbeat IPC: 5 cumulative IPC: 4.777 (Simulation time: 00 hr 01 min 41 sec)
Heartbeat CPU 0 instructions: 32500237 cycles: 6798736 heartbeat IPC: 5 cumulative IPC: 4.78 (Simulation time: 00 hr 01 min 42 sec)
Heartbeat CPU 0 instructions: 33000244 cycles: 6898746 heartbeat IPC: 5 cumulative IPC: 4.784 (Simulation time: 00 hr 01 min 43 sec)
Heartbeat CPU 0 instructions: 33500249 cycles: 6998742 heartbeat IPC: 5 cumulative IPC: 4.787 (Simulation time: 00 hr 01 min 45 sec)
Heartbeat CPU 0 instructions: 34000251 cycles: 7145584 heartbeat IPC: 3.405 cumulative IPC: 4.758 (Simulation time: 00 hr 01 min 47 sec)
Heartbeat CPU 0 instructions: 34500255 cycles: 7265893 heartbeat IPC: 4.156 cumulative IPC: 4.748 (Simulation time: 00 hr 01 min 49 sec)
Heartbeat CPU 0 instructions: 35000258 cycles: 7378927 heartbeat IPC: 4.423 cumulative IPC: 4.743 (Simulation time: 00 hr 01 min 51 sec)
Heartbeat CPU 0 instructions: 35500265 cycles: 7492489 heartbeat IPC: 4.403 cumulative IPC: 4.738 (Simulation time: 00 hr 01 min 52 sec)
Heartbeat CPU 0 instructions: 36000266 cycles: 7615322 heartbeat IPC: 4.071 cumulative IPC: 4.727 (Simulation time: 00 hr 01 min 54 sec)
Heartbeat CPU 0 instructions: 36500273 cycles: 7769848 heartbeat IPC: 3.236 cumulative IPC: 4.698 (Simulation time: 00 hr 01 min 57 sec)
Heartbeat CPU 0 instructions: 37000276 cycles: 7946621 heartbeat IPC: 2.829 cumulative IPC: 4.656 (Simulation time: 00 hr 01 min 59 sec)
Heartbeat CPU 0 instructions: 37500278 cycles: 8128061 heartbeat IPC: 2.756 cumulative IPC: 4.614 (Simulation time: 00 hr 02 min 02 sec)
Heartbeat CPU 0 instructions: 38000281 cycles: 8231796 heartbeat IPC: 4.82 cumulative IPC: 4.616 (Simulation time: 00 hr 02 min 03 sec)
Heartbeat CPU 0 instructions: 38500286 cycles: 8363641 heartbeat IPC: 3.792 cumulative IPC: 4.603 (Simulation time: 00 hr 02 min 05 sec)
Heartbeat CPU 0 instructions: 39000289 cycles: 8537784 heartbeat IPC: 2.871 cumulative IPC: 4.568 (Simulation time: 00 hr 02 min 07 sec)
Heartbeat CPU 0 instructions: 39500291 cycles: 8639609 heartbeat IPC: 4.91 cumulative IPC: 4.572 (Simulation time: 00 hr 02 min 08 sec)
Heartbeat CPU 0 instructions: 40000292 cycles: 8741463 heartbeat IPC: 4.909 cumulative IPC: 4.576 (Simulation time: 00 hr 02 min 10 sec)
Heartbeat CPU 0 instructions: 40500297 cycles: 8843637 heartbeat IPC: 4.894 cumulative IPC: 4.58 (Simulation time: 00 hr 02 min 11 sec)
Heartbeat CPU 0 instructions: 41000302 cycles: 8945431 heartbeat IPC: 4.912 cumulative IPC: 4.583 (Simulation time: 00 hr 02 min 12 sec)
Heartbeat CPU 0 instructions: 41500308 cycles: 9047351 heartbeat IPC: 4.906 cumulative IPC: 4.587 (Simulation time: 00 hr 02 min 14 sec)
Heartbeat CPU 0 instructions: 42000311 cycles: 9149245 heartbeat IPC: 4.907 cumulative IPC: 4.591 (Simulation time: 00 hr 02 min 15 sec)
Heartbeat CPU 0 instructions: 42500317 cycles: 9302939 heartbeat IPC: 3.253 cumulative IPC: 4.568 (Simulation time: 00 hr 02 min 17 sec)
Heartbeat CPU 0 instructions: 43000321 cycles: 9517072 heartbeat IPC: 2.335 cumulative IPC: 4.518 (Simulation time: 00 hr 02 min 20 sec)
Heartbeat CPU 0 instructions: 43500322 cycles: 9617269 heartbeat IPC: 4.99 cumulative IPC: 4.523 (Simulation time: 00 hr 02 min 21 sec)
Heartbeat CPU 0 instructions: 44000322 cycles: 9717418 heartbeat IPC: 4.993 cumulative IPC: 4.528 (Simulation time: 00 hr 02 min 23 sec)
Heartbeat CPU 0 instructions: 44500329 cycles: 9817678 heartbeat IPC: 4.987 cumulative IPC: 4.533 (Simulation time: 00 hr 02 min 24 sec)
Heartbeat CPU 0 instructions: 45000332 cycles: 9917880 heartbeat IPC: 4.99 cumulative IPC: 4.537 (Simulation time: 00 hr 02 min 25 sec)
Heartbeat CPU 0 instructions: 45500332 cycles: 10018175 heartbeat IPC: 4.985 cumulative IPC: 4.542 (Simulation time: 00 hr 02 min 27 sec)
Heartbeat CPU 0 instructions: 46000339 cycles: 10118194 heartbeat IPC: 4.999 cumulative IPC: 4.546 (Simulation time: 00 hr 02 min 28 sec)
Heartbeat CPU 0 instructions: 46500342 cycles: 10218195 heartbeat IPC: 5 cumulative IPC: 4.551 (Simulation time: 00 hr 02 min 29 sec)
Heartbeat CPU 0 instructions: 47000345 cycles: 10318199 heartbeat IPC: 5 cumulative IPC: 4.555 (Simulation time: 00 hr 02 min 31 sec)
Heartbeat CPU 0 instructions: 47500347 cycles: 10418199 heartbeat IPC: 5 cumulative IPC: 4.559 (Simulation time: 00 hr 02 min 32 sec)
Heartbeat CPU 0 instructions: 48000350 cycles: 10527061 heartbeat IPC: 4.593 cumulative IPC: 4.56 (Simulation time: 00 hr 02 min 34 sec)
Heartbeat CPU 0 instructions: 48500352 cycles: 10636687 heartbeat IPC: 4.561 cumulative IPC: 4.56 (Simulation time: 00 hr 02 min 36 sec)
Heartbeat CPU 0 instructions: 49000353 cycles: 10747272 heartbeat IPC: 4.521 cumulative IPC: 4.559 (Simulation time: 00 hr 02 min 38 sec)
Heartbeat CPU 0 instructions: 49500357 cycles: 10857286 heartbeat IPC: 4.545 cumulative IPC: 4.559 (Simulation time: 00 hr 02 min 40 sec)
Warmup halting CPU 0 at instruction 50000007 cycle 10966991 for remainder of phase
Warmup finished CPU 0 instructions: 50000007 cycles: 10966991 cumulative IPC: 4.559 (Simulation time: 00 hr 02 min 41 sec)
Warmup complete CPU 0 instructions: 50000007 cycles: 10966991 cumulative IPC: 4.559 (Simulation time: 00 hr 02 min 41 sec)
Heartbeat CPU 0 instructions: 50000363 cycles: 10967245 heartbeat IPC: 4.547 cumulative IPC: 1.402 (Simulation time: 00 hr 02 min 41 sec)
Heartbeat CPU 0 instructions: 50500366 cycles: 11373683 heartbeat IPC: 1.23 cumulative IPC: 1.23 (Simulation time: 00 hr 02 min 46 sec)
Heartbeat CPU 0 instructions: 51000367 cycles: 11778003 heartbeat IPC: 1.237 cumulative IPC: 1.233 (Simulation time: 00 hr 02 min 51 sec)
Heartbeat CPU 0 instructions: 51500372 cycles: 12170057 heartbeat IPC: 1.275 cumulative IPC: 1.247 (Simulation time: 00 hr 02 min 55 sec)
Heartbeat CPU 0 instructions: 52000376 cycles: 12677406 heartbeat IPC: 0.9855 cumulative IPC: 1.17 (Simulation time: 00 hr 03 min 00 sec)
Heartbeat CPU 0 instructions: 52500378 cycles: 12995465 heartbeat IPC: 1.572 cumulative IPC: 1.233 (Simulation time: 00 hr 03 min 04 sec)
Heartbeat CPU 0 instructions: 53000378 cycles: 13317086 heartbeat IPC: 1.555 cumulative IPC: 1.277 (Simulation time: 00 hr 03 min 08 sec)
Heartbeat CPU 0 instructions: 53500385 cycles: 13640621 heartbeat IPC: 1.545 cumulative IPC: 1.309 (Simulation time: 00 hr 03 min 12 sec)
Heartbeat CPU 0 instructions: 54000392 cycles: 13956579 heartbeat IPC: 1.583 cumulative IPC: 1.338 (Simulation time: 00 hr 03 min 16 sec)
Heartbeat CPU 0 instructions: 54500398 cycles: 14283576 heartbeat IPC: 1.529 cumulative IPC: 1.357 (Simulation time: 00 hr 03 min 20 sec)
Heartbeat CPU 0 instructions: 55000398 cycles: 14623481 heartbeat IPC: 1.471 cumulative IPC: 1.368 (Simulation time: 00 hr 03 min 24 sec)
Heartbeat CPU 0 instructions: 55500400 cycles: 14952241 heartbeat IPC: 1.521 cumulative IPC: 1.38 (Simulation time: 00 hr 03 min 28 sec)
Heartbeat CPU 0 instructions: 56000400 cycles: 15389296 heartbeat IPC: 1.144 cumulative IPC: 1.357 (Simulation time: 00 hr 03 min 33 sec)
Heartbeat CPU 0 instructions: 56500402 cycles: 16035745 heartbeat IPC: 0.7735 cumulative IPC: 1.282 (Simulation time: 00 hr 03 min 40 sec)
Heartbeat CPU 0 instructions: 57000408 cycles: 16425267 heartbeat IPC: 1.284 cumulative IPC: 1.283 (Simulation time: 00 hr 03 min 45 sec)
Heartbeat CPU 0 instructions: 57500409 cycles: 16818095 heartbeat IPC: 1.273 cumulative IPC: 1.282 (Simulation time: 00 hr 03 min 50 sec)
Heartbeat CPU 0 instructions: 58000416 cycles: 17215818 heartbeat IPC: 1.257 cumulative IPC: 1.28 (Simulation time: 00 hr 03 min 54 sec)
Heartbeat CPU 0 instructions: 58500418 cycles: 17753900 heartbeat IPC: 0.9292 cumulative IPC: 1.252 (Simulation time: 00 hr 04 min 00 sec)
Heartbeat CPU 0 instructions: 59000419 cycles: 18148031 heartbeat IPC: 1.269 cumulative IPC: 1.253 (Simulation time: 00 hr 04 min 05 sec)
Heartbeat CPU 0 instructions: 59500421 cycles: 18537189 heartbeat IPC: 1.285 cumulative IPC: 1.255 (Simulation time: 00 hr 04 min 09 sec)
Heartbeat CPU 0 instructions: 60000428 cycles: 18932967 heartbeat IPC: 1.263 cumulative IPC: 1.255 (Simulation time: 00 hr 04 min 14 sec)
Heartbeat CPU 0 instructions: 60500435 cycles: 19327464 heartbeat IPC: 1.267 cumulative IPC: 1.256 (Simulation time: 00 hr 04 min 18 sec)
Heartbeat CPU 0 instructions: 61000442 cycles: 19728095 heartbeat IPC: 1.248 cumulative IPC: 1.256 (Simulation time: 00 hr 04 min 23 sec)
Heartbeat CPU 0 instructions: 61500449 cycles: 20133174 heartbeat IPC: 1.234 cumulative IPC: 1.255 (Simulation time: 00 hr 04 min 27 sec)
Heartbeat CPU 0 instructions: 62000456 cycles: 20540259 heartbeat IPC: 1.228 cumulative IPC: 1.254 (Simulation time: 00 hr 04 min 32 sec)
Heartbeat CPU 0 instructions: 62500462 cycles: 20952291 heartbeat IPC: 1.214 cumulative IPC: 1.252 (Simulation time: 00 hr 04 min 37 sec)
Heartbeat CPU 0 instructions: 63000464 cycles: 21356027 heartbeat IPC: 1.238 cumulative IPC: 1.251 (Simulation time: 00 hr 04 min 41 sec)
Heartbeat CPU 0 instructions: 63500466 cycles: 21761656 heartbeat IPC: 1.233 cumulative IPC: 1.251 (Simulation time: 00 hr 04 min 46 sec)
Heartbeat CPU 0 instructions: 64000467 cycles: 22163267 heartbeat IPC: 1.245 cumulative IPC: 1.25 (Simulation time: 00 hr 04 min 50 sec)
Heartbeat CPU 0 instructions: 64500468 cycles: 22579971 heartbeat IPC: 1.2 cumulative IPC: 1.249 (Simulation time: 00 hr 04 min 55 sec)
Heartbeat CPU 0 instructions: 65000473 cycles: 22983987 heartbeat IPC: 1.238 cumulative IPC: 1.248 (Simulation time: 00 hr 05 min 00 sec)
Heartbeat CPU 0 instructions: 65500474 cycles: 23396699 heartbeat IPC: 1.212 cumulative IPC: 1.247 (Simulation time: 00 hr 05 min 05 sec)
Heartbeat CPU 0 instructions: 66000477 cycles: 23803062 heartbeat IPC: 1.23 cumulative IPC: 1.247 (Simulation time: 00 hr 05 min 09 sec)
Heartbeat CPU 0 instructions: 66500480 cycles: 24420357 heartbeat IPC: 0.81 cumulative IPC: 1.226 (Simulation time: 00 hr 05 min 15 sec)
Heartbeat CPU 0 instructions: 67000483 cycles: 25299484 heartbeat IPC: 0.5687 cumulative IPC: 1.186 (Simulation time: 00 hr 05 min 24 sec)
Heartbeat CPU 0 instructions: 67500487 cycles: 26191363 heartbeat IPC: 0.5606 cumulative IPC: 1.15 (Simulation time: 00 hr 05 min 34 sec)
Heartbeat CPU 0 instructions: 68000489 cycles: 26933622 heartbeat IPC: 0.6736 cumulative IPC: 1.127 (Simulation time: 00 hr 05 min 42 sec)
Heartbeat CPU 0 instructions: 68500494 cycles: 27689919 heartbeat IPC: 0.6611 cumulative IPC: 1.106 (Simulation time: 00 hr 05 min 50 sec)
Heartbeat CPU 0 instructions: 69000494 cycles: 28411299 heartbeat IPC: 0.6931 cumulative IPC: 1.089 (Simulation time: 00 hr 05 min 58 sec)
Heartbeat CPU 0 instructions: 69500497 cycles: 28894795 heartbeat IPC: 1.034 cumulative IPC: 1.088 (Simulation time: 00 hr 06 min 03 sec)
Heartbeat CPU 0 instructions: 70000502 cycles: 29242697 heartbeat IPC: 1.437 cumulative IPC: 1.094 (Simulation time: 00 hr 06 min 07 sec)
Heartbeat CPU 0 instructions: 70500502 cycles: 29606260 heartbeat IPC: 1.375 cumulative IPC: 1.1 (Simulation time: 00 hr 06 min 12 sec)
Heartbeat CPU 0 instructions: 71000504 cycles: 29983414 heartbeat IPC: 1.326 cumulative IPC: 1.104 (Simulation time: 00 hr 06 min 16 sec)
Heartbeat CPU 0 instructions: 71500504 cycles: 30355477 heartbeat IPC: 1.344 cumulative IPC: 1.109 (Simulation time: 00 hr 06 min 20 sec)
Heartbeat CPU 0 instructions: 72000507 cycles: 30712284 heartbeat IPC: 1.401 cumulative IPC: 1.114 (Simulation time: 00 hr 06 min 25 sec)
Heartbeat CPU 0 instructions: 72500507 cycles: 31047978 heartbeat IPC: 1.489 cumulative IPC: 1.12 (Simulation time: 00 hr 06 min 28 sec)
Heartbeat CPU 0 instructions: 73000508 cycles: 31374606 heartbeat IPC: 1.531 cumulative IPC: 1.127 (Simulation time: 00 hr 06 min 32 sec)
Heartbeat CPU 0 instructions: 73500510 cycles: 31701136 heartbeat IPC: 1.531 cumulative IPC: 1.133 (Simulation time: 00 hr 06 min 36 sec)
Heartbeat CPU 0 instructions: 74000515 cycles: 32013055 heartbeat IPC: 1.603 cumulative IPC: 1.14 (Simulation time: 00 hr 06 min 39 sec)
Heartbeat CPU 0 instructions: 74500516 cycles: 32391553 heartbeat IPC: 1.321 cumulative IPC: 1.144 (Simulation time: 00 hr 06 min 43 sec)
Heartbeat CPU 0 instructions: 75000518 cycles: 32773891 heartbeat IPC: 1.308 cumulative IPC: 1.146 (Simulation time: 00 hr 06 min 48 sec)
Heartbeat CPU 0 instructions: 75500518 cycles: 33148052 heartbeat IPC: 1.336 cumulative IPC: 1.15 (Simulation time: 00 hr 06 min 52 sec)
Heartbeat CPU 0 instructions: 76000522 cycles: 33526809 heartbeat IPC: 1.32 cumulative IPC: 1.153 (Simulation time: 00 hr 06 min 56 sec)
Heartbeat CPU 0 instructions: 76500522 cycles: 33910751 heartbeat IPC: 1.302 cumulative IPC: 1.155 (Simulation time: 00 hr 07 min 00 sec)
Heartbeat CPU 0 instructions: 77000523 cycles: 34300925 heartbeat IPC: 1.281 cumulative IPC: 1.157 (Simulation time: 00 hr 07 min 05 sec)
Heartbeat CPU 0 instructions: 77500526 cycles: 34673112 heartbeat IPC: 1.343 cumulative IPC: 1.16 (Simulation time: 00 hr 07 min 09 sec)
Heartbeat CPU 0 instructions: 78000528 cycles: 35056873 heartbeat IPC: 1.303 cumulative IPC: 1.162 (Simulation time: 00 hr 07 min 13 sec)
Heartbeat CPU 0 instructions: 78500534 cycles: 35598842 heartbeat IPC: 0.9226 cumulative IPC: 1.157 (Simulation time: 00 hr 07 min 19 sec)
Heartbeat CPU 0 instructions: 79000538 cycles: 35915711 heartbeat IPC: 1.578 cumulative IPC: 1.162 (Simulation time: 00 hr 07 min 23 sec)
Heartbeat CPU 0 instructions: 79500545 cycles: 36235783 heartbeat IPC: 1.562 cumulative IPC: 1.167 (Simulation time: 00 hr 07 min 27 sec)
Heartbeat CPU 0 instructions: 80000551 cycles: 36551984 heartbeat IPC: 1.581 cumulative IPC: 1.173 (Simulation time: 00 hr 07 min 30 sec)
Heartbeat CPU 0 instructions: 80500556 cycles: 36871260 heartbeat IPC: 1.566 cumulative IPC: 1.177 (Simulation time: 00 hr 07 min 34 sec)
Heartbeat CPU 0 instructions: 81000561 cycles: 37196032 heartbeat IPC: 1.54 cumulative IPC: 1.182 (Simulation time: 00 hr 07 min 38 sec)
Heartbeat CPU 0 instructions: 81500565 cycles: 37525050 heartbeat IPC: 1.52 cumulative IPC: 1.186 (Simulation time: 00 hr 07 min 42 sec)
Heartbeat CPU 0 instructions: 82000565 cycles: 37856840 heartbeat IPC: 1.507 cumulative IPC: 1.19 (Simulation time: 00 hr 07 min 47 sec)
Heartbeat CPU 0 instructions: 82500566 cycles: 38193575 heartbeat IPC: 1.485 cumulative IPC: 1.194 (Simulation time: 00 hr 07 min 51 sec)
Heartbeat CPU 0 instructions: 83000571 cycles: 38903223 heartbeat IPC: 0.7046 cumulative IPC: 1.181 (Simulation time: 00 hr 07 min 58 sec)
Heartbeat CPU 0 instructions: 83500572 cycles: 39285992 heartbeat IPC: 1.306 cumulative IPC: 1.183 (Simulation time: 00 hr 08 min 02 sec)
Heartbeat CPU 0 instructions: 84000579 cycles: 39682355 heartbeat IPC: 1.261 cumulative IPC: 1.184 (Simulation time: 00 hr 08 min 07 sec)
Heartbeat CPU 0 instructions: 84500580 cycles: 40072742 heartbeat IPC: 1.281 cumulative IPC: 1.185 (Simulation time: 00 hr 08 min 12 sec)
Heartbeat CPU 0 instructions: 85000587 cycles: 40588671 heartbeat IPC: 0.9691 cumulative IPC: 1.182 (Simulation time: 00 hr 08 min 18 sec)
Heartbeat CPU 0 instructions: 85500591 cycles: 40991064 heartbeat IPC: 1.243 cumulative IPC: 1.182 (Simulation time: 00 hr 08 min 22 sec)
Heartbeat CPU 0 instructions: 86000591 cycles: 41386963 heartbeat IPC: 1.263 cumulative IPC: 1.183 (Simulation time: 00 hr 08 min 27 sec)
Heartbeat CPU 0 instructions: 86500596 cycles: 41773766 heartbeat IPC: 1.293 cumulative IPC: 1.185 (Simulation time: 00 hr 08 min 31 sec)
Heartbeat CPU 0 instructions: 87000602 cycles: 42173688 heartbeat IPC: 1.25 cumulative IPC: 1.186 (Simulation time: 00 hr 08 min 36 sec)
Heartbeat CPU 0 instructions: 87500603 cycles: 42577291 heartbeat IPC: 1.239 cumulative IPC: 1.186 (Simulation time: 00 hr 08 min 40 sec)
Heartbeat CPU 0 instructions: 88000603 cycles: 42992692 heartbeat IPC: 1.204 cumulative IPC: 1.187 (Simulation time: 00 hr 08 min 45 sec)
Heartbeat CPU 0 instructions: 88500606 cycles: 43404338 heartbeat IPC: 1.215 cumulative IPC: 1.187 (Simulation time: 00 hr 08 min 50 sec)
Heartbeat CPU 0 instructions: 89000611 cycles: 43821387 heartbeat IPC: 1.199 cumulative IPC: 1.187 (Simulation time: 00 hr 08 min 55 sec)
Heartbeat CPU 0 instructions: 89500612 cycles: 44233505 heartbeat IPC: 1.213 cumulative IPC: 1.187 (Simulation time: 00 hr 08 min 59 sec)
Heartbeat CPU 0 instructions: 90000614 cycles: 44647429 heartbeat IPC: 1.208 cumulative IPC: 1.188 (Simulation time: 00 hr 09 min 04 sec)
Heartbeat CPU 0 instructions: 90500614 cycles: 45062470 heartbeat IPC: 1.205 cumulative IPC: 1.188 (Simulation time: 00 hr 09 min 09 sec)
Heartbeat CPU 0 instructions: 91000617 cycles: 45477530 heartbeat IPC: 1.205 cumulative IPC: 1.188 (Simulation time: 00 hr 09 min 14 sec)
Heartbeat CPU 0 instructions: 91500624 cycles: 45889035 heartbeat IPC: 1.215 cumulative IPC: 1.188 (Simulation time: 00 hr 09 min 19 sec)
Heartbeat CPU 0 instructions: 92000626 cycles: 46301026 heartbeat IPC: 1.214 cumulative IPC: 1.189 (Simulation time: 00 hr 09 min 23 sec)
Heartbeat CPU 0 instructions: 92500627 cycles: 46714842 heartbeat IPC: 1.208 cumulative IPC: 1.189 (Simulation time: 00 hr 09 min 28 sec)
Heartbeat CPU 0 instructions: 93000627 cycles: 47158257 heartbeat IPC: 1.128 cumulative IPC: 1.188 (Simulation time: 00 hr 09 min 33 sec)
Heartbeat CPU 0 instructions: 93500631 cycles: 48066969 heartbeat IPC: 0.5502 cumulative IPC: 1.173 (Simulation time: 00 hr 09 min 42 sec)
Heartbeat CPU 0 instructions: 94000635 cycles: 48931090 heartbeat IPC: 0.5786 cumulative IPC: 1.159 (Simulation time: 00 hr 09 min 52 sec)
Heartbeat CPU 0 instructions: 94500636 cycles: 49646805 heartbeat IPC: 0.6986 cumulative IPC: 1.15 (Simulation time: 00 hr 10 min 00 sec)
Heartbeat CPU 0 instructions: 95000637 cycles: 50287092 heartbeat IPC: 0.7809 cumulative IPC: 1.144 (Simulation time: 00 hr 10 min 07 sec)
Heartbeat CPU 0 instructions: 95500641 cycles: 51077283 heartbeat IPC: 0.6328 cumulative IPC: 1.134 (Simulation time: 00 hr 10 min 15 sec)
Heartbeat CPU 0 instructions: 96000642 cycles: 51769091 heartbeat IPC: 0.7227 cumulative IPC: 1.127 (Simulation time: 00 hr 10 min 23 sec)
Heartbeat CPU 0 instructions: 96500642 cycles: 52574330 heartbeat IPC: 0.6209 cumulative IPC: 1.118 (Simulation time: 00 hr 10 min 33 sec)
Heartbeat CPU 0 instructions: 97000644 cycles: 53144479 heartbeat IPC: 0.877 cumulative IPC: 1.114 (Simulation time: 00 hr 10 min 40 sec)
Heartbeat CPU 0 instructions: 97500650 cycles: 53679112 heartbeat IPC: 0.9352 cumulative IPC: 1.112 (Simulation time: 00 hr 10 min 45 sec)
Heartbeat CPU 0 instructions: 98000651 cycles: 54336248 heartbeat IPC: 0.7609 cumulative IPC: 1.107 (Simulation time: 00 hr 10 min 52 sec)
Heartbeat CPU 0 instructions: 98500656 cycles: 55045021 heartbeat IPC: 0.7055 cumulative IPC: 1.1 (Simulation time: 00 hr 11 min 00 sec)
Heartbeat CPU 0 instructions: 99000659 cycles: 56086268 heartbeat IPC: 0.4802 cumulative IPC: 1.086 (Simulation time: 00 hr 11 min 11 sec)
Heartbeat CPU 0 instructions: 99500663 cycles: 57017042 heartbeat IPC: 0.5372 cumulative IPC: 1.075 (Simulation time: 00 hr 11 min 21 sec)
Heartbeat CPU 0 instructions: 100000663 cycles: 57920820 heartbeat IPC: 0.5532 cumulative IPC: 1.065 (Simulation time: 00 hr 11 min 29 sec)
Heartbeat CPU 0 instructions: 100500667 cycles: 58355412 heartbeat IPC: 1.151 cumulative IPC: 1.066 (Simulation time: 00 hr 11 min 34 sec)
Heartbeat CPU 0 instructions: 101000670 cycles: 58529773 heartbeat IPC: 2.868 cumulative IPC: 1.072 (Simulation time: 00 hr 11 min 36 sec)
Heartbeat CPU 0 instructions: 101500672 cycles: 58698646 heartbeat IPC: 2.961 cumulative IPC: 1.079 (Simulation time: 00 hr 11 min 39 sec)
Heartbeat CPU 0 instructions: 102000679 cycles: 58871229 heartbeat IPC: 2.897 cumulative IPC: 1.086 (Simulation time: 00 hr 11 min 41 sec)
Heartbeat CPU 0 instructions: 102500680 cycles: 59043286 heartbeat IPC: 2.906 cumulative IPC: 1.092 (Simulation time: 00 hr 11 min 44 sec)
Heartbeat CPU 0 instructions: 103000682 cycles: 59219759 heartbeat IPC: 2.833 cumulative IPC: 1.098 (Simulation time: 00 hr 11 min 47 sec)
Heartbeat CPU 0 instructions: 103500683 cycles: 59391855 heartbeat IPC: 2.905 cumulative IPC: 1.105 (Simulation time: 00 hr 11 min 49 sec)
Heartbeat CPU 0 instructions: 104000689 cycles: 59567370 heartbeat IPC: 2.849 cumulative IPC: 1.111 (Simulation time: 00 hr 11 min 52 sec)
Heartbeat CPU 0 instructions: 104500694 cycles: 59739719 heartbeat IPC: 2.901 cumulative IPC: 1.117 (Simulation time: 00 hr 11 min 54 sec)
Heartbeat CPU 0 instructions: 105000695 cycles: 59921825 heartbeat IPC: 2.746 cumulative IPC: 1.123 (Simulation time: 00 hr 11 min 57 sec)
Heartbeat CPU 0 instructions: 105500695 cycles: 60110973 heartbeat IPC: 2.643 cumulative IPC: 1.129 (Simulation time: 00 hr 12 min 00 sec)
Heartbeat CPU 0 instructions: 106000702 cycles: 60241487 heartbeat IPC: 3.831 cumulative IPC: 1.137 (Simulation time: 00 hr 12 min 02 sec)
Heartbeat CPU 0 instructions: 106500705 cycles: 60375401 heartbeat IPC: 3.734 cumulative IPC: 1.144 (Simulation time: 00 hr 12 min 04 sec)
Heartbeat CPU 0 instructions: 107000709 cycles: 60507479 heartbeat IPC: 3.786 cumulative IPC: 1.151 (Simulation time: 00 hr 12 min 06 sec)
Heartbeat CPU 0 instructions: 107500710 cycles: 60641337 heartbeat IPC: 3.735 cumulative IPC: 1.158 (Simulation time: 00 hr 12 min 08 sec)
Heartbeat CPU 0 instructions: 108000712 cycles: 60771372 heartbeat IPC: 3.845 cumulative IPC: 1.165 (Simulation time: 00 hr 12 min 10 sec)
Heartbeat CPU 0 instructions: 108500712 cycles: 60902196 heartbeat IPC: 3.822 cumulative IPC: 1.172 (Simulation time: 00 hr 12 min 12 sec)
Heartbeat CPU 0 instructions: 109000714 cycles: 61037137 heartbeat IPC: 3.705 cumulative IPC: 1.178 (Simulation time: 00 hr 12 min 14 sec)
Heartbeat CPU 0 instructions: 109500715 cycles: 61172345 heartbeat IPC: 3.698 cumulative IPC: 1.185 (Simulation time: 00 hr 12 min 16 sec)
Heartbeat CPU 0 instructions: 110000721 cycles: 61308996 heartbeat IPC: 3.659 cumulative IPC: 1.192 (Simulation time: 00 hr 12 min 18 sec)
Heartbeat CPU 0 instructions: 110500727 cycles: 61442521 heartbeat IPC: 3.745 cumulative IPC: 1.199 (Simulation time: 00 hr 12 min 20 sec)
Heartbeat CPU 0 instructions: 111000733 cycles: 61600112 heartbeat IPC: 3.173 cumulative IPC: 1.205 (Simulation time: 00 hr 12 min 22 sec)
Heartbeat CPU 0 instructions: 111500734 cycles: 61754596 heartbeat IPC: 3.237 cumulative IPC: 1.211 (Simulation time: 00 hr 12 min 24 sec)
Heartbeat CPU 0 instructions: 112000737 cycles: 61913577 heartbeat IPC: 3.145 cumulative IPC: 1.217 (Simulation time: 00 hr 12 min 26 sec)
Heartbeat CPU 0 instructions: 112500738 cycles: 62070456 heartbeat IPC: 3.187 cumulative IPC: 1.223 (Simulation time: 00 hr 12 min 29 sec)
Heartbeat CPU 0 instructions: 113000741 cycles: 62225424 heartbeat IPC: 3.226 cumulative IPC: 1.229 (Simulation time: 00 hr 12 min 31 sec)
Heartbeat CPU 0 instructions: 113500741 cycles: 62381854 heartbeat IPC: 3.196 cumulative IPC: 1.235 (Simulation time: 00 hr 12 min 33 sec)
Heartbeat CPU 0 instructions: 114000747 cycles: 62538992 heartbeat IPC: 3.182 cumulative IPC: 1.241 (Simulation time: 00 hr 12 min 35 sec)
Heartbeat CPU 0 instructions: 114500747 cycles: 62694877 heartbeat IPC: 3.207 cumulative IPC: 1.247 (Simulation time: 00 hr 12 min 37 sec)
Heartbeat CPU 0 instructions: 115000754 cycles: 62865512 heartbeat IPC: 2.93 cumulative IPC: 1.252 (Simulation time: 00 hr 12 min 40 sec)
Heartbeat CPU 0 instructions: 115500761 cycles: 63161682 heartbeat IPC: 1.688 cumulative IPC: 1.255 (Simulation time: 00 hr 12 min 43 sec)
Heartbeat CPU 0 instructions: 116000764 cycles: 63323006 heartbeat IPC: 3.099 cumulative IPC: 1.261 (Simulation time: 00 hr 12 min 45 sec)
Heartbeat CPU 0 instructions: 116500765 cycles: 63875525 heartbeat IPC: 0.9049 cumulative IPC: 1.257 (Simulation time: 00 hr 12 min 51 sec)
Heartbeat CPU 0 instructions: 117000769 cycles: 64534903 heartbeat IPC: 0.7583 cumulative IPC: 1.251 (Simulation time: 00 hr 12 min 57 sec)
Heartbeat CPU 0 instructions: 117500769 cycles: 64998113 heartbeat IPC: 1.079 cumulative IPC: 1.249 (Simulation time: 00 hr 13 min 03 sec)
Heartbeat CPU 0 instructions: 118000772 cycles: 65167072 heartbeat IPC: 2.959 cumulative IPC: 1.255 (Simulation time: 00 hr 13 min 05 sec)
Heartbeat CPU 0 instructions: 118500776 cycles: 65335903 heartbeat IPC: 2.962 cumulative IPC: 1.26 (Simulation time: 00 hr 13 min 08 sec)
Heartbeat CPU 0 instructions: 119000777 cycles: 65508942 heartbeat IPC: 2.89 cumulative IPC: 1.265 (Simulation time: 00 hr 13 min 10 sec)
Heartbeat CPU 0 instructions: 119500783 cycles: 65678437 heartbeat IPC: 2.95 cumulative IPC: 1.27 (Simulation time: 00 hr 13 min 12 sec)
Heartbeat CPU 0 instructions: 120000783 cycles: 65855666 heartbeat IPC: 2.821 cumulative IPC: 1.275 (Simulation time: 00 hr 13 min 15 sec)
Heartbeat CPU 0 instructions: 120500787 cycles: 66029823 heartbeat IPC: 2.871 cumulative IPC: 1.28 (Simulation time: 00 hr 13 min 17 sec)
Heartbeat CPU 0 instructions: 121000793 cycles: 66202932 heartbeat IPC: 2.888 cumulative IPC: 1.285 (Simulation time: 00 hr 13 min 20 sec)
Heartbeat CPU 0 instructions: 121500794 cycles: 66378367 heartbeat IPC: 2.85 cumulative IPC: 1.29 (Simulation time: 00 hr 13 min 22 sec)
Heartbeat CPU 0 instructions: 122000798 cycles: 66553729 heartbeat IPC: 2.851 cumulative IPC: 1.295 (Simulation time: 00 hr 13 min 25 sec)
Heartbeat CPU 0 instructions: 122500798 cycles: 66729892 heartbeat IPC: 2.838 cumulative IPC: 1.3 (Simulation time: 00 hr 13 min 27 sec)
Heartbeat CPU 0 instructions: 123000804 cycles: 66878260 heartbeat IPC: 3.37 cumulative IPC: 1.306 (Simulation time: 00 hr 13 min 29 sec)
Heartbeat CPU 0 instructions: 123500805 cycles: 67008590 heartbeat IPC: 3.836 cumulative IPC: 1.312 (Simulation time: 00 hr 13 min 31 sec)
Heartbeat CPU 0 instructions: 124000809 cycles: 67145149 heartbeat IPC: 3.661 cumulative IPC: 1.317 (Simulation time: 00 hr 13 min 33 sec)
Heartbeat CPU 0 instructions: 124500811 cycles: 67276234 heartbeat IPC: 3.814 cumulative IPC: 1.323 (Simulation time: 00 hr 13 min 35 sec)
Heartbeat CPU 0 instructions: 125000815 cycles: 67406948 heartbeat IPC: 3.825 cumulative IPC: 1.329 (Simulation time: 00 hr 13 min 37 sec)
Heartbeat CPU 0 instructions: 125500816 cycles: 67542027 heartbeat IPC: 3.702 cumulative IPC: 1.335 (Simulation time: 00 hr 13 min 39 sec)
Heartbeat CPU 0 instructions: 126000816 cycles: 67674949 heartbeat IPC: 3.762 cumulative IPC: 1.34 (Simulation time: 00 hr 13 min 41 sec)
Heartbeat CPU 0 instructions: 126500820 cycles: 67810448 heartbeat IPC: 3.69 cumulative IPC: 1.346 (Simulation time: 00 hr 13 min 43 sec)
Heartbeat CPU 0 instructions: 127000821 cycles: 67943570 heartbeat IPC: 3.756 cumulative IPC: 1.351 (Simulation time: 00 hr 13 min 45 sec)
Heartbeat CPU 0 instructions: 127500826 cycles: 68079560 heartbeat IPC: 3.677 cumulative IPC: 1.357 (Simulation time: 00 hr 13 min 47 sec)
Heartbeat CPU 0 instructions: 128000832 cycles: 68224004 heartbeat IPC: 3.462 cumulative IPC: 1.362 (Simulation time: 00 hr 13 min 49 sec)
Heartbeat CPU 0 instructions: 128500835 cycles: 68376143 heartbeat IPC: 3.286 cumulative IPC: 1.367 (Simulation time: 00 hr 13 min 51 sec)
Heartbeat CPU 0 instructions: 129000838 cycles: 68533440 heartbeat IPC: 3.179 cumulative IPC: 1.372 (Simulation time: 00 hr 13 min 53 sec)
Heartbeat CPU 0 instructions: 129500842 cycles: 68695541 heartbeat IPC: 3.085 cumulative IPC: 1.377 (Simulation time: 00 hr 13 min 56 sec)
Heartbeat CPU 0 instructions: 130000842 cycles: 68851556 heartbeat IPC: 3.205 cumulative IPC: 1.382 (Simulation time: 00 hr 13 min 58 sec)
Heartbeat CPU 0 instructions: 130500847 cycles: 69005122 heartbeat IPC: 3.256 cumulative IPC: 1.387 (Simulation time: 00 hr 14 min 00 sec)
Heartbeat CPU 0 instructions: 131000850 cycles: 69160101 heartbeat IPC: 3.226 cumulative IPC: 1.392 (Simulation time: 00 hr 14 min 02 sec)
Heartbeat CPU 0 instructions: 131500855 cycles: 69317694 heartbeat IPC: 3.173 cumulative IPC: 1.397 (Simulation time: 00 hr 14 min 04 sec)
Heartbeat CPU 0 instructions: 132000860 cycles: 69472231 heartbeat IPC: 3.236 cumulative IPC: 1.402 (Simulation time: 00 hr 14 min 07 sec)
Heartbeat CPU 0 instructions: 132500863 cycles: 69650156 heartbeat IPC: 2.81 cumulative IPC: 1.406 (Simulation time: 00 hr 14 min 09 sec)
Heartbeat CPU 0 instructions: 133000863 cycles: 70002888 heartbeat IPC: 1.418 cumulative IPC: 1.406 (Simulation time: 00 hr 14 min 13 sec)
Heartbeat CPU 0 instructions: 133500864 cycles: 70523522 heartbeat IPC: 0.9604 cumulative IPC: 1.402 (Simulation time: 00 hr 14 min 18 sec)
Heartbeat CPU 0 instructions: 134000865 cycles: 71001186 heartbeat IPC: 1.047 cumulative IPC: 1.399 (Simulation time: 00 hr 14 min 23 sec)
Heartbeat CPU 0 instructions: 134500872 cycles: 71267256 heartbeat IPC: 1.879 cumulative IPC: 1.401 (Simulation time: 00 hr 14 min 26 sec)
Heartbeat CPU 0 instructions: 135000877 cycles: 71435067 heartbeat IPC: 2.98 cumulative IPC: 1.406 (Simulation time: 00 hr 14 min 28 sec)
Heartbeat CPU 0 instructions: 135500883 cycles: 71604216 heartbeat IPC: 2.956 cumulative IPC: 1.41 (Simulation time: 00 hr 14 min 31 sec)
Heartbeat CPU 0 instructions: 136000883 cycles: 71775729 heartbeat IPC: 2.915 cumulative IPC: 1.414 (Simulation time: 00 hr 14 min 33 sec)
Heartbeat CPU 0 instructions: 136500887 cycles: 71944604 heartbeat IPC: 2.961 cumulative IPC: 1.419 (Simulation time: 00 hr 14 min 36 sec)
Heartbeat CPU 0 instructions: 137000893 cycles: 72115356 heartbeat IPC: 2.928 cumulative IPC: 1.423 (Simulation time: 00 hr 14 min 38 sec)
Heartbeat CPU 0 instructions: 137500898 cycles: 72290044 heartbeat IPC: 2.862 cumulative IPC: 1.427 (Simulation time: 00 hr 14 min 40 sec)
Heartbeat CPU 0 instructions: 138000902 cycles: 72467977 heartbeat IPC: 2.81 cumulative IPC: 1.431 (Simulation time: 00 hr 14 min 43 sec)
Heartbeat CPU 0 instructions: 138500909 cycles: 72641071 heartbeat IPC: 2.889 cumulative IPC: 1.435 (Simulation time: 00 hr 14 min 45 sec)
Heartbeat CPU 0 instructions: 139000910 cycles: 72814270 heartbeat IPC: 2.887 cumulative IPC: 1.439 (Simulation time: 00 hr 14 min 48 sec)
Heartbeat CPU 0 instructions: 139500911 cycles: 72984225 heartbeat IPC: 2.942 cumulative IPC: 1.443 (Simulation time: 00 hr 14 min 50 sec)
Heartbeat CPU 0 instructions: 140000915 cycles: 73115366 heartbeat IPC: 3.813 cumulative IPC: 1.448 (Simulation time: 00 hr 14 min 52 sec)
Heartbeat CPU 0 instructions: 140500918 cycles: 73244303 heartbeat IPC: 3.878 cumulative IPC: 1.453 (Simulation time: 00 hr 14 min 54 sec)
Heartbeat CPU 0 instructions: 141000918 cycles: 73376869 heartbeat IPC: 3.772 cumulative IPC: 1.458 (Simulation time: 00 hr 14 min 56 sec)
Heartbeat CPU 0 instructions: 141500918 cycles: 73507326 heartbeat IPC: 3.833 cumulative IPC: 1.463 (Simulation time: 00 hr 14 min 58 sec)
Heartbeat CPU 0 instructions: 142000919 cycles: 73640136 heartbeat IPC: 3.765 cumulative IPC: 1.468 (Simulation time: 00 hr 15 min 00 sec)
Heartbeat CPU 0 instructions: 142500923 cycles: 73772179 heartbeat IPC: 3.787 cumulative IPC: 1.473 (Simulation time: 00 hr 15 min 02 sec)
Heartbeat CPU 0 instructions: 143000923 cycles: 73903970 heartbeat IPC: 3.794 cumulative IPC: 1.478 (Simulation time: 00 hr 15 min 04 sec)
Heartbeat CPU 0 instructions: 143500927 cycles: 74038004 heartbeat IPC: 3.73 cumulative IPC: 1.482 (Simulation time: 00 hr 15 min 06 sec)
Heartbeat CPU 0 instructions: 144000929 cycles: 74172264 heartbeat IPC: 3.724 cumulative IPC: 1.487 (Simulation time: 00 hr 15 min 08 sec)
Heartbeat CPU 0 instructions: 144500930 cycles: 74304585 heartbeat IPC: 3.779 cumulative IPC: 1.492 (Simulation time: 00 hr 15 min 10 sec)
Heartbeat CPU 0 instructions: 145000932 cycles: 74452223 heartbeat IPC: 3.387 cumulative IPC: 1.496 (Simulation time: 00 hr 15 min 12 sec)
Heartbeat CPU 0 instructions: 145500934 cycles: 74605604 heartbeat IPC: 3.26 cumulative IPC: 1.501 (Simulation time: 00 hr 15 min 14 sec)
Heartbeat CPU 0 instructions: 146000941 cycles: 74763482 heartbeat IPC: 3.167 cumulative IPC: 1.505 (Simulation time: 00 hr 15 min 16 sec)
Heartbeat CPU 0 instructions: 146500944 cycles: 74922114 heartbeat IPC: 3.152 cumulative IPC: 1.509 (Simulation time: 00 hr 15 min 18 sec)
Heartbeat CPU 0 instructions: 147000950 cycles: 75076119 heartbeat IPC: 3.247 cumulative IPC: 1.513 (Simulation time: 00 hr 15 min 20 sec)
Heartbeat CPU 0 instructions: 147500955 cycles: 75232559 heartbeat IPC: 3.196 cumulative IPC: 1.517 (Simulation time: 00 hr 15 min 23 sec)
Heartbeat CPU 0 instructions: 148000962 cycles: 75382959 heartbeat IPC: 3.325 cumulative IPC: 1.521 (Simulation time: 00 hr 15 min 25 sec)
Heartbeat CPU 0 instructions: 148500968 cycles: 75539512 heartbeat IPC: 3.194 cumulative IPC: 1.525 (Simulation time: 00 hr 15 min 27 sec)
Heartbeat CPU 0 instructions: 149000968 cycles: 75733368 heartbeat IPC: 2.579 cumulative IPC: 1.529 (Simulation time: 00 hr 15 min 29 sec)
Heartbeat CPU 0 instructions: 149500970 cycles: 75869872 heartbeat IPC: 3.663 cumulative IPC: 1.533 (Simulation time: 00 hr 15 min 31 sec)
Heartbeat CPU 0 instructions: 150000973 cycles: 76355694 heartbeat IPC: 1.029 cumulative IPC: 1.529 (Simulation time: 00 hr 15 min 36 sec)
Heartbeat CPU 0 instructions: 150500973 cycles: 76903341 heartbeat IPC: 0.913 cumulative IPC: 1.524 (Simulation time: 00 hr 15 min 42 sec)
Heartbeat CPU 0 instructions: 151000973 cycles: 77331452 heartbeat IPC: 1.168 cumulative IPC: 1.522 (Simulation time: 00 hr 15 min 46 sec)
Heartbeat CPU 0 instructions: 151500977 cycles: 77506986 heartbeat IPC: 2.848 cumulative IPC: 1.525 (Simulation time: 00 hr 15 min 49 sec)
Heartbeat CPU 0 instructions: 152000984 cycles: 77676822 heartbeat IPC: 2.944 cumulative IPC: 1.529 (Simulation time: 00 hr 15 min 51 sec)
Heartbeat CPU 0 instructions: 152500989 cycles: 77848055 heartbeat IPC: 2.92 cumulative IPC: 1.533 (Simulation time: 00 hr 15 min 53 sec)
Heartbeat CPU 0 instructions: 153000993 cycles: 78017320 heartbeat IPC: 2.954 cumulative IPC: 1.536 (Simulation time: 00 hr 15 min 56 sec)
Heartbeat CPU 0 instructions: 153500994 cycles: 78186399 heartbeat IPC: 2.957 cumulative IPC: 1.54 (Simulation time: 00 hr 15 min 58 sec)
Heartbeat CPU 0 instructions: 154000996 cycles: 78358780 heartbeat IPC: 2.901 cumulative IPC: 1.543 (Simulation time: 00 hr 16 min 01 sec)
Heartbeat CPU 0 instructions: 154500997 cycles: 78530975 heartbeat IPC: 2.904 cumulative IPC: 1.547 (Simulation time: 00 hr 16 min 03 sec)
Heartbeat CPU 0 instructions: 155001002 cycles: 78703790 heartbeat IPC: 2.893 cumulative IPC: 1.55 (Simulation time: 00 hr 16 min 06 sec)
Heartbeat CPU 0 instructions: 155501002 cycles: 78871604 heartbeat IPC: 2.979 cumulative IPC: 1.554 (Simulation time: 00 hr 16 min 08 sec)
Heartbeat CPU 0 instructions: 156001009 cycles: 79044212 heartbeat IPC: 2.897 cumulative IPC: 1.557 (Simulation time: 00 hr 16 min 10 sec)
Heartbeat CPU 0 instructions: 156501009 cycles: 79202476 heartbeat IPC: 3.159 cumulative IPC: 1.561 (Simulation time: 00 hr 16 min 12 sec)
Heartbeat CPU 0 instructions: 157001009 cycles: 79329690 heartbeat IPC: 3.93 cumulative IPC: 1.565 (Simulation time: 00 hr 16 min 14 sec)
Heartbeat CPU 0 instructions: 157501011 cycles: 79456159 heartbeat IPC: 3.954 cumulative IPC: 1.57 (Simulation time: 00 hr 16 min 16 sec)
Heartbeat CPU 0 instructions: 158001017 cycles: 79586523 heartbeat IPC: 3.835 cumulative IPC: 1.574 (Simulation time: 00 hr 16 min 18 sec)
Heartbeat CPU 0 instructions: 158501022 cycles: 79718781 heartbeat IPC: 3.781 cumulative IPC: 1.578 (Simulation time: 00 hr 16 min 20 sec)
Heartbeat CPU 0 instructions: 159001028 cycles: 79849542 heartbeat IPC: 3.824 cumulative IPC: 1.582 (Simulation time: 00 hr 16 min 22 sec)
Heartbeat CPU 0 instructions: 159501030 cycles: 79980686 heartbeat IPC: 3.813 cumulative IPC: 1.587 (Simulation time: 00 hr 16 min 24 sec)
Heartbeat CPU 0 instructions: 160001030 cycles: 80115145 heartbeat IPC: 3.719 cumulative IPC: 1.591 (Simulation time: 00 hr 16 min 26 sec)
Heartbeat CPU 0 instructions: 160501037 cycles: 80245258 heartbeat IPC: 3.843 cumulative IPC: 1.595 (Simulation time: 00 hr 16 min 28 sec)
Heartbeat CPU 0 instructions: 161001043 cycles: 80376814 heartbeat IPC: 3.801 cumulative IPC: 1.599 (Simulation time: 00 hr 16 min 30 sec)
Heartbeat CPU 0 instructions: 161501049 cycles: 80506508 heartbeat IPC: 3.855 cumulative IPC: 1.603 (Simulation time: 00 hr 16 min 32 sec)
Heartbeat CPU 0 instructions: 162001055 cycles: 80659819 heartbeat IPC: 3.261 cumulative IPC: 1.607 (Simulation time: 00 hr 16 min 34 sec)
Heartbeat CPU 0 instructions: 162501062 cycles: 80811736 heartbeat IPC: 3.291 cumulative IPC: 1.611 (Simulation time: 00 hr 16 min 36 sec)
Heartbeat CPU 0 instructions: 163001067 cycles: 80974112 heartbeat IPC: 3.079 cumulative IPC: 1.614 (Simulation time: 00 hr 16 min 38 sec)
Heartbeat CPU 0 instructions: 163501068 cycles: 81128559 heartbeat IPC: 3.237 cumulative IPC: 1.618 (Simulation time: 00 hr 16 min 40 sec)
Heartbeat CPU 0 instructions: 164001074 cycles: 81283456 heartbeat IPC: 3.228 cumulative IPC: 1.621 (Simulation time: 00 hr 16 min 43 sec)
Heartbeat CPU 0 instructions: 164501077 cycles: 81440491 heartbeat IPC: 3.184 cumulative IPC: 1.625 (Simulation time: 00 hr 16 min 45 sec)
Heartbeat CPU 0 instructions: 165001081 cycles: 81597014 heartbeat IPC: 3.194 cumulative IPC: 1.628 (Simulation time: 00 hr 16 min 47 sec)
Heartbeat CPU 0 instructions: 165501088 cycles: 81753053 heartbeat IPC: 3.204 cumulative IPC: 1.632 (Simulation time: 00 hr 16 min 49 sec)
Heartbeat CPU 0 instructions: 166001091 cycles: 81943518 heartbeat IPC: 2.625 cumulative IPC: 1.634 (Simulation time: 00 hr 16 min 52 sec)
Heartbeat CPU 0 instructions: 166501091 cycles: 82182584 heartbeat IPC: 2.091 cumulative IPC: 1.636 (Simulation time: 00 hr 16 min 54 sec)
Heartbeat CPU 0 instructions: 167001097 cycles: 82687902 heartbeat IPC: 0.9895 cumulative IPC: 1.631 (Simulation time: 00 hr 16 min 59 sec)
Heartbeat CPU 0 instructions: 167501098 cycles: 83229192 heartbeat IPC: 0.9237 cumulative IPC: 1.626 (Simulation time: 00 hr 17 min 05 sec)
Heartbeat CPU 0 instructions: 168001104 cycles: 83536305 heartbeat IPC: 1.628 cumulative IPC: 1.626 (Simulation time: 00 hr 17 min 08 sec)
Heartbeat CPU 0 instructions: 168501109 cycles: 83709260 heartbeat IPC: 2.891 cumulative IPC: 1.629 (Simulation time: 00 hr 17 min 11 sec)
Heartbeat CPU 0 instructions: 169001111 cycles: 83879331 heartbeat IPC: 2.94 cumulative IPC: 1.632 (Simulation time: 00 hr 17 min 13 sec)
Heartbeat CPU 0 instructions: 169501114 cycles: 84049471 heartbeat IPC: 2.939 cumulative IPC: 1.635 (Simulation time: 00 hr 17 min 16 sec)
Heartbeat CPU 0 instructions: 170001116 cycles: 84218329 heartbeat IPC: 2.961 cumulative IPC: 1.638 (Simulation time: 00 hr 17 min 18 sec)
Heartbeat CPU 0 instructions: 170501117 cycles: 84392429 heartbeat IPC: 2.872 cumulative IPC: 1.641 (Simulation time: 00 hr 17 min 21 sec)
Heartbeat CPU 0 instructions: 171001120 cycles: 84566516 heartbeat IPC: 2.872 cumulative IPC: 1.644 (Simulation time: 00 hr 17 min 23 sec)
Heartbeat CPU 0 instructions: 171501120 cycles: 84735370 heartbeat IPC: 2.961 cumulative IPC: 1.647 (Simulation time: 00 hr 17 min 25 sec)
Heartbeat CPU 0 instructions: 172001123 cycles: 84913627 heartbeat IPC: 2.805 cumulative IPC: 1.65 (Simulation time: 00 hr 17 min 28 sec)
Heartbeat CPU 0 instructions: 172501127 cycles: 85085265 heartbeat IPC: 2.913 cumulative IPC: 1.653 (Simulation time: 00 hr 17 min 30 sec)
Heartbeat CPU 0 instructions: 173001132 cycles: 85258120 heartbeat IPC: 2.893 cumulative IPC: 1.656 (Simulation time: 00 hr 17 min 33 sec)
Heartbeat CPU 0 instructions: 173501138 cycles: 85396391 heartbeat IPC: 3.616 cumulative IPC: 1.659 (Simulation time: 00 hr 17 min 35 sec)
Heartbeat CPU 0 instructions: 174001138 cycles: 85521558 heartbeat IPC: 3.995 cumulative IPC: 1.663 (Simulation time: 00 hr 17 min 37 sec)
Heartbeat CPU 0 instructions: 174501138 cycles: 85652571 heartbeat IPC: 3.816 cumulative IPC: 1.667 (Simulation time: 00 hr 17 min 38 sec)
Heartbeat CPU 0 instructions: 175001144 cycles: 85784888 heartbeat IPC: 3.779 cumulative IPC: 1.671 (Simulation time: 00 hr 17 min 40 sec)
Heartbeat CPU 0 instructions: 175501145 cycles: 85918959 heartbeat IPC: 3.729 cumulative IPC: 1.674 (Simulation time: 00 hr 17 min 42 sec)
Heartbeat CPU 0 instructions: 176001147 cycles: 86047918 heartbeat IPC: 3.877 cumulative IPC: 1.678 (Simulation time: 00 hr 17 min 44 sec)
Heartbeat CPU 0 instructions: 176501147 cycles: 86180089 heartbeat IPC: 3.783 cumulative IPC: 1.682 (Simulation time: 00 hr 17 min 46 sec)
Heartbeat CPU 0 instructions: 177001154 cycles: 86308883 heartbeat IPC: 3.882 cumulative IPC: 1.686 (Simulation time: 00 hr 17 min 48 sec)
Heartbeat CPU 0 instructions: 177501160 cycles: 86438506 heartbeat IPC: 3.857 cumulative IPC: 1.689 (Simulation time: 00 hr 17 min 50 sec)
Heartbeat CPU 0 instructions: 178001160 cycles: 86568538 heartbeat IPC: 3.845 cumulative IPC: 1.693 (Simulation time: 00 hr 17 min 52 sec)
Heartbeat CPU 0 instructions: 178501160 cycles: 86708024 heartbeat IPC: 3.585 cumulative IPC: 1.697 (Simulation time: 00 hr 17 min 54 sec)
Heartbeat CPU 0 instructions: 179001167 cycles: 86863521 heartbeat IPC: 3.216 cumulative IPC: 1.7 (Simulation time: 00 hr 17 min 56 sec)
Heartbeat CPU 0 instructions: 179501174 cycles: 87018926 heartbeat IPC: 3.217 cumulative IPC: 1.703 (Simulation time: 00 hr 17 min 58 sec)
Heartbeat CPU 0 instructions: 180001181 cycles: 87174787 heartbeat IPC: 3.208 cumulative IPC: 1.706 (Simulation time: 00 hr 18 min 00 sec)
Heartbeat CPU 0 instructions: 180501181 cycles: 87332258 heartbeat IPC: 3.175 cumulative IPC: 1.709 (Simulation time: 00 hr 18 min 03 sec)
Heartbeat CPU 0 instructions: 181001183 cycles: 87486360 heartbeat IPC: 3.245 cumulative IPC: 1.712 (Simulation time: 00 hr 18 min 05 sec)
Heartbeat CPU 0 instructions: 181501184 cycles: 87639173 heartbeat IPC: 3.272 cumulative IPC: 1.715 (Simulation time: 00 hr 18 min 07 sec)
Heartbeat CPU 0 instructions: 182001187 cycles: 87795066 heartbeat IPC: 3.207 cumulative IPC: 1.718 (Simulation time: 00 hr 18 min 09 sec)
Heartbeat CPU 0 instructions: 182501190 cycles: 87951644 heartbeat IPC: 3.193 cumulative IPC: 1.721 (Simulation time: 00 hr 18 min 11 sec)
Heartbeat CPU 0 instructions: 183001196 cycles: 88153090 heartbeat IPC: 2.482 cumulative IPC: 1.723 (Simulation time: 00 hr 18 min 14 sec)
Heartbeat CPU 0 instructions: 183501196 cycles: 88512465 heartbeat IPC: 1.391 cumulative IPC: 1.722 (Simulation time: 00 hr 18 min 18 sec)
Heartbeat CPU 0 instructions: 184001196 cycles: 89043279 heartbeat IPC: 0.9419 cumulative IPC: 1.716 (Simulation time: 00 hr 18 min 23 sec)
Heartbeat CPU 0 instructions: 184501196 cycles: 89641685 heartbeat IPC: 0.8356 cumulative IPC: 1.71 (Simulation time: 00 hr 18 min 29 sec)
Heartbeat CPU 0 instructions: 185001199 cycles: 90296964 heartbeat IPC: 0.763 cumulative IPC: 1.702 (Simulation time: 00 hr 18 min 35 sec)
Heartbeat CPU 0 instructions: 185501200 cycles: 90608728 heartbeat IPC: 1.604 cumulative IPC: 1.701 (Simulation time: 00 hr 18 min 39 sec)
Heartbeat CPU 0 instructions: 186001203 cycles: 90926008 heartbeat IPC: 1.576 cumulative IPC: 1.701 (Simulation time: 00 hr 18 min 43 sec)
Heartbeat CPU 0 instructions: 186501203 cycles: 91240850 heartbeat IPC: 1.588 cumulative IPC: 1.7 (Simulation time: 00 hr 18 min 47 sec)
Heartbeat CPU 0 instructions: 187001203 cycles: 91556558 heartbeat IPC: 1.584 cumulative IPC: 1.7 (Simulation time: 00 hr 18 min 51 sec)
Heartbeat CPU 0 instructions: 187501207 cycles: 91873316 heartbeat IPC: 1.579 cumulative IPC: 1.7 (Simulation time: 00 hr 18 min 55 sec)
Heartbeat CPU 0 instructions: 188001208 cycles: 92184242 heartbeat IPC: 1.608 cumulative IPC: 1.699 (Simulation time: 00 hr 18 min 58 sec)
Heartbeat CPU 0 instructions: 188501208 cycles: 92494259 heartbeat IPC: 1.613 cumulative IPC: 1.699 (Simulation time: 00 hr 19 min 02 sec)
Heartbeat CPU 0 instructions: 189001208 cycles: 92807102 heartbeat IPC: 1.598 cumulative IPC: 1.698 (Simulation time: 00 hr 19 min 06 sec)
Heartbeat CPU 0 instructions: 189501209 cycles: 93122020 heartbeat IPC: 1.588 cumulative IPC: 1.698 (Simulation time: 00 hr 19 min 10 sec)
Heartbeat CPU 0 instructions: 190001209 cycles: 93440208 heartbeat IPC: 1.571 cumulative IPC: 1.698 (Simulation time: 00 hr 19 min 14 sec)
Heartbeat CPU 0 instructions: 190501216 cycles: 93756680 heartbeat IPC: 1.58 cumulative IPC: 1.697 (Simulation time: 00 hr 19 min 17 sec)
Heartbeat CPU 0 instructions: 191001216 cycles: 94074443 heartbeat IPC: 1.573 cumulative IPC: 1.697 (Simulation time: 00 hr 19 min 21 sec)
Heartbeat CPU 0 instructions: 191501217 cycles: 94386728 heartbeat IPC: 1.601 cumulative IPC: 1.696 (Simulation time: 00 hr 19 min 25 sec)
Heartbeat CPU 0 instructions: 192001223 cycles: 94700005 heartbeat IPC: 1.596 cumulative IPC: 1.696 (Simulation time: 00 hr 19 min 29 sec)
Heartbeat CPU 0 instructions: 192501223 cycles: 95013908 heartbeat IPC: 1.593 cumulative IPC: 1.695 (Simulation time: 00 hr 19 min 33 sec)
Heartbeat CPU 0 instructions: 193001223 cycles: 95337949 heartbeat IPC: 1.543 cumulative IPC: 1.695 (Simulation time: 00 hr 19 min 36 sec)
Heartbeat CPU 0 instructions: 193501224 cycles: 95657372 heartbeat IPC: 1.565 cumulative IPC: 1.694 (Simulation time: 00 hr 19 min 40 sec)
Heartbeat CPU 0 instructions: 194001224 cycles: 95974880 heartbeat IPC: 1.575 cumulative IPC: 1.694 (Simulation time: 00 hr 19 min 44 sec)
Heartbeat CPU 0 instructions: 194501224 cycles: 96293129 heartbeat IPC: 1.571 cumulative IPC: 1.694 (Simulation time: 00 hr 19 min 48 sec)
Heartbeat CPU 0 instructions: 195001224 cycles: 96605074 heartbeat IPC: 1.603 cumulative IPC: 1.693 (Simulation time: 00 hr 19 min 52 sec)
Heartbeat CPU 0 instructions: 195501225 cycles: 96915872 heartbeat IPC: 1.609 cumulative IPC: 1.693 (Simulation time: 00 hr 19 min 55 sec)
Heartbeat CPU 0 instructions: 196001225 cycles: 97227955 heartbeat IPC: 1.602 cumulative IPC: 1.693 (Simulation time: 00 hr 19 min 59 sec)
Heartbeat CPU 0 instructions: 196501225 cycles: 97545311 heartbeat IPC: 1.576 cumulative IPC: 1.692 (Simulation time: 00 hr 20 min 03 sec)
Heartbeat CPU 0 instructions: 197001225 cycles: 97861149 heartbeat IPC: 1.583 cumulative IPC: 1.692 (Simulation time: 00 hr 20 min 07 sec)
Heartbeat CPU 0 instructions: 197501227 cycles: 98179570 heartbeat IPC: 1.57 cumulative IPC: 1.691 (Simulation time: 00 hr 20 min 11 sec)
Heartbeat CPU 0 instructions: 198001227 cycles: 98498243 heartbeat IPC: 1.569 cumulative IPC: 1.691 (Simulation time: 00 hr 20 min 14 sec)
Heartbeat CPU 0 instructions: 198501229 cycles: 98811678 heartbeat IPC: 1.595 cumulative IPC: 1.69 (Simulation time: 00 hr 20 min 18 sec)
Heartbeat CPU 0 instructions: 199001231 cycles: 99124280 heartbeat IPC: 1.599 cumulative IPC: 1.69 (Simulation time: 00 hr 20 min 22 sec)
Heartbeat CPU 0 instructions: 199501231 cycles: 99437652 heartbeat IPC: 1.596 cumulative IPC: 1.69 (Simulation time: 00 hr 20 min 26 sec)
Heartbeat CPU 0 instructions: 200001233 cycles: 99758204 heartbeat IPC: 1.56 cumulative IPC: 1.689 (Simulation time: 00 hr 20 min 30 sec)
Heartbeat CPU 0 instructions: 200501235 cycles: 100077263 heartbeat IPC: 1.567 cumulative IPC: 1.689 (Simulation time: 00 hr 20 min 33 sec)
Heartbeat CPU 0 instructions: 201001235 cycles: 100394743 heartbeat IPC: 1.575 cumulative IPC: 1.689 (Simulation time: 00 hr 20 min 37 sec)
Heartbeat CPU 0 instructions: 201501240 cycles: 100712850 heartbeat IPC: 1.572 cumulative IPC: 1.688 (Simulation time: 00 hr 20 min 41 sec)
Heartbeat CPU 0 instructions: 202001240 cycles: 101024589 heartbeat IPC: 1.604 cumulative IPC: 1.688 (Simulation time: 00 hr 20 min 45 sec)
Heartbeat CPU 0 instructions: 202501241 cycles: 101335080 heartbeat IPC: 1.61 cumulative IPC: 1.688 (Simulation time: 00 hr 20 min 48 sec)
Heartbeat CPU 0 instructions: 203001243 cycles: 101646366 heartbeat IPC: 1.606 cumulative IPC: 1.687 (Simulation time: 00 hr 20 min 52 sec)
Heartbeat CPU 0 instructions: 203501243 cycles: 101963413 heartbeat IPC: 1.577 cumulative IPC: 1.687 (Simulation time: 00 hr 20 min 56 sec)
Heartbeat CPU 0 instructions: 204001243 cycles: 102284330 heartbeat IPC: 1.558 cumulative IPC: 1.686 (Simulation time: 00 hr 21 min 00 sec)
Heartbeat CPU 0 instructions: 204501246 cycles: 102602955 heartbeat IPC: 1.569 cumulative IPC: 1.686 (Simulation time: 00 hr 21 min 04 sec)
Heartbeat CPU 0 instructions: 205001246 cycles: 102920820 heartbeat IPC: 1.573 cumulative IPC: 1.686 (Simulation time: 00 hr 21 min 07 sec)
Heartbeat CPU 0 instructions: 205501246 cycles: 103234480 heartbeat IPC: 1.594 cumulative IPC: 1.685 (Simulation time: 00 hr 21 min 11 sec)
Heartbeat CPU 0 instructions: 206001250 cycles: 103548558 heartbeat IPC: 1.592 cumulative IPC: 1.685 (Simulation time: 00 hr 21 min 15 sec)
Heartbeat CPU 0 instructions: 206501257 cycles: 103862476 heartbeat IPC: 1.593 cumulative IPC: 1.685 (Simulation time: 00 hr 21 min 18 sec)
Heartbeat CPU 0 instructions: 207001261 cycles: 104180789 heartbeat IPC: 1.571 cumulative IPC: 1.684 (Simulation time: 00 hr 21 min 22 sec)
Heartbeat CPU 0 instructions: 207501262 cycles: 104499439 heartbeat IPC: 1.569 cumulative IPC: 1.684 (Simulation time: 00 hr 21 min 26 sec)
Heartbeat CPU 0 instructions: 208001267 cycles: 104816992 heartbeat IPC: 1.575 cumulative IPC: 1.684 (Simulation time: 00 hr 21 min 30 sec)
Heartbeat CPU 0 instructions: 208501267 cycles: 105135428 heartbeat IPC: 1.57 cumulative IPC: 1.683 (Simulation time: 00 hr 21 min 34 sec)
Heartbeat CPU 0 instructions: 209001267 cycles: 105446284 heartbeat IPC: 1.608 cumulative IPC: 1.683 (Simulation time: 00 hr 21 min 37 sec)
Heartbeat CPU 0 instructions: 209501268 cycles: 105759194 heartbeat IPC: 1.598 cumulative IPC: 1.683 (Simulation time: 00 hr 21 min 41 sec)
Heartbeat CPU 0 instructions: 210001275 cycles: 106072677 heartbeat IPC: 1.595 cumulative IPC: 1.682 (Simulation time: 00 hr 21 min 45 sec)
Heartbeat CPU 0 instructions: 210501279 cycles: 106391018 heartbeat IPC: 1.571 cumulative IPC: 1.682 (Simulation time: 00 hr 21 min 48 sec)
Heartbeat CPU 0 instructions: 211001279 cycles: 106708399 heartbeat IPC: 1.575 cumulative IPC: 1.682 (Simulation time: 00 hr 21 min 52 sec)
Heartbeat CPU 0 instructions: 211501280 cycles: 107028913 heartbeat IPC: 1.56 cumulative IPC: 1.681 (Simulation time: 00 hr 21 min 56 sec)
Heartbeat CPU 0 instructions: 212001283 cycles: 107347892 heartbeat IPC: 1.568 cumulative IPC: 1.681 (Simulation time: 00 hr 22 min 00 sec)
Heartbeat CPU 0 instructions: 212501289 cycles: 107663655 heartbeat IPC: 1.583 cumulative IPC: 1.681 (Simulation time: 00 hr 22 min 04 sec)
Heartbeat CPU 0 instructions: 213001289 cycles: 107976555 heartbeat IPC: 1.598 cumulative IPC: 1.68 (Simulation time: 00 hr 22 min 07 sec)
Heartbeat CPU 0 instructions: 213501294 cycles: 108288484 heartbeat IPC: 1.603 cumulative IPC: 1.68 (Simulation time: 00 hr 22 min 11 sec)
Heartbeat CPU 0 instructions: 214001294 cycles: 108607754 heartbeat IPC: 1.566 cumulative IPC: 1.68 (Simulation time: 00 hr 22 min 15 sec)
Heartbeat CPU 0 instructions: 214501294 cycles: 108927805 heartbeat IPC: 1.562 cumulative IPC: 1.679 (Simulation time: 00 hr 22 min 19 sec)
Heartbeat CPU 0 instructions: 215001294 cycles: 109246748 heartbeat IPC: 1.568 cumulative IPC: 1.679 (Simulation time: 00 hr 22 min 22 sec)
Heartbeat CPU 0 instructions: 215501294 cycles: 109566373 heartbeat IPC: 1.564 cumulative IPC: 1.679 (Simulation time: 00 hr 22 min 26 sec)
Heartbeat CPU 0 instructions: 216001295 cycles: 109878747 heartbeat IPC: 1.601 cumulative IPC: 1.678 (Simulation time: 00 hr 22 min 30 sec)
Heartbeat CPU 0 instructions: 216501295 cycles: 110190652 heartbeat IPC: 1.603 cumulative IPC: 1.678 (Simulation time: 00 hr 22 min 34 sec)
Heartbeat CPU 0 instructions: 217001295 cycles: 110506142 heartbeat IPC: 1.585 cumulative IPC: 1.678 (Simulation time: 00 hr 22 min 37 sec)
Heartbeat CPU 0 instructions: 217501295 cycles: 110824880 heartbeat IPC: 1.569 cumulative IPC: 1.677 (Simulation time: 00 hr 22 min 41 sec)
Heartbeat CPU 0 instructions: 218001296 cycles: 111142684 heartbeat IPC: 1.573 cumulative IPC: 1.677 (Simulation time: 00 hr 22 min 45 sec)
Heartbeat CPU 0 instructions: 218501296 cycles: 111461619 heartbeat IPC: 1.568 cumulative IPC: 1.677 (Simulation time: 00 hr 22 min 49 sec)
Heartbeat CPU 0 instructions: 219001296 cycles: 111779074 heartbeat IPC: 1.575 cumulative IPC: 1.676 (Simulation time: 00 hr 22 min 52 sec)
Heartbeat CPU 0 instructions: 219501296 cycles: 112093452 heartbeat IPC: 1.59 cumulative IPC: 1.676 (Simulation time: 00 hr 22 min 56 sec)
Heartbeat CPU 0 instructions: 220001296 cycles: 112539637 heartbeat IPC: 1.121 cumulative IPC: 1.674 (Simulation time: 00 hr 23 min 01 sec)
Heartbeat CPU 0 instructions: 220501298 cycles: 113482910 heartbeat IPC: 0.5301 cumulative IPC: 1.663 (Simulation time: 00 hr 23 min 11 sec)
Heartbeat CPU 0 instructions: 221001303 cycles: 114266482 heartbeat IPC: 0.6381 cumulative IPC: 1.655 (Simulation time: 00 hr 23 min 19 sec)
Heartbeat CPU 0 instructions: 221501310 cycles: 114993316 heartbeat IPC: 0.6879 cumulative IPC: 1.649 (Simulation time: 00 hr 23 min 26 sec)
Heartbeat CPU 0 instructions: 222001315 cycles: 115804544 heartbeat IPC: 0.6164 cumulative IPC: 1.641 (Simulation time: 00 hr 23 min 34 sec)
Heartbeat CPU 0 instructions: 222501320 cycles: 116058049 heartbeat IPC: 1.972 cumulative IPC: 1.641 (Simulation time: 00 hr 23 min 37 sec)
Heartbeat CPU 0 instructions: 223001323 cycles: 116274876 heartbeat IPC: 2.306 cumulative IPC: 1.643 (Simulation time: 00 hr 23 min 40 sec)
Heartbeat CPU 0 instructions: 223501323 cycles: 116491524 heartbeat IPC: 2.308 cumulative IPC: 1.644 (Simulation time: 00 hr 23 min 42 sec)
Heartbeat CPU 0 instructions: 224001329 cycles: 116726047 heartbeat IPC: 2.132 cumulative IPC: 1.645 (Simulation time: 00 hr 23 min 45 sec)
Heartbeat CPU 0 instructions: 224501332 cycles: 116955937 heartbeat IPC: 2.175 cumulative IPC: 1.646 (Simulation time: 00 hr 23 min 48 sec)
Heartbeat CPU 0 instructions: 225001332 cycles: 117189588 heartbeat IPC: 2.14 cumulative IPC: 1.647 (Simulation time: 00 hr 23 min 51 sec)
Heartbeat CPU 0 instructions: 225501335 cycles: 117568961 heartbeat IPC: 1.318 cumulative IPC: 1.646 (Simulation time: 00 hr 23 min 55 sec)
Heartbeat CPU 0 instructions: 226001339 cycles: 117964601 heartbeat IPC: 1.264 cumulative IPC: 1.645 (Simulation time: 00 hr 24 min 00 sec)
Heartbeat CPU 0 instructions: 226501342 cycles: 118357263 heartbeat IPC: 1.273 cumulative IPC: 1.644 (Simulation time: 00 hr 24 min 04 sec)
Heartbeat CPU 0 instructions: 227001349 cycles: 118744686 heartbeat IPC: 1.291 cumulative IPC: 1.642 (Simulation time: 00 hr 24 min 08 sec)
Heartbeat CPU 0 instructions: 227501354 cycles: 119128913 heartbeat IPC: 1.301 cumulative IPC: 1.641 (Simulation time: 00 hr 24 min 12 sec)
Heartbeat CPU 0 instructions: 228001354 cycles: 119508002 heartbeat IPC: 1.319 cumulative IPC: 1.64 (Simulation time: 00 hr 24 min 16 sec)
Heartbeat CPU 0 instructions: 228501359 cycles: 119917873 heartbeat IPC: 1.22 cumulative IPC: 1.638 (Simulation time: 00 hr 24 min 21 sec)
Heartbeat CPU 0 instructions: 229001361 cycles: 120393980 heartbeat IPC: 1.05 cumulative IPC: 1.636 (Simulation time: 00 hr 24 min 25 sec)
Heartbeat CPU 0 instructions: 229501365 cycles: 120873827 heartbeat IPC: 1.042 cumulative IPC: 1.633 (Simulation time: 00 hr 24 min 30 sec)
Heartbeat CPU 0 instructions: 230001371 cycles: 121350382 heartbeat IPC: 1.049 cumulative IPC: 1.631 (Simulation time: 00 hr 24 min 34 sec)
Heartbeat CPU 0 instructions: 230501371 cycles: 121825611 heartbeat IPC: 1.052 cumulative IPC: 1.628 (Simulation time: 00 hr 24 min 39 sec)
Heartbeat CPU 0 instructions: 231001374 cycles: 122289184 heartbeat IPC: 1.079 cumulative IPC: 1.626 (Simulation time: 00 hr 24 min 43 sec)
Heartbeat CPU 0 instructions: 231501378 cycles: 122694966 heartbeat IPC: 1.232 cumulative IPC: 1.624 (Simulation time: 00 hr 24 min 47 sec)
Heartbeat CPU 0 instructions: 232001382 cycles: 123126214 heartbeat IPC: 1.159 cumulative IPC: 1.623 (Simulation time: 00 hr 24 min 52 sec)
Heartbeat CPU 0 instructions: 232501383 cycles: 123643996 heartbeat IPC: 0.9657 cumulative IPC: 1.62 (Simulation time: 00 hr 24 min 57 sec)
Heartbeat CPU 0 instructions: 233001387 cycles: 124152739 heartbeat IPC: 0.9828 cumulative IPC: 1.617 (Simulation time: 00 hr 25 min 02 sec)
Heartbeat CPU 0 instructions: 233501393 cycles: 125020725 heartbeat IPC: 0.5761 cumulative IPC: 1.609 (Simulation time: 00 hr 25 min 11 sec)
Heartbeat CPU 0 instructions: 234001396 cycles: 125925712 heartbeat IPC: 0.5525 cumulative IPC: 1.601 (Simulation time: 00 hr 25 min 21 sec)
Heartbeat CPU 0 instructions: 234501399 cycles: 126747083 heartbeat IPC: 0.6087 cumulative IPC: 1.594 (Simulation time: 00 hr 25 min 29 sec)
Heartbeat CPU 0 instructions: 235001399 cycles: 127585477 heartbeat IPC: 0.5964 cumulative IPC: 1.586 (Simulation time: 00 hr 25 min 37 sec)
Heartbeat CPU 0 instructions: 235501399 cycles: 129100083 heartbeat IPC: 0.3301 cumulative IPC: 1.57 (Simulation time: 00 hr 25 min 51 sec)
Heartbeat CPU 0 instructions: 236001403 cycles: 130002320 heartbeat IPC: 0.5542 cumulative IPC: 1.563 (Simulation time: 00 hr 26 min 00 sec)
Heartbeat CPU 0 instructions: 236501408 cycles: 130205666 heartbeat IPC: 2.459 cumulative IPC: 1.564 (Simulation time: 00 hr 26 min 03 sec)
Heartbeat CPU 0 instructions: 237001410 cycles: 130412084 heartbeat IPC: 2.422 cumulative IPC: 1.566 (Simulation time: 00 hr 26 min 06 sec)
Heartbeat CPU 0 instructions: 237501410 cycles: 130618102 heartbeat IPC: 2.427 cumulative IPC: 1.567 (Simulation time: 00 hr 26 min 08 sec)
Heartbeat CPU 0 instructions: 238001414 cycles: 130821900 heartbeat IPC: 2.453 cumulative IPC: 1.569 (Simulation time: 00 hr 26 min 11 sec)
Heartbeat CPU 0 instructions: 238501416 cycles: 131032950 heartbeat IPC: 2.369 cumulative IPC: 1.57 (Simulation time: 00 hr 26 min 14 sec)
Heartbeat CPU 0 instructions: 239001419 cycles: 131240271 heartbeat IPC: 2.412 cumulative IPC: 1.571 (Simulation time: 00 hr 26 min 17 sec)
Heartbeat CPU 0 instructions: 239501423 cycles: 131448369 heartbeat IPC: 2.403 cumulative IPC: 1.573 (Simulation time: 00 hr 26 min 20 sec)
Heartbeat CPU 0 instructions: 240001429 cycles: 131656018 heartbeat IPC: 2.408 cumulative IPC: 1.574 (Simulation time: 00 hr 26 min 23 sec)
Heartbeat CPU 0 instructions: 240501432 cycles: 131862895 heartbeat IPC: 2.417 cumulative IPC: 1.576 (Simulation time: 00 hr 26 min 26 sec)
Heartbeat CPU 0 instructions: 241001436 cycles: 132071466 heartbeat IPC: 2.397 cumulative IPC: 1.577 (Simulation time: 00 hr 26 min 29 sec)
Heartbeat CPU 0 instructions: 241501440 cycles: 132291557 heartbeat IPC: 2.272 cumulative IPC: 1.578 (Simulation time: 00 hr 26 min 31 sec)
Heartbeat CPU 0 instructions: 242001442 cycles: 132431640 heartbeat IPC: 3.569 cumulative IPC: 1.581 (Simulation time: 00 hr 26 min 33 sec)
Heartbeat CPU 0 instructions: 242501442 cycles: 132559910 heartbeat IPC: 3.898 cumulative IPC: 1.583 (Simulation time: 00 hr 26 min 35 sec)
Heartbeat CPU 0 instructions: 243001446 cycles: 132687522 heartbeat IPC: 3.918 cumulative IPC: 1.586 (Simulation time: 00 hr 26 min 37 sec)
Heartbeat CPU 0 instructions: 243501446 cycles: 132818257 heartbeat IPC: 3.825 cumulative IPC: 1.588 (Simulation time: 00 hr 26 min 39 sec)
Heartbeat CPU 0 instructions: 244001452 cycles: 132946068 heartbeat IPC: 3.912 cumulative IPC: 1.59 (Simulation time: 00 hr 26 min 41 sec)
Heartbeat CPU 0 instructions: 244501458 cycles: 133074625 heartbeat IPC: 3.889 cumulative IPC: 1.593 (Simulation time: 00 hr 26 min 43 sec)
Heartbeat CPU 0 instructions: 245001459 cycles: 133203794 heartbeat IPC: 3.871 cumulative IPC: 1.595 (Simulation time: 00 hr 26 min 45 sec)
Heartbeat CPU 0 instructions: 245501464 cycles: 133333245 heartbeat IPC: 3.863 cumulative IPC: 1.598 (Simulation time: 00 hr 26 min 47 sec)
Heartbeat CPU 0 instructions: 246001469 cycles: 133463138 heartbeat IPC: 3.849 cumulative IPC: 1.6 (Simulation time: 00 hr 26 min 49 sec)
Heartbeat CPU 0 instructions: 246501473 cycles: 133594132 heartbeat IPC: 3.817 cumulative IPC: 1.602 (Simulation time: 00 hr 26 min 51 sec)
Heartbeat CPU 0 instructions: 247001479 cycles: 133719425 heartbeat IPC: 3.991 cumulative IPC: 1.605 (Simulation time: 00 hr 26 min 53 sec)
Heartbeat CPU 0 instructions: 247501485 cycles: 133907483 heartbeat IPC: 2.659 cumulative IPC: 1.606 (Simulation time: 00 hr 26 min 55 sec)
Heartbeat CPU 0 instructions: 248001487 cycles: 134075858 heartbeat IPC: 2.97 cumulative IPC: 1.608 (Simulation time: 00 hr 26 min 57 sec)
Heartbeat CPU 0 instructions: 248501489 cycles: 134246346 heartbeat IPC: 2.933 cumulative IPC: 1.61 (Simulation time: 00 hr 27 min 00 sec)
Heartbeat CPU 0 instructions: 249001491 cycles: 134413187 heartbeat IPC: 2.997 cumulative IPC: 1.612 (Simulation time: 00 hr 27 min 02 sec)
Heartbeat CPU 0 instructions: 249501494 cycles: 134578192 heartbeat IPC: 3.03 cumulative IPC: 1.614 (Simulation time: 00 hr 27 min 04 sec)
Simulation finished CPU 0 instructions: 200000000 cycles: 123777326 cumulative IPC: 1.616 (Simulation time: 00 hr 27 min 06 sec)
Simulation complete CPU 0 instructions: 200000000 cycles: 123777326 cumulative IPC: 1.616 (Simulation time: 00 hr 27 min 06 sec)

ChampSim completed all CPUs

=== Simulation ===
CPU 0 runs /local-ssd/ben/dpc4-traces/SPEC17/621.wrf_s-6673B.champsimtrace.xz

Region of Interest Statistics

CPU 0 cumulative IPC: 1.616 instructions: 200000000 cycles: 123777326
CPU 0 Branch Prediction Accuracy: 97.9% MPKI: 1.262 Average ROB Occupancy at Mispredict: 282.6
Branch type MPKI
BRANCH_DIRECT_JUMP: 0.000425
BRANCH_INDIRECT: 2e-05
BRANCH_CONDITIONAL: 1.257
BRANCH_DIRECT_CALL: 0.00229
BRANCH_INDIRECT_CALL: 0
BRANCH_RETURN: 0.001585

cpu0->cpu0_STLB TOTAL        ACCESS:     238138 HIT:     210281 MISS:      27857 MSHR_MERGE:          0
cpu0->cpu0_STLB LOAD         ACCESS:     238138 HIT:     210281 MISS:      27857 MSHR_MERGE:          0
cpu0->cpu0_STLB RFO          ACCESS:          0 HIT:          0 MISS:          0 MSHR_MERGE:          0
cpu0->cpu0_STLB PREFETCH     ACCESS:          0 HIT:          0 MISS:          0 MSHR_MERGE:          0
cpu0->cpu0_STLB WRITE        ACCESS:          0 HIT:          0 MISS:          0 MSHR_MERGE:          0
cpu0->cpu0_STLB TRANSLATION  ACCESS:          0 HIT:          0 MISS:          0 MSHR_MERGE:          0
cpu0->cpu0_STLB PREFETCH REQUESTED:          0 ISSUED:          0 USEFUL:          0 USELESS:          0
cpu0->cpu0_STLB AVERAGE MISS LATENCY: 113.8 cycles
cpu0->cpu0_L2C TOTAL        ACCESS:    5377228 HIT:    2944703 MISS:    2432525 MSHR_MERGE:          0
cpu0->cpu0_L2C LOAD         ACCESS:    1221281 HIT:     568227 MISS:     653054 MSHR_MERGE:          0
cpu0->cpu0_L2C RFO          ACCESS:     703090 HIT:     201033 MISS:     502057 MSHR_MERGE:          0
cpu0->cpu0_L2C PREFETCH     ACCESS:    2037626 HIT:     765171 MISS:    1272455 MSHR_MERGE:          0
cpu0->cpu0_L2C WRITE        ACCESS:    1405484 HIT:    1404976 MISS:        508 MSHR_MERGE:          0
cpu0->cpu0_L2C TRANSLATION  ACCESS:       9747 HIT:       5296 MISS:       4451 MSHR_MERGE:          0
cpu0->cpu0_L2C PREFETCH REQUESTED:          0 ISSUED:          0 USEFUL:          0 USELESS:          0
cpu0->cpu0_L2C AVERAGE MISS LATENCY: 262.5 cycles
cpu0->cpu0_L1I TOTAL        ACCESS:   30610471 HIT:   30604629 MISS:       5842 MSHR_MERGE:       1681
cpu0->cpu0_L1I LOAD         ACCESS:   30610471 HIT:   30604629 MISS:       5842 MSHR_MERGE:       1681
cpu0->cpu0_L1I RFO          ACCESS:          0 HIT:          0 MISS:          0 MSHR_MERGE:          0
cpu0->cpu0_L1I PREFETCH     ACCESS:          0 HIT:          0 MISS:          0 MSHR_MERGE:          0
cpu0->cpu0_L1I WRITE        ACCESS:          0 HIT:          0 MISS:          0 MSHR_MERGE:          0
cpu0->cpu0_L1I TRANSLATION  ACCESS:          0 HIT:          0 MISS:          0 MSHR_MERGE:          0
cpu0->cpu0_L1I PREFETCH REQUESTED:          0 ISSUED:          0 USEFUL:          0 USELESS:          0
cpu0->cpu0_L1I AVERAGE MISS LATENCY: 288.5 cycles
cpu0->cpu0_L1D TOTAL        ACCESS:   50999887 HIT:   43255887 MISS:    7744000 MSHR_MERGE:    3776299
cpu0->cpu0_L1D LOAD         ACCESS:   27842009 HIT:   25919488 MISS:    1922521 MSHR_MERGE:     705377
cpu0->cpu0_L1D RFO          ACCESS:          0 HIT:          0 MISS:          0 MSHR_MERGE:          0
cpu0->cpu0_L1D PREFETCH     ACCESS:   12300766 HIT:    9339921 MISS:    2960845 MSHR_MERGE:     923195
cpu0->cpu0_L1D WRITE        ACCESS:   10801797 HIT:    7951410 MISS:    2850387 MSHR_MERGE:    2147227
cpu0->cpu0_L1D TRANSLATION  ACCESS:      55315 HIT:      45068 MISS:      10247 MSHR_MERGE:        500
cpu0->cpu0_L1D PREFETCH REQUESTED:   31898444 ISSUED:   12300765 USEFUL:    1741542 USELESS:     296106
cpu0->cpu0_L1D AVERAGE MISS LATENCY: 166.1 cycles
cpu0->cpu0_ITLB TOTAL        ACCESS:   24650220 HIT:   24649763 MISS:        457 MSHR_MERGE:        288
cpu0->cpu0_ITLB LOAD         ACCESS:   24650220 HIT:   24649763 MISS:        457 MSHR_MERGE:        288
cpu0->cpu0_ITLB RFO          ACCESS:          0 HIT:          0 MISS:          0 MSHR_MERGE:          0
cpu0->cpu0_ITLB PREFETCH     ACCESS:          0 HIT:          0 MISS:          0 MSHR_MERGE:          0
cpu0->cpu0_ITLB WRITE        ACCESS:          0 HIT:          0 MISS:          0 MSHR_MERGE:          0
cpu0->cpu0_ITLB TRANSLATION  ACCESS:          0 HIT:          0 MISS:          0 MSHR_MERGE:          0
cpu0->cpu0_ITLB PREFETCH REQUESTED:          0 ISSUED:          0 USEFUL:          0 USELESS:          0
cpu0->cpu0_ITLB AVERAGE MISS LATENCY: 357.6 cycles
cpu0->cpu0_DTLB TOTAL        ACCESS:   47312797 HIT:   46941656 MISS:     371141 MSHR_MERGE:     133172
cpu0->cpu0_DTLB LOAD         ACCESS:   47312797 HIT:   46941656 MISS:     371141 MSHR_MERGE:     133172
cpu0->cpu0_DTLB RFO          ACCESS:          0 HIT:          0 MISS:          0 MSHR_MERGE:          0
cpu0->cpu0_DTLB PREFETCH     ACCESS:          0 HIT:          0 MISS:          0 MSHR_MERGE:          0
cpu0->cpu0_DTLB WRITE        ACCESS:          0 HIT:          0 MISS:          0 MSHR_MERGE:          0
cpu0->cpu0_DTLB TRANSLATION  ACCESS:          0 HIT:          0 MISS:          0 MSHR_MERGE:          0
cpu0->cpu0_DTLB PREFETCH REQUESTED:          0 ISSUED:          0 USEFUL:          0 USELESS:          0
cpu0->cpu0_DTLB AVERAGE MISS LATENCY: 18.24 cycles
cpu0->LLC TOTAL        ACCESS:    3357058 HIT:     836933 MISS:    2520125 MSHR_MERGE:          0
cpu0->LLC LOAD         ACCESS:     653054 HIT:     150576 MISS:     502478 MSHR_MERGE:          0
cpu0->LLC RFO          ACCESS:     502057 HIT:     109750 MISS:     392307 MSHR_MERGE:          0
cpu0->LLC PREFETCH     ACCESS:    1272454 HIT:     225297 MISS:    1047157 MSHR_MERGE:          0
cpu0->LLC WRITE        ACCESS:     925042 HIT:     351294 MISS:     573748 MSHR_MERGE:          0
cpu0->LLC TRANSLATION  ACCESS:       4451 HIT:         16 MISS:       4435 MSHR_MERGE:          0
cpu0->LLC PREFETCH REQUESTED:          0 ISSUED:          0 USEFUL:          0 USELESS:          0
cpu0->LLC AVERAGE MISS LATENCY: 195.4 cycles

DRAM Statistics

Channel 0 RQ ROW_BUFFER_HIT:     117069
  ROW_BUFFER_MISS:    1828649
  AVG DBUS CONGESTED CYCLE: 15.5
Channel 0 WQ ROW_BUFFER_HIT:     109226
  ROW_BUFFER_MISS:     549905
  FULL:      77153
Channel 0 REFRESHES ISSUED:      10314
