[VMEM] WARNING: physical memory size is smaller than virtual memory size.

*** ChampSim Multicore Out-of-Order Simulator ***
Warmup Instructions: 50000000
Simulation Instructions: 200000000
Number of CPUs: 1
Page size: 4096
Core 0: /local-ssd/ben/dpc4-traces/ai-ml/stable-diffusion.cpp-v2-1_768-nonema-pruned.2.champsimtrace.gz
 L1D Berti prefetcher
Off-chip DRAM Size: 64 GiB Channels: 1 Width: 64-bit Data Rate: 4807 MT/s
Heartbeat CPU 0 instructions: 500000 cycles: 204035 heartbeat IPC: 2.451 cumulative IPC: 2.451 (Simulation time: 00 hr 00 min 04 sec)
Heartbeat CPU 0 instructions: 1000006 cycles: 383767 heartbeat IPC: 2.782 cumulative IPC: 2.606 (Simulation time: 00 hr 00 min 07 sec)
Heartbeat CPU 0 instructions: 1500006 cycles: 542117 heartbeat IPC: 3.158 cumulative IPC: 2.767 (Simulation time: 00 hr 00 min 11 sec)
Heartbeat CPU 0 instructions: 2000006 cycles: 716368 heartbeat IPC: 2.869 cumulative IPC: 2.792 (Simulation time: 00 hr 00 min 14 sec)
Heartbeat CPU 0 instructions: 2500008 cycles: 890726 heartbeat IPC: 2.868 cumulative IPC: 2.807 (Simulation time: 00 hr 00 min 18 sec)
Heartbeat CPU 0 instructions: 3000013 cycles: 1048616 heartbeat IPC: 3.167 cumulative IPC: 2.861 (Simulation time: 00 hr 00 min 21 sec)
Heartbeat CPU 0 instructions: 3500013 cycles: 1223101 heartbeat IPC: 2.866 cumulative IPC: 2.862 (Simulation time: 00 hr 00 min 25 sec)
Heartbeat CPU 0 instructions: 4000020 cycles: 1397643 heartbeat IPC: 2.865 cumulative IPC: 2.862 (Simulation time: 00 hr 00 min 29 sec)
Heartbeat CPU 0 instructions: 4500021 cycles: 1556021 heartbeat IPC: 3.157 cumulative IPC: 2.892 (Simulation time: 00 hr 00 min 32 sec)
Heartbeat CPU 0 instructions: 5000023 cycles: 1731065 heartbeat IPC: 2.856 cumulative IPC: 2.888 (Simulation time: 00 hr 00 min 36 sec)
Heartbeat CPU 0 instructions: 5500029 cycles: 1905780 heartbeat IPC: 2.862 cumulative IPC: 2.886 (Simulation time: 00 hr 00 min 39 sec)
Heartbeat CPU 0 instructions: 6000035 cycles: 2064179 heartbeat IPC: 3.157 cumulative IPC: 2.907 (Simulation time: 00 hr 00 min 43 sec)
Heartbeat CPU 0 instructions: 6500037 cycles: 2239181 heartbeat IPC: 2.857 cumulative IPC: 2.903 (Simulation time: 00 hr 00 min 46 sec)
Heartbeat CPU 0 instructions: 7000037 cycles: 2413360 heartbeat IPC: 2.871 cumulative IPC: 2.901 (Simulation time: 00 hr 00 min 50 sec)
Heartbeat CPU 0 instructions: 7500041 cycles: 2571802 heartbeat IPC: 3.156 cumulative IPC: 2.916 (Simulation time: 00 hr 00 min 53 sec)
Heartbeat CPU 0 instructions: 8000043 cycles: 2746824 heartbeat IPC: 2.857 cumulative IPC: 2.912 (Simulation time: 00 hr 00 min 57 sec)
Heartbeat CPU 0 instructions: 8500044 cycles: 2921964 heartbeat IPC: 2.855 cumulative IPC: 2.909 (Simulation time: 00 hr 01 min 01 sec)
Heartbeat CPU 0 instructions: 9000047 cycles: 3080116 heartbeat IPC: 3.162 cumulative IPC: 2.922 (Simulation time: 00 hr 01 min 04 sec)
Heartbeat CPU 0 instructions: 9500049 cycles: 3254875 heartbeat IPC: 2.861 cumulative IPC: 2.919 (Simulation time: 00 hr 01 min 08 sec)
Heartbeat CPU 0 instructions: 10000053 cycles: 3429987 heartbeat IPC: 2.855 cumulative IPC: 2.915 (Simulation time: 00 hr 01 min 11 sec)
Heartbeat CPU 0 instructions: 10500056 cycles: 3588180 heartbeat IPC: 3.161 cumulative IPC: 2.926 (Simulation time: 00 hr 01 min 15 sec)
Heartbeat CPU 0 instructions: 11000057 cycles: 3762750 heartbeat IPC: 2.864 cumulative IPC: 2.923 (Simulation time: 00 hr 01 min 18 sec)
Heartbeat CPU 0 instructions: 11500059 cycles: 3937478 heartbeat IPC: 2.862 cumulative IPC: 2.921 (Simulation time: 00 hr 01 min 22 sec)
Heartbeat CPU 0 instructions: 12000064 cycles: 4095978 heartbeat IPC: 3.155 cumulative IPC: 2.93 (Simulation time: 00 hr 01 min 26 sec)
Heartbeat CPU 0 instructions: 12500068 cycles: 4270500 heartbeat IPC: 2.865 cumulative IPC: 2.927 (Simulation time: 00 hr 01 min 29 sec)
Heartbeat CPU 0 instructions: 13000068 cycles: 4445254 heartbeat IPC: 2.861 cumulative IPC: 2.924 (Simulation time: 00 hr 01 min 33 sec)
Heartbeat CPU 0 instructions: 13500071 cycles: 4603602 heartbeat IPC: 3.158 cumulative IPC: 2.933 (Simulation time: 00 hr 01 min 36 sec)
Heartbeat CPU 0 instructions: 14000074 cycles: 4778041 heartbeat IPC: 2.866 cumulative IPC: 2.93 (Simulation time: 00 hr 01 min 40 sec)
Heartbeat CPU 0 instructions: 14500081 cycles: 4952913 heartbeat IPC: 2.859 cumulative IPC: 2.928 (Simulation time: 00 hr 01 min 44 sec)
Heartbeat CPU 0 instructions: 15000084 cycles: 5110867 heartbeat IPC: 3.165 cumulative IPC: 2.935 (Simulation time: 00 hr 01 min 47 sec)
Heartbeat CPU 0 instructions: 15500084 cycles: 5285614 heartbeat IPC: 2.861 cumulative IPC: 2.933 (Simulation time: 00 hr 01 min 51 sec)
Heartbeat CPU 0 instructions: 16000090 cycles: 5460575 heartbeat IPC: 2.858 cumulative IPC: 2.93 (Simulation time: 00 hr 01 min 54 sec)
Heartbeat CPU 0 instructions: 16500096 cycles: 5619036 heartbeat IPC: 3.155 cumulative IPC: 2.936 (Simulation time: 00 hr 01 min 58 sec)
Heartbeat CPU 0 instructions: 17000102 cycles: 5794375 heartbeat IPC: 2.852 cumulative IPC: 2.934 (Simulation time: 00 hr 02 min 01 sec)
Heartbeat CPU 0 instructions: 17500104 cycles: 5969624 heartbeat IPC: 2.853 cumulative IPC: 2.932 (Simulation time: 00 hr 02 min 05 sec)
Heartbeat CPU 0 instructions: 18000110 cycles: 6128032 heartbeat IPC: 3.156 cumulative IPC: 2.937 (Simulation time: 00 hr 02 min 09 sec)
Heartbeat CPU 0 instructions: 18500117 cycles: 6303170 heartbeat IPC: 2.855 cumulative IPC: 2.935 (Simulation time: 00 hr 02 min 12 sec)
Heartbeat CPU 0 instructions: 19000122 cycles: 6477813 heartbeat IPC: 2.863 cumulative IPC: 2.933 (Simulation time: 00 hr 02 min 16 sec)
Heartbeat CPU 0 instructions: 19500125 cycles: 6635966 heartbeat IPC: 3.162 cumulative IPC: 2.939 (Simulation time: 00 hr 02 min 19 sec)
Heartbeat CPU 0 instructions: 20000126 cycles: 6810985 heartbeat IPC: 2.857 cumulative IPC: 2.936 (Simulation time: 00 hr 02 min 23 sec)
Heartbeat CPU 0 instructions: 20500130 cycles: 6984720 heartbeat IPC: 2.878 cumulative IPC: 2.935 (Simulation time: 00 hr 02 min 27 sec)
Heartbeat CPU 0 instructions: 21000130 cycles: 7155428 heartbeat IPC: 2.929 cumulative IPC: 2.935 (Simulation time: 00 hr 02 min 30 sec)
Heartbeat CPU 0 instructions: 21500133 cycles: 7333950 heartbeat IPC: 2.801 cumulative IPC: 2.932 (Simulation time: 00 hr 02 min 34 sec)
Heartbeat CPU 0 instructions: 22000136 cycles: 7505941 heartbeat IPC: 2.907 cumulative IPC: 2.931 (Simulation time: 00 hr 02 min 37 sec)
Heartbeat CPU 0 instructions: 22500137 cycles: 7667161 heartbeat IPC: 3.101 cumulative IPC: 2.935 (Simulation time: 00 hr 02 min 41 sec)
Heartbeat CPU 0 instructions: 23000139 cycles: 7842384 heartbeat IPC: 2.854 cumulative IPC: 2.933 (Simulation time: 00 hr 02 min 45 sec)
Heartbeat CPU 0 instructions: 23500143 cycles: 8012352 heartbeat IPC: 2.942 cumulative IPC: 2.933 (Simulation time: 00 hr 02 min 48 sec)
Heartbeat CPU 0 instructions: 24000147 cycles: 8175637 heartbeat IPC: 3.062 cumulative IPC: 2.936 (Simulation time: 00 hr 02 min 52 sec)
Heartbeat CPU 0 instructions: 24500147 cycles: 8350385 heartbeat IPC: 2.861 cumulative IPC: 2.934 (Simulation time: 00 hr 02 min 55 sec)
Heartbeat CPU 0 instructions: 25000153 cycles: 8518359 heartbeat IPC: 2.977 cumulative IPC: 2.935 (Simulation time: 00 hr 02 min 59 sec)
Heartbeat CPU 0 instructions: 25500157 cycles: 8682848 heartbeat IPC: 3.04 cumulative IPC: 2.937 (Simulation time: 00 hr 03 min 03 sec)
Heartbeat CPU 0 instructions: 26000158 cycles: 8857976 heartbeat IPC: 2.855 cumulative IPC: 2.935 (Simulation time: 00 hr 03 min 06 sec)
Heartbeat CPU 0 instructions: 26500163 cycles: 9024562 heartbeat IPC: 3.001 cumulative IPC: 2.936 (Simulation time: 00 hr 03 min 10 sec)
Heartbeat CPU 0 instructions: 27000163 cycles: 9192138 heartbeat IPC: 2.984 cumulative IPC: 2.937 (Simulation time: 00 hr 03 min 13 sec)
Heartbeat CPU 0 instructions: 27500167 cycles: 9366777 heartbeat IPC: 2.863 cumulative IPC: 2.936 (Simulation time: 00 hr 03 min 17 sec)
Heartbeat CPU 0 instructions: 28000169 cycles: 9531047 heartbeat IPC: 3.044 cumulative IPC: 2.938 (Simulation time: 00 hr 03 min 20 sec)
Heartbeat CPU 0 instructions: 28500171 cycles: 9699618 heartbeat IPC: 2.966 cumulative IPC: 2.938 (Simulation time: 00 hr 03 min 24 sec)
Heartbeat CPU 0 instructions: 29000174 cycles: 9874219 heartbeat IPC: 2.864 cumulative IPC: 2.937 (Simulation time: 00 hr 03 min 28 sec)
Heartbeat CPU 0 instructions: 29500179 cycles: 10037009 heartbeat IPC: 3.071 cumulative IPC: 2.939 (Simulation time: 00 hr 03 min 31 sec)
Heartbeat CPU 0 instructions: 30000182 cycles: 10207559 heartbeat IPC: 2.932 cumulative IPC: 2.939 (Simulation time: 00 hr 03 min 35 sec)
Heartbeat CPU 0 instructions: 30500188 cycles: 10381910 heartbeat IPC: 2.868 cumulative IPC: 2.938 (Simulation time: 00 hr 03 min 38 sec)
Heartbeat CPU 0 instructions: 31000193 cycles: 10542136 heartbeat IPC: 3.121 cumulative IPC: 2.941 (Simulation time: 00 hr 03 min 42 sec)
Heartbeat CPU 0 instructions: 31500196 cycles: 10714430 heartbeat IPC: 2.902 cumulative IPC: 2.94 (Simulation time: 00 hr 03 min 46 sec)
Heartbeat CPU 0 instructions: 32000198 cycles: 10889367 heartbeat IPC: 2.858 cumulative IPC: 2.939 (Simulation time: 00 hr 03 min 49 sec)
Heartbeat CPU 0 instructions: 32500200 cycles: 11048014 heartbeat IPC: 3.152 cumulative IPC: 2.942 (Simulation time: 00 hr 03 min 53 sec)
Heartbeat CPU 0 instructions: 33000206 cycles: 11221875 heartbeat IPC: 2.876 cumulative IPC: 2.941 (Simulation time: 00 hr 03 min 56 sec)
Heartbeat CPU 0 instructions: 33500212 cycles: 11396690 heartbeat IPC: 2.86 cumulative IPC: 2.939 (Simulation time: 00 hr 04 min 00 sec)
Heartbeat CPU 0 instructions: 34000218 cycles: 11555013 heartbeat IPC: 3.158 cumulative IPC: 2.942 (Simulation time: 00 hr 04 min 03 sec)
Heartbeat CPU 0 instructions: 34500224 cycles: 11729072 heartbeat IPC: 2.873 cumulative IPC: 2.941 (Simulation time: 00 hr 04 min 07 sec)
Heartbeat CPU 0 instructions: 35000230 cycles: 11903818 heartbeat IPC: 2.861 cumulative IPC: 2.94 (Simulation time: 00 hr 04 min 11 sec)
Heartbeat CPU 0 instructions: 35500232 cycles: 12062157 heartbeat IPC: 3.158 cumulative IPC: 2.943 (Simulation time: 00 hr 04 min 14 sec)
Heartbeat CPU 0 instructions: 36000238 cycles: 12237331 heartbeat IPC: 2.854 cumulative IPC: 2.942 (Simulation time: 00 hr 04 min 18 sec)
Heartbeat CPU 0 instructions: 36500244 cycles: 12411821 heartbeat IPC: 2.866 cumulative IPC: 2.941 (Simulation time: 00 hr 04 min 21 sec)
Heartbeat CPU 0 instructions: 37000250 cycles: 12570153 heartbeat IPC: 3.158 cumulative IPC: 2.944 (Simulation time: 00 hr 04 min 25 sec)
Heartbeat CPU 0 instructions: 37500252 cycles: 12744266 heartbeat IPC: 2.872 cumulative IPC: 2.943 (Simulation time: 00 hr 04 min 28 sec)
Heartbeat CPU 0 instructions: 38000256 cycles: 12918998 heartbeat IPC: 2.862 cumulative IPC: 2.941 (Simulation time: 00 hr 04 min 32 sec)
Heartbeat CPU 0 instructions: 38500260 cycles: 13077142 heartbeat IPC: 3.162 cumulative IPC: 2.944 (Simulation time: 00 hr 04 min 36 sec)
Heartbeat CPU 0 instructions: 39000266 cycles: 13251894 heartbeat IPC: 2.861 cumulative IPC: 2.943 (Simulation time: 00 hr 04 min 39 sec)
Heartbeat CPU 0 instructions: 39500271 cycles: 13426915 heartbeat IPC: 2.857 cumulative IPC: 2.942 (Simulation time: 00 hr 04 min 43 sec)
Heartbeat CPU 0 instructions: 40000275 cycles: 13585307 heartbeat IPC: 3.157 cumulative IPC: 2.944 (Simulation time: 00 hr 04 min 46 sec)
Heartbeat CPU 0 instructions: 40500276 cycles: 13760062 heartbeat IPC: 2.861 cumulative IPC: 2.943 (Simulation time: 00 hr 04 min 50 sec)
Heartbeat CPU 0 instructions: 41000281 cycles: 13935161 heartbeat IPC: 2.856 cumulative IPC: 2.942 (Simulation time: 00 hr 04 min 54 sec)
Heartbeat CPU 0 instructions: 41500285 cycles: 14093298 heartbeat IPC: 3.162 cumulative IPC: 2.945 (Simulation time: 00 hr 04 min 57 sec)
Heartbeat CPU 0 instructions: 42000289 cycles: 14267794 heartbeat IPC: 2.865 cumulative IPC: 2.944 (Simulation time: 00 hr 05 min 01 sec)
Heartbeat CPU 0 instructions: 42500291 cycles: 14442206 heartbeat IPC: 2.867 cumulative IPC: 2.943 (Simulation time: 00 hr 05 min 04 sec)
Heartbeat CPU 0 instructions: 43000291 cycles: 14600543 heartbeat IPC: 3.158 cumulative IPC: 2.945 (Simulation time: 00 hr 05 min 08 sec)
Heartbeat CPU 0 instructions: 43500295 cycles: 14775646 heartbeat IPC: 2.855 cumulative IPC: 2.944 (Simulation time: 00 hr 05 min 12 sec)
Heartbeat CPU 0 instructions: 44000298 cycles: 14950187 heartbeat IPC: 2.865 cumulative IPC: 2.943 (Simulation time: 00 hr 05 min 15 sec)
Heartbeat CPU 0 instructions: 44500305 cycles: 15108547 heartbeat IPC: 3.157 cumulative IPC: 2.945 (Simulation time: 00 hr 05 min 19 sec)
Heartbeat CPU 0 instructions: 45000309 cycles: 15283278 heartbeat IPC: 2.862 cumulative IPC: 2.944 (Simulation time: 00 hr 05 min 22 sec)
Heartbeat CPU 0 instructions: 45500311 cycles: 15458643 heartbeat IPC: 2.851 cumulative IPC: 2.943 (Simulation time: 00 hr 05 min 26 sec)
Heartbeat CPU 0 instructions: 46000317 cycles: 15616760 heartbeat IPC: 3.162 cumulative IPC: 2.946 (Simulation time: 00 hr 05 min 29 sec)
Heartbeat CPU 0 instructions: 46500319 cycles: 15791181 heartbeat IPC: 2.867 cumulative IPC: 2.945 (Simulation time: 00 hr 05 min 33 sec)
Heartbeat CPU 0 instructions: 47000321 cycles: 15965068 heartbeat IPC: 2.875 cumulative IPC: 2.944 (Simulation time: 00 hr 05 min 37 sec)
Heartbeat CPU 0 instructions: 47500324 cycles: 16123021 heartbeat IPC: 3.166 cumulative IPC: 2.946 (Simulation time: 00 hr 05 min 40 sec)
Heartbeat CPU 0 instructions: 48000329 cycles: 16281405 heartbeat IPC: 3.157 cumulative IPC: 2.948 (Simulation time: 00 hr 05 min 44 sec)
Heartbeat CPU 0 instructions: 48500335 cycles: 16439346 heartbeat IPC: 3.166 cumulative IPC: 2.95 (Simulation time: 00 hr 05 min 47 sec)
Heartbeat CPU 0 instructions: 49000342 cycles: 16597938 heartbeat IPC: 3.153 cumulative IPC: 2.952 (Simulation time: 00 hr 05 min 50 sec)
Heartbeat CPU 0 instructions: 49500348 cycles: 16756245 heartbeat IPC: 3.158 cumulative IPC: 2.954 (Simulation time: 00 hr 05 min 54 sec)
Warmup finished CPU 0 instructions: 50000002 cycles: 16914386 cumulative IPC: 2.956 (Simulation time: 00 hr 05 min 57 sec)
Warmup complete CPU 0 instructions: 50000002 cycles: 16914386 cumulative IPC: 2.956 (Simulation time: 00 hr 05 min 57 sec)
Heartbeat CPU 0 instructions: 50000350 cycles: 16914661 heartbeat IPC: 3.156 cumulative IPC: 1.265 (Simulation time: 00 hr 05 min 57 sec)
Heartbeat CPU 0 instructions: 50500355 cycles: 17077414 heartbeat IPC: 3.072 cumulative IPC: 3.069 (Simulation time: 00 hr 06 min 00 sec)
Heartbeat CPU 0 instructions: 51000355 cycles: 17284750 heartbeat IPC: 2.412 cumulative IPC: 2.701 (Simulation time: 00 hr 06 min 04 sec)
Heartbeat CPU 0 instructions: 51500359 cycles: 17492608 heartbeat IPC: 2.406 cumulative IPC: 2.595 (Simulation time: 00 hr 06 min 08 sec)
Heartbeat CPU 0 instructions: 52000359 cycles: 17656428 heartbeat IPC: 3.052 cumulative IPC: 2.696 (Simulation time: 00 hr 06 min 11 sec)
Heartbeat CPU 0 instructions: 52500359 cycles: 17864067 heartbeat IPC: 2.408 cumulative IPC: 2.633 (Simulation time: 00 hr 06 min 15 sec)
Heartbeat CPU 0 instructions: 53000366 cycles: 18071797 heartbeat IPC: 2.407 cumulative IPC: 2.592 (Simulation time: 00 hr 06 min 19 sec)
Heartbeat CPU 0 instructions: 53500373 cycles: 18234322 heartbeat IPC: 3.076 cumulative IPC: 2.652 (Simulation time: 00 hr 06 min 22 sec)
Heartbeat CPU 0 instructions: 54000377 cycles: 18441846 heartbeat IPC: 2.409 cumulative IPC: 2.619 (Simulation time: 00 hr 06 min 25 sec)
Heartbeat CPU 0 instructions: 54500383 cycles: 18648880 heartbeat IPC: 2.415 cumulative IPC: 2.595 (Simulation time: 00 hr 06 min 29 sec)
Heartbeat CPU 0 instructions: 55000388 cycles: 18812163 heartbeat IPC: 3.062 cumulative IPC: 2.635 (Simulation time: 00 hr 06 min 32 sec)
Heartbeat CPU 0 instructions: 55500395 cycles: 19020881 heartbeat IPC: 2.396 cumulative IPC: 2.611 (Simulation time: 00 hr 06 min 36 sec)
Heartbeat CPU 0 instructions: 56000399 cycles: 19227635 heartbeat IPC: 2.418 cumulative IPC: 2.594 (Simulation time: 00 hr 06 min 40 sec)
Heartbeat CPU 0 instructions: 56500404 cycles: 19390631 heartbeat IPC: 3.068 cumulative IPC: 2.625 (Simulation time: 00 hr 06 min 43 sec)
Heartbeat CPU 0 instructions: 57000409 cycles: 19597257 heartbeat IPC: 2.42 cumulative IPC: 2.609 (Simulation time: 00 hr 06 min 47 sec)
Heartbeat CPU 0 instructions: 57500414 cycles: 19804957 heartbeat IPC: 2.407 cumulative IPC: 2.595 (Simulation time: 00 hr 06 min 50 sec)
Heartbeat CPU 0 instructions: 58000416 cycles: 19967304 heartbeat IPC: 3.08 cumulative IPC: 2.621 (Simulation time: 00 hr 06 min 54 sec)
Heartbeat CPU 0 instructions: 58500422 cycles: 20174090 heartbeat IPC: 2.418 cumulative IPC: 2.608 (Simulation time: 00 hr 06 min 57 sec)
Heartbeat CPU 0 instructions: 59000422 cycles: 20383264 heartbeat IPC: 2.39 cumulative IPC: 2.595 (Simulation time: 00 hr 07 min 01 sec)
Heartbeat CPU 0 instructions: 59500425 cycles: 20551867 heartbeat IPC: 2.966 cumulative IPC: 2.612 (Simulation time: 00 hr 07 min 04 sec)
Heartbeat CPU 0 instructions: 60000427 cycles: 20757933 heartbeat IPC: 2.426 cumulative IPC: 2.602 (Simulation time: 00 hr 07 min 08 sec)
Heartbeat CPU 0 instructions: 60500427 cycles: 20965009 heartbeat IPC: 2.415 cumulative IPC: 2.592 (Simulation time: 00 hr 07 min 12 sec)
Heartbeat CPU 0 instructions: 61000430 cycles: 21128198 heartbeat IPC: 3.064 cumulative IPC: 2.611 (Simulation time: 00 hr 07 min 15 sec)
Heartbeat CPU 0 instructions: 61500432 cycles: 21335380 heartbeat IPC: 2.413 cumulative IPC: 2.601 (Simulation time: 00 hr 07 min 19 sec)
Heartbeat CPU 0 instructions: 62000434 cycles: 21543251 heartbeat IPC: 2.405 cumulative IPC: 2.593 (Simulation time: 00 hr 07 min 22 sec)
Heartbeat CPU 0 instructions: 62500436 cycles: 21707613 heartbeat IPC: 3.042 cumulative IPC: 2.608 (Simulation time: 00 hr 07 min 26 sec)
Heartbeat CPU 0 instructions: 63000436 cycles: 21914871 heartbeat IPC: 2.412 cumulative IPC: 2.6 (Simulation time: 00 hr 07 min 29 sec)
Heartbeat CPU 0 instructions: 63500442 cycles: 22122016 heartbeat IPC: 2.414 cumulative IPC: 2.592 (Simulation time: 00 hr 07 min 33 sec)
Heartbeat CPU 0 instructions: 64000446 cycles: 22285243 heartbeat IPC: 3.063 cumulative IPC: 2.607 (Simulation time: 00 hr 07 min 36 sec)
Heartbeat CPU 0 instructions: 64500452 cycles: 22491810 heartbeat IPC: 2.421 cumulative IPC: 2.6 (Simulation time: 00 hr 07 min 40 sec)
Heartbeat CPU 0 instructions: 65000452 cycles: 22698203 heartbeat IPC: 2.423 cumulative IPC: 2.594 (Simulation time: 00 hr 07 min 44 sec)
Heartbeat CPU 0 instructions: 65500457 cycles: 22861774 heartbeat IPC: 3.057 cumulative IPC: 2.606 (Simulation time: 00 hr 07 min 47 sec)
Heartbeat CPU 0 instructions: 66000459 cycles: 23068716 heartbeat IPC: 2.416 cumulative IPC: 2.6 (Simulation time: 00 hr 07 min 51 sec)
Heartbeat CPU 0 instructions: 66500463 cycles: 23276205 heartbeat IPC: 2.41 cumulative IPC: 2.594 (Simulation time: 00 hr 07 min 54 sec)
Heartbeat CPU 0 instructions: 67000469 cycles: 23439336 heartbeat IPC: 3.065 cumulative IPC: 2.605 (Simulation time: 00 hr 07 min 58 sec)
Heartbeat CPU 0 instructions: 67500473 cycles: 23646386 heartbeat IPC: 2.415 cumulative IPC: 2.6 (Simulation time: 00 hr 08 min 01 sec)
Heartbeat CPU 0 instructions: 68000477 cycles: 23854062 heartbeat IPC: 2.408 cumulative IPC: 2.594 (Simulation time: 00 hr 08 min 05 sec)
Heartbeat CPU 0 instructions: 68500477 cycles: 24018513 heartbeat IPC: 3.04 cumulative IPC: 2.604 (Simulation time: 00 hr 08 min 08 sec)
Heartbeat CPU 0 instructions: 69000481 cycles: 24258246 heartbeat IPC: 2.086 cumulative IPC: 2.587 (Simulation time: 00 hr 08 min 12 sec)
Heartbeat CPU 0 instructions: 69500483 cycles: 24497078 heartbeat IPC: 2.094 cumulative IPC: 2.572 (Simulation time: 00 hr 08 min 17 sec)
Heartbeat CPU 0 instructions: 70000489 cycles: 24661176 heartbeat IPC: 3.047 cumulative IPC: 2.582 (Simulation time: 00 hr 08 min 20 sec)
Heartbeat CPU 0 instructions: 70500494 cycles: 24868674 heartbeat IPC: 2.41 cumulative IPC: 2.577 (Simulation time: 00 hr 08 min 24 sec)
Heartbeat CPU 0 instructions: 71000495 cycles: 25076484 heartbeat IPC: 2.406 cumulative IPC: 2.573 (Simulation time: 00 hr 08 min 27 sec)
Heartbeat CPU 0 instructions: 71500502 cycles: 25239786 heartbeat IPC: 3.062 cumulative IPC: 2.583 (Simulation time: 00 hr 08 min 30 sec)
Heartbeat CPU 0 instructions: 72000503 cycles: 25446134 heartbeat IPC: 2.423 cumulative IPC: 2.579 (Simulation time: 00 hr 08 min 34 sec)
Heartbeat CPU 0 instructions: 72500503 cycles: 25653660 heartbeat IPC: 2.409 cumulative IPC: 2.575 (Simulation time: 00 hr 08 min 38 sec)
Heartbeat CPU 0 instructions: 73000505 cycles: 25818835 heartbeat IPC: 3.027 cumulative IPC: 2.583 (Simulation time: 00 hr 08 min 41 sec)
Heartbeat CPU 0 instructions: 73500511 cycles: 26026311 heartbeat IPC: 2.41 cumulative IPC: 2.579 (Simulation time: 00 hr 08 min 45 sec)
Heartbeat CPU 0 instructions: 74000517 cycles: 26233823 heartbeat IPC: 2.41 cumulative IPC: 2.575 (Simulation time: 00 hr 08 min 49 sec)
Heartbeat CPU 0 instructions: 74500522 cycles: 26397046 heartbeat IPC: 3.063 cumulative IPC: 2.584 (Simulation time: 00 hr 08 min 52 sec)
Heartbeat CPU 0 instructions: 75000522 cycles: 26604869 heartbeat IPC: 2.406 cumulative IPC: 2.58 (Simulation time: 00 hr 08 min 56 sec)
Heartbeat CPU 0 instructions: 75500522 cycles: 26812116 heartbeat IPC: 2.413 cumulative IPC: 2.576 (Simulation time: 00 hr 08 min 59 sec)
Heartbeat CPU 0 instructions: 76000526 cycles: 26976047 heartbeat IPC: 3.05 cumulative IPC: 2.584 (Simulation time: 00 hr 09 min 02 sec)
Heartbeat CPU 0 instructions: 76500531 cycles: 27181777 heartbeat IPC: 2.43 cumulative IPC: 2.581 (Simulation time: 00 hr 09 min 06 sec)
Heartbeat CPU 0 instructions: 77000537 cycles: 27388187 heartbeat IPC: 2.422 cumulative IPC: 2.578 (Simulation time: 00 hr 09 min 10 sec)
Heartbeat CPU 0 instructions: 77500544 cycles: 27552464 heartbeat IPC: 3.044 cumulative IPC: 2.585 (Simulation time: 00 hr 09 min 13 sec)
Heartbeat CPU 0 instructions: 78000548 cycles: 27759502 heartbeat IPC: 2.415 cumulative IPC: 2.582 (Simulation time: 00 hr 09 min 17 sec)
Heartbeat CPU 0 instructions: 78500548 cycles: 27967217 heartbeat IPC: 2.407 cumulative IPC: 2.579 (Simulation time: 00 hr 09 min 21 sec)
Heartbeat CPU 0 instructions: 79000550 cycles: 28130398 heartbeat IPC: 3.064 cumulative IPC: 2.586 (Simulation time: 00 hr 09 min 24 sec)
Heartbeat CPU 0 instructions: 79500553 cycles: 28336924 heartbeat IPC: 2.421 cumulative IPC: 2.583 (Simulation time: 00 hr 09 min 28 sec)
Heartbeat CPU 0 instructions: 80000556 cycles: 28544613 heartbeat IPC: 2.407 cumulative IPC: 2.58 (Simulation time: 00 hr 09 min 31 sec)
Heartbeat CPU 0 instructions: 80500556 cycles: 28708709 heartbeat IPC: 3.047 cumulative IPC: 2.586 (Simulation time: 00 hr 09 min 35 sec)
Heartbeat CPU 0 instructions: 81000560 cycles: 28914836 heartbeat IPC: 2.426 cumulative IPC: 2.583 (Simulation time: 00 hr 09 min 38 sec)
Heartbeat CPU 0 instructions: 81500566 cycles: 29121668 heartbeat IPC: 2.417 cumulative IPC: 2.58 (Simulation time: 00 hr 09 min 42 sec)
Heartbeat CPU 0 instructions: 82000571 cycles: 29285364 heartbeat IPC: 3.054 cumulative IPC: 2.587 (Simulation time: 00 hr 09 min 45 sec)
Heartbeat CPU 0 instructions: 82500578 cycles: 29492259 heartbeat IPC: 2.417 cumulative IPC: 2.584 (Simulation time: 00 hr 09 min 49 sec)
Heartbeat CPU 0 instructions: 83000580 cycles: 29699390 heartbeat IPC: 2.414 cumulative IPC: 2.581 (Simulation time: 00 hr 09 min 53 sec)
Heartbeat CPU 0 instructions: 83500580 cycles: 29863074 heartbeat IPC: 3.055 cumulative IPC: 2.587 (Simulation time: 00 hr 09 min 56 sec)
Heartbeat CPU 0 instructions: 84000585 cycles: 30070209 heartbeat IPC: 2.414 cumulative IPC: 2.584 (Simulation time: 00 hr 10 min 00 sec)
Heartbeat CPU 0 instructions: 84500587 cycles: 30278116 heartbeat IPC: 2.405 cumulative IPC: 2.582 (Simulation time: 00 hr 10 min 03 sec)
Heartbeat CPU 0 instructions: 85000587 cycles: 30441936 heartbeat IPC: 3.052 cumulative IPC: 2.587 (Simulation time: 00 hr 10 min 07 sec)
Heartbeat CPU 0 instructions: 85500589 cycles: 30649611 heartbeat IPC: 2.408 cumulative IPC: 2.585 (Simulation time: 00 hr 10 min 10 sec)
Heartbeat CPU 0 instructions: 86000589 cycles: 30856765 heartbeat IPC: 2.414 cumulative IPC: 2.582 (Simulation time: 00 hr 10 min 14 sec)
Heartbeat CPU 0 instructions: 86500591 cycles: 31019854 heartbeat IPC: 3.066 cumulative IPC: 2.588 (Simulation time: 00 hr 10 min 17 sec)
Heartbeat CPU 0 instructions: 87000597 cycles: 31228891 heartbeat IPC: 2.392 cumulative IPC: 2.585 (Simulation time: 00 hr 10 min 21 sec)
Heartbeat CPU 0 instructions: 87500599 cycles: 31437290 heartbeat IPC: 2.399 cumulative IPC: 2.582 (Simulation time: 00 hr 10 min 25 sec)
Heartbeat CPU 0 instructions: 88000599 cycles: 31600464 heartbeat IPC: 3.064 cumulative IPC: 2.588 (Simulation time: 00 hr 10 min 28 sec)
Heartbeat CPU 0 instructions: 88500601 cycles: 31807525 heartbeat IPC: 2.415 cumulative IPC: 2.585 (Simulation time: 00 hr 10 min 32 sec)
Heartbeat CPU 0 instructions: 89000603 cycles: 32014283 heartbeat IPC: 2.418 cumulative IPC: 2.583 (Simulation time: 00 hr 10 min 36 sec)
Heartbeat CPU 0 instructions: 89500609 cycles: 32177772 heartbeat IPC: 3.058 cumulative IPC: 2.588 (Simulation time: 00 hr 10 min 39 sec)
Heartbeat CPU 0 instructions: 90000609 cycles: 32385711 heartbeat IPC: 2.405 cumulative IPC: 2.585 (Simulation time: 00 hr 10 min 43 sec)
Heartbeat CPU 0 instructions: 90500615 cycles: 32589168 heartbeat IPC: 2.458 cumulative IPC: 2.584 (Simulation time: 00 hr 10 min 46 sec)
Heartbeat CPU 0 instructions: 91000622 cycles: 32756161 heartbeat IPC: 2.994 cumulative IPC: 2.588 (Simulation time: 00 hr 10 min 50 sec)
Heartbeat CPU 0 instructions: 91500623 cycles: 32963471 heartbeat IPC: 2.412 cumulative IPC: 2.586 (Simulation time: 00 hr 10 min 53 sec)
Heartbeat CPU 0 instructions: 92000623 cycles: 33161900 heartbeat IPC: 2.52 cumulative IPC: 2.585 (Simulation time: 00 hr 10 min 57 sec)
Heartbeat CPU 0 instructions: 92500627 cycles: 33333695 heartbeat IPC: 2.91 cumulative IPC: 2.588 (Simulation time: 00 hr 11 min 00 sec)
Heartbeat CPU 0 instructions: 93000632 cycles: 33539694 heartbeat IPC: 2.427 cumulative IPC: 2.586 (Simulation time: 00 hr 11 min 04 sec)
Heartbeat CPU 0 instructions: 93500638 cycles: 33732487 heartbeat IPC: 2.593 cumulative IPC: 2.587 (Simulation time: 00 hr 11 min 08 sec)
Heartbeat CPU 0 instructions: 94000642 cycles: 33909483 heartbeat IPC: 2.825 cumulative IPC: 2.589 (Simulation time: 00 hr 11 min 11 sec)
Heartbeat CPU 0 instructions: 94500646 cycles: 34114676 heartbeat IPC: 2.437 cumulative IPC: 2.587 (Simulation time: 00 hr 11 min 15 sec)
Heartbeat CPU 0 instructions: 95000647 cycles: 34302785 heartbeat IPC: 2.658 cumulative IPC: 2.588 (Simulation time: 00 hr 11 min 18 sec)
Heartbeat CPU 0 instructions: 95500654 cycles: 34484495 heartbeat IPC: 2.752 cumulative IPC: 2.59 (Simulation time: 00 hr 11 min 21 sec)
Heartbeat CPU 0 instructions: 96000661 cycles: 34689500 heartbeat IPC: 2.439 cumulative IPC: 2.588 (Simulation time: 00 hr 11 min 25 sec)
Heartbeat CPU 0 instructions: 96500666 cycles: 34872005 heartbeat IPC: 2.74 cumulative IPC: 2.589 (Simulation time: 00 hr 11 min 29 sec)
Heartbeat CPU 0 instructions: 97000670 cycles: 35058132 heartbeat IPC: 2.686 cumulative IPC: 2.59 (Simulation time: 00 hr 11 min 32 sec)
Heartbeat CPU 0 instructions: 97500670 cycles: 35262199 heartbeat IPC: 2.45 cumulative IPC: 2.589 (Simulation time: 00 hr 11 min 36 sec)
Heartbeat CPU 0 instructions: 98000676 cycles: 35441038 heartbeat IPC: 2.796 cumulative IPC: 2.591 (Simulation time: 00 hr 11 min 39 sec)
Heartbeat CPU 0 instructions: 98500682 cycles: 35631993 heartbeat IPC: 2.618 cumulative IPC: 2.591 (Simulation time: 00 hr 11 min 42 sec)
Heartbeat CPU 0 instructions: 99000684 cycles: 35838506 heartbeat IPC: 2.421 cumulative IPC: 2.589 (Simulation time: 00 hr 11 min 46 sec)
Heartbeat CPU 0 instructions: 99500685 cycles: 36012706 heartbeat IPC: 2.87 cumulative IPC: 2.592 (Simulation time: 00 hr 11 min 50 sec)
Heartbeat CPU 0 instructions: 100000687 cycles: 36209994 heartbeat IPC: 2.534 cumulative IPC: 2.591 (Simulation time: 00 hr 11 min 53 sec)
Heartbeat CPU 0 instructions: 100500694 cycles: 36416895 heartbeat IPC: 2.417 cumulative IPC: 2.589 (Simulation time: 00 hr 11 min 57 sec)
Heartbeat CPU 0 instructions: 101000695 cycles: 36585737 heartbeat IPC: 2.961 cumulative IPC: 2.593 (Simulation time: 00 hr 12 min 00 sec)
Heartbeat CPU 0 instructions: 101500696 cycles: 36786690 heartbeat IPC: 2.488 cumulative IPC: 2.592 (Simulation time: 00 hr 12 min 04 sec)
Heartbeat CPU 0 instructions: 102000699 cycles: 36992976 heartbeat IPC: 2.424 cumulative IPC: 2.59 (Simulation time: 00 hr 12 min 08 sec)
Heartbeat CPU 0 instructions: 102500702 cycles: 37156684 heartbeat IPC: 3.054 cumulative IPC: 2.594 (Simulation time: 00 hr 12 min 11 sec)
Heartbeat CPU 0 instructions: 103000709 cycles: 37363778 heartbeat IPC: 2.414 cumulative IPC: 2.592 (Simulation time: 00 hr 12 min 15 sec)
Heartbeat CPU 0 instructions: 103500715 cycles: 37571142 heartbeat IPC: 2.411 cumulative IPC: 2.59 (Simulation time: 00 hr 12 min 18 sec)
Heartbeat CPU 0 instructions: 104000717 cycles: 37734164 heartbeat IPC: 3.067 cumulative IPC: 2.594 (Simulation time: 00 hr 12 min 21 sec)
Heartbeat CPU 0 instructions: 104500721 cycles: 37941175 heartbeat IPC: 2.415 cumulative IPC: 2.592 (Simulation time: 00 hr 12 min 25 sec)
Heartbeat CPU 0 instructions: 105000721 cycles: 38147796 heartbeat IPC: 2.42 cumulative IPC: 2.59 (Simulation time: 00 hr 12 min 29 sec)
Heartbeat CPU 0 instructions: 105500727 cycles: 38310487 heartbeat IPC: 3.073 cumulative IPC: 2.594 (Simulation time: 00 hr 12 min 32 sec)
Heartbeat CPU 0 instructions: 106000733 cycles: 38518353 heartbeat IPC: 2.405 cumulative IPC: 2.592 (Simulation time: 00 hr 12 min 36 sec)
Heartbeat CPU 0 instructions: 106500736 cycles: 38725587 heartbeat IPC: 2.413 cumulative IPC: 2.59 (Simulation time: 00 hr 12 min 40 sec)
Heartbeat CPU 0 instructions: 107000737 cycles: 38888694 heartbeat IPC: 3.065 cumulative IPC: 2.594 (Simulation time: 00 hr 12 min 43 sec)
Heartbeat CPU 0 instructions: 107500743 cycles: 39097645 heartbeat IPC: 2.393 cumulative IPC: 2.592 (Simulation time: 00 hr 12 min 47 sec)
Heartbeat CPU 0 instructions: 108000747 cycles: 39305968 heartbeat IPC: 2.4 cumulative IPC: 2.59 (Simulation time: 00 hr 12 min 51 sec)
Heartbeat CPU 0 instructions: 108500752 cycles: 39469006 heartbeat IPC: 3.067 cumulative IPC: 2.594 (Simulation time: 00 hr 12 min 54 sec)
Heartbeat CPU 0 instructions: 109000753 cycles: 39676486 heartbeat IPC: 2.41 cumulative IPC: 2.592 (Simulation time: 00 hr 12 min 58 sec)
Heartbeat CPU 0 instructions: 109500755 cycles: 39883958 heartbeat IPC: 2.41 cumulative IPC: 2.59 (Simulation time: 00 hr 13 min 01 sec)
Heartbeat CPU 0 instructions: 110000761 cycles: 40048094 heartbeat IPC: 3.046 cumulative IPC: 2.594 (Simulation time: 00 hr 13 min 05 sec)
Heartbeat CPU 0 instructions: 110500764 cycles: 40255388 heartbeat IPC: 2.412 cumulative IPC: 2.592 (Simulation time: 00 hr 13 min 08 sec)
Heartbeat CPU 0 instructions: 111000766 cycles: 40462745 heartbeat IPC: 2.411 cumulative IPC: 2.59 (Simulation time: 00 hr 13 min 12 sec)
Heartbeat CPU 0 instructions: 111500772 cycles: 40626095 heartbeat IPC: 3.061 cumulative IPC: 2.594 (Simulation time: 00 hr 13 min 15 sec)
Heartbeat CPU 0 instructions: 112000778 cycles: 40832635 heartbeat IPC: 2.421 cumulative IPC: 2.592 (Simulation time: 00 hr 13 min 19 sec)
Heartbeat CPU 0 instructions: 112500778 cycles: 41039784 heartbeat IPC: 2.414 cumulative IPC: 2.591 (Simulation time: 00 hr 13 min 23 sec)
Heartbeat CPU 0 instructions: 113000778 cycles: 41203185 heartbeat IPC: 3.06 cumulative IPC: 2.594 (Simulation time: 00 hr 13 min 26 sec)
Heartbeat CPU 0 instructions: 113500778 cycles: 41410374 heartbeat IPC: 2.413 cumulative IPC: 2.592 (Simulation time: 00 hr 13 min 30 sec)
Heartbeat CPU 0 instructions: 114000780 cycles: 41617564 heartbeat IPC: 2.413 cumulative IPC: 2.591 (Simulation time: 00 hr 13 min 34 sec)
Heartbeat CPU 0 instructions: 114500781 cycles: 41780597 heartbeat IPC: 3.067 cumulative IPC: 2.594 (Simulation time: 00 hr 13 min 37 sec)
Heartbeat CPU 0 instructions: 115000782 cycles: 41987804 heartbeat IPC: 2.413 cumulative IPC: 2.592 (Simulation time: 00 hr 13 min 40 sec)
Heartbeat CPU 0 instructions: 115500782 cycles: 42195534 heartbeat IPC: 2.407 cumulative IPC: 2.591 (Simulation time: 00 hr 13 min 44 sec)
Heartbeat CPU 0 instructions: 116000784 cycles: 42359182 heartbeat IPC: 3.055 cumulative IPC: 2.594 (Simulation time: 00 hr 13 min 47 sec)
Heartbeat CPU 0 instructions: 116500784 cycles: 42566557 heartbeat IPC: 2.411 cumulative IPC: 2.592 (Simulation time: 00 hr 13 min 51 sec)
Heartbeat CPU 0 instructions: 117000786 cycles: 42793894 heartbeat IPC: 2.199 cumulative IPC: 2.589 (Simulation time: 00 hr 13 min 55 sec)
Heartbeat CPU 0 instructions: 117500792 cycles: 42996983 heartbeat IPC: 2.462 cumulative IPC: 2.588 (Simulation time: 00 hr 13 min 59 sec)
Heartbeat CPU 0 instructions: 118000794 cycles: 43208655 heartbeat IPC: 2.362 cumulative IPC: 2.586 (Simulation time: 00 hr 14 min 03 sec)
Heartbeat CPU 0 instructions: 118500796 cycles: 43416385 heartbeat IPC: 2.407 cumulative IPC: 2.585 (Simulation time: 00 hr 14 min 07 sec)
Heartbeat CPU 0 instructions: 119000802 cycles: 43579678 heartbeat IPC: 3.062 cumulative IPC: 2.588 (Simulation time: 00 hr 14 min 10 sec)
Heartbeat CPU 0 instructions: 119500802 cycles: 43788466 heartbeat IPC: 2.395 cumulative IPC: 2.586 (Simulation time: 00 hr 14 min 14 sec)
Heartbeat CPU 0 instructions: 120000809 cycles: 43996846 heartbeat IPC: 2.399 cumulative IPC: 2.585 (Simulation time: 00 hr 14 min 18 sec)
Heartbeat CPU 0 instructions: 120500815 cycles: 44160364 heartbeat IPC: 3.058 cumulative IPC: 2.588 (Simulation time: 00 hr 14 min 21 sec)
Heartbeat CPU 0 instructions: 121000817 cycles: 44367061 heartbeat IPC: 2.419 cumulative IPC: 2.586 (Simulation time: 00 hr 14 min 25 sec)
Heartbeat CPU 0 instructions: 121500820 cycles: 44574390 heartbeat IPC: 2.412 cumulative IPC: 2.585 (Simulation time: 00 hr 14 min 29 sec)
Heartbeat CPU 0 instructions: 122000827 cycles: 44737745 heartbeat IPC: 3.061 cumulative IPC: 2.588 (Simulation time: 00 hr 14 min 32 sec)
Heartbeat CPU 0 instructions: 122500829 cycles: 44945015 heartbeat IPC: 2.412 cumulative IPC: 2.586 (Simulation time: 00 hr 14 min 36 sec)
Heartbeat CPU 0 instructions: 123000831 cycles: 45152832 heartbeat IPC: 2.406 cumulative IPC: 2.585 (Simulation time: 00 hr 14 min 40 sec)
Heartbeat CPU 0 instructions: 123500835 cycles: 45319650 heartbeat IPC: 2.997 cumulative IPC: 2.588 (Simulation time: 00 hr 14 min 43 sec)
Heartbeat CPU 0 instructions: 124000841 cycles: 45528473 heartbeat IPC: 2.394 cumulative IPC: 2.586 (Simulation time: 00 hr 14 min 47 sec)
Heartbeat CPU 0 instructions: 124500845 cycles: 45737173 heartbeat IPC: 2.396 cumulative IPC: 2.585 (Simulation time: 00 hr 14 min 51 sec)
Heartbeat CPU 0 instructions: 125000845 cycles: 45900822 heartbeat IPC: 3.055 cumulative IPC: 2.587 (Simulation time: 00 hr 14 min 54 sec)
Heartbeat CPU 0 instructions: 125500849 cycles: 46107358 heartbeat IPC: 2.421 cumulative IPC: 2.586 (Simulation time: 00 hr 14 min 58 sec)
Heartbeat CPU 0 instructions: 126000856 cycles: 46313924 heartbeat IPC: 2.421 cumulative IPC: 2.585 (Simulation time: 00 hr 15 min 01 sec)
Heartbeat CPU 0 instructions: 126500863 cycles: 46477720 heartbeat IPC: 3.053 cumulative IPC: 2.588 (Simulation time: 00 hr 15 min 05 sec)
Heartbeat CPU 0 instructions: 127000863 cycles: 46685188 heartbeat IPC: 2.41 cumulative IPC: 2.586 (Simulation time: 00 hr 15 min 08 sec)
Heartbeat CPU 0 instructions: 127500866 cycles: 46891305 heartbeat IPC: 2.426 cumulative IPC: 2.585 (Simulation time: 00 hr 15 min 12 sec)
Heartbeat CPU 0 instructions: 128000868 cycles: 47054547 heartbeat IPC: 3.063 cumulative IPC: 2.588 (Simulation time: 00 hr 15 min 15 sec)
Heartbeat CPU 0 instructions: 128500873 cycles: 47260984 heartbeat IPC: 2.422 cumulative IPC: 2.587 (Simulation time: 00 hr 15 min 19 sec)
Heartbeat CPU 0 instructions: 129000876 cycles: 47468269 heartbeat IPC: 2.412 cumulative IPC: 2.586 (Simulation time: 00 hr 15 min 23 sec)
Heartbeat CPU 0 instructions: 129500882 cycles: 47631297 heartbeat IPC: 3.067 cumulative IPC: 2.588 (Simulation time: 00 hr 15 min 26 sec)
Heartbeat CPU 0 instructions: 130000884 cycles: 47836394 heartbeat IPC: 2.438 cumulative IPC: 2.587 (Simulation time: 00 hr 15 min 30 sec)
Heartbeat CPU 0 instructions: 130500885 cycles: 48042153 heartbeat IPC: 2.43 cumulative IPC: 2.586 (Simulation time: 00 hr 15 min 34 sec)
Heartbeat CPU 0 instructions: 131000889 cycles: 48205925 heartbeat IPC: 3.053 cumulative IPC: 2.589 (Simulation time: 00 hr 15 min 37 sec)
Heartbeat CPU 0 instructions: 131500894 cycles: 48408250 heartbeat IPC: 2.471 cumulative IPC: 2.588 (Simulation time: 00 hr 15 min 41 sec)
Heartbeat CPU 0 instructions: 132000896 cycles: 48608011 heartbeat IPC: 2.503 cumulative IPC: 2.587 (Simulation time: 00 hr 15 min 44 sec)
Heartbeat CPU 0 instructions: 132500902 cycles: 48771568 heartbeat IPC: 3.057 cumulative IPC: 2.59 (Simulation time: 00 hr 15 min 48 sec)
Heartbeat CPU 0 instructions: 133000906 cycles: 48971227 heartbeat IPC: 2.504 cumulative IPC: 2.589 (Simulation time: 00 hr 15 min 51 sec)
Heartbeat CPU 0 instructions: 133500908 cycles: 49166555 heartbeat IPC: 2.56 cumulative IPC: 2.589 (Simulation time: 00 hr 15 min 55 sec)
Heartbeat CPU 0 instructions: 134000912 cycles: 49331111 heartbeat IPC: 3.039 cumulative IPC: 2.591 (Simulation time: 00 hr 15 min 58 sec)
Heartbeat CPU 0 instructions: 134500914 cycles: 49523172 heartbeat IPC: 2.603 cumulative IPC: 2.591 (Simulation time: 00 hr 16 min 02 sec)
Heartbeat CPU 0 instructions: 135000918 cycles: 49711911 heartbeat IPC: 2.649 cumulative IPC: 2.592 (Simulation time: 00 hr 16 min 05 sec)
Heartbeat CPU 0 instructions: 135500922 cycles: 49876767 heartbeat IPC: 3.033 cumulative IPC: 2.594 (Simulation time: 00 hr 16 min 08 sec)
Heartbeat CPU 0 instructions: 136000929 cycles: 50063968 heartbeat IPC: 2.671 cumulative IPC: 2.594 (Simulation time: 00 hr 16 min 12 sec)
Heartbeat CPU 0 instructions: 136500932 cycles: 50250223 heartbeat IPC: 2.685 cumulative IPC: 2.595 (Simulation time: 00 hr 16 min 15 sec)
Heartbeat CPU 0 instructions: 137000937 cycles: 50414316 heartbeat IPC: 3.047 cumulative IPC: 2.597 (Simulation time: 00 hr 16 min 18 sec)
Heartbeat CPU 0 instructions: 137500944 cycles: 50601192 heartbeat IPC: 2.676 cumulative IPC: 2.597 (Simulation time: 00 hr 16 min 22 sec)
Heartbeat CPU 0 instructions: 138000946 cycles: 50789386 heartbeat IPC: 2.657 cumulative IPC: 2.598 (Simulation time: 00 hr 16 min 25 sec)
Heartbeat CPU 0 instructions: 138500947 cycles: 50953339 heartbeat IPC: 3.05 cumulative IPC: 2.6 (Simulation time: 00 hr 16 min 28 sec)
Heartbeat CPU 0 instructions: 139000951 cycles: 51157824 heartbeat IPC: 2.445 cumulative IPC: 2.599 (Simulation time: 00 hr 16 min 32 sec)
Heartbeat CPU 0 instructions: 139500953 cycles: 51366886 heartbeat IPC: 2.392 cumulative IPC: 2.598 (Simulation time: 00 hr 16 min 36 sec)
Heartbeat CPU 0 instructions: 140000957 cycles: 51530051 heartbeat IPC: 3.064 cumulative IPC: 2.6 (Simulation time: 00 hr 16 min 39 sec)
Heartbeat CPU 0 instructions: 140500959 cycles: 51737559 heartbeat IPC: 2.41 cumulative IPC: 2.599 (Simulation time: 00 hr 16 min 43 sec)
Heartbeat CPU 0 instructions: 141000959 cycles: 51945005 heartbeat IPC: 2.41 cumulative IPC: 2.598 (Simulation time: 00 hr 16 min 46 sec)
Heartbeat CPU 0 instructions: 141500961 cycles: 52108528 heartbeat IPC: 3.058 cumulative IPC: 2.6 (Simulation time: 00 hr 16 min 50 sec)
Heartbeat CPU 0 instructions: 142000968 cycles: 52315103 heartbeat IPC: 2.42 cumulative IPC: 2.599 (Simulation time: 00 hr 16 min 53 sec)
Heartbeat CPU 0 instructions: 142500969 cycles: 52522220 heartbeat IPC: 2.414 cumulative IPC: 2.598 (Simulation time: 00 hr 16 min 57 sec)
Heartbeat CPU 0 instructions: 143000973 cycles: 52685398 heartbeat IPC: 3.064 cumulative IPC: 2.6 (Simulation time: 00 hr 17 min 00 sec)
Heartbeat CPU 0 instructions: 143500973 cycles: 52890466 heartbeat IPC: 2.438 cumulative IPC: 2.599 (Simulation time: 00 hr 17 min 04 sec)
Heartbeat CPU 0 instructions: 144000974 cycles: 53095275 heartbeat IPC: 2.441 cumulative IPC: 2.598 (Simulation time: 00 hr 17 min 08 sec)
Heartbeat CPU 0 instructions: 144500977 cycles: 53259871 heartbeat IPC: 3.038 cumulative IPC: 2.6 (Simulation time: 00 hr 17 min 11 sec)
Heartbeat CPU 0 instructions: 145000977 cycles: 53465647 heartbeat IPC: 2.43 cumulative IPC: 2.599 (Simulation time: 00 hr 17 min 15 sec)
Heartbeat CPU 0 instructions: 145500977 cycles: 53669843 heartbeat IPC: 2.449 cumulative IPC: 2.598 (Simulation time: 00 hr 17 min 19 sec)
Heartbeat CPU 0 instructions: 146000977 cycles: 53833150 heartbeat IPC: 3.062 cumulative IPC: 2.6 (Simulation time: 00 hr 17 min 22 sec)
Heartbeat CPU 0 instructions: 146500982 cycles: 54038334 heartbeat IPC: 2.437 cumulative IPC: 2.599 (Simulation time: 00 hr 17 min 26 sec)
Heartbeat CPU 0 instructions: 147000989 cycles: 54244891 heartbeat IPC: 2.421 cumulative IPC: 2.598 (Simulation time: 00 hr 17 min 29 sec)
Heartbeat CPU 0 instructions: 147500989 cycles: 54408181 heartbeat IPC: 3.062 cumulative IPC: 2.6 (Simulation time: 00 hr 17 min 33 sec)
Heartbeat CPU 0 instructions: 148000994 cycles: 54615694 heartbeat IPC: 2.41 cumulative IPC: 2.599 (Simulation time: 00 hr 17 min 37 sec)
Heartbeat CPU 0 instructions: 148500996 cycles: 54822903 heartbeat IPC: 2.413 cumulative IPC: 2.598 (Simulation time: 00 hr 17 min 41 sec)
Heartbeat CPU 0 instructions: 149000996 cycles: 54986295 heartbeat IPC: 3.06 cumulative IPC: 2.6 (Simulation time: 00 hr 17 min 44 sec)
Heartbeat CPU 0 instructions: 149500996 cycles: 55195098 heartbeat IPC: 2.395 cumulative IPC: 2.599 (Simulation time: 00 hr 17 min 48 sec)
Heartbeat CPU 0 instructions: 150000998 cycles: 55405285 heartbeat IPC: 2.379 cumulative IPC: 2.598 (Simulation time: 00 hr 17 min 52 sec)
Heartbeat CPU 0 instructions: 150501002 cycles: 55569777 heartbeat IPC: 3.04 cumulative IPC: 2.6 (Simulation time: 00 hr 17 min 55 sec)
Heartbeat CPU 0 instructions: 151001006 cycles: 55778835 heartbeat IPC: 2.392 cumulative IPC: 2.599 (Simulation time: 00 hr 18 min 00 sec)
Heartbeat CPU 0 instructions: 151501008 cycles: 55987284 heartbeat IPC: 2.399 cumulative IPC: 2.598 (Simulation time: 00 hr 18 min 04 sec)
Heartbeat CPU 0 instructions: 152001012 cycles: 56150737 heartbeat IPC: 3.059 cumulative IPC: 2.6 (Simulation time: 00 hr 18 min 07 sec)
Heartbeat CPU 0 instructions: 152501016 cycles: 56358331 heartbeat IPC: 2.409 cumulative IPC: 2.599 (Simulation time: 00 hr 18 min 11 sec)
Heartbeat CPU 0 instructions: 153001022 cycles: 56566280 heartbeat IPC: 2.404 cumulative IPC: 2.598 (Simulation time: 00 hr 18 min 15 sec)
Heartbeat CPU 0 instructions: 153501024 cycles: 56729818 heartbeat IPC: 3.057 cumulative IPC: 2.6 (Simulation time: 00 hr 18 min 18 sec)
Heartbeat CPU 0 instructions: 154001030 cycles: 56937135 heartbeat IPC: 2.412 cumulative IPC: 2.599 (Simulation time: 00 hr 18 min 22 sec)
Heartbeat CPU 0 instructions: 154501033 cycles: 57143573 heartbeat IPC: 2.422 cumulative IPC: 2.598 (Simulation time: 00 hr 18 min 26 sec)
Heartbeat CPU 0 instructions: 155001036 cycles: 57306463 heartbeat IPC: 3.07 cumulative IPC: 2.6 (Simulation time: 00 hr 18 min 29 sec)
Heartbeat CPU 0 instructions: 155501041 cycles: 57513897 heartbeat IPC: 2.41 cumulative IPC: 2.599 (Simulation time: 00 hr 18 min 33 sec)
Heartbeat CPU 0 instructions: 156001043 cycles: 57722145 heartbeat IPC: 2.401 cumulative IPC: 2.598 (Simulation time: 00 hr 18 min 37 sec)
Heartbeat CPU 0 instructions: 156501043 cycles: 57886706 heartbeat IPC: 3.038 cumulative IPC: 2.599 (Simulation time: 00 hr 18 min 41 sec)
Heartbeat CPU 0 instructions: 157001048 cycles: 58093769 heartbeat IPC: 2.415 cumulative IPC: 2.598 (Simulation time: 00 hr 18 min 45 sec)
Heartbeat CPU 0 instructions: 157501055 cycles: 58301920 heartbeat IPC: 2.402 cumulative IPC: 2.597 (Simulation time: 00 hr 18 min 49 sec)
Heartbeat CPU 0 instructions: 158001059 cycles: 58467358 heartbeat IPC: 3.022 cumulative IPC: 2.599 (Simulation time: 00 hr 18 min 52 sec)
Heartbeat CPU 0 instructions: 158501061 cycles: 58676503 heartbeat IPC: 2.391 cumulative IPC: 2.598 (Simulation time: 00 hr 18 min 56 sec)
Heartbeat CPU 0 instructions: 159001067 cycles: 58884904 heartbeat IPC: 2.399 cumulative IPC: 2.597 (Simulation time: 00 hr 19 min 00 sec)
Heartbeat CPU 0 instructions: 159501069 cycles: 59050290 heartbeat IPC: 3.023 cumulative IPC: 2.599 (Simulation time: 00 hr 19 min 03 sec)
Heartbeat CPU 0 instructions: 160001075 cycles: 59256917 heartbeat IPC: 2.42 cumulative IPC: 2.598 (Simulation time: 00 hr 19 min 07 sec)
Heartbeat CPU 0 instructions: 160501077 cycles: 59459407 heartbeat IPC: 2.469 cumulative IPC: 2.597 (Simulation time: 00 hr 19 min 11 sec)
Heartbeat CPU 0 instructions: 161001079 cycles: 59627816 heartbeat IPC: 2.969 cumulative IPC: 2.599 (Simulation time: 00 hr 19 min 14 sec)
Heartbeat CPU 0 instructions: 161501083 cycles: 59834730 heartbeat IPC: 2.416 cumulative IPC: 2.598 (Simulation time: 00 hr 19 min 18 sec)
Heartbeat CPU 0 instructions: 162001084 cycles: 60032414 heartbeat IPC: 2.529 cumulative IPC: 2.598 (Simulation time: 00 hr 19 min 22 sec)
Heartbeat CPU 0 instructions: 162501089 cycles: 60205097 heartbeat IPC: 2.896 cumulative IPC: 2.599 (Simulation time: 00 hr 19 min 25 sec)
Heartbeat CPU 0 instructions: 163001091 cycles: 60412363 heartbeat IPC: 2.412 cumulative IPC: 2.598 (Simulation time: 00 hr 19 min 29 sec)
Heartbeat CPU 0 instructions: 163501094 cycles: 60605884 heartbeat IPC: 2.584 cumulative IPC: 2.598 (Simulation time: 00 hr 19 min 33 sec)
Heartbeat CPU 0 instructions: 164001101 cycles: 60783381 heartbeat IPC: 2.817 cumulative IPC: 2.599 (Simulation time: 00 hr 19 min 36 sec)
Heartbeat CPU 0 instructions: 164501108 cycles: 60991044 heartbeat IPC: 2.408 cumulative IPC: 2.598 (Simulation time: 00 hr 19 min 40 sec)
Heartbeat CPU 0 instructions: 165001113 cycles: 61184684 heartbeat IPC: 2.582 cumulative IPC: 2.598 (Simulation time: 00 hr 19 min 43 sec)
Heartbeat CPU 0 instructions: 165501119 cycles: 61411208 heartbeat IPC: 2.207 cumulative IPC: 2.596 (Simulation time: 00 hr 19 min 47 sec)
Heartbeat CPU 0 instructions: 166001126 cycles: 61634822 heartbeat IPC: 2.236 cumulative IPC: 2.594 (Simulation time: 00 hr 19 min 51 sec)
Heartbeat CPU 0 instructions: 166501127 cycles: 61818358 heartbeat IPC: 2.724 cumulative IPC: 2.594 (Simulation time: 00 hr 19 min 55 sec)
Heartbeat CPU 0 instructions: 167001132 cycles: 62004759 heartbeat IPC: 2.682 cumulative IPC: 2.595 (Simulation time: 00 hr 19 min 58 sec)
Heartbeat CPU 0 instructions: 167501136 cycles: 62211268 heartbeat IPC: 2.421 cumulative IPC: 2.594 (Simulation time: 00 hr 20 min 02 sec)
Heartbeat CPU 0 instructions: 168001137 cycles: 62388355 heartbeat IPC: 2.823 cumulative IPC: 2.595 (Simulation time: 00 hr 20 min 05 sec)
Heartbeat CPU 0 instructions: 168501144 cycles: 62580132 heartbeat IPC: 2.607 cumulative IPC: 2.595 (Simulation time: 00 hr 20 min 09 sec)
Heartbeat CPU 0 instructions: 169001150 cycles: 62786502 heartbeat IPC: 2.423 cumulative IPC: 2.594 (Simulation time: 00 hr 20 min 13 sec)
Heartbeat CPU 0 instructions: 169501150 cycles: 62958798 heartbeat IPC: 2.902 cumulative IPC: 2.595 (Simulation time: 00 hr 20 min 16 sec)
Heartbeat CPU 0 instructions: 170001154 cycles: 63156400 heartbeat IPC: 2.53 cumulative IPC: 2.595 (Simulation time: 00 hr 20 min 19 sec)
Heartbeat CPU 0 instructions: 170501156 cycles: 63364442 heartbeat IPC: 2.403 cumulative IPC: 2.594 (Simulation time: 00 hr 20 min 23 sec)
Heartbeat CPU 0 instructions: 171001157 cycles: 63531632 heartbeat IPC: 2.991 cumulative IPC: 2.596 (Simulation time: 00 hr 20 min 26 sec)
Heartbeat CPU 0 instructions: 171501161 cycles: 63734933 heartbeat IPC: 2.459 cumulative IPC: 2.595 (Simulation time: 00 hr 20 min 30 sec)
Heartbeat CPU 0 instructions: 172001168 cycles: 63942510 heartbeat IPC: 2.409 cumulative IPC: 2.594 (Simulation time: 00 hr 20 min 34 sec)
Heartbeat CPU 0 instructions: 172501172 cycles: 64106581 heartbeat IPC: 3.047 cumulative IPC: 2.596 (Simulation time: 00 hr 20 min 37 sec)
Heartbeat CPU 0 instructions: 173001176 cycles: 64313919 heartbeat IPC: 2.412 cumulative IPC: 2.595 (Simulation time: 00 hr 20 min 41 sec)
Heartbeat CPU 0 instructions: 173501176 cycles: 64519796 heartbeat IPC: 2.429 cumulative IPC: 2.594 (Simulation time: 00 hr 20 min 44 sec)
Heartbeat CPU 0 instructions: 174001178 cycles: 64682982 heartbeat IPC: 3.064 cumulative IPC: 2.596 (Simulation time: 00 hr 20 min 47 sec)
Heartbeat CPU 0 instructions: 174501180 cycles: 64889646 heartbeat IPC: 2.419 cumulative IPC: 2.595 (Simulation time: 00 hr 20 min 51 sec)
Heartbeat CPU 0 instructions: 175001183 cycles: 65097537 heartbeat IPC: 2.405 cumulative IPC: 2.594 (Simulation time: 00 hr 20 min 55 sec)
Heartbeat CPU 0 instructions: 175501189 cycles: 65261187 heartbeat IPC: 3.055 cumulative IPC: 2.596 (Simulation time: 00 hr 20 min 58 sec)
Heartbeat CPU 0 instructions: 176001191 cycles: 65467886 heartbeat IPC: 2.419 cumulative IPC: 2.595 (Simulation time: 00 hr 21 min 02 sec)
Heartbeat CPU 0 instructions: 176501193 cycles: 65673825 heartbeat IPC: 2.428 cumulative IPC: 2.594 (Simulation time: 00 hr 21 min 06 sec)
Heartbeat CPU 0 instructions: 177001199 cycles: 65836853 heartbeat IPC: 3.067 cumulative IPC: 2.596 (Simulation time: 00 hr 21 min 09 sec)
Heartbeat CPU 0 instructions: 177501201 cycles: 66045629 heartbeat IPC: 2.395 cumulative IPC: 2.595 (Simulation time: 00 hr 21 min 13 sec)
Heartbeat CPU 0 instructions: 178001205 cycles: 66250286 heartbeat IPC: 2.443 cumulative IPC: 2.594 (Simulation time: 00 hr 21 min 16 sec)
Heartbeat CPU 0 instructions: 178501211 cycles: 66413319 heartbeat IPC: 3.067 cumulative IPC: 2.596 (Simulation time: 00 hr 21 min 19 sec)
Heartbeat CPU 0 instructions: 179001211 cycles: 66619366 heartbeat IPC: 2.427 cumulative IPC: 2.595 (Simulation time: 00 hr 21 min 23 sec)
Heartbeat CPU 0 instructions: 179501217 cycles: 66821944 heartbeat IPC: 2.468 cumulative IPC: 2.595 (Simulation time: 00 hr 21 min 27 sec)
Heartbeat CPU 0 instructions: 180001219 cycles: 66985004 heartbeat IPC: 3.066 cumulative IPC: 2.596 (Simulation time: 00 hr 21 min 30 sec)
Heartbeat CPU 0 instructions: 180501225 cycles: 67185176 heartbeat IPC: 2.498 cumulative IPC: 2.596 (Simulation time: 00 hr 21 min 33 sec)
Heartbeat CPU 0 instructions: 181001229 cycles: 67383276 heartbeat IPC: 2.524 cumulative IPC: 2.596 (Simulation time: 00 hr 21 min 37 sec)
Heartbeat CPU 0 instructions: 181501233 cycles: 67547038 heartbeat IPC: 3.053 cumulative IPC: 2.597 (Simulation time: 00 hr 21 min 40 sec)
Heartbeat CPU 0 instructions: 182001233 cycles: 67741582 heartbeat IPC: 2.57 cumulative IPC: 2.597 (Simulation time: 00 hr 21 min 44 sec)
Heartbeat CPU 0 instructions: 182501235 cycles: 67932925 heartbeat IPC: 2.613 cumulative IPC: 2.597 (Simulation time: 00 hr 21 min 47 sec)
Heartbeat CPU 0 instructions: 183001238 cycles: 68095979 heartbeat IPC: 3.066 cumulative IPC: 2.599 (Simulation time: 00 hr 21 min 51 sec)
Heartbeat CPU 0 instructions: 183501240 cycles: 68283574 heartbeat IPC: 2.665 cumulative IPC: 2.599 (Simulation time: 00 hr 21 min 54 sec)
Heartbeat CPU 0 instructions: 184001244 cycles: 68471618 heartbeat IPC: 2.659 cumulative IPC: 2.599 (Simulation time: 00 hr 21 min 58 sec)
Heartbeat CPU 0 instructions: 184501246 cycles: 68634776 heartbeat IPC: 3.065 cumulative IPC: 2.601 (Simulation time: 00 hr 22 min 01 sec)
Heartbeat CPU 0 instructions: 185001247 cycles: 68820763 heartbeat IPC: 2.688 cumulative IPC: 2.601 (Simulation time: 00 hr 22 min 04 sec)
Heartbeat CPU 0 instructions: 185501254 cycles: 69005669 heartbeat IPC: 2.704 cumulative IPC: 2.601 (Simulation time: 00 hr 22 min 08 sec)
Heartbeat CPU 0 instructions: 186001258 cycles: 69168855 heartbeat IPC: 3.064 cumulative IPC: 2.603 (Simulation time: 00 hr 22 min 11 sec)
Heartbeat CPU 0 instructions: 186501265 cycles: 69354287 heartbeat IPC: 2.696 cumulative IPC: 2.603 (Simulation time: 00 hr 22 min 14 sec)
Heartbeat CPU 0 instructions: 187001266 cycles: 69557288 heartbeat IPC: 2.463 cumulative IPC: 2.602 (Simulation time: 00 hr 22 min 18 sec)
Heartbeat CPU 0 instructions: 187501273 cycles: 69721608 heartbeat IPC: 3.043 cumulative IPC: 2.604 (Simulation time: 00 hr 22 min 21 sec)
Heartbeat CPU 0 instructions: 188001274 cycles: 69928723 heartbeat IPC: 2.414 cumulative IPC: 2.603 (Simulation time: 00 hr 22 min 25 sec)
Heartbeat CPU 0 instructions: 188501274 cycles: 70137807 heartbeat IPC: 2.391 cumulative IPC: 2.602 (Simulation time: 00 hr 22 min 29 sec)
Heartbeat CPU 0 instructions: 189001278 cycles: 70301160 heartbeat IPC: 3.061 cumulative IPC: 2.604 (Simulation time: 00 hr 22 min 32 sec)
Heartbeat CPU 0 instructions: 189501284 cycles: 70507517 heartbeat IPC: 2.423 cumulative IPC: 2.603 (Simulation time: 00 hr 22 min 36 sec)
Heartbeat CPU 0 instructions: 190001284 cycles: 70713415 heartbeat IPC: 2.428 cumulative IPC: 2.602 (Simulation time: 00 hr 22 min 40 sec)
Heartbeat CPU 0 instructions: 190501288 cycles: 70875922 heartbeat IPC: 3.077 cumulative IPC: 2.604 (Simulation time: 00 hr 22 min 43 sec)
Heartbeat CPU 0 instructions: 191001290 cycles: 71083497 heartbeat IPC: 2.409 cumulative IPC: 2.603 (Simulation time: 00 hr 22 min 47 sec)
Heartbeat CPU 0 instructions: 191501294 cycles: 71289401 heartbeat IPC: 2.428 cumulative IPC: 2.602 (Simulation time: 00 hr 22 min 50 sec)
Heartbeat CPU 0 instructions: 192001295 cycles: 71451765 heartbeat IPC: 3.08 cumulative IPC: 2.604 (Simulation time: 00 hr 22 min 54 sec)
Heartbeat CPU 0 instructions: 192501295 cycles: 71656535 heartbeat IPC: 2.442 cumulative IPC: 2.603 (Simulation time: 00 hr 22 min 57 sec)
Heartbeat CPU 0 instructions: 193001296 cycles: 71863241 heartbeat IPC: 2.419 cumulative IPC: 2.602 (Simulation time: 00 hr 23 min 01 sec)
Heartbeat CPU 0 instructions: 193501297 cycles: 72026521 heartbeat IPC: 3.062 cumulative IPC: 2.604 (Simulation time: 00 hr 23 min 04 sec)
Heartbeat CPU 0 instructions: 194001301 cycles: 72232141 heartbeat IPC: 2.432 cumulative IPC: 2.603 (Simulation time: 00 hr 23 min 08 sec)
Heartbeat CPU 0 instructions: 194501303 cycles: 72437468 heartbeat IPC: 2.435 cumulative IPC: 2.603 (Simulation time: 00 hr 23 min 11 sec)
Heartbeat CPU 0 instructions: 195001303 cycles: 72601072 heartbeat IPC: 3.056 cumulative IPC: 2.604 (Simulation time: 00 hr 23 min 15 sec)
Heartbeat CPU 0 instructions: 195501303 cycles: 72807921 heartbeat IPC: 2.417 cumulative IPC: 2.603 (Simulation time: 00 hr 23 min 18 sec)
Heartbeat CPU 0 instructions: 196001305 cycles: 73014600 heartbeat IPC: 2.419 cumulative IPC: 2.603 (Simulation time: 00 hr 23 min 22 sec)
Heartbeat CPU 0 instructions: 196501305 cycles: 73177543 heartbeat IPC: 3.069 cumulative IPC: 2.604 (Simulation time: 00 hr 23 min 25 sec)
Heartbeat CPU 0 instructions: 197001305 cycles: 73383402 heartbeat IPC: 2.429 cumulative IPC: 2.603 (Simulation time: 00 hr 23 min 29 sec)
Heartbeat CPU 0 instructions: 197501307 cycles: 73589931 heartbeat IPC: 2.421 cumulative IPC: 2.603 (Simulation time: 00 hr 23 min 33 sec)
Heartbeat CPU 0 instructions: 198001307 cycles: 73753391 heartbeat IPC: 3.059 cumulative IPC: 2.604 (Simulation time: 00 hr 23 min 36 sec)
Heartbeat CPU 0 instructions: 198501307 cycles: 73961098 heartbeat IPC: 2.407 cumulative IPC: 2.603 (Simulation time: 00 hr 23 min 39 sec)
Heartbeat CPU 0 instructions: 199001309 cycles: 74168188 heartbeat IPC: 2.414 cumulative IPC: 2.602 (Simulation time: 00 hr 23 min 43 sec)
Heartbeat CPU 0 instructions: 199501315 cycles: 74331428 heartbeat IPC: 3.063 cumulative IPC: 2.604 (Simulation time: 00 hr 23 min 46 sec)
Heartbeat CPU 0 instructions: 200001317 cycles: 74538573 heartbeat IPC: 2.414 cumulative IPC: 2.603 (Simulation time: 00 hr 23 min 50 sec)
Heartbeat CPU 0 instructions: 200501319 cycles: 74745604 heartbeat IPC: 2.415 cumulative IPC: 2.602 (Simulation time: 00 hr 23 min 54 sec)
Heartbeat CPU 0 instructions: 201001325 cycles: 74909176 heartbeat IPC: 3.057 cumulative IPC: 2.604 (Simulation time: 00 hr 23 min 57 sec)
Heartbeat CPU 0 instructions: 201501327 cycles: 75115968 heartbeat IPC: 2.418 cumulative IPC: 2.603 (Simulation time: 00 hr 24 min 00 sec)
Heartbeat CPU 0 instructions: 202001332 cycles: 75323917 heartbeat IPC: 2.404 cumulative IPC: 2.602 (Simulation time: 00 hr 24 min 04 sec)
Heartbeat CPU 0 instructions: 202501332 cycles: 75487759 heartbeat IPC: 3.052 cumulative IPC: 2.604 (Simulation time: 00 hr 24 min 07 sec)
Heartbeat CPU 0 instructions: 203001334 cycles: 75694889 heartbeat IPC: 2.414 cumulative IPC: 2.603 (Simulation time: 00 hr 24 min 11 sec)
Heartbeat CPU 0 instructions: 203501334 cycles: 75901939 heartbeat IPC: 2.415 cumulative IPC: 2.602 (Simulation time: 00 hr 24 min 14 sec)
Heartbeat CPU 0 instructions: 204001336 cycles: 76065411 heartbeat IPC: 3.059 cumulative IPC: 2.604 (Simulation time: 00 hr 24 min 17 sec)
Heartbeat CPU 0 instructions: 204501336 cycles: 76272577 heartbeat IPC: 2.414 cumulative IPC: 2.603 (Simulation time: 00 hr 24 min 21 sec)
Heartbeat CPU 0 instructions: 205001340 cycles: 76480078 heartbeat IPC: 2.41 cumulative IPC: 2.602 (Simulation time: 00 hr 24 min 25 sec)
Heartbeat CPU 0 instructions: 205501343 cycles: 76643117 heartbeat IPC: 3.067 cumulative IPC: 2.603 (Simulation time: 00 hr 24 min 28 sec)
Heartbeat CPU 0 instructions: 206001348 cycles: 76850406 heartbeat IPC: 2.412 cumulative IPC: 2.603 (Simulation time: 00 hr 24 min 31 sec)
Heartbeat CPU 0 instructions: 206501350 cycles: 77057271 heartbeat IPC: 2.417 cumulative IPC: 2.602 (Simulation time: 00 hr 24 min 35 sec)
Heartbeat CPU 0 instructions: 207001354 cycles: 77220500 heartbeat IPC: 3.063 cumulative IPC: 2.603 (Simulation time: 00 hr 24 min 38 sec)
Heartbeat CPU 0 instructions: 207501360 cycles: 77428462 heartbeat IPC: 2.404 cumulative IPC: 2.603 (Simulation time: 00 hr 24 min 42 sec)
Heartbeat CPU 0 instructions: 208001362 cycles: 77636216 heartbeat IPC: 2.407 cumulative IPC: 2.602 (Simulation time: 00 hr 24 min 45 sec)
Heartbeat CPU 0 instructions: 208501368 cycles: 77799684 heartbeat IPC: 3.059 cumulative IPC: 2.603 (Simulation time: 00 hr 24 min 48 sec)
Heartbeat CPU 0 instructions: 209001368 cycles: 78007295 heartbeat IPC: 2.408 cumulative IPC: 2.603 (Simulation time: 00 hr 24 min 52 sec)
Heartbeat CPU 0 instructions: 209501372 cycles: 78214341 heartbeat IPC: 2.415 cumulative IPC: 2.602 (Simulation time: 00 hr 24 min 56 sec)
Heartbeat CPU 0 instructions: 210001379 cycles: 78377858 heartbeat IPC: 3.058 cumulative IPC: 2.603 (Simulation time: 00 hr 24 min 59 sec)
Heartbeat CPU 0 instructions: 210501386 cycles: 78584762 heartbeat IPC: 2.417 cumulative IPC: 2.603 (Simulation time: 00 hr 25 min 02 sec)
Heartbeat CPU 0 instructions: 211001392 cycles: 78791977 heartbeat IPC: 2.413 cumulative IPC: 2.602 (Simulation time: 00 hr 25 min 06 sec)
Heartbeat CPU 0 instructions: 211501396 cycles: 78955867 heartbeat IPC: 3.051 cumulative IPC: 2.603 (Simulation time: 00 hr 25 min 09 sec)
Heartbeat CPU 0 instructions: 212001400 cycles: 79161773 heartbeat IPC: 2.428 cumulative IPC: 2.603 (Simulation time: 00 hr 25 min 13 sec)
Heartbeat CPU 0 instructions: 212501402 cycles: 79368301 heartbeat IPC: 2.421 cumulative IPC: 2.602 (Simulation time: 00 hr 25 min 16 sec)
Heartbeat CPU 0 instructions: 213001409 cycles: 79531922 heartbeat IPC: 3.056 cumulative IPC: 2.603 (Simulation time: 00 hr 25 min 19 sec)
Heartbeat CPU 0 instructions: 213501411 cycles: 79769614 heartbeat IPC: 2.104 cumulative IPC: 2.601 (Simulation time: 00 hr 25 min 23 sec)
Heartbeat CPU 0 instructions: 214001416 cycles: 80008054 heartbeat IPC: 2.097 cumulative IPC: 2.599 (Simulation time: 00 hr 25 min 27 sec)
Heartbeat CPU 0 instructions: 214501421 cycles: 80173579 heartbeat IPC: 3.021 cumulative IPC: 2.6 (Simulation time: 00 hr 25 min 30 sec)
Heartbeat CPU 0 instructions: 215001421 cycles: 80383363 heartbeat IPC: 2.383 cumulative IPC: 2.6 (Simulation time: 00 hr 25 min 34 sec)
Heartbeat CPU 0 instructions: 215501428 cycles: 80592718 heartbeat IPC: 2.388 cumulative IPC: 2.599 (Simulation time: 00 hr 25 min 37 sec)
Heartbeat CPU 0 instructions: 216001429 cycles: 80757775 heartbeat IPC: 3.029 cumulative IPC: 2.6 (Simulation time: 00 hr 25 min 40 sec)
Heartbeat CPU 0 instructions: 216501433 cycles: 80966285 heartbeat IPC: 2.398 cumulative IPC: 2.599 (Simulation time: 00 hr 25 min 44 sec)
Heartbeat CPU 0 instructions: 217001435 cycles: 81173521 heartbeat IPC: 2.413 cumulative IPC: 2.599 (Simulation time: 00 hr 25 min 48 sec)
Heartbeat CPU 0 instructions: 217501439 cycles: 81337128 heartbeat IPC: 3.056 cumulative IPC: 2.6 (Simulation time: 00 hr 25 min 51 sec)
Heartbeat CPU 0 instructions: 218001441 cycles: 81544535 heartbeat IPC: 2.411 cumulative IPC: 2.599 (Simulation time: 00 hr 25 min 54 sec)
Heartbeat CPU 0 instructions: 218501445 cycles: 81753911 heartbeat IPC: 2.388 cumulative IPC: 2.599 (Simulation time: 00 hr 25 min 58 sec)
Heartbeat CPU 0 instructions: 219001449 cycles: 81920312 heartbeat IPC: 3.005 cumulative IPC: 2.6 (Simulation time: 00 hr 26 min 01 sec)
Heartbeat CPU 0 instructions: 219501453 cycles: 82127581 heartbeat IPC: 2.412 cumulative IPC: 2.599 (Simulation time: 00 hr 26 min 05 sec)
Heartbeat CPU 0 instructions: 220001458 cycles: 82335104 heartbeat IPC: 2.409 cumulative IPC: 2.599 (Simulation time: 00 hr 26 min 08 sec)
Heartbeat CPU 0 instructions: 220501464 cycles: 82499266 heartbeat IPC: 3.046 cumulative IPC: 2.6 (Simulation time: 00 hr 26 min 11 sec)
Heartbeat CPU 0 instructions: 221001464 cycles: 82706080 heartbeat IPC: 2.418 cumulative IPC: 2.599 (Simulation time: 00 hr 26 min 15 sec)
Heartbeat CPU 0 instructions: 221501470 cycles: 82913174 heartbeat IPC: 2.414 cumulative IPC: 2.599 (Simulation time: 00 hr 26 min 19 sec)
Heartbeat CPU 0 instructions: 222001473 cycles: 83076479 heartbeat IPC: 3.062 cumulative IPC: 2.6 (Simulation time: 00 hr 26 min 22 sec)
Heartbeat CPU 0 instructions: 222501478 cycles: 83284053 heartbeat IPC: 2.409 cumulative IPC: 2.599 (Simulation time: 00 hr 26 min 25 sec)
Heartbeat CPU 0 instructions: 223001480 cycles: 83490640 heartbeat IPC: 2.42 cumulative IPC: 2.599 (Simulation time: 00 hr 26 min 29 sec)
Heartbeat CPU 0 instructions: 223501484 cycles: 83654071 heartbeat IPC: 3.059 cumulative IPC: 2.6 (Simulation time: 00 hr 26 min 32 sec)
Heartbeat CPU 0 instructions: 224001488 cycles: 83863088 heartbeat IPC: 2.392 cumulative IPC: 2.599 (Simulation time: 00 hr 26 min 35 sec)
Heartbeat CPU 0 instructions: 224501492 cycles: 84073046 heartbeat IPC: 2.381 cumulative IPC: 2.598 (Simulation time: 00 hr 26 min 39 sec)
Heartbeat CPU 0 instructions: 225001493 cycles: 84238110 heartbeat IPC: 3.029 cumulative IPC: 2.599 (Simulation time: 00 hr 26 min 42 sec)
Heartbeat CPU 0 instructions: 225501495 cycles: 84446097 heartbeat IPC: 2.404 cumulative IPC: 2.599 (Simulation time: 00 hr 26 min 46 sec)
Heartbeat CPU 0 instructions: 226001496 cycles: 84650988 heartbeat IPC: 2.44 cumulative IPC: 2.598 (Simulation time: 00 hr 26 min 49 sec)
Heartbeat CPU 0 instructions: 226501500 cycles: 84814543 heartbeat IPC: 3.057 cumulative IPC: 2.599 (Simulation time: 00 hr 26 min 52 sec)
Heartbeat CPU 0 instructions: 227001502 cycles: 85020352 heartbeat IPC: 2.429 cumulative IPC: 2.599 (Simulation time: 00 hr 26 min 56 sec)
Heartbeat CPU 0 instructions: 227501507 cycles: 85222831 heartbeat IPC: 2.469 cumulative IPC: 2.599 (Simulation time: 00 hr 26 min 59 sec)
Heartbeat CPU 0 instructions: 228001510 cycles: 85385719 heartbeat IPC: 3.07 cumulative IPC: 2.6 (Simulation time: 00 hr 27 min 02 sec)
Heartbeat CPU 0 instructions: 228501510 cycles: 85587028 heartbeat IPC: 2.484 cumulative IPC: 2.599 (Simulation time: 00 hr 27 min 06 sec)
Heartbeat CPU 0 instructions: 229001517 cycles: 85785140 heartbeat IPC: 2.524 cumulative IPC: 2.599 (Simulation time: 00 hr 27 min 09 sec)
Heartbeat CPU 0 instructions: 229501523 cycles: 85948178 heartbeat IPC: 3.067 cumulative IPC: 2.6 (Simulation time: 00 hr 27 min 12 sec)
Heartbeat CPU 0 instructions: 230001529 cycles: 86144145 heartbeat IPC: 2.551 cumulative IPC: 2.6 (Simulation time: 00 hr 27 min 15 sec)
Heartbeat CPU 0 instructions: 230501529 cycles: 86333232 heartbeat IPC: 2.644 cumulative IPC: 2.6 (Simulation time: 00 hr 27 min 18 sec)
Heartbeat CPU 0 instructions: 231001535 cycles: 86500527 heartbeat IPC: 2.989 cumulative IPC: 2.601 (Simulation time: 00 hr 27 min 21 sec)
Heartbeat CPU 0 instructions: 231501535 cycles: 86690492 heartbeat IPC: 2.632 cumulative IPC: 2.601 (Simulation time: 00 hr 27 min 25 sec)
Heartbeat CPU 0 instructions: 232001539 cycles: 86872884 heartbeat IPC: 2.741 cumulative IPC: 2.602 (Simulation time: 00 hr 27 min 28 sec)
Heartbeat CPU 0 instructions: 232501539 cycles: 87044052 heartbeat IPC: 2.921 cumulative IPC: 2.602 (Simulation time: 00 hr 27 min 31 sec)
Heartbeat CPU 0 instructions: 233001542 cycles: 87231966 heartbeat IPC: 2.661 cumulative IPC: 2.603 (Simulation time: 00 hr 27 min 34 sec)
Heartbeat CPU 0 instructions: 233501549 cycles: 87409557 heartbeat IPC: 2.815 cumulative IPC: 2.603 (Simulation time: 00 hr 27 min 37 sec)
Heartbeat CPU 0 instructions: 234001550 cycles: 87581736 heartbeat IPC: 2.904 cumulative IPC: 2.604 (Simulation time: 00 hr 27 min 40 sec)
Heartbeat CPU 0 instructions: 234501554 cycles: 87766884 heartbeat IPC: 2.701 cumulative IPC: 2.604 (Simulation time: 00 hr 27 min 43 sec)
Heartbeat CPU 0 instructions: 235001558 cycles: 87948916 heartbeat IPC: 2.747 cumulative IPC: 2.604 (Simulation time: 00 hr 27 min 46 sec)
Heartbeat CPU 0 instructions: 235501565 cycles: 88134051 heartbeat IPC: 2.701 cumulative IPC: 2.605 (Simulation time: 00 hr 27 min 49 sec)
Heartbeat CPU 0 instructions: 236001567 cycles: 88342185 heartbeat IPC: 2.402 cumulative IPC: 2.604 (Simulation time: 00 hr 27 min 53 sec)
Heartbeat CPU 0 instructions: 236501569 cycles: 88525846 heartbeat IPC: 2.722 cumulative IPC: 2.604 (Simulation time: 00 hr 27 min 56 sec)
Heartbeat CPU 0 instructions: 237001573 cycles: 88715353 heartbeat IPC: 2.638 cumulative IPC: 2.604 (Simulation time: 00 hr 27 min 59 sec)
Heartbeat CPU 0 instructions: 237501574 cycles: 88922029 heartbeat IPC: 2.419 cumulative IPC: 2.604 (Simulation time: 00 hr 28 min 03 sec)
Heartbeat CPU 0 instructions: 238001578 cycles: 89100251 heartbeat IPC: 2.806 cumulative IPC: 2.604 (Simulation time: 00 hr 28 min 06 sec)
Heartbeat CPU 0 instructions: 238501584 cycles: 89294251 heartbeat IPC: 2.577 cumulative IPC: 2.604 (Simulation time: 00 hr 28 min 09 sec)
Heartbeat CPU 0 instructions: 239001586 cycles: 89499504 heartbeat IPC: 2.436 cumulative IPC: 2.604 (Simulation time: 00 hr 28 min 13 sec)
Heartbeat CPU 0 instructions: 239501586 cycles: 89671483 heartbeat IPC: 2.907 cumulative IPC: 2.605 (Simulation time: 00 hr 28 min 16 sec)
Heartbeat CPU 0 instructions: 240001586 cycles: 89866660 heartbeat IPC: 2.562 cumulative IPC: 2.604 (Simulation time: 00 hr 28 min 19 sec)
Heartbeat CPU 0 instructions: 240501586 cycles: 90071829 heartbeat IPC: 2.437 cumulative IPC: 2.604 (Simulation time: 00 hr 28 min 22 sec)
Heartbeat CPU 0 instructions: 241001587 cycles: 90239308 heartbeat IPC: 2.985 cumulative IPC: 2.605 (Simulation time: 00 hr 28 min 25 sec)
Heartbeat CPU 0 instructions: 241501594 cycles: 90441982 heartbeat IPC: 2.467 cumulative IPC: 2.604 (Simulation time: 00 hr 28 min 29 sec)
Heartbeat CPU 0 instructions: 242001595 cycles: 90646334 heartbeat IPC: 2.447 cumulative IPC: 2.604 (Simulation time: 00 hr 28 min 32 sec)
Heartbeat CPU 0 instructions: 242501599 cycles: 90809332 heartbeat IPC: 3.068 cumulative IPC: 2.605 (Simulation time: 00 hr 28 min 35 sec)
Heartbeat CPU 0 instructions: 243001606 cycles: 91014310 heartbeat IPC: 2.439 cumulative IPC: 2.605 (Simulation time: 00 hr 28 min 38 sec)
Heartbeat CPU 0 instructions: 243501606 cycles: 91221272 heartbeat IPC: 2.416 cumulative IPC: 2.604 (Simulation time: 00 hr 28 min 42 sec)
Heartbeat CPU 0 instructions: 244001608 cycles: 91384250 heartbeat IPC: 3.068 cumulative IPC: 2.605 (Simulation time: 00 hr 28 min 45 sec)
Heartbeat CPU 0 instructions: 244501611 cycles: 91590778 heartbeat IPC: 2.421 cumulative IPC: 2.605 (Simulation time: 00 hr 28 min 48 sec)
Heartbeat CPU 0 instructions: 245001618 cycles: 91798484 heartbeat IPC: 2.407 cumulative IPC: 2.604 (Simulation time: 00 hr 28 min 52 sec)
Heartbeat CPU 0 instructions: 245501622 cycles: 91961651 heartbeat IPC: 3.064 cumulative IPC: 2.605 (Simulation time: 00 hr 28 min 55 sec)
Heartbeat CPU 0 instructions: 246001629 cycles: 92168995 heartbeat IPC: 2.411 cumulative IPC: 2.605 (Simulation time: 00 hr 28 min 58 sec)
Heartbeat CPU 0 instructions: 246501633 cycles: 92375569 heartbeat IPC: 2.42 cumulative IPC: 2.604 (Simulation time: 00 hr 29 min 02 sec)
Heartbeat CPU 0 instructions: 247001636 cycles: 92539492 heartbeat IPC: 3.05 cumulative IPC: 2.605 (Simulation time: 00 hr 29 min 05 sec)
Heartbeat CPU 0 instructions: 247501639 cycles: 92747651 heartbeat IPC: 2.402 cumulative IPC: 2.604 (Simulation time: 00 hr 29 min 08 sec)
Heartbeat CPU 0 instructions: 248001645 cycles: 92955475 heartbeat IPC: 2.406 cumulative IPC: 2.604 (Simulation time: 00 hr 29 min 12 sec)
Heartbeat CPU 0 instructions: 248501647 cycles: 93118900 heartbeat IPC: 3.06 cumulative IPC: 2.605 (Simulation time: 00 hr 29 min 15 sec)
Heartbeat CPU 0 instructions: 249001649 cycles: 93325865 heartbeat IPC: 2.416 cumulative IPC: 2.604 (Simulation time: 00 hr 29 min 18 sec)
Heartbeat CPU 0 instructions: 249501653 cycles: 93531742 heartbeat IPC: 2.429 cumulative IPC: 2.604 (Simulation time: 00 hr 29 min 22 sec)
Simulation finished CPU 0 instructions: 200000002 cycles: 76783379 cumulative IPC: 2.605 (Simulation time: 00 hr 29 min 25 sec)
Simulation complete CPU 0 instructions: 200000002 cycles: 76783379 cumulative IPC: 2.605 (Simulation time: 00 hr 29 min 25 sec)

ChampSim completed all CPUs

=== Simulation ===
CPU 0 runs /local-ssd/ben/dpc4-traces/ai-ml/stable-diffusion.cpp-v2-1_768-nonema-pruned.2.champsimtrace.gz

Region of Interest Statistics

CPU 0 cumulative IPC: 2.605 instructions: 200000002 cycles: 76783379
CPU 0 Branch Prediction Accuracy: 99.43% MPKI: 0.3627 Average ROB Occupancy at Mispredict: 528.5
Branch type MPKI
BRANCH_DIRECT_JUMP: 0
BRANCH_INDIRECT: 0
BRANCH_CONDITIONAL: 0.3627
BRANCH_DIRECT_CALL: 0
BRANCH_INDIRECT_CALL: 0
BRANCH_RETURN: 0

cpu0->cpu0_STLB TOTAL        ACCESS:     426352 HIT:     402069 MISS:      24283 MSHR_MERGE:          0
cpu0->cpu0_STLB LOAD         ACCESS:     426352 HIT:     402069 MISS:      24283 MSHR_MERGE:          0
cpu0->cpu0_STLB RFO          ACCESS:          0 HIT:          0 MISS:          0 MSHR_MERGE:          0
cpu0->cpu0_STLB PREFETCH     ACCESS:          0 HIT:          0 MISS:          0 MSHR_MERGE:          0
cpu0->cpu0_STLB WRITE        ACCESS:          0 HIT:          0 MISS:          0 MSHR_MERGE:          0
cpu0->cpu0_STLB TRANSLATION  ACCESS:          0 HIT:          0 MISS:          0 MSHR_MERGE:          0
cpu0->cpu0_STLB PREFETCH REQUESTED:          0 ISSUED:          0 USEFUL:          0 USELESS:          0
cpu0->cpu0_STLB AVERAGE MISS LATENCY: 47.79 cycles
cpu0->cpu0_L2C TOTAL        ACCESS:   53033633 HIT:   47829557 MISS:    5204076 MSHR_MERGE:    3631996
cpu0->cpu0_L2C LOAD         ACCESS:   21138642 HIT:   19696107 MISS:    1442535 MSHR_MERGE:    1148603
cpu0->cpu0_L2C RFO          ACCESS:      44833 HIT:      40582 MISS:       4251 MSHR_MERGE:          0
cpu0->cpu0_L2C PREFETCH     ACCESS:   31764710 HIT:   28010472 MISS:    3754238 MSHR_MERGE:    2483393
cpu0->cpu0_L2C WRITE        ACCESS:      82025 HIT:      82025 MISS:          0 MSHR_MERGE:          0
cpu0->cpu0_L2C TRANSLATION  ACCESS:       3423 HIT:        371 MISS:       3052 MSHR_MERGE:          0
cpu0->cpu0_L2C PREFETCH REQUESTED:   37936907 ISSUED:   26162087 USEFUL:    1232160 USELESS:       1084
cpu0->cpu0_L2C AVERAGE MISS LATENCY: 139.9 cycles
cpu0->cpu0_L1I TOTAL        ACCESS:   46959226 HIT:   46959226 MISS:          0 MSHR_MERGE:          0
cpu0->cpu0_L1I LOAD         ACCESS:   46959226 HIT:   46959226 MISS:          0 MSHR_MERGE:          0
cpu0->cpu0_L1I RFO          ACCESS:          0 HIT:          0 MISS:          0 MSHR_MERGE:          0
cpu0->cpu0_L1I PREFETCH     ACCESS:          0 HIT:          0 MISS:          0 MSHR_MERGE:          0
cpu0->cpu0_L1I WRITE        ACCESS:          0 HIT:          0 MISS:          0 MSHR_MERGE:          0
cpu0->cpu0_L1I TRANSLATION  ACCESS:          0 HIT:          0 MISS:          0 MSHR_MERGE:          0
cpu0->cpu0_L1I PREFETCH REQUESTED:          0 ISSUED:          0 USEFUL:          0 USELESS:          0
cpu0->cpu0_L1I AVERAGE MISS LATENCY: - cycles
cpu0->cpu0_L1D TOTAL        ACCESS:   77279711 HIT:   45421637 MISS:   31858074 MSHR_MERGE:    5067807
cpu0->cpu0_L1D LOAD         ACCESS:   60150056 HIT:   36552361 MISS:   23597695 MSHR_MERGE:    2458599
cpu0->cpu0_L1D RFO          ACCESS:          0 HIT:          0 MISS:          0 MSHR_MERGE:          0
cpu0->cpu0_L1D PREFETCH     ACCESS:   16761750 HIT:    8554868 MISS:    8206882 MSHR_MERGE:    2604271
cpu0->cpu0_L1D WRITE        ACCESS:     319342 HIT:     269272 MISS:      50070 MSHR_MERGE:       4933
cpu0->cpu0_L1D TRANSLATION  ACCESS:      48563 HIT:      45136 MISS:       3427 MSHR_MERGE:          4
cpu0->cpu0_L1D PREFETCH REQUESTED:   31395859 ISSUED:   16761746 USEFUL:    5504944 USELESS:      97674
cpu0->cpu0_L1D AVERAGE MISS LATENCY: 17.18 cycles
cpu0->cpu0_ITLB TOTAL        ACCESS:   29997609 HIT:   29997609 MISS:          0 MSHR_MERGE:          0
cpu0->cpu0_ITLB LOAD         ACCESS:   29997609 HIT:   29997609 MISS:          0 MSHR_MERGE:          0
cpu0->cpu0_ITLB RFO          ACCESS:          0 HIT:          0 MISS:          0 MSHR_MERGE:          0
cpu0->cpu0_ITLB PREFETCH     ACCESS:          0 HIT:          0 MISS:          0 MSHR_MERGE:          0
cpu0->cpu0_ITLB WRITE        ACCESS:          0 HIT:          0 MISS:          0 MSHR_MERGE:          0
cpu0->cpu0_ITLB TRANSLATION  ACCESS:          0 HIT:          0 MISS:          0 MSHR_MERGE:          0
cpu0->cpu0_ITLB PREFETCH REQUESTED:          0 ISSUED:          0 USEFUL:          0 USELESS:          0
cpu0->cpu0_ITLB AVERAGE MISS LATENCY: - cycles
cpu0->cpu0_DTLB TOTAL        ACCESS:   62533044 HIT:   61377142 MISS:    1155902 MSHR_MERGE:     729550
cpu0->cpu0_DTLB LOAD         ACCESS:   62533044 HIT:   61377142 MISS:    1155902 MSHR_MERGE:     729550
cpu0->cpu0_DTLB RFO          ACCESS:          0 HIT:          0 MISS:          0 MSHR_MERGE:          0
cpu0->cpu0_DTLB PREFETCH     ACCESS:          0 HIT:          0 MISS:          0 MSHR_MERGE:          0
cpu0->cpu0_DTLB WRITE        ACCESS:          0 HIT:          0 MISS:          0 MSHR_MERGE:          0
cpu0->cpu0_DTLB TRANSLATION  ACCESS:          0 HIT:          0 MISS:          0 MSHR_MERGE:          0
cpu0->cpu0_DTLB PREFETCH REQUESTED:          0 ISSUED:          0 USEFUL:          0 USELESS:          0
cpu0->cpu0_DTLB AVERAGE MISS LATENCY: 7.779 cycles
cpu0->LLC TOTAL        ACCESS:    3090356 HIT:     250265 MISS:    2840091 MSHR_MERGE:    1382134
cpu0->LLC LOAD         ACCESS:     293932 HIT:      51571 MISS:     242361 MSHR_MERGE:      74194
cpu0->LLC RFO          ACCESS:       4251 HIT:          0 MISS:       4251 MSHR_MERGE:          0
cpu0->LLC PREFETCH     ACCESS:    2784881 HIT:     197179 MISS:    2587702 MSHR_MERGE:    1307940
cpu0->LLC WRITE        ACCESS:       4240 HIT:       1291 MISS:       2949 MSHR_MERGE:          0
cpu0->LLC TRANSLATION  ACCESS:       3052 HIT:        224 MISS:       2828 MSHR_MERGE:          0
cpu0->LLC PREFETCH REQUESTED:    1521542 ISSUED:    1514036 USEFUL:     105878 USELESS:     978886
cpu0->LLC AVERAGE MISS LATENCY: 213.7 cycles

DRAM Statistics

Channel 0 RQ ROW_BUFFER_HIT:     675807
  ROW_BUFFER_MISS:     779201
  AVG DBUS CONGESTED CYCLE: 4.149
Channel 0 WQ ROW_BUFFER_HIT:       1675
  ROW_BUFFER_MISS:       1924
  FULL:          0
Channel 0 REFRESHES ISSUED:       6398
