[VMEM] WARNING: physical memory size is smaller than virtual memory size.

*** ChampSim Multicore Out-of-Order Simulator ***
Warmup Instructions: 50000000
Simulation Instructions: 200000000
Number of CPUs: 1
Page size: 4096
Core 0: /local-ssd/ben/dpc4-traces/ai-ml/vit.cpp-large-ggml-model-f16.gguf.armadillo.1.champsimtrace.gz
 L1D Berti prefetcher
Off-chip DRAM Size: 64 GiB Channels: 1 Width: 64-bit Data Rate: 4807 MT/s
Heartbeat CPU 0 instructions: 500001 cycles: 138883 heartbeat IPC: 3.6 cumulative IPC: 3.6 (Simulation time: 00 hr 00 min 03 sec)
Heartbeat CPU 0 instructions: 1000002 cycles: 268239 heartbeat IPC: 3.865 cumulative IPC: 3.728 (Simulation time: 00 hr 00 min 05 sec)
Heartbeat CPU 0 instructions: 1500004 cycles: 394707 heartbeat IPC: 3.954 cumulative IPC: 3.8 (Simulation time: 00 hr 00 min 08 sec)
Heartbeat CPU 0 instructions: 2000010 cycles: 522860 heartbeat IPC: 3.902 cumulative IPC: 3.825 (Simulation time: 00 hr 00 min 10 sec)
Heartbeat CPU 0 instructions: 2500012 cycles: 652686 heartbeat IPC: 3.851 cumulative IPC: 3.83 (Simulation time: 00 hr 00 min 13 sec)
Heartbeat CPU 0 instructions: 3000019 cycles: 785188 heartbeat IPC: 3.774 cumulative IPC: 3.821 (Simulation time: 00 hr 00 min 15 sec)
Heartbeat CPU 0 instructions: 3500020 cycles: 915184 heartbeat IPC: 3.846 cumulative IPC: 3.824 (Simulation time: 00 hr 00 min 18 sec)
Heartbeat CPU 0 instructions: 4000027 cycles: 1044630 heartbeat IPC: 3.863 cumulative IPC: 3.829 (Simulation time: 00 hr 00 min 20 sec)
Heartbeat CPU 0 instructions: 4500032 cycles: 1174106 heartbeat IPC: 3.862 cumulative IPC: 3.833 (Simulation time: 00 hr 00 min 23 sec)
Heartbeat CPU 0 instructions: 5000034 cycles: 1303428 heartbeat IPC: 3.866 cumulative IPC: 3.836 (Simulation time: 00 hr 00 min 25 sec)
Heartbeat CPU 0 instructions: 5500035 cycles: 1432800 heartbeat IPC: 3.865 cumulative IPC: 3.839 (Simulation time: 00 hr 00 min 28 sec)
Heartbeat CPU 0 instructions: 6000036 cycles: 1562140 heartbeat IPC: 3.866 cumulative IPC: 3.841 (Simulation time: 00 hr 00 min 31 sec)
Heartbeat CPU 0 instructions: 6500042 cycles: 1691393 heartbeat IPC: 3.868 cumulative IPC: 3.843 (Simulation time: 00 hr 00 min 33 sec)
Heartbeat CPU 0 instructions: 7000047 cycles: 1820689 heartbeat IPC: 3.867 cumulative IPC: 3.845 (Simulation time: 00 hr 00 min 36 sec)
Heartbeat CPU 0 instructions: 7500048 cycles: 1950243 heartbeat IPC: 3.859 cumulative IPC: 3.846 (Simulation time: 00 hr 00 min 38 sec)
Heartbeat CPU 0 instructions: 8000050 cycles: 2079857 heartbeat IPC: 3.858 cumulative IPC: 3.846 (Simulation time: 00 hr 00 min 41 sec)
Heartbeat CPU 0 instructions: 8500050 cycles: 2209083 heartbeat IPC: 3.869 cumulative IPC: 3.848 (Simulation time: 00 hr 00 min 43 sec)
Heartbeat CPU 0 instructions: 9000050 cycles: 2334479 heartbeat IPC: 3.987 cumulative IPC: 3.855 (Simulation time: 00 hr 00 min 46 sec)
Heartbeat CPU 0 instructions: 9500055 cycles: 2463627 heartbeat IPC: 3.872 cumulative IPC: 3.856 (Simulation time: 00 hr 00 min 49 sec)
Heartbeat CPU 0 instructions: 10000062 cycles: 2592852 heartbeat IPC: 3.869 cumulative IPC: 3.857 (Simulation time: 00 hr 00 min 51 sec)
Heartbeat CPU 0 instructions: 10500068 cycles: 2722191 heartbeat IPC: 3.866 cumulative IPC: 3.857 (Simulation time: 00 hr 00 min 54 sec)
Heartbeat CPU 0 instructions: 11000070 cycles: 2851436 heartbeat IPC: 3.869 cumulative IPC: 3.858 (Simulation time: 00 hr 00 min 56 sec)
Heartbeat CPU 0 instructions: 11500076 cycles: 2980715 heartbeat IPC: 3.868 cumulative IPC: 3.858 (Simulation time: 00 hr 00 min 59 sec)
Heartbeat CPU 0 instructions: 12000076 cycles: 3109948 heartbeat IPC: 3.869 cumulative IPC: 3.859 (Simulation time: 00 hr 01 min 01 sec)
Heartbeat CPU 0 instructions: 12500076 cycles: 3239403 heartbeat IPC: 3.862 cumulative IPC: 3.859 (Simulation time: 00 hr 01 min 04 sec)
Heartbeat CPU 0 instructions: 13000076 cycles: 3368701 heartbeat IPC: 3.867 cumulative IPC: 3.859 (Simulation time: 00 hr 01 min 07 sec)
Heartbeat CPU 0 instructions: 13500078 cycles: 3497874 heartbeat IPC: 3.871 cumulative IPC: 3.86 (Simulation time: 00 hr 01 min 09 sec)
Heartbeat CPU 0 instructions: 14000082 cycles: 3627076 heartbeat IPC: 3.87 cumulative IPC: 3.86 (Simulation time: 00 hr 01 min 12 sec)
Heartbeat CPU 0 instructions: 14500088 cycles: 3756506 heartbeat IPC: 3.863 cumulative IPC: 3.86 (Simulation time: 00 hr 01 min 14 sec)
Heartbeat CPU 0 instructions: 15000093 cycles: 3885650 heartbeat IPC: 3.872 cumulative IPC: 3.86 (Simulation time: 00 hr 01 min 17 sec)
Heartbeat CPU 0 instructions: 15500094 cycles: 4015308 heartbeat IPC: 3.856 cumulative IPC: 3.86 (Simulation time: 00 hr 01 min 19 sec)
Heartbeat CPU 0 instructions: 16000100 cycles: 4143406 heartbeat IPC: 3.903 cumulative IPC: 3.862 (Simulation time: 00 hr 01 min 22 sec)
Heartbeat CPU 0 instructions: 16500102 cycles: 4269777 heartbeat IPC: 3.957 cumulative IPC: 3.864 (Simulation time: 00 hr 01 min 25 sec)
Heartbeat CPU 0 instructions: 17000106 cycles: 4398997 heartbeat IPC: 3.869 cumulative IPC: 3.865 (Simulation time: 00 hr 01 min 27 sec)
Heartbeat CPU 0 instructions: 17500112 cycles: 4528422 heartbeat IPC: 3.863 cumulative IPC: 3.865 (Simulation time: 00 hr 01 min 30 sec)
Heartbeat CPU 0 instructions: 18000119 cycles: 4657373 heartbeat IPC: 3.877 cumulative IPC: 3.865 (Simulation time: 00 hr 01 min 32 sec)
Heartbeat CPU 0 instructions: 18500119 cycles: 4786621 heartbeat IPC: 3.869 cumulative IPC: 3.865 (Simulation time: 00 hr 01 min 35 sec)
Heartbeat CPU 0 instructions: 19000125 cycles: 4916056 heartbeat IPC: 3.863 cumulative IPC: 3.865 (Simulation time: 00 hr 01 min 37 sec)
Heartbeat CPU 0 instructions: 19500127 cycles: 5045617 heartbeat IPC: 3.859 cumulative IPC: 3.865 (Simulation time: 00 hr 01 min 40 sec)
Heartbeat CPU 0 instructions: 20000128 cycles: 5174966 heartbeat IPC: 3.866 cumulative IPC: 3.865 (Simulation time: 00 hr 01 min 43 sec)
Heartbeat CPU 0 instructions: 20500128 cycles: 5304104 heartbeat IPC: 3.872 cumulative IPC: 3.865 (Simulation time: 00 hr 01 min 45 sec)
Heartbeat CPU 0 instructions: 21000132 cycles: 5433374 heartbeat IPC: 3.868 cumulative IPC: 3.865 (Simulation time: 00 hr 01 min 48 sec)
Heartbeat CPU 0 instructions: 21500135 cycles: 5562954 heartbeat IPC: 3.859 cumulative IPC: 3.865 (Simulation time: 00 hr 01 min 50 sec)
Heartbeat CPU 0 instructions: 22000139 cycles: 5692370 heartbeat IPC: 3.864 cumulative IPC: 3.865 (Simulation time: 00 hr 01 min 53 sec)
Heartbeat CPU 0 instructions: 22500146 cycles: 5821766 heartbeat IPC: 3.864 cumulative IPC: 3.865 (Simulation time: 00 hr 01 min 56 sec)
Heartbeat CPU 0 instructions: 23000150 cycles: 5950980 heartbeat IPC: 3.87 cumulative IPC: 3.865 (Simulation time: 00 hr 01 min 58 sec)
Heartbeat CPU 0 instructions: 23500154 cycles: 6077626 heartbeat IPC: 3.948 cumulative IPC: 3.867 (Simulation time: 00 hr 02 min 01 sec)
Heartbeat CPU 0 instructions: 24000160 cycles: 6205748 heartbeat IPC: 3.903 cumulative IPC: 3.867 (Simulation time: 00 hr 02 min 03 sec)
Heartbeat CPU 0 instructions: 24500161 cycles: 6335086 heartbeat IPC: 3.866 cumulative IPC: 3.867 (Simulation time: 00 hr 02 min 06 sec)
Heartbeat CPU 0 instructions: 25000161 cycles: 6464383 heartbeat IPC: 3.867 cumulative IPC: 3.867 (Simulation time: 00 hr 02 min 08 sec)
Heartbeat CPU 0 instructions: 25500164 cycles: 6593436 heartbeat IPC: 3.874 cumulative IPC: 3.868 (Simulation time: 00 hr 02 min 11 sec)
Heartbeat CPU 0 instructions: 26000164 cycles: 6722722 heartbeat IPC: 3.867 cumulative IPC: 3.868 (Simulation time: 00 hr 02 min 14 sec)
Heartbeat CPU 0 instructions: 26500170 cycles: 6852010 heartbeat IPC: 3.867 cumulative IPC: 3.868 (Simulation time: 00 hr 02 min 16 sec)
Heartbeat CPU 0 instructions: 27000175 cycles: 6981305 heartbeat IPC: 3.867 cumulative IPC: 3.867 (Simulation time: 00 hr 02 min 19 sec)
Heartbeat CPU 0 instructions: 27500177 cycles: 7110708 heartbeat IPC: 3.864 cumulative IPC: 3.867 (Simulation time: 00 hr 02 min 21 sec)
Heartbeat CPU 0 instructions: 28000182 cycles: 7239885 heartbeat IPC: 3.871 cumulative IPC: 3.867 (Simulation time: 00 hr 02 min 24 sec)
Heartbeat CPU 0 instructions: 28500187 cycles: 7369112 heartbeat IPC: 3.869 cumulative IPC: 3.868 (Simulation time: 00 hr 02 min 27 sec)
Heartbeat CPU 0 instructions: 29000189 cycles: 7498215 heartbeat IPC: 3.873 cumulative IPC: 3.868 (Simulation time: 00 hr 02 min 29 sec)
Heartbeat CPU 0 instructions: 29500190 cycles: 7627884 heartbeat IPC: 3.856 cumulative IPC: 3.867 (Simulation time: 00 hr 02 min 32 sec)
Heartbeat CPU 0 instructions: 30000197 cycles: 7757633 heartbeat IPC: 3.854 cumulative IPC: 3.867 (Simulation time: 00 hr 02 min 34 sec)
Heartbeat CPU 0 instructions: 30500199 cycles: 7886763 heartbeat IPC: 3.872 cumulative IPC: 3.867 (Simulation time: 00 hr 02 min 37 sec)
Heartbeat CPU 0 instructions: 31000200 cycles: 8012031 heartbeat IPC: 3.991 cumulative IPC: 3.869 (Simulation time: 00 hr 02 min 39 sec)
Heartbeat CPU 0 instructions: 31500201 cycles: 8141174 heartbeat IPC: 3.872 cumulative IPC: 3.869 (Simulation time: 00 hr 02 min 42 sec)
Heartbeat CPU 0 instructions: 32000201 cycles: 8270501 heartbeat IPC: 3.866 cumulative IPC: 3.869 (Simulation time: 00 hr 02 min 45 sec)
Heartbeat CPU 0 instructions: 32500203 cycles: 8399446 heartbeat IPC: 3.878 cumulative IPC: 3.869 (Simulation time: 00 hr 02 min 47 sec)
Heartbeat CPU 0 instructions: 33000204 cycles: 8528607 heartbeat IPC: 3.871 cumulative IPC: 3.869 (Simulation time: 00 hr 02 min 50 sec)
Heartbeat CPU 0 instructions: 33500207 cycles: 8657991 heartbeat IPC: 3.864 cumulative IPC: 3.869 (Simulation time: 00 hr 02 min 52 sec)
Heartbeat CPU 0 instructions: 34000211 cycles: 8787147 heartbeat IPC: 3.871 cumulative IPC: 3.869 (Simulation time: 00 hr 02 min 55 sec)
Heartbeat CPU 0 instructions: 34500212 cycles: 8912585 heartbeat IPC: 3.986 cumulative IPC: 3.871 (Simulation time: 00 hr 02 min 57 sec)
Heartbeat CPU 0 instructions: 35000215 cycles: 9037884 heartbeat IPC: 3.99 cumulative IPC: 3.873 (Simulation time: 00 hr 03 min 00 sec)
Heartbeat CPU 0 instructions: 35500215 cycles: 9163149 heartbeat IPC: 3.992 cumulative IPC: 3.874 (Simulation time: 00 hr 03 min 03 sec)
Heartbeat CPU 0 instructions: 36000221 cycles: 9288517 heartbeat IPC: 3.988 cumulative IPC: 3.876 (Simulation time: 00 hr 03 min 05 sec)
Heartbeat CPU 0 instructions: 36500226 cycles: 9413706 heartbeat IPC: 3.994 cumulative IPC: 3.877 (Simulation time: 00 hr 03 min 08 sec)
Heartbeat CPU 0 instructions: 37000227 cycles: 9539832 heartbeat IPC: 3.964 cumulative IPC: 3.878 (Simulation time: 00 hr 03 min 10 sec)
Heartbeat CPU 0 instructions: 37500234 cycles: 9668347 heartbeat IPC: 3.891 cumulative IPC: 3.879 (Simulation time: 00 hr 03 min 13 sec)
Heartbeat CPU 0 instructions: 38000236 cycles: 9793692 heartbeat IPC: 3.989 cumulative IPC: 3.88 (Simulation time: 00 hr 03 min 15 sec)
Heartbeat CPU 0 instructions: 38500243 cycles: 9919352 heartbeat IPC: 3.979 cumulative IPC: 3.881 (Simulation time: 00 hr 03 min 18 sec)
Heartbeat CPU 0 instructions: 39000248 cycles: 10044801 heartbeat IPC: 3.986 cumulative IPC: 3.883 (Simulation time: 00 hr 03 min 20 sec)
Heartbeat CPU 0 instructions: 39500251 cycles: 10170094 heartbeat IPC: 3.991 cumulative IPC: 3.884 (Simulation time: 00 hr 03 min 23 sec)
Heartbeat CPU 0 instructions: 40000256 cycles: 10295416 heartbeat IPC: 3.99 cumulative IPC: 3.885 (Simulation time: 00 hr 03 min 25 sec)
Heartbeat CPU 0 instructions: 40500262 cycles: 10420731 heartbeat IPC: 3.99 cumulative IPC: 3.887 (Simulation time: 00 hr 03 min 28 sec)
Heartbeat CPU 0 instructions: 41000263 cycles: 10546145 heartbeat IPC: 3.987 cumulative IPC: 3.888 (Simulation time: 00 hr 03 min 30 sec)
Heartbeat CPU 0 instructions: 41500269 cycles: 10671383 heartbeat IPC: 3.992 cumulative IPC: 3.889 (Simulation time: 00 hr 03 min 33 sec)
Heartbeat CPU 0 instructions: 42000273 cycles: 10796765 heartbeat IPC: 3.988 cumulative IPC: 3.89 (Simulation time: 00 hr 03 min 35 sec)
Heartbeat CPU 0 instructions: 42500275 cycles: 10922153 heartbeat IPC: 3.988 cumulative IPC: 3.891 (Simulation time: 00 hr 03 min 38 sec)
Heartbeat CPU 0 instructions: 43000276 cycles: 11047446 heartbeat IPC: 3.991 cumulative IPC: 3.892 (Simulation time: 00 hr 03 min 40 sec)
Heartbeat CPU 0 instructions: 43500279 cycles: 11172778 heartbeat IPC: 3.989 cumulative IPC: 3.893 (Simulation time: 00 hr 03 min 43 sec)
Heartbeat CPU 0 instructions: 44000279 cycles: 11298179 heartbeat IPC: 3.987 cumulative IPC: 3.894 (Simulation time: 00 hr 03 min 46 sec)
Heartbeat CPU 0 instructions: 44500282 cycles: 11423442 heartbeat IPC: 3.992 cumulative IPC: 3.896 (Simulation time: 00 hr 03 min 48 sec)
Heartbeat CPU 0 instructions: 45000282 cycles: 11548859 heartbeat IPC: 3.987 cumulative IPC: 3.897 (Simulation time: 00 hr 03 min 51 sec)
Heartbeat CPU 0 instructions: 45500283 cycles: 11674276 heartbeat IPC: 3.987 cumulative IPC: 3.897 (Simulation time: 00 hr 03 min 53 sec)
Heartbeat CPU 0 instructions: 46000284 cycles: 11799613 heartbeat IPC: 3.989 cumulative IPC: 3.898 (Simulation time: 00 hr 03 min 56 sec)
Heartbeat CPU 0 instructions: 46500288 cycles: 11924999 heartbeat IPC: 3.988 cumulative IPC: 3.899 (Simulation time: 00 hr 03 min 58 sec)
Heartbeat CPU 0 instructions: 47000289 cycles: 12050471 heartbeat IPC: 3.985 cumulative IPC: 3.9 (Simulation time: 00 hr 04 min 01 sec)
Heartbeat CPU 0 instructions: 47500294 cycles: 12175917 heartbeat IPC: 3.986 cumulative IPC: 3.901 (Simulation time: 00 hr 04 min 03 sec)
Heartbeat CPU 0 instructions: 48000298 cycles: 12301253 heartbeat IPC: 3.989 cumulative IPC: 3.902 (Simulation time: 00 hr 04 min 06 sec)
Heartbeat CPU 0 instructions: 48500304 cycles: 12426643 heartbeat IPC: 3.988 cumulative IPC: 3.903 (Simulation time: 00 hr 04 min 08 sec)
Heartbeat CPU 0 instructions: 49000306 cycles: 12552059 heartbeat IPC: 3.987 cumulative IPC: 3.904 (Simulation time: 00 hr 04 min 11 sec)
Heartbeat CPU 0 instructions: 49500307 cycles: 12677470 heartbeat IPC: 3.987 cumulative IPC: 3.905 (Simulation time: 00 hr 04 min 13 sec)
Warmup finished CPU 0 instructions: 50000006 cycles: 12802801 cumulative IPC: 3.905 (Simulation time: 00 hr 04 min 16 sec)
Warmup complete CPU 0 instructions: 50000006 cycles: 12802801 cumulative IPC: 3.905 (Simulation time: 00 hr 04 min 16 sec)
Heartbeat CPU 0 instructions: 50000310 cycles: 12802839 heartbeat IPC: 3.988 cumulative IPC: 8 (Simulation time: 00 hr 04 min 16 sec)
Heartbeat CPU 0 instructions: 50500311 cycles: 12947285 heartbeat IPC: 3.462 cumulative IPC: 3.463 (Simulation time: 00 hr 04 min 18 sec)
Heartbeat CPU 0 instructions: 51000317 cycles: 13091423 heartbeat IPC: 3.469 cumulative IPC: 3.466 (Simulation time: 00 hr 04 min 21 sec)
Heartbeat CPU 0 instructions: 51500318 cycles: 13235949 heartbeat IPC: 3.46 cumulative IPC: 3.464 (Simulation time: 00 hr 04 min 23 sec)
Heartbeat CPU 0 instructions: 52000323 cycles: 13378902 heartbeat IPC: 3.498 cumulative IPC: 3.472 (Simulation time: 00 hr 04 min 26 sec)
Heartbeat CPU 0 instructions: 52500329 cycles: 13523660 heartbeat IPC: 3.454 cumulative IPC: 3.469 (Simulation time: 00 hr 04 min 28 sec)
Heartbeat CPU 0 instructions: 53000334 cycles: 13653630 heartbeat IPC: 3.847 cumulative IPC: 3.526 (Simulation time: 00 hr 04 min 31 sec)
Heartbeat CPU 0 instructions: 53500334 cycles: 13796808 heartbeat IPC: 3.492 cumulative IPC: 3.521 (Simulation time: 00 hr 04 min 33 sec)
Heartbeat CPU 0 instructions: 54000337 cycles: 13940588 heartbeat IPC: 3.478 cumulative IPC: 3.516 (Simulation time: 00 hr 04 min 36 sec)
Heartbeat CPU 0 instructions: 54500339 cycles: 14082683 heartbeat IPC: 3.519 cumulative IPC: 3.516 (Simulation time: 00 hr 04 min 38 sec)
Heartbeat CPU 0 instructions: 55000340 cycles: 14226018 heartbeat IPC: 3.488 cumulative IPC: 3.513 (Simulation time: 00 hr 04 min 41 sec)
Heartbeat CPU 0 instructions: 55500345 cycles: 14370258 heartbeat IPC: 3.466 cumulative IPC: 3.509 (Simulation time: 00 hr 04 min 43 sec)
Heartbeat CPU 0 instructions: 56000348 cycles: 14512937 heartbeat IPC: 3.504 cumulative IPC: 3.509 (Simulation time: 00 hr 04 min 46 sec)
Heartbeat CPU 0 instructions: 56500352 cycles: 14655919 heartbeat IPC: 3.497 cumulative IPC: 3.508 (Simulation time: 00 hr 04 min 48 sec)
Heartbeat CPU 0 instructions: 57000352 cycles: 14800598 heartbeat IPC: 3.456 cumulative IPC: 3.504 (Simulation time: 00 hr 04 min 51 sec)
Heartbeat CPU 0 instructions: 57500355 cycles: 14943944 heartbeat IPC: 3.488 cumulative IPC: 3.503 (Simulation time: 00 hr 04 min 53 sec)
Heartbeat CPU 0 instructions: 58000361 cycles: 15087433 heartbeat IPC: 3.485 cumulative IPC: 3.502 (Simulation time: 00 hr 04 min 56 sec)
Heartbeat CPU 0 instructions: 58500366 cycles: 15230731 heartbeat IPC: 3.489 cumulative IPC: 3.501 (Simulation time: 00 hr 04 min 58 sec)
Heartbeat CPU 0 instructions: 59000371 cycles: 15373978 heartbeat IPC: 3.491 cumulative IPC: 3.5 (Simulation time: 00 hr 05 min 01 sec)
Heartbeat CPU 0 instructions: 59500377 cycles: 15517757 heartbeat IPC: 3.478 cumulative IPC: 3.499 (Simulation time: 00 hr 05 min 03 sec)
Heartbeat CPU 0 instructions: 60000382 cycles: 15657415 heartbeat IPC: 3.58 cumulative IPC: 3.503 (Simulation time: 00 hr 05 min 06 sec)
Heartbeat CPU 0 instructions: 60500388 cycles: 15788765 heartbeat IPC: 3.807 cumulative IPC: 3.517 (Simulation time: 00 hr 05 min 08 sec)
Heartbeat CPU 0 instructions: 61000394 cycles: 15932117 heartbeat IPC: 3.488 cumulative IPC: 3.515 (Simulation time: 00 hr 05 min 11 sec)
Heartbeat CPU 0 instructions: 61500399 cycles: 16075260 heartbeat IPC: 3.493 cumulative IPC: 3.514 (Simulation time: 00 hr 05 min 13 sec)
Heartbeat CPU 0 instructions: 62000400 cycles: 16218950 heartbeat IPC: 3.48 cumulative IPC: 3.513 (Simulation time: 00 hr 05 min 16 sec)
Heartbeat CPU 0 instructions: 62500403 cycles: 16361861 heartbeat IPC: 3.499 cumulative IPC: 3.512 (Simulation time: 00 hr 05 min 18 sec)
Heartbeat CPU 0 instructions: 63000407 cycles: 16505020 heartbeat IPC: 3.493 cumulative IPC: 3.512 (Simulation time: 00 hr 05 min 21 sec)
Heartbeat CPU 0 instructions: 63500412 cycles: 16647806 heartbeat IPC: 3.502 cumulative IPC: 3.511 (Simulation time: 00 hr 05 min 23 sec)
Heartbeat CPU 0 instructions: 64000414 cycles: 16790009 heartbeat IPC: 3.516 cumulative IPC: 3.511 (Simulation time: 00 hr 05 min 26 sec)
Heartbeat CPU 0 instructions: 64500419 cycles: 16933559 heartbeat IPC: 3.483 cumulative IPC: 3.51 (Simulation time: 00 hr 05 min 28 sec)
Heartbeat CPU 0 instructions: 65000425 cycles: 17077066 heartbeat IPC: 3.484 cumulative IPC: 3.509 (Simulation time: 00 hr 05 min 31 sec)
Heartbeat CPU 0 instructions: 65500426 cycles: 17219692 heartbeat IPC: 3.506 cumulative IPC: 3.509 (Simulation time: 00 hr 05 min 33 sec)
Heartbeat CPU 0 instructions: 66000431 cycles: 17363094 heartbeat IPC: 3.487 cumulative IPC: 3.509 (Simulation time: 00 hr 05 min 36 sec)
Heartbeat CPU 0 instructions: 66500433 cycles: 17506037 heartbeat IPC: 3.498 cumulative IPC: 3.508 (Simulation time: 00 hr 05 min 39 sec)
Heartbeat CPU 0 instructions: 67000434 cycles: 17649631 heartbeat IPC: 3.482 cumulative IPC: 3.508 (Simulation time: 00 hr 05 min 41 sec)
Heartbeat CPU 0 instructions: 67500434 cycles: 17784454 heartbeat IPC: 3.709 cumulative IPC: 3.513 (Simulation time: 00 hr 05 min 43 sec)
Heartbeat CPU 0 instructions: 68000437 cycles: 17921121 heartbeat IPC: 3.659 cumulative IPC: 3.517 (Simulation time: 00 hr 05 min 46 sec)
Heartbeat CPU 0 instructions: 68500439 cycles: 18064236 heartbeat IPC: 3.494 cumulative IPC: 3.516 (Simulation time: 00 hr 05 min 49 sec)
Heartbeat CPU 0 instructions: 69000444 cycles: 18207380 heartbeat IPC: 3.493 cumulative IPC: 3.516 (Simulation time: 00 hr 05 min 51 sec)
Heartbeat CPU 0 instructions: 69500449 cycles: 18349910 heartbeat IPC: 3.508 cumulative IPC: 3.515 (Simulation time: 00 hr 05 min 54 sec)
Heartbeat CPU 0 instructions: 70000449 cycles: 18491942 heartbeat IPC: 3.52 cumulative IPC: 3.516 (Simulation time: 00 hr 05 min 56 sec)
Heartbeat CPU 0 instructions: 70500452 cycles: 18634980 heartbeat IPC: 3.496 cumulative IPC: 3.515 (Simulation time: 00 hr 05 min 59 sec)
Heartbeat CPU 0 instructions: 71000454 cycles: 18777619 heartbeat IPC: 3.505 cumulative IPC: 3.515 (Simulation time: 00 hr 06 min 01 sec)
Heartbeat CPU 0 instructions: 71500454 cycles: 18930235 heartbeat IPC: 3.276 cumulative IPC: 3.509 (Simulation time: 00 hr 06 min 04 sec)
Heartbeat CPU 0 instructions: 72000460 cycles: 19084003 heartbeat IPC: 3.252 cumulative IPC: 3.503 (Simulation time: 00 hr 06 min 06 sec)
Heartbeat CPU 0 instructions: 72500465 cycles: 19227092 heartbeat IPC: 3.494 cumulative IPC: 3.502 (Simulation time: 00 hr 06 min 09 sec)
Heartbeat CPU 0 instructions: 73000465 cycles: 19370900 heartbeat IPC: 3.477 cumulative IPC: 3.502 (Simulation time: 00 hr 06 min 11 sec)
Heartbeat CPU 0 instructions: 73500472 cycles: 19512819 heartbeat IPC: 3.523 cumulative IPC: 3.502 (Simulation time: 00 hr 06 min 14 sec)
Heartbeat CPU 0 instructions: 74000477 cycles: 19654196 heartbeat IPC: 3.537 cumulative IPC: 3.503 (Simulation time: 00 hr 06 min 16 sec)
Heartbeat CPU 0 instructions: 74500479 cycles: 19796389 heartbeat IPC: 3.516 cumulative IPC: 3.503 (Simulation time: 00 hr 06 min 19 sec)
Heartbeat CPU 0 instructions: 75000484 cycles: 19926966 heartbeat IPC: 3.829 cumulative IPC: 3.509 (Simulation time: 00 hr 06 min 21 sec)
Heartbeat CPU 0 instructions: 75500486 cycles: 20065502 heartbeat IPC: 3.609 cumulative IPC: 3.511 (Simulation time: 00 hr 06 min 24 sec)
Heartbeat CPU 0 instructions: 76000487 cycles: 20205774 heartbeat IPC: 3.565 cumulative IPC: 3.512 (Simulation time: 00 hr 06 min 26 sec)
Heartbeat CPU 0 instructions: 76500488 cycles: 20345934 heartbeat IPC: 3.567 cumulative IPC: 3.513 (Simulation time: 00 hr 06 min 29 sec)
Heartbeat CPU 0 instructions: 77000491 cycles: 20486300 heartbeat IPC: 3.562 cumulative IPC: 3.514 (Simulation time: 00 hr 06 min 31 sec)
Heartbeat CPU 0 instructions: 77500495 cycles: 20625045 heartbeat IPC: 3.604 cumulative IPC: 3.516 (Simulation time: 00 hr 06 min 34 sec)
Heartbeat CPU 0 instructions: 78000497 cycles: 20764057 heartbeat IPC: 3.597 cumulative IPC: 3.517 (Simulation time: 00 hr 06 min 36 sec)
Heartbeat CPU 0 instructions: 78500498 cycles: 20903427 heartbeat IPC: 3.588 cumulative IPC: 3.518 (Simulation time: 00 hr 06 min 39 sec)
Heartbeat CPU 0 instructions: 79000504 cycles: 21043125 heartbeat IPC: 3.579 cumulative IPC: 3.519 (Simulation time: 00 hr 06 min 41 sec)
Heartbeat CPU 0 instructions: 79500509 cycles: 21185436 heartbeat IPC: 3.513 cumulative IPC: 3.519 (Simulation time: 00 hr 06 min 44 sec)
Heartbeat CPU 0 instructions: 80000511 cycles: 21323747 heartbeat IPC: 3.615 cumulative IPC: 3.521 (Simulation time: 00 hr 06 min 46 sec)
Heartbeat CPU 0 instructions: 80500512 cycles: 21462858 heartbeat IPC: 3.594 cumulative IPC: 3.522 (Simulation time: 00 hr 06 min 49 sec)
Heartbeat CPU 0 instructions: 81000517 cycles: 21602031 heartbeat IPC: 3.593 cumulative IPC: 3.523 (Simulation time: 00 hr 06 min 51 sec)
Heartbeat CPU 0 instructions: 81500523 cycles: 21741002 heartbeat IPC: 3.598 cumulative IPC: 3.524 (Simulation time: 00 hr 06 min 53 sec)
Heartbeat CPU 0 instructions: 82000524 cycles: 21878604 heartbeat IPC: 3.634 cumulative IPC: 3.526 (Simulation time: 00 hr 06 min 56 sec)
Heartbeat CPU 0 instructions: 82500526 cycles: 22008613 heartbeat IPC: 3.846 cumulative IPC: 3.53 (Simulation time: 00 hr 06 min 58 sec)
Heartbeat CPU 0 instructions: 83000528 cycles: 22146797 heartbeat IPC: 3.618 cumulative IPC: 3.532 (Simulation time: 00 hr 07 min 01 sec)
Heartbeat CPU 0 instructions: 83500528 cycles: 22285822 heartbeat IPC: 3.596 cumulative IPC: 3.533 (Simulation time: 00 hr 07 min 03 sec)
Heartbeat CPU 0 instructions: 84000530 cycles: 22425104 heartbeat IPC: 3.59 cumulative IPC: 3.534 (Simulation time: 00 hr 07 min 06 sec)
Heartbeat CPU 0 instructions: 84500531 cycles: 22563919 heartbeat IPC: 3.602 cumulative IPC: 3.534 (Simulation time: 00 hr 07 min 08 sec)
Heartbeat CPU 0 instructions: 85000532 cycles: 22710092 heartbeat IPC: 3.421 cumulative IPC: 3.533 (Simulation time: 00 hr 07 min 11 sec)
Heartbeat CPU 0 instructions: 85500534 cycles: 22854483 heartbeat IPC: 3.463 cumulative IPC: 3.532 (Simulation time: 00 hr 07 min 13 sec)
Heartbeat CPU 0 instructions: 86000540 cycles: 22997676 heartbeat IPC: 3.492 cumulative IPC: 3.531 (Simulation time: 00 hr 07 min 16 sec)
Heartbeat CPU 0 instructions: 86500541 cycles: 23141194 heartbeat IPC: 3.484 cumulative IPC: 3.531 (Simulation time: 00 hr 07 min 18 sec)
Heartbeat CPU 0 instructions: 87000548 cycles: 23285401 heartbeat IPC: 3.467 cumulative IPC: 3.53 (Simulation time: 00 hr 07 min 21 sec)
Heartbeat CPU 0 instructions: 87500548 cycles: 23428664 heartbeat IPC: 3.49 cumulative IPC: 3.529 (Simulation time: 00 hr 07 min 23 sec)
Heartbeat CPU 0 instructions: 88000551 cycles: 23572253 heartbeat IPC: 3.482 cumulative IPC: 3.529 (Simulation time: 00 hr 07 min 26 sec)
Heartbeat CPU 0 instructions: 88500555 cycles: 23715899 heartbeat IPC: 3.481 cumulative IPC: 3.528 (Simulation time: 00 hr 07 min 29 sec)
Heartbeat CPU 0 instructions: 89000560 cycles: 23859271 heartbeat IPC: 3.487 cumulative IPC: 3.527 (Simulation time: 00 hr 07 min 31 sec)
Heartbeat CPU 0 instructions: 89500562 cycles: 23996143 heartbeat IPC: 3.653 cumulative IPC: 3.529 (Simulation time: 00 hr 07 min 34 sec)
Heartbeat CPU 0 instructions: 90000567 cycles: 24132244 heartbeat IPC: 3.674 cumulative IPC: 3.531 (Simulation time: 00 hr 07 min 36 sec)
Heartbeat CPU 0 instructions: 90500568 cycles: 24276033 heartbeat IPC: 3.477 cumulative IPC: 3.53 (Simulation time: 00 hr 07 min 39 sec)
Heartbeat CPU 0 instructions: 91000574 cycles: 24418996 heartbeat IPC: 3.497 cumulative IPC: 3.53 (Simulation time: 00 hr 07 min 41 sec)
Heartbeat CPU 0 instructions: 91500579 cycles: 24562273 heartbeat IPC: 3.49 cumulative IPC: 3.529 (Simulation time: 00 hr 07 min 44 sec)
Heartbeat CPU 0 instructions: 92000581 cycles: 24706058 heartbeat IPC: 3.477 cumulative IPC: 3.528 (Simulation time: 00 hr 07 min 46 sec)
Heartbeat CPU 0 instructions: 92500586 cycles: 24850556 heartbeat IPC: 3.46 cumulative IPC: 3.528 (Simulation time: 00 hr 07 min 49 sec)
Heartbeat CPU 0 instructions: 93000592 cycles: 24992805 heartbeat IPC: 3.515 cumulative IPC: 3.528 (Simulation time: 00 hr 07 min 51 sec)
Heartbeat CPU 0 instructions: 93500593 cycles: 25136182 heartbeat IPC: 3.487 cumulative IPC: 3.527 (Simulation time: 00 hr 07 min 54 sec)
Heartbeat CPU 0 instructions: 94000598 cycles: 25280138 heartbeat IPC: 3.473 cumulative IPC: 3.526 (Simulation time: 00 hr 07 min 56 sec)
Heartbeat CPU 0 instructions: 94500604 cycles: 25422293 heartbeat IPC: 3.517 cumulative IPC: 3.526 (Simulation time: 00 hr 07 min 59 sec)
Heartbeat CPU 0 instructions: 95000605 cycles: 25565205 heartbeat IPC: 3.499 cumulative IPC: 3.526 (Simulation time: 00 hr 08 min 01 sec)
Heartbeat CPU 0 instructions: 95500608 cycles: 25709036 heartbeat IPC: 3.476 cumulative IPC: 3.525 (Simulation time: 00 hr 08 min 04 sec)
Heartbeat CPU 0 instructions: 96000613 cycles: 25852649 heartbeat IPC: 3.482 cumulative IPC: 3.525 (Simulation time: 00 hr 08 min 07 sec)
Heartbeat CPU 0 instructions: 96500617 cycles: 25995089 heartbeat IPC: 3.51 cumulative IPC: 3.525 (Simulation time: 00 hr 08 min 09 sec)
Heartbeat CPU 0 instructions: 97000617 cycles: 26127445 heartbeat IPC: 3.778 cumulative IPC: 3.527 (Simulation time: 00 hr 08 min 11 sec)
Heartbeat CPU 0 instructions: 97500621 cycles: 26267028 heartbeat IPC: 3.582 cumulative IPC: 3.528 (Simulation time: 00 hr 08 min 14 sec)
Heartbeat CPU 0 instructions: 98000622 cycles: 26409764 heartbeat IPC: 3.503 cumulative IPC: 3.528 (Simulation time: 00 hr 08 min 17 sec)
Heartbeat CPU 0 instructions: 98500627 cycles: 26552787 heartbeat IPC: 3.496 cumulative IPC: 3.527 (Simulation time: 00 hr 08 min 19 sec)
Heartbeat CPU 0 instructions: 99000633 cycles: 26696475 heartbeat IPC: 3.48 cumulative IPC: 3.527 (Simulation time: 00 hr 08 min 22 sec)
Heartbeat CPU 0 instructions: 99500638 cycles: 26839780 heartbeat IPC: 3.489 cumulative IPC: 3.526 (Simulation time: 00 hr 08 min 24 sec)
Heartbeat CPU 0 instructions: 100000640 cycles: 26982974 heartbeat IPC: 3.492 cumulative IPC: 3.526 (Simulation time: 00 hr 08 min 27 sec)
Heartbeat CPU 0 instructions: 100500645 cycles: 27125709 heartbeat IPC: 3.503 cumulative IPC: 3.526 (Simulation time: 00 hr 08 min 29 sec)
Heartbeat CPU 0 instructions: 101000649 cycles: 27269104 heartbeat IPC: 3.487 cumulative IPC: 3.525 (Simulation time: 00 hr 08 min 32 sec)
Heartbeat CPU 0 instructions: 101500652 cycles: 27412249 heartbeat IPC: 3.493 cumulative IPC: 3.525 (Simulation time: 00 hr 08 min 34 sec)
Heartbeat CPU 0 instructions: 102000653 cycles: 27554103 heartbeat IPC: 3.525 cumulative IPC: 3.525 (Simulation time: 00 hr 08 min 37 sec)
Heartbeat CPU 0 instructions: 102500660 cycles: 27696934 heartbeat IPC: 3.501 cumulative IPC: 3.525 (Simulation time: 00 hr 08 min 39 sec)
Heartbeat CPU 0 instructions: 103000660 cycles: 27840616 heartbeat IPC: 3.48 cumulative IPC: 3.524 (Simulation time: 00 hr 08 min 42 sec)
Heartbeat CPU 0 instructions: 103500664 cycles: 27982863 heartbeat IPC: 3.515 cumulative IPC: 3.524 (Simulation time: 00 hr 08 min 45 sec)
Heartbeat CPU 0 instructions: 104000667 cycles: 28123847 heartbeat IPC: 3.547 cumulative IPC: 3.525 (Simulation time: 00 hr 08 min 47 sec)
Heartbeat CPU 0 instructions: 104500672 cycles: 28253678 heartbeat IPC: 3.851 cumulative IPC: 3.527 (Simulation time: 00 hr 08 min 49 sec)
Heartbeat CPU 0 instructions: 105000674 cycles: 28397405 heartbeat IPC: 3.479 cumulative IPC: 3.527 (Simulation time: 00 hr 08 min 52 sec)
Heartbeat CPU 0 instructions: 105500675 cycles: 28539169 heartbeat IPC: 3.527 cumulative IPC: 3.527 (Simulation time: 00 hr 08 min 54 sec)
Heartbeat CPU 0 instructions: 106000676 cycles: 28715145 heartbeat IPC: 2.841 cumulative IPC: 3.519 (Simulation time: 00 hr 08 min 57 sec)
Heartbeat CPU 0 instructions: 106500683 cycles: 28881592 heartbeat IPC: 3.004 cumulative IPC: 3.514 (Simulation time: 00 hr 09 min 00 sec)
Heartbeat CPU 0 instructions: 107000683 cycles: 29046687 heartbeat IPC: 3.029 cumulative IPC: 3.509 (Simulation time: 00 hr 09 min 03 sec)
Heartbeat CPU 0 instructions: 107500686 cycles: 29205744 heartbeat IPC: 3.144 cumulative IPC: 3.506 (Simulation time: 00 hr 09 min 06 sec)
Heartbeat CPU 0 instructions: 108000688 cycles: 29363584 heartbeat IPC: 3.168 cumulative IPC: 3.502 (Simulation time: 00 hr 09 min 08 sec)
Heartbeat CPU 0 instructions: 108500689 cycles: 29521254 heartbeat IPC: 3.171 cumulative IPC: 3.499 (Simulation time: 00 hr 09 min 11 sec)
Heartbeat CPU 0 instructions: 109000689 cycles: 29677034 heartbeat IPC: 3.21 cumulative IPC: 3.496 (Simulation time: 00 hr 09 min 14 sec)
Heartbeat CPU 0 instructions: 109500692 cycles: 29833330 heartbeat IPC: 3.199 cumulative IPC: 3.494 (Simulation time: 00 hr 09 min 16 sec)
Heartbeat CPU 0 instructions: 110000699 cycles: 29999586 heartbeat IPC: 3.007 cumulative IPC: 3.489 (Simulation time: 00 hr 09 min 19 sec)
Heartbeat CPU 0 instructions: 110500703 cycles: 30171114 heartbeat IPC: 2.915 cumulative IPC: 3.483 (Simulation time: 00 hr 09 min 22 sec)
Heartbeat CPU 0 instructions: 111000703 cycles: 30344091 heartbeat IPC: 2.891 cumulative IPC: 3.478 (Simulation time: 00 hr 09 min 25 sec)
Heartbeat CPU 0 instructions: 111500710 cycles: 30517111 heartbeat IPC: 2.89 cumulative IPC: 3.472 (Simulation time: 00 hr 09 min 28 sec)
Heartbeat CPU 0 instructions: 112000713 cycles: 30689988 heartbeat IPC: 2.892 cumulative IPC: 3.466 (Simulation time: 00 hr 09 min 31 sec)
Heartbeat CPU 0 instructions: 112500717 cycles: 30864465 heartbeat IPC: 2.866 cumulative IPC: 3.46 (Simulation time: 00 hr 09 min 34 sec)
Heartbeat CPU 0 instructions: 113000724 cycles: 31036499 heartbeat IPC: 2.906 cumulative IPC: 3.455 (Simulation time: 00 hr 09 min 37 sec)
Heartbeat CPU 0 instructions: 113500728 cycles: 31209385 heartbeat IPC: 2.892 cumulative IPC: 3.45 (Simulation time: 00 hr 09 min 40 sec)
Heartbeat CPU 0 instructions: 114000735 cycles: 31382841 heartbeat IPC: 2.883 cumulative IPC: 3.445 (Simulation time: 00 hr 09 min 43 sec)
Heartbeat CPU 0 instructions: 114500737 cycles: 31555329 heartbeat IPC: 2.899 cumulative IPC: 3.44 (Simulation time: 00 hr 09 min 45 sec)
Heartbeat CPU 0 instructions: 115000740 cycles: 31726911 heartbeat IPC: 2.914 cumulative IPC: 3.435 (Simulation time: 00 hr 09 min 48 sec)
Heartbeat CPU 0 instructions: 115500745 cycles: 31897654 heartbeat IPC: 2.928 cumulative IPC: 3.43 (Simulation time: 00 hr 09 min 51 sec)
Heartbeat CPU 0 instructions: 116000745 cycles: 32065784 heartbeat IPC: 2.974 cumulative IPC: 3.426 (Simulation time: 00 hr 09 min 54 sec)
Heartbeat CPU 0 instructions: 116500746 cycles: 32374032 heartbeat IPC: 1.622 cumulative IPC: 3.398 (Simulation time: 00 hr 09 min 58 sec)
Heartbeat CPU 0 instructions: 117000753 cycles: 32619343 heartbeat IPC: 2.038 cumulative IPC: 3.381 (Simulation time: 00 hr 10 min 02 sec)
Heartbeat CPU 0 instructions: 117500753 cycles: 32744778 heartbeat IPC: 3.986 cumulative IPC: 3.385 (Simulation time: 00 hr 10 min 03 sec)
Heartbeat CPU 0 instructions: 118000757 cycles: 32869982 heartbeat IPC: 3.994 cumulative IPC: 3.389 (Simulation time: 00 hr 10 min 05 sec)
Heartbeat CPU 0 instructions: 118500759 cycles: 32995719 heartbeat IPC: 3.977 cumulative IPC: 3.392 (Simulation time: 00 hr 10 min 07 sec)
Heartbeat CPU 0 instructions: 119000762 cycles: 33119914 heartbeat IPC: 4.026 cumulative IPC: 3.396 (Simulation time: 00 hr 10 min 08 sec)
Heartbeat CPU 0 instructions: 119500765 cycles: 33245927 heartbeat IPC: 3.968 cumulative IPC: 3.4 (Simulation time: 00 hr 10 min 10 sec)
Heartbeat CPU 0 instructions: 120000765 cycles: 33461983 heartbeat IPC: 2.314 cumulative IPC: 3.388 (Simulation time: 00 hr 10 min 13 sec)
Heartbeat CPU 0 instructions: 120500765 cycles: 33627654 heartbeat IPC: 3.018 cumulative IPC: 3.385 (Simulation time: 00 hr 10 min 16 sec)
Heartbeat CPU 0 instructions: 121000768 cycles: 33772206 heartbeat IPC: 3.459 cumulative IPC: 3.386 (Simulation time: 00 hr 10 min 18 sec)
Heartbeat CPU 0 instructions: 121500775 cycles: 33924012 heartbeat IPC: 3.294 cumulative IPC: 3.385 (Simulation time: 00 hr 10 min 20 sec)
Heartbeat CPU 0 instructions: 122000778 cycles: 34068876 heartbeat IPC: 3.452 cumulative IPC: 3.386 (Simulation time: 00 hr 10 min 22 sec)
Heartbeat CPU 0 instructions: 122500785 cycles: 34219784 heartbeat IPC: 3.313 cumulative IPC: 3.385 (Simulation time: 00 hr 10 min 24 sec)
Heartbeat CPU 0 instructions: 123000788 cycles: 34365433 heartbeat IPC: 3.433 cumulative IPC: 3.386 (Simulation time: 00 hr 10 min 26 sec)
Heartbeat CPU 0 instructions: 123500794 cycles: 34517236 heartbeat IPC: 3.294 cumulative IPC: 3.385 (Simulation time: 00 hr 10 min 28 sec)
Heartbeat CPU 0 instructions: 124000797 cycles: 34662484 heartbeat IPC: 3.442 cumulative IPC: 3.385 (Simulation time: 00 hr 10 min 31 sec)
Heartbeat CPU 0 instructions: 124500804 cycles: 34813507 heartbeat IPC: 3.311 cumulative IPC: 3.385 (Simulation time: 00 hr 10 min 33 sec)
Heartbeat CPU 0 instructions: 125000811 cycles: 34958550 heartbeat IPC: 3.447 cumulative IPC: 3.385 (Simulation time: 00 hr 10 min 35 sec)
Heartbeat CPU 0 instructions: 125500818 cycles: 35111816 heartbeat IPC: 3.262 cumulative IPC: 3.384 (Simulation time: 00 hr 10 min 37 sec)
Heartbeat CPU 0 instructions: 126000825 cycles: 35257865 heartbeat IPC: 3.424 cumulative IPC: 3.385 (Simulation time: 00 hr 10 min 39 sec)
Heartbeat CPU 0 instructions: 126500832 cycles: 35411452 heartbeat IPC: 3.256 cumulative IPC: 3.384 (Simulation time: 00 hr 10 min 41 sec)
Heartbeat CPU 0 instructions: 127000833 cycles: 35559818 heartbeat IPC: 3.37 cumulative IPC: 3.384 (Simulation time: 00 hr 10 min 43 sec)
Heartbeat CPU 0 instructions: 127500833 cycles: 35709877 heartbeat IPC: 3.332 cumulative IPC: 3.383 (Simulation time: 00 hr 10 min 46 sec)
Heartbeat CPU 0 instructions: 128000836 cycles: 35854423 heartbeat IPC: 3.459 cumulative IPC: 3.384 (Simulation time: 00 hr 10 min 48 sec)
Heartbeat CPU 0 instructions: 128500843 cycles: 36005507 heartbeat IPC: 3.309 cumulative IPC: 3.383 (Simulation time: 00 hr 10 min 50 sec)
Heartbeat CPU 0 instructions: 129000846 cycles: 36151429 heartbeat IPC: 3.427 cumulative IPC: 3.384 (Simulation time: 00 hr 10 min 52 sec)
Heartbeat CPU 0 instructions: 129500853 cycles: 36301513 heartbeat IPC: 3.332 cumulative IPC: 3.383 (Simulation time: 00 hr 10 min 54 sec)
Heartbeat CPU 0 instructions: 130000860 cycles: 36447516 heartbeat IPC: 3.425 cumulative IPC: 3.383 (Simulation time: 00 hr 10 min 56 sec)
Heartbeat CPU 0 instructions: 130500866 cycles: 36599359 heartbeat IPC: 3.293 cumulative IPC: 3.383 (Simulation time: 00 hr 10 min 58 sec)
Heartbeat CPU 0 instructions: 131000869 cycles: 36745473 heartbeat IPC: 3.422 cumulative IPC: 3.383 (Simulation time: 00 hr 11 min 00 sec)
Heartbeat CPU 0 instructions: 131500875 cycles: 36895968 heartbeat IPC: 3.322 cumulative IPC: 3.383 (Simulation time: 00 hr 11 min 03 sec)
Heartbeat CPU 0 instructions: 132000879 cycles: 37043708 heartbeat IPC: 3.384 cumulative IPC: 3.383 (Simulation time: 00 hr 11 min 05 sec)
Heartbeat CPU 0 instructions: 132500886 cycles: 37189900 heartbeat IPC: 3.42 cumulative IPC: 3.383 (Simulation time: 00 hr 11 min 07 sec)
Heartbeat CPU 0 instructions: 133000889 cycles: 37340333 heartbeat IPC: 3.324 cumulative IPC: 3.383 (Simulation time: 00 hr 11 min 09 sec)
Heartbeat CPU 0 instructions: 133500892 cycles: 37486028 heartbeat IPC: 3.432 cumulative IPC: 3.383 (Simulation time: 00 hr 11 min 11 sec)
Heartbeat CPU 0 instructions: 134000893 cycles: 37637047 heartbeat IPC: 3.311 cumulative IPC: 3.382 (Simulation time: 00 hr 11 min 13 sec)
Heartbeat CPU 0 instructions: 134500893 cycles: 37783996 heartbeat IPC: 3.403 cumulative IPC: 3.383 (Simulation time: 00 hr 11 min 15 sec)
Heartbeat CPU 0 instructions: 135000900 cycles: 37934926 heartbeat IPC: 3.313 cumulative IPC: 3.382 (Simulation time: 00 hr 11 min 17 sec)
Heartbeat CPU 0 instructions: 135500903 cycles: 38080817 heartbeat IPC: 3.427 cumulative IPC: 3.382 (Simulation time: 00 hr 11 min 20 sec)
Heartbeat CPU 0 instructions: 136000910 cycles: 38231002 heartbeat IPC: 3.329 cumulative IPC: 3.382 (Simulation time: 00 hr 11 min 22 sec)
Heartbeat CPU 0 instructions: 136500917 cycles: 38376707 heartbeat IPC: 3.432 cumulative IPC: 3.382 (Simulation time: 00 hr 11 min 24 sec)
Heartbeat CPU 0 instructions: 137000920 cycles: 38527247 heartbeat IPC: 3.321 cumulative IPC: 3.382 (Simulation time: 00 hr 11 min 26 sec)
Heartbeat CPU 0 instructions: 137500927 cycles: 38671696 heartbeat IPC: 3.461 cumulative IPC: 3.382 (Simulation time: 00 hr 11 min 28 sec)
Heartbeat CPU 0 instructions: 138000929 cycles: 38824286 heartbeat IPC: 3.277 cumulative IPC: 3.382 (Simulation time: 00 hr 11 min 30 sec)
Heartbeat CPU 0 instructions: 138500932 cycles: 38969840 heartbeat IPC: 3.435 cumulative IPC: 3.382 (Simulation time: 00 hr 11 min 32 sec)
Heartbeat CPU 0 instructions: 139000935 cycles: 39120592 heartbeat IPC: 3.317 cumulative IPC: 3.382 (Simulation time: 00 hr 11 min 34 sec)
Heartbeat CPU 0 instructions: 139500942 cycles: 39266056 heartbeat IPC: 3.437 cumulative IPC: 3.382 (Simulation time: 00 hr 11 min 36 sec)
Heartbeat CPU 0 instructions: 140000945 cycles: 39417854 heartbeat IPC: 3.294 cumulative IPC: 3.382 (Simulation time: 00 hr 11 min 39 sec)
Heartbeat CPU 0 instructions: 140500949 cycles: 39563483 heartbeat IPC: 3.433 cumulative IPC: 3.382 (Simulation time: 00 hr 11 min 41 sec)
Heartbeat CPU 0 instructions: 141000956 cycles: 39714610 heartbeat IPC: 3.309 cumulative IPC: 3.381 (Simulation time: 00 hr 11 min 43 sec)
Heartbeat CPU 0 instructions: 141500959 cycles: 39861789 heartbeat IPC: 3.397 cumulative IPC: 3.382 (Simulation time: 00 hr 11 min 45 sec)
Heartbeat CPU 0 instructions: 142000964 cycles: 40012736 heartbeat IPC: 3.312 cumulative IPC: 3.381 (Simulation time: 00 hr 11 min 47 sec)
Heartbeat CPU 0 instructions: 142500967 cycles: 40158709 heartbeat IPC: 3.425 cumulative IPC: 3.381 (Simulation time: 00 hr 11 min 49 sec)
Heartbeat CPU 0 instructions: 143000974 cycles: 40310059 heartbeat IPC: 3.304 cumulative IPC: 3.381 (Simulation time: 00 hr 11 min 51 sec)
Heartbeat CPU 0 instructions: 143500978 cycles: 40454535 heartbeat IPC: 3.461 cumulative IPC: 3.381 (Simulation time: 00 hr 11 min 53 sec)
Heartbeat CPU 0 instructions: 144000980 cycles: 40605734 heartbeat IPC: 3.307 cumulative IPC: 3.381 (Simulation time: 00 hr 11 min 56 sec)
Heartbeat CPU 0 instructions: 144500987 cycles: 40752167 heartbeat IPC: 3.415 cumulative IPC: 3.381 (Simulation time: 00 hr 11 min 58 sec)
Heartbeat CPU 0 instructions: 145000993 cycles: 40903248 heartbeat IPC: 3.31 cumulative IPC: 3.381 (Simulation time: 00 hr 12 min 00 sec)
Heartbeat CPU 0 instructions: 145500996 cycles: 41048146 heartbeat IPC: 3.451 cumulative IPC: 3.381 (Simulation time: 00 hr 12 min 02 sec)
Heartbeat CPU 0 instructions: 146001003 cycles: 41198305 heartbeat IPC: 3.33 cumulative IPC: 3.381 (Simulation time: 00 hr 12 min 04 sec)
Heartbeat CPU 0 instructions: 146501004 cycles: 41342265 heartbeat IPC: 3.473 cumulative IPC: 3.381 (Simulation time: 00 hr 12 min 06 sec)
Heartbeat CPU 0 instructions: 147001005 cycles: 41494694 heartbeat IPC: 3.28 cumulative IPC: 3.381 (Simulation time: 00 hr 12 min 08 sec)
Heartbeat CPU 0 instructions: 147501008 cycles: 41639372 heartbeat IPC: 3.456 cumulative IPC: 3.381 (Simulation time: 00 hr 12 min 10 sec)
Heartbeat CPU 0 instructions: 148001014 cycles: 41788794 heartbeat IPC: 3.346 cumulative IPC: 3.381 (Simulation time: 00 hr 12 min 13 sec)
Heartbeat CPU 0 instructions: 148501021 cycles: 41928436 heartbeat IPC: 3.581 cumulative IPC: 3.382 (Simulation time: 00 hr 12 min 15 sec)
Heartbeat CPU 0 instructions: 149001023 cycles: 42072247 heartbeat IPC: 3.477 cumulative IPC: 3.382 (Simulation time: 00 hr 12 min 17 sec)
Heartbeat CPU 0 instructions: 149501026 cycles: 42211222 heartbeat IPC: 3.598 cumulative IPC: 3.383 (Simulation time: 00 hr 12 min 19 sec)
Heartbeat CPU 0 instructions: 150001029 cycles: 42352849 heartbeat IPC: 3.53 cumulative IPC: 3.384 (Simulation time: 00 hr 12 min 21 sec)
Heartbeat CPU 0 instructions: 150501036 cycles: 42493197 heartbeat IPC: 3.563 cumulative IPC: 3.385 (Simulation time: 00 hr 12 min 23 sec)
Heartbeat CPU 0 instructions: 151001043 cycles: 42636036 heartbeat IPC: 3.5 cumulative IPC: 3.386 (Simulation time: 00 hr 12 min 25 sec)
Heartbeat CPU 0 instructions: 151501046 cycles: 42774825 heartbeat IPC: 3.603 cumulative IPC: 3.387 (Simulation time: 00 hr 12 min 27 sec)
Heartbeat CPU 0 instructions: 152001053 cycles: 42918276 heartbeat IPC: 3.486 cumulative IPC: 3.387 (Simulation time: 00 hr 12 min 29 sec)
Heartbeat CPU 0 instructions: 152501054 cycles: 43057161 heartbeat IPC: 3.6 cumulative IPC: 3.388 (Simulation time: 00 hr 12 min 31 sec)
Heartbeat CPU 0 instructions: 153001058 cycles: 43198708 heartbeat IPC: 3.532 cumulative IPC: 3.389 (Simulation time: 00 hr 12 min 33 sec)
Heartbeat CPU 0 instructions: 153501061 cycles: 43338928 heartbeat IPC: 3.566 cumulative IPC: 3.389 (Simulation time: 00 hr 12 min 35 sec)
Heartbeat CPU 0 instructions: 154001068 cycles: 43478998 heartbeat IPC: 3.57 cumulative IPC: 3.39 (Simulation time: 00 hr 12 min 37 sec)
Heartbeat CPU 0 instructions: 154501069 cycles: 43620092 heartbeat IPC: 3.544 cumulative IPC: 3.391 (Simulation time: 00 hr 12 min 39 sec)
Heartbeat CPU 0 instructions: 155001070 cycles: 43761062 heartbeat IPC: 3.547 cumulative IPC: 3.392 (Simulation time: 00 hr 12 min 41 sec)
Heartbeat CPU 0 instructions: 155501073 cycles: 43904187 heartbeat IPC: 3.493 cumulative IPC: 3.392 (Simulation time: 00 hr 12 min 43 sec)
Heartbeat CPU 0 instructions: 156001074 cycles: 44044003 heartbeat IPC: 3.576 cumulative IPC: 3.393 (Simulation time: 00 hr 12 min 45 sec)
Heartbeat CPU 0 instructions: 156501074 cycles: 44185862 heartbeat IPC: 3.525 cumulative IPC: 3.394 (Simulation time: 00 hr 12 min 47 sec)
Heartbeat CPU 0 instructions: 157001077 cycles: 44325938 heartbeat IPC: 3.57 cumulative IPC: 3.394 (Simulation time: 00 hr 12 min 50 sec)
Heartbeat CPU 0 instructions: 157501084 cycles: 44470058 heartbeat IPC: 3.469 cumulative IPC: 3.395 (Simulation time: 00 hr 12 min 52 sec)
Heartbeat CPU 0 instructions: 158001087 cycles: 44609718 heartbeat IPC: 3.58 cumulative IPC: 3.396 (Simulation time: 00 hr 12 min 54 sec)
Heartbeat CPU 0 instructions: 158501090 cycles: 44754059 heartbeat IPC: 3.464 cumulative IPC: 3.396 (Simulation time: 00 hr 12 min 56 sec)
Heartbeat CPU 0 instructions: 159001097 cycles: 44893332 heartbeat IPC: 3.59 cumulative IPC: 3.397 (Simulation time: 00 hr 12 min 58 sec)
Heartbeat CPU 0 instructions: 159501097 cycles: 45035429 heartbeat IPC: 3.519 cumulative IPC: 3.397 (Simulation time: 00 hr 13 min 00 sec)
Heartbeat CPU 0 instructions: 160001098 cycles: 45174823 heartbeat IPC: 3.587 cumulative IPC: 3.398 (Simulation time: 00 hr 13 min 02 sec)
Heartbeat CPU 0 instructions: 160501105 cycles: 45318575 heartbeat IPC: 3.478 cumulative IPC: 3.398 (Simulation time: 00 hr 13 min 04 sec)
Heartbeat CPU 0 instructions: 161001108 cycles: 45457333 heartbeat IPC: 3.603 cumulative IPC: 3.399 (Simulation time: 00 hr 13 min 06 sec)
Heartbeat CPU 0 instructions: 161501109 cycles: 45600446 heartbeat IPC: 3.494 cumulative IPC: 3.4 (Simulation time: 00 hr 13 min 08 sec)
Heartbeat CPU 0 instructions: 162001110 cycles: 45739660 heartbeat IPC: 3.592 cumulative IPC: 3.4 (Simulation time: 00 hr 13 min 10 sec)
Heartbeat CPU 0 instructions: 162501117 cycles: 45884129 heartbeat IPC: 3.461 cumulative IPC: 3.401 (Simulation time: 00 hr 13 min 12 sec)
Heartbeat CPU 0 instructions: 163001120 cycles: 46023000 heartbeat IPC: 3.6 cumulative IPC: 3.402 (Simulation time: 00 hr 13 min 14 sec)
Heartbeat CPU 0 instructions: 163501126 cycles: 46166301 heartbeat IPC: 3.489 cumulative IPC: 3.402 (Simulation time: 00 hr 13 min 16 sec)
Heartbeat CPU 0 instructions: 164001133 cycles: 46305670 heartbeat IPC: 3.588 cumulative IPC: 3.403 (Simulation time: 00 hr 13 min 19 sec)
Heartbeat CPU 0 instructions: 164501136 cycles: 46448780 heartbeat IPC: 3.494 cumulative IPC: 3.403 (Simulation time: 00 hr 13 min 21 sec)
Heartbeat CPU 0 instructions: 165001143 cycles: 46588383 heartbeat IPC: 3.582 cumulative IPC: 3.404 (Simulation time: 00 hr 13 min 23 sec)
Heartbeat CPU 0 instructions: 165501146 cycles: 46731646 heartbeat IPC: 3.49 cumulative IPC: 3.404 (Simulation time: 00 hr 13 min 25 sec)
Heartbeat CPU 0 instructions: 166001149 cycles: 46870893 heartbeat IPC: 3.591 cumulative IPC: 3.405 (Simulation time: 00 hr 13 min 27 sec)
Heartbeat CPU 0 instructions: 166501152 cycles: 47013464 heartbeat IPC: 3.507 cumulative IPC: 3.405 (Simulation time: 00 hr 13 min 29 sec)
Heartbeat CPU 0 instructions: 167001158 cycles: 47153581 heartbeat IPC: 3.568 cumulative IPC: 3.406 (Simulation time: 00 hr 13 min 31 sec)
Heartbeat CPU 0 instructions: 167501165 cycles: 47297132 heartbeat IPC: 3.483 cumulative IPC: 3.406 (Simulation time: 00 hr 13 min 33 sec)
Heartbeat CPU 0 instructions: 168001170 cycles: 47436122 heartbeat IPC: 3.597 cumulative IPC: 3.407 (Simulation time: 00 hr 13 min 35 sec)
Heartbeat CPU 0 instructions: 168501171 cycles: 47580201 heartbeat IPC: 3.47 cumulative IPC: 3.407 (Simulation time: 00 hr 13 min 37 sec)
Heartbeat CPU 0 instructions: 169001172 cycles: 47719087 heartbeat IPC: 3.6 cumulative IPC: 3.408 (Simulation time: 00 hr 13 min 39 sec)
Heartbeat CPU 0 instructions: 169501177 cycles: 47861744 heartbeat IPC: 3.505 cumulative IPC: 3.409 (Simulation time: 00 hr 13 min 41 sec)
Heartbeat CPU 0 instructions: 170001180 cycles: 48000823 heartbeat IPC: 3.595 cumulative IPC: 3.409 (Simulation time: 00 hr 13 min 43 sec)
Heartbeat CPU 0 instructions: 170501186 cycles: 48143682 heartbeat IPC: 3.5 cumulative IPC: 3.41 (Simulation time: 00 hr 13 min 45 sec)
Heartbeat CPU 0 instructions: 171001193 cycles: 48283547 heartbeat IPC: 3.575 cumulative IPC: 3.41 (Simulation time: 00 hr 13 min 47 sec)
Heartbeat CPU 0 instructions: 171501200 cycles: 48425244 heartbeat IPC: 3.529 cumulative IPC: 3.411 (Simulation time: 00 hr 13 min 50 sec)
Heartbeat CPU 0 instructions: 172001202 cycles: 48565581 heartbeat IPC: 3.563 cumulative IPC: 3.411 (Simulation time: 00 hr 13 min 52 sec)
Heartbeat CPU 0 instructions: 172501202 cycles: 48708526 heartbeat IPC: 3.498 cumulative IPC: 3.412 (Simulation time: 00 hr 13 min 54 sec)
Heartbeat CPU 0 instructions: 173001209 cycles: 48847643 heartbeat IPC: 3.594 cumulative IPC: 3.412 (Simulation time: 00 hr 13 min 56 sec)
Heartbeat CPU 0 instructions: 173501212 cycles: 48992478 heartbeat IPC: 3.452 cumulative IPC: 3.413 (Simulation time: 00 hr 13 min 58 sec)
Heartbeat CPU 0 instructions: 174001215 cycles: 49132410 heartbeat IPC: 3.573 cumulative IPC: 3.413 (Simulation time: 00 hr 14 min 00 sec)
Heartbeat CPU 0 instructions: 174501220 cycles: 49274898 heartbeat IPC: 3.509 cumulative IPC: 3.414 (Simulation time: 00 hr 14 min 02 sec)
Heartbeat CPU 0 instructions: 175001224 cycles: 49413597 heartbeat IPC: 3.605 cumulative IPC: 3.414 (Simulation time: 00 hr 14 min 04 sec)
Heartbeat CPU 0 instructions: 175501224 cycles: 49559180 heartbeat IPC: 3.434 cumulative IPC: 3.414 (Simulation time: 00 hr 14 min 06 sec)
Heartbeat CPU 0 instructions: 176001225 cycles: 49698560 heartbeat IPC: 3.587 cumulative IPC: 3.415 (Simulation time: 00 hr 14 min 08 sec)
Heartbeat CPU 0 instructions: 176501228 cycles: 49839316 heartbeat IPC: 3.552 cumulative IPC: 3.416 (Simulation time: 00 hr 14 min 10 sec)
Heartbeat CPU 0 instructions: 177001235 cycles: 49980329 heartbeat IPC: 3.546 cumulative IPC: 3.416 (Simulation time: 00 hr 14 min 12 sec)
Heartbeat CPU 0 instructions: 177501238 cycles: 50119628 heartbeat IPC: 3.589 cumulative IPC: 3.417 (Simulation time: 00 hr 14 min 14 sec)
Heartbeat CPU 0 instructions: 178001240 cycles: 50260779 heartbeat IPC: 3.542 cumulative IPC: 3.417 (Simulation time: 00 hr 14 min 16 sec)
Heartbeat CPU 0 instructions: 178501243 cycles: 50399628 heartbeat IPC: 3.601 cumulative IPC: 3.418 (Simulation time: 00 hr 14 min 18 sec)
Heartbeat CPU 0 instructions: 179001250 cycles: 50542923 heartbeat IPC: 3.489 cumulative IPC: 3.418 (Simulation time: 00 hr 14 min 20 sec)
Heartbeat CPU 0 instructions: 179501253 cycles: 50680551 heartbeat IPC: 3.633 cumulative IPC: 3.419 (Simulation time: 00 hr 14 min 22 sec)
Heartbeat CPU 0 instructions: 180001258 cycles: 50821734 heartbeat IPC: 3.542 cumulative IPC: 3.419 (Simulation time: 00 hr 14 min 24 sec)
Heartbeat CPU 0 instructions: 180501263 cycles: 50959661 heartbeat IPC: 3.625 cumulative IPC: 3.42 (Simulation time: 00 hr 14 min 27 sec)
Heartbeat CPU 0 instructions: 181001268 cycles: 51100605 heartbeat IPC: 3.548 cumulative IPC: 3.421 (Simulation time: 00 hr 14 min 29 sec)
Heartbeat CPU 0 instructions: 181501272 cycles: 51238668 heartbeat IPC: 3.622 cumulative IPC: 3.421 (Simulation time: 00 hr 14 min 31 sec)
Heartbeat CPU 0 instructions: 182001279 cycles: 51380711 heartbeat IPC: 3.52 cumulative IPC: 3.422 (Simulation time: 00 hr 14 min 33 sec)
Heartbeat CPU 0 instructions: 182501282 cycles: 51520227 heartbeat IPC: 3.584 cumulative IPC: 3.422 (Simulation time: 00 hr 14 min 35 sec)
Heartbeat CPU 0 instructions: 183001289 cycles: 51661125 heartbeat IPC: 3.549 cumulative IPC: 3.423 (Simulation time: 00 hr 14 min 37 sec)
Heartbeat CPU 0 instructions: 183501292 cycles: 51799160 heartbeat IPC: 3.622 cumulative IPC: 3.423 (Simulation time: 00 hr 14 min 39 sec)
Heartbeat CPU 0 instructions: 184001295 cycles: 51941774 heartbeat IPC: 3.506 cumulative IPC: 3.424 (Simulation time: 00 hr 14 min 41 sec)
Heartbeat CPU 0 instructions: 184501302 cycles: 52080812 heartbeat IPC: 3.596 cumulative IPC: 3.424 (Simulation time: 00 hr 14 min 43 sec)
Heartbeat CPU 0 instructions: 185001303 cycles: 52221302 heartbeat IPC: 3.559 cumulative IPC: 3.425 (Simulation time: 00 hr 14 min 45 sec)
Heartbeat CPU 0 instructions: 185501303 cycles: 52359573 heartbeat IPC: 3.616 cumulative IPC: 3.425 (Simulation time: 00 hr 14 min 47 sec)
Heartbeat CPU 0 instructions: 186001306 cycles: 52502720 heartbeat IPC: 3.493 cumulative IPC: 3.426 (Simulation time: 00 hr 14 min 49 sec)
Heartbeat CPU 0 instructions: 186501313 cycles: 52641308 heartbeat IPC: 3.608 cumulative IPC: 3.426 (Simulation time: 00 hr 14 min 51 sec)
Heartbeat CPU 0 instructions: 187001316 cycles: 52783888 heartbeat IPC: 3.507 cumulative IPC: 3.427 (Simulation time: 00 hr 14 min 53 sec)
Heartbeat CPU 0 instructions: 187501319 cycles: 52921628 heartbeat IPC: 3.63 cumulative IPC: 3.427 (Simulation time: 00 hr 14 min 55 sec)
Heartbeat CPU 0 instructions: 188001322 cycles: 53064739 heartbeat IPC: 3.494 cumulative IPC: 3.428 (Simulation time: 00 hr 14 min 57 sec)
Heartbeat CPU 0 instructions: 188501329 cycles: 53204112 heartbeat IPC: 3.588 cumulative IPC: 3.428 (Simulation time: 00 hr 14 min 59 sec)
Heartbeat CPU 0 instructions: 189001329 cycles: 53345678 heartbeat IPC: 3.532 cumulative IPC: 3.429 (Simulation time: 00 hr 15 min 01 sec)
Heartbeat CPU 0 instructions: 189501331 cycles: 53483592 heartbeat IPC: 3.625 cumulative IPC: 3.429 (Simulation time: 00 hr 15 min 03 sec)
Heartbeat CPU 0 instructions: 190001337 cycles: 53624635 heartbeat IPC: 3.545 cumulative IPC: 3.43 (Simulation time: 00 hr 15 min 05 sec)
Heartbeat CPU 0 instructions: 190501338 cycles: 53763489 heartbeat IPC: 3.601 cumulative IPC: 3.43 (Simulation time: 00 hr 15 min 07 sec)
Heartbeat CPU 0 instructions: 191001339 cycles: 53907270 heartbeat IPC: 3.478 cumulative IPC: 3.43 (Simulation time: 00 hr 15 min 09 sec)
Heartbeat CPU 0 instructions: 191501342 cycles: 54045511 heartbeat IPC: 3.617 cumulative IPC: 3.431 (Simulation time: 00 hr 15 min 11 sec)
Heartbeat CPU 0 instructions: 192001343 cycles: 54186128 heartbeat IPC: 3.556 cumulative IPC: 3.431 (Simulation time: 00 hr 15 min 13 sec)
Heartbeat CPU 0 instructions: 192501343 cycles: 54325178 heartbeat IPC: 3.596 cumulative IPC: 3.432 (Simulation time: 00 hr 15 min 15 sec)
Heartbeat CPU 0 instructions: 193001350 cycles: 54468070 heartbeat IPC: 3.499 cumulative IPC: 3.432 (Simulation time: 00 hr 15 min 18 sec)
Heartbeat CPU 0 instructions: 193501353 cycles: 54607643 heartbeat IPC: 3.582 cumulative IPC: 3.433 (Simulation time: 00 hr 15 min 20 sec)
Heartbeat CPU 0 instructions: 194001356 cycles: 54748151 heartbeat IPC: 3.559 cumulative IPC: 3.433 (Simulation time: 00 hr 15 min 22 sec)
Heartbeat CPU 0 instructions: 194501363 cycles: 54886943 heartbeat IPC: 3.603 cumulative IPC: 3.434 (Simulation time: 00 hr 15 min 24 sec)
Heartbeat CPU 0 instructions: 195001366 cycles: 55029914 heartbeat IPC: 3.497 cumulative IPC: 3.434 (Simulation time: 00 hr 15 min 26 sec)
Heartbeat CPU 0 instructions: 195501369 cycles: 55169669 heartbeat IPC: 3.578 cumulative IPC: 3.434 (Simulation time: 00 hr 15 min 28 sec)
Heartbeat CPU 0 instructions: 196001369 cycles: 55311672 heartbeat IPC: 3.521 cumulative IPC: 3.435 (Simulation time: 00 hr 15 min 30 sec)
Heartbeat CPU 0 instructions: 196501374 cycles: 55449726 heartbeat IPC: 3.622 cumulative IPC: 3.435 (Simulation time: 00 hr 15 min 32 sec)
Heartbeat CPU 0 instructions: 197001381 cycles: 55593148 heartbeat IPC: 3.486 cumulative IPC: 3.435 (Simulation time: 00 hr 15 min 34 sec)
Heartbeat CPU 0 instructions: 197501388 cycles: 55732051 heartbeat IPC: 3.6 cumulative IPC: 3.436 (Simulation time: 00 hr 15 min 36 sec)
Heartbeat CPU 0 instructions: 198001395 cycles: 55873433 heartbeat IPC: 3.537 cumulative IPC: 3.436 (Simulation time: 00 hr 15 min 38 sec)
Heartbeat CPU 0 instructions: 198501398 cycles: 56012178 heartbeat IPC: 3.604 cumulative IPC: 3.437 (Simulation time: 00 hr 15 min 40 sec)
Heartbeat CPU 0 instructions: 199001403 cycles: 56151324 heartbeat IPC: 3.593 cumulative IPC: 3.437 (Simulation time: 00 hr 15 min 42 sec)
Heartbeat CPU 0 instructions: 199501404 cycles: 56293140 heartbeat IPC: 3.526 cumulative IPC: 3.438 (Simulation time: 00 hr 15 min 44 sec)
Heartbeat CPU 0 instructions: 200001409 cycles: 56433203 heartbeat IPC: 3.57 cumulative IPC: 3.438 (Simulation time: 00 hr 15 min 46 sec)
Heartbeat CPU 0 instructions: 200501409 cycles: 56574533 heartbeat IPC: 3.538 cumulative IPC: 3.438 (Simulation time: 00 hr 15 min 48 sec)
Heartbeat CPU 0 instructions: 201001412 cycles: 56712267 heartbeat IPC: 3.63 cumulative IPC: 3.439 (Simulation time: 00 hr 15 min 50 sec)
Heartbeat CPU 0 instructions: 201501415 cycles: 56855138 heartbeat IPC: 3.5 cumulative IPC: 3.439 (Simulation time: 00 hr 15 min 52 sec)
Heartbeat CPU 0 instructions: 202001420 cycles: 56994302 heartbeat IPC: 3.593 cumulative IPC: 3.44 (Simulation time: 00 hr 15 min 54 sec)
Heartbeat CPU 0 instructions: 202501425 cycles: 57136067 heartbeat IPC: 3.527 cumulative IPC: 3.44 (Simulation time: 00 hr 15 min 56 sec)
Heartbeat CPU 0 instructions: 203001425 cycles: 57280604 heartbeat IPC: 3.459 cumulative IPC: 3.44 (Simulation time: 00 hr 15 min 59 sec)
Heartbeat CPU 0 instructions: 203501428 cycles: 57422529 heartbeat IPC: 3.523 cumulative IPC: 3.44 (Simulation time: 00 hr 16 min 01 sec)
Heartbeat CPU 0 instructions: 204001432 cycles: 57560805 heartbeat IPC: 3.616 cumulative IPC: 3.441 (Simulation time: 00 hr 16 min 03 sec)
Heartbeat CPU 0 instructions: 204501439 cycles: 57702805 heartbeat IPC: 3.521 cumulative IPC: 3.441 (Simulation time: 00 hr 16 min 05 sec)
Heartbeat CPU 0 instructions: 205001442 cycles: 57841114 heartbeat IPC: 3.615 cumulative IPC: 3.442 (Simulation time: 00 hr 16 min 07 sec)
Heartbeat CPU 0 instructions: 205501449 cycles: 57982277 heartbeat IPC: 3.542 cumulative IPC: 3.442 (Simulation time: 00 hr 16 min 09 sec)
Heartbeat CPU 0 instructions: 206001452 cycles: 58120557 heartbeat IPC: 3.616 cumulative IPC: 3.442 (Simulation time: 00 hr 16 min 11 sec)
Heartbeat CPU 0 instructions: 206501455 cycles: 58261539 heartbeat IPC: 3.547 cumulative IPC: 3.443 (Simulation time: 00 hr 16 min 13 sec)
Heartbeat CPU 0 instructions: 207001461 cycles: 58399597 heartbeat IPC: 3.622 cumulative IPC: 3.443 (Simulation time: 00 hr 16 min 15 sec)
Heartbeat CPU 0 instructions: 207501461 cycles: 58542075 heartbeat IPC: 3.509 cumulative IPC: 3.443 (Simulation time: 00 hr 16 min 17 sec)
Heartbeat CPU 0 instructions: 208001463 cycles: 58679890 heartbeat IPC: 3.628 cumulative IPC: 3.444 (Simulation time: 00 hr 16 min 19 sec)
Heartbeat CPU 0 instructions: 208501468 cycles: 58820647 heartbeat IPC: 3.552 cumulative IPC: 3.444 (Simulation time: 00 hr 16 min 21 sec)
Heartbeat CPU 0 instructions: 209001473 cycles: 58958178 heartbeat IPC: 3.636 cumulative IPC: 3.445 (Simulation time: 00 hr 16 min 23 sec)
Heartbeat CPU 0 instructions: 209501476 cycles: 59099386 heartbeat IPC: 3.541 cumulative IPC: 3.445 (Simulation time: 00 hr 16 min 25 sec)
Heartbeat CPU 0 instructions: 210001483 cycles: 59237018 heartbeat IPC: 3.633 cumulative IPC: 3.446 (Simulation time: 00 hr 16 min 27 sec)
Heartbeat CPU 0 instructions: 210501486 cycles: 59378707 heartbeat IPC: 3.529 cumulative IPC: 3.446 (Simulation time: 00 hr 16 min 29 sec)
Heartbeat CPU 0 instructions: 211001492 cycles: 59516568 heartbeat IPC: 3.627 cumulative IPC: 3.447 (Simulation time: 00 hr 16 min 31 sec)
Heartbeat CPU 0 instructions: 211501495 cycles: 59657757 heartbeat IPC: 3.541 cumulative IPC: 3.447 (Simulation time: 00 hr 16 min 33 sec)
Heartbeat CPU 0 instructions: 212001498 cycles: 59795967 heartbeat IPC: 3.618 cumulative IPC: 3.447 (Simulation time: 00 hr 16 min 35 sec)
Heartbeat CPU 0 instructions: 212501499 cycles: 59936875 heartbeat IPC: 3.548 cumulative IPC: 3.448 (Simulation time: 00 hr 16 min 37 sec)
Heartbeat CPU 0 instructions: 213001504 cycles: 60075181 heartbeat IPC: 3.615 cumulative IPC: 3.448 (Simulation time: 00 hr 16 min 39 sec)
Heartbeat CPU 0 instructions: 213501507 cycles: 60219086 heartbeat IPC: 3.475 cumulative IPC: 3.448 (Simulation time: 00 hr 16 min 41 sec)
Heartbeat CPU 0 instructions: 214001512 cycles: 60357936 heartbeat IPC: 3.601 cumulative IPC: 3.449 (Simulation time: 00 hr 16 min 43 sec)
Heartbeat CPU 0 instructions: 214501516 cycles: 60498733 heartbeat IPC: 3.551 cumulative IPC: 3.449 (Simulation time: 00 hr 16 min 46 sec)
Heartbeat CPU 0 instructions: 215001519 cycles: 60637449 heartbeat IPC: 3.605 cumulative IPC: 3.449 (Simulation time: 00 hr 16 min 48 sec)
Heartbeat CPU 0 instructions: 215501526 cycles: 60779441 heartbeat IPC: 3.521 cumulative IPC: 3.45 (Simulation time: 00 hr 16 min 50 sec)
Heartbeat CPU 0 instructions: 216001528 cycles: 60917764 heartbeat IPC: 3.615 cumulative IPC: 3.45 (Simulation time: 00 hr 16 min 52 sec)
Heartbeat CPU 0 instructions: 216501532 cycles: 61060855 heartbeat IPC: 3.494 cumulative IPC: 3.45 (Simulation time: 00 hr 16 min 54 sec)
Heartbeat CPU 0 instructions: 217001539 cycles: 61199065 heartbeat IPC: 3.618 cumulative IPC: 3.451 (Simulation time: 00 hr 16 min 56 sec)
Heartbeat CPU 0 instructions: 217501546 cycles: 61341769 heartbeat IPC: 3.504 cumulative IPC: 3.451 (Simulation time: 00 hr 16 min 58 sec)
Heartbeat CPU 0 instructions: 218001548 cycles: 61479341 heartbeat IPC: 3.634 cumulative IPC: 3.451 (Simulation time: 00 hr 17 min 00 sec)
Heartbeat CPU 0 instructions: 218501555 cycles: 61620862 heartbeat IPC: 3.533 cumulative IPC: 3.452 (Simulation time: 00 hr 17 min 02 sec)
Heartbeat CPU 0 instructions: 219001558 cycles: 61759808 heartbeat IPC: 3.599 cumulative IPC: 3.452 (Simulation time: 00 hr 17 min 04 sec)
Heartbeat CPU 0 instructions: 219501561 cycles: 61903203 heartbeat IPC: 3.487 cumulative IPC: 3.452 (Simulation time: 00 hr 17 min 06 sec)
Heartbeat CPU 0 instructions: 220001564 cycles: 62041611 heartbeat IPC: 3.613 cumulative IPC: 3.453 (Simulation time: 00 hr 17 min 08 sec)
Heartbeat CPU 0 instructions: 220501567 cycles: 62182533 heartbeat IPC: 3.548 cumulative IPC: 3.453 (Simulation time: 00 hr 17 min 10 sec)
Heartbeat CPU 0 instructions: 221001574 cycles: 62321642 heartbeat IPC: 3.594 cumulative IPC: 3.453 (Simulation time: 00 hr 17 min 12 sec)
Heartbeat CPU 0 instructions: 221501576 cycles: 62460946 heartbeat IPC: 3.589 cumulative IPC: 3.454 (Simulation time: 00 hr 17 min 14 sec)
Heartbeat CPU 0 instructions: 222001579 cycles: 62601976 heartbeat IPC: 3.545 cumulative IPC: 3.454 (Simulation time: 00 hr 17 min 16 sec)
Heartbeat CPU 0 instructions: 222501586 cycles: 62740923 heartbeat IPC: 3.599 cumulative IPC: 3.454 (Simulation time: 00 hr 17 min 18 sec)
Heartbeat CPU 0 instructions: 223001593 cycles: 62883044 heartbeat IPC: 3.518 cumulative IPC: 3.454 (Simulation time: 00 hr 17 min 20 sec)
Heartbeat CPU 0 instructions: 223501600 cycles: 63021991 heartbeat IPC: 3.599 cumulative IPC: 3.455 (Simulation time: 00 hr 17 min 22 sec)
Heartbeat CPU 0 instructions: 224001603 cycles: 63165123 heartbeat IPC: 3.493 cumulative IPC: 3.455 (Simulation time: 00 hr 17 min 24 sec)
Heartbeat CPU 0 instructions: 224501610 cycles: 63304457 heartbeat IPC: 3.589 cumulative IPC: 3.455 (Simulation time: 00 hr 17 min 26 sec)
Heartbeat CPU 0 instructions: 225001613 cycles: 63445550 heartbeat IPC: 3.544 cumulative IPC: 3.456 (Simulation time: 00 hr 17 min 28 sec)
Heartbeat CPU 0 instructions: 225501615 cycles: 63584317 heartbeat IPC: 3.603 cumulative IPC: 3.456 (Simulation time: 00 hr 17 min 30 sec)
Heartbeat CPU 0 instructions: 226001620 cycles: 63726512 heartbeat IPC: 3.516 cumulative IPC: 3.456 (Simulation time: 00 hr 17 min 33 sec)
Heartbeat CPU 0 instructions: 226501625 cycles: 63865461 heartbeat IPC: 3.598 cumulative IPC: 3.457 (Simulation time: 00 hr 17 min 35 sec)
Heartbeat CPU 0 instructions: 227001628 cycles: 64006761 heartbeat IPC: 3.539 cumulative IPC: 3.457 (Simulation time: 00 hr 17 min 37 sec)
Heartbeat CPU 0 instructions: 227501628 cycles: 64146048 heartbeat IPC: 3.59 cumulative IPC: 3.457 (Simulation time: 00 hr 17 min 39 sec)
Heartbeat CPU 0 instructions: 228001629 cycles: 64287529 heartbeat IPC: 3.534 cumulative IPC: 3.457 (Simulation time: 00 hr 17 min 41 sec)
Heartbeat CPU 0 instructions: 228501636 cycles: 64425421 heartbeat IPC: 3.626 cumulative IPC: 3.458 (Simulation time: 00 hr 17 min 43 sec)
Heartbeat CPU 0 instructions: 229001643 cycles: 64567649 heartbeat IPC: 3.516 cumulative IPC: 3.458 (Simulation time: 00 hr 17 min 45 sec)
Heartbeat CPU 0 instructions: 229501646 cycles: 64706903 heartbeat IPC: 3.591 cumulative IPC: 3.458 (Simulation time: 00 hr 17 min 47 sec)
Heartbeat CPU 0 instructions: 230001649 cycles: 64848139 heartbeat IPC: 3.54 cumulative IPC: 3.459 (Simulation time: 00 hr 17 min 49 sec)
Heartbeat CPU 0 instructions: 230501655 cycles: 64988226 heartbeat IPC: 3.569 cumulative IPC: 3.459 (Simulation time: 00 hr 17 min 51 sec)
Heartbeat CPU 0 instructions: 231001656 cycles: 65131418 heartbeat IPC: 3.492 cumulative IPC: 3.459 (Simulation time: 00 hr 17 min 53 sec)
Heartbeat CPU 0 instructions: 231501657 cycles: 65269338 heartbeat IPC: 3.625 cumulative IPC: 3.459 (Simulation time: 00 hr 17 min 55 sec)
Heartbeat CPU 0 instructions: 232001660 cycles: 65410682 heartbeat IPC: 3.537 cumulative IPC: 3.46 (Simulation time: 00 hr 17 min 57 sec)
Heartbeat CPU 0 instructions: 232501666 cycles: 65548407 heartbeat IPC: 3.63 cumulative IPC: 3.46 (Simulation time: 00 hr 17 min 59 sec)
Heartbeat CPU 0 instructions: 233001673 cycles: 65690814 heartbeat IPC: 3.511 cumulative IPC: 3.46 (Simulation time: 00 hr 18 min 01 sec)
Heartbeat CPU 0 instructions: 233501676 cycles: 65828661 heartbeat IPC: 3.627 cumulative IPC: 3.461 (Simulation time: 00 hr 18 min 03 sec)
Heartbeat CPU 0 instructions: 234001683 cycles: 65969754 heartbeat IPC: 3.544 cumulative IPC: 3.461 (Simulation time: 00 hr 18 min 05 sec)
Heartbeat CPU 0 instructions: 234501686 cycles: 66107256 heartbeat IPC: 3.636 cumulative IPC: 3.461 (Simulation time: 00 hr 18 min 07 sec)
Heartbeat CPU 0 instructions: 235001693 cycles: 66247383 heartbeat IPC: 3.568 cumulative IPC: 3.462 (Simulation time: 00 hr 18 min 09 sec)
Heartbeat CPU 0 instructions: 235501696 cycles: 66386092 heartbeat IPC: 3.605 cumulative IPC: 3.462 (Simulation time: 00 hr 18 min 11 sec)
Heartbeat CPU 0 instructions: 236001703 cycles: 66528072 heartbeat IPC: 3.522 cumulative IPC: 3.462 (Simulation time: 00 hr 18 min 13 sec)
Heartbeat CPU 0 instructions: 236501705 cycles: 66666587 heartbeat IPC: 3.61 cumulative IPC: 3.462 (Simulation time: 00 hr 18 min 15 sec)
Heartbeat CPU 0 instructions: 237001708 cycles: 66807024 heartbeat IPC: 3.56 cumulative IPC: 3.463 (Simulation time: 00 hr 18 min 17 sec)
Heartbeat CPU 0 instructions: 237501709 cycles: 66944708 heartbeat IPC: 3.632 cumulative IPC: 3.463 (Simulation time: 00 hr 18 min 19 sec)
Heartbeat CPU 0 instructions: 238001710 cycles: 67086266 heartbeat IPC: 3.532 cumulative IPC: 3.463 (Simulation time: 00 hr 18 min 21 sec)
Heartbeat CPU 0 instructions: 238501713 cycles: 67224140 heartbeat IPC: 3.627 cumulative IPC: 3.464 (Simulation time: 00 hr 18 min 23 sec)
Heartbeat CPU 0 instructions: 239001720 cycles: 67366441 heartbeat IPC: 3.514 cumulative IPC: 3.464 (Simulation time: 00 hr 18 min 25 sec)
Heartbeat CPU 0 instructions: 239501726 cycles: 67503836 heartbeat IPC: 3.639 cumulative IPC: 3.464 (Simulation time: 00 hr 18 min 28 sec)
Heartbeat CPU 0 instructions: 240001727 cycles: 67644596 heartbeat IPC: 3.552 cumulative IPC: 3.465 (Simulation time: 00 hr 18 min 30 sec)
Heartbeat CPU 0 instructions: 240501728 cycles: 67782330 heartbeat IPC: 3.63 cumulative IPC: 3.465 (Simulation time: 00 hr 18 min 32 sec)
Heartbeat CPU 0 instructions: 241001729 cycles: 67923934 heartbeat IPC: 3.531 cumulative IPC: 3.465 (Simulation time: 00 hr 18 min 34 sec)
Heartbeat CPU 0 instructions: 241501729 cycles: 68061800 heartbeat IPC: 3.627 cumulative IPC: 3.466 (Simulation time: 00 hr 18 min 36 sec)
Heartbeat CPU 0 instructions: 242001729 cycles: 68203876 heartbeat IPC: 3.519 cumulative IPC: 3.466 (Simulation time: 00 hr 18 min 38 sec)
Heartbeat CPU 0 instructions: 242501732 cycles: 68341592 heartbeat IPC: 3.631 cumulative IPC: 3.466 (Simulation time: 00 hr 18 min 40 sec)
Heartbeat CPU 0 instructions: 243001733 cycles: 68481523 heartbeat IPC: 3.573 cumulative IPC: 3.466 (Simulation time: 00 hr 18 min 42 sec)
Heartbeat CPU 0 instructions: 243501733 cycles: 68620482 heartbeat IPC: 3.598 cumulative IPC: 3.467 (Simulation time: 00 hr 18 min 44 sec)
Heartbeat CPU 0 instructions: 244001736 cycles: 68759642 heartbeat IPC: 3.593 cumulative IPC: 3.467 (Simulation time: 00 hr 18 min 46 sec)
Heartbeat CPU 0 instructions: 244501739 cycles: 68899730 heartbeat IPC: 3.569 cumulative IPC: 3.467 (Simulation time: 00 hr 18 min 48 sec)
Heartbeat CPU 0 instructions: 245001742 cycles: 69038114 heartbeat IPC: 3.613 cumulative IPC: 3.468 (Simulation time: 00 hr 18 min 50 sec)
Heartbeat CPU 0 instructions: 245501749 cycles: 69180639 heartbeat IPC: 3.508 cumulative IPC: 3.468 (Simulation time: 00 hr 18 min 52 sec)
Heartbeat CPU 0 instructions: 246001752 cycles: 69318384 heartbeat IPC: 3.63 cumulative IPC: 3.468 (Simulation time: 00 hr 18 min 54 sec)
Heartbeat CPU 0 instructions: 246501755 cycles: 69459186 heartbeat IPC: 3.551 cumulative IPC: 3.468 (Simulation time: 00 hr 18 min 56 sec)
Heartbeat CPU 0 instructions: 247001756 cycles: 69599009 heartbeat IPC: 3.576 cumulative IPC: 3.469 (Simulation time: 00 hr 18 min 58 sec)
Heartbeat CPU 0 instructions: 247501759 cycles: 69741244 heartbeat IPC: 3.515 cumulative IPC: 3.469 (Simulation time: 00 hr 19 min 00 sec)
Heartbeat CPU 0 instructions: 248001763 cycles: 69880010 heartbeat IPC: 3.603 cumulative IPC: 3.469 (Simulation time: 00 hr 19 min 02 sec)
Heartbeat CPU 0 instructions: 248501766 cycles: 70020465 heartbeat IPC: 3.56 cumulative IPC: 3.469 (Simulation time: 00 hr 19 min 04 sec)
Heartbeat CPU 0 instructions: 249001769 cycles: 70158078 heartbeat IPC: 3.633 cumulative IPC: 3.47 (Simulation time: 00 hr 19 min 06 sec)
Heartbeat CPU 0 instructions: 249501769 cycles: 70298748 heartbeat IPC: 3.554 cumulative IPC: 3.47 (Simulation time: 00 hr 19 min 08 sec)
Simulation finished CPU 0 instructions: 200000000 cycles: 57634040 cumulative IPC: 3.47 (Simulation time: 00 hr 19 min 10 sec)
Simulation complete CPU 0 instructions: 200000000 cycles: 57634040 cumulative IPC: 3.47 (Simulation time: 00 hr 19 min 10 sec)

ChampSim completed all CPUs

=== Simulation ===
CPU 0 runs /local-ssd/ben/dpc4-traces/ai-ml/vit.cpp-large-ggml-model-f16.gguf.armadillo.1.champsimtrace.gz

Region of Interest Statistics

CPU 0 cumulative IPC: 3.47 instructions: 200000000 cycles: 57634040
CPU 0 Branch Prediction Accuracy: 97.94% MPKI: 1.416 Average ROB Occupancy at Mispredict: 307.3
Branch type MPKI
BRANCH_DIRECT_JUMP: 7e-05
BRANCH_INDIRECT: 3.5e-05
BRANCH_CONDITIONAL: 1.415
BRANCH_DIRECT_CALL: 8.5e-05
BRANCH_INDIRECT_CALL: 2e-05
BRANCH_RETURN: 0.000105

cpu0->cpu0_STLB TOTAL        ACCESS:      24929 HIT:      13838 MISS:      11091 MSHR_MERGE:          0
cpu0->cpu0_STLB LOAD         ACCESS:      24929 HIT:      13838 MISS:      11091 MSHR_MERGE:          0
cpu0->cpu0_STLB RFO          ACCESS:          0 HIT:          0 MISS:          0 MSHR_MERGE:          0
cpu0->cpu0_STLB PREFETCH     ACCESS:          0 HIT:          0 MISS:          0 MSHR_MERGE:          0
cpu0->cpu0_STLB WRITE        ACCESS:          0 HIT:          0 MISS:          0 MSHR_MERGE:          0
cpu0->cpu0_STLB TRANSLATION  ACCESS:          0 HIT:          0 MISS:          0 MSHR_MERGE:          0
cpu0->cpu0_STLB PREFETCH REQUESTED:          0 ISSUED:          0 USEFUL:          0 USELESS:          0
cpu0->cpu0_STLB AVERAGE MISS LATENCY: 95.74 cycles
cpu0->cpu0_L2C TOTAL        ACCESS:   17010477 HIT:   14753588 MISS:    2256889 MSHR_MERGE:    1379584
cpu0->cpu0_L2C LOAD         ACCESS:    1627418 HIT:    1368566 MISS:     258852 MSHR_MERGE:     101231
cpu0->cpu0_L2C RFO          ACCESS:      57611 HIT:      22568 MISS:      35043 MSHR_MERGE:          0
cpu0->cpu0_L2C PREFETCH     ACCESS:   15212141 HIT:   13250847 MISS:    1961294 MSHR_MERGE:    1278353
cpu0->cpu0_L2C WRITE        ACCESS:     110622 HIT:     110620 MISS:          2 MSHR_MERGE:          0
cpu0->cpu0_L2C TRANSLATION  ACCESS:       2685 HIT:        987 MISS:       1698 MSHR_MERGE:          0
cpu0->cpu0_L2C PREFETCH REQUESTED:   21905029 ISSUED:   11474502 USEFUL:     422409 USELESS:     116377
cpu0->cpu0_L2C AVERAGE MISS LATENCY: 169.7 cycles
cpu0->cpu0_L1I TOTAL        ACCESS:   26259802 HIT:   26259677 MISS:        125 MSHR_MERGE:         18
cpu0->cpu0_L1I LOAD         ACCESS:   26259802 HIT:   26259677 MISS:        125 MSHR_MERGE:         18
cpu0->cpu0_L1I RFO          ACCESS:          0 HIT:          0 MISS:          0 MSHR_MERGE:          0
cpu0->cpu0_L1I PREFETCH     ACCESS:          0 HIT:          0 MISS:          0 MSHR_MERGE:          0
cpu0->cpu0_L1I WRITE        ACCESS:          0 HIT:          0 MISS:          0 MSHR_MERGE:          0
cpu0->cpu0_L1I TRANSLATION  ACCESS:          0 HIT:          0 MISS:          0 MSHR_MERGE:          0
cpu0->cpu0_L1I PREFETCH REQUESTED:          0 ISSUED:          0 USEFUL:          0 USELESS:          0
cpu0->cpu0_L1I AVERAGE MISS LATENCY: 154.3 cycles
cpu0->cpu0_L1D TOTAL        ACCESS:   54361470 HIT:   46374481 MISS:    7986989 MSHR_MERGE:    2561756
cpu0->cpu0_L1D LOAD         ACCESS:   48571763 HIT:   45040312 MISS:    3531451 MSHR_MERGE:    1904141
cpu0->cpu0_L1D RFO          ACCESS:          0 HIT:          0 MISS:          0 MSHR_MERGE:          0
cpu0->cpu0_L1D PREFETCH     ACCESS:    4729259 HIT:     535008 MISS:    4194251 MSHR_MERGE:     456624
cpu0->cpu0_L1D WRITE        ACCESS:    1038257 HIT:     779655 MISS:     258602 MSHR_MERGE:     200991
cpu0->cpu0_L1D TRANSLATION  ACCESS:      22191 HIT:      19506 MISS:       2685 MSHR_MERGE:          0
cpu0->cpu0_L1D PREFETCH REQUESTED:    5545983 ISSUED:    4729251 USEFUL:    3710948 USELESS:      26670
cpu0->cpu0_L1D AVERAGE MISS LATENCY: 34.55 cycles
cpu0->cpu0_ITLB TOTAL        ACCESS:   21418611 HIT:   21418592 MISS:         19 MSHR_MERGE:          7
cpu0->cpu0_ITLB LOAD         ACCESS:   21418611 HIT:   21418592 MISS:         19 MSHR_MERGE:          7
cpu0->cpu0_ITLB RFO          ACCESS:          0 HIT:          0 MISS:          0 MSHR_MERGE:          0
cpu0->cpu0_ITLB PREFETCH     ACCESS:          0 HIT:          0 MISS:          0 MSHR_MERGE:          0
cpu0->cpu0_ITLB WRITE        ACCESS:          0 HIT:          0 MISS:          0 MSHR_MERGE:          0
cpu0->cpu0_ITLB TRANSLATION  ACCESS:          0 HIT:          0 MISS:          0 MSHR_MERGE:          0
cpu0->cpu0_ITLB PREFETCH REQUESTED:          0 ISSUED:          0 USEFUL:          0 USELESS:          0
cpu0->cpu0_ITLB AVERAGE MISS LATENCY: 403.2 cycles
cpu0->cpu0_DTLB TOTAL        ACCESS:   49866247 HIT:   49731452 MISS:     134795 MSHR_MERGE:     109878
cpu0->cpu0_DTLB LOAD         ACCESS:   49866247 HIT:   49731452 MISS:     134795 MSHR_MERGE:     109878
cpu0->cpu0_DTLB RFO          ACCESS:          0 HIT:          0 MISS:          0 MSHR_MERGE:          0
cpu0->cpu0_DTLB PREFETCH     ACCESS:          0 HIT:          0 MISS:          0 MSHR_MERGE:          0
cpu0->cpu0_DTLB WRITE        ACCESS:          0 HIT:          0 MISS:          0 MSHR_MERGE:          0
cpu0->cpu0_DTLB TRANSLATION  ACCESS:          0 HIT:          0 MISS:          0 MSHR_MERGE:          0
cpu0->cpu0_DTLB PREFETCH REQUESTED:          0 ISSUED:          0 USEFUL:          0 USELESS:          0
cpu0->cpu0_DTLB AVERAGE MISS LATENCY: 47.87 cycles
cpu0->LLC TOTAL        ACCESS:    1736424 HIT:     304259 MISS:    1432165 MSHR_MERGE:     632639
cpu0->LLC LOAD         ACCESS:     157621 HIT:      25165 MISS:     132456 MSHR_MERGE:      26048
cpu0->LLC RFO          ACCESS:      35043 HIT:        505 MISS:      34538 MSHR_MERGE:          0
cpu0->LLC PREFETCH     ACCESS:    1493740 HIT:     273671 MISS:    1220069 MSHR_MERGE:     606591
cpu0->LLC WRITE        ACCESS:      48322 HIT:       4913 MISS:      43409 MSHR_MERGE:          0
cpu0->LLC TRANSLATION  ACCESS:       1698 HIT:          5 MISS:       1693 MSHR_MERGE:          0
cpu0->LLC PREFETCH REQUESTED:     975514 ISSUED:     810799 USEFUL:      86085 USELESS:     315032
cpu0->LLC AVERAGE MISS LATENCY: 178.3 cycles

DRAM Statistics

Channel 0 RQ ROW_BUFFER_HIT:     325695
  ROW_BUFFER_MISS:     430413
  AVG DBUS CONGESTED CYCLE: 4.929
Channel 0 WQ ROW_BUFFER_HIT:       7107
  ROW_BUFFER_MISS:      25672
  FULL:         82
Channel 0 REFRESHES ISSUED:       4803
