[VMEM] WARNING: physical memory size is smaller than virtual memory size.

*** ChampSim Multicore Out-of-Order Simulator ***
Warmup Instructions: 50000000
Simulation Instructions: 200000000
Number of CPUs: 1
Page size: 4096
Core 0: /local-ssd/ben/dpc4-traces/Graph/GMS/gms.k_clique_list_danisch_node_parallel.soc-pokec-relationships.slice-236.champsimstrace.gz
 L1D Berti prefetcher
Off-chip DRAM Size: 64 GiB Channels: 1 Width: 64-bit Data Rate: 4807 MT/s
Heartbeat CPU 0 instructions: 500006 cycles: 106935 heartbeat IPC: 4.676 cumulative IPC: 4.676 (Simulation time: 00 hr 00 min 02 sec)
Heartbeat CPU 0 instructions: 1000011 cycles: 208336 heartbeat IPC: 4.931 cumulative IPC: 4.8 (Simulation time: 00 hr 00 min 03 sec)
Heartbeat CPU 0 instructions: 1500011 cycles: 308994 heartbeat IPC: 4.967 cumulative IPC: 4.854 (Simulation time: 00 hr 00 min 05 sec)
Heartbeat CPU 0 instructions: 2000013 cycles: 409832 heartbeat IPC: 4.958 cumulative IPC: 4.88 (Simulation time: 00 hr 00 min 07 sec)
Heartbeat CPU 0 instructions: 2500020 cycles: 510499 heartbeat IPC: 4.967 cumulative IPC: 4.897 (Simulation time: 00 hr 00 min 08 sec)
Heartbeat CPU 0 instructions: 3000026 cycles: 611214 heartbeat IPC: 4.965 cumulative IPC: 4.908 (Simulation time: 00 hr 00 min 10 sec)
Heartbeat CPU 0 instructions: 3500033 cycles: 711225 heartbeat IPC: 5 cumulative IPC: 4.921 (Simulation time: 00 hr 00 min 12 sec)
Heartbeat CPU 0 instructions: 4000035 cycles: 811318 heartbeat IPC: 4.995 cumulative IPC: 4.93 (Simulation time: 00 hr 00 min 13 sec)
Heartbeat CPU 0 instructions: 4500036 cycles: 912799 heartbeat IPC: 4.927 cumulative IPC: 4.93 (Simulation time: 00 hr 00 min 15 sec)
Heartbeat CPU 0 instructions: 5000042 cycles: 1016656 heartbeat IPC: 4.814 cumulative IPC: 4.918 (Simulation time: 00 hr 00 min 17 sec)
Heartbeat CPU 0 instructions: 5500046 cycles: 1117394 heartbeat IPC: 4.963 cumulative IPC: 4.922 (Simulation time: 00 hr 00 min 19 sec)
Heartbeat CPU 0 instructions: 6000051 cycles: 1217994 heartbeat IPC: 4.97 cumulative IPC: 4.926 (Simulation time: 00 hr 00 min 20 sec)
Heartbeat CPU 0 instructions: 6500053 cycles: 1318439 heartbeat IPC: 4.978 cumulative IPC: 4.93 (Simulation time: 00 hr 00 min 22 sec)
Heartbeat CPU 0 instructions: 7000060 cycles: 1418785 heartbeat IPC: 4.983 cumulative IPC: 4.934 (Simulation time: 00 hr 00 min 24 sec)
Heartbeat CPU 0 instructions: 7500066 cycles: 1519620 heartbeat IPC: 4.959 cumulative IPC: 4.935 (Simulation time: 00 hr 00 min 26 sec)
Heartbeat CPU 0 instructions: 8000071 cycles: 1620090 heartbeat IPC: 4.977 cumulative IPC: 4.938 (Simulation time: 00 hr 00 min 27 sec)
Heartbeat CPU 0 instructions: 8500072 cycles: 1720556 heartbeat IPC: 4.977 cumulative IPC: 4.94 (Simulation time: 00 hr 00 min 29 sec)
Heartbeat CPU 0 instructions: 9000074 cycles: 1821738 heartbeat IPC: 4.942 cumulative IPC: 4.94 (Simulation time: 00 hr 00 min 31 sec)
Heartbeat CPU 0 instructions: 9500077 cycles: 1922626 heartbeat IPC: 4.956 cumulative IPC: 4.941 (Simulation time: 00 hr 00 min 33 sec)
Heartbeat CPU 0 instructions: 10000077 cycles: 2023337 heartbeat IPC: 4.965 cumulative IPC: 4.942 (Simulation time: 00 hr 00 min 34 sec)
Heartbeat CPU 0 instructions: 10500082 cycles: 2124556 heartbeat IPC: 4.94 cumulative IPC: 4.942 (Simulation time: 00 hr 00 min 36 sec)
Heartbeat CPU 0 instructions: 11000084 cycles: 2224665 heartbeat IPC: 4.995 cumulative IPC: 4.945 (Simulation time: 00 hr 00 min 38 sec)
Heartbeat CPU 0 instructions: 11500087 cycles: 2325649 heartbeat IPC: 4.951 cumulative IPC: 4.945 (Simulation time: 00 hr 00 min 40 sec)
Heartbeat CPU 0 instructions: 12000094 cycles: 2426632 heartbeat IPC: 4.951 cumulative IPC: 4.945 (Simulation time: 00 hr 00 min 41 sec)
Heartbeat CPU 0 instructions: 12500094 cycles: 2527085 heartbeat IPC: 4.977 cumulative IPC: 4.946 (Simulation time: 00 hr 00 min 43 sec)
Heartbeat CPU 0 instructions: 13000098 cycles: 2628203 heartbeat IPC: 4.945 cumulative IPC: 4.946 (Simulation time: 00 hr 00 min 45 sec)
Heartbeat CPU 0 instructions: 13500100 cycles: 2728462 heartbeat IPC: 4.987 cumulative IPC: 4.948 (Simulation time: 00 hr 00 min 47 sec)
Heartbeat CPU 0 instructions: 14000103 cycles: 2828493 heartbeat IPC: 4.998 cumulative IPC: 4.95 (Simulation time: 00 hr 00 min 48 sec)
Heartbeat CPU 0 instructions: 14500104 cycles: 2929092 heartbeat IPC: 4.97 cumulative IPC: 4.95 (Simulation time: 00 hr 00 min 50 sec)
Heartbeat CPU 0 instructions: 15000105 cycles: 3031711 heartbeat IPC: 4.872 cumulative IPC: 4.948 (Simulation time: 00 hr 00 min 52 sec)
Heartbeat CPU 0 instructions: 15500105 cycles: 3131798 heartbeat IPC: 4.996 cumulative IPC: 4.949 (Simulation time: 00 hr 00 min 54 sec)
Heartbeat CPU 0 instructions: 16000108 cycles: 3232028 heartbeat IPC: 4.989 cumulative IPC: 4.95 (Simulation time: 00 hr 00 min 55 sec)
Heartbeat CPU 0 instructions: 16500111 cycles: 3332445 heartbeat IPC: 4.979 cumulative IPC: 4.951 (Simulation time: 00 hr 00 min 57 sec)
Heartbeat CPU 0 instructions: 17000118 cycles: 3432822 heartbeat IPC: 4.981 cumulative IPC: 4.952 (Simulation time: 00 hr 00 min 59 sec)
Heartbeat CPU 0 instructions: 17500119 cycles: 3535353 heartbeat IPC: 4.877 cumulative IPC: 4.95 (Simulation time: 00 hr 01 min 01 sec)
Heartbeat CPU 0 instructions: 18000124 cycles: 3637604 heartbeat IPC: 4.89 cumulative IPC: 4.948 (Simulation time: 00 hr 01 min 03 sec)
Heartbeat CPU 0 instructions: 18500130 cycles: 3738854 heartbeat IPC: 4.938 cumulative IPC: 4.948 (Simulation time: 00 hr 01 min 05 sec)
Heartbeat CPU 0 instructions: 19000135 cycles: 3839124 heartbeat IPC: 4.987 cumulative IPC: 4.949 (Simulation time: 00 hr 01 min 06 sec)
Heartbeat CPU 0 instructions: 19500135 cycles: 3939730 heartbeat IPC: 4.97 cumulative IPC: 4.95 (Simulation time: 00 hr 01 min 08 sec)
Heartbeat CPU 0 instructions: 20000140 cycles: 4039844 heartbeat IPC: 4.994 cumulative IPC: 4.951 (Simulation time: 00 hr 01 min 10 sec)
Heartbeat CPU 0 instructions: 20500147 cycles: 4140810 heartbeat IPC: 4.952 cumulative IPC: 4.951 (Simulation time: 00 hr 01 min 12 sec)
Heartbeat CPU 0 instructions: 21000154 cycles: 4242044 heartbeat IPC: 4.939 cumulative IPC: 4.95 (Simulation time: 00 hr 01 min 13 sec)
Heartbeat CPU 0 instructions: 21500161 cycles: 4345079 heartbeat IPC: 4.853 cumulative IPC: 4.948 (Simulation time: 00 hr 01 min 15 sec)
Heartbeat CPU 0 instructions: 22000165 cycles: 4446107 heartbeat IPC: 4.949 cumulative IPC: 4.948 (Simulation time: 00 hr 01 min 17 sec)
Heartbeat CPU 0 instructions: 22500169 cycles: 4546313 heartbeat IPC: 4.99 cumulative IPC: 4.949 (Simulation time: 00 hr 01 min 19 sec)
Heartbeat CPU 0 instructions: 23000173 cycles: 4647678 heartbeat IPC: 4.933 cumulative IPC: 4.949 (Simulation time: 00 hr 01 min 21 sec)
Heartbeat CPU 0 instructions: 23500173 cycles: 4748921 heartbeat IPC: 4.939 cumulative IPC: 4.949 (Simulation time: 00 hr 01 min 23 sec)
Heartbeat CPU 0 instructions: 24000177 cycles: 4851145 heartbeat IPC: 4.891 cumulative IPC: 4.947 (Simulation time: 00 hr 01 min 24 sec)
Heartbeat CPU 0 instructions: 24500177 cycles: 4952502 heartbeat IPC: 4.933 cumulative IPC: 4.947 (Simulation time: 00 hr 01 min 26 sec)
Heartbeat CPU 0 instructions: 25000184 cycles: 5053622 heartbeat IPC: 4.945 cumulative IPC: 4.947 (Simulation time: 00 hr 01 min 28 sec)
Heartbeat CPU 0 instructions: 25500185 cycles: 5155487 heartbeat IPC: 4.908 cumulative IPC: 4.946 (Simulation time: 00 hr 01 min 30 sec)
Heartbeat CPU 0 instructions: 26000185 cycles: 5256846 heartbeat IPC: 4.933 cumulative IPC: 4.946 (Simulation time: 00 hr 01 min 32 sec)
Heartbeat CPU 0 instructions: 26500185 cycles: 5358648 heartbeat IPC: 4.911 cumulative IPC: 4.945 (Simulation time: 00 hr 01 min 34 sec)
Heartbeat CPU 0 instructions: 27000185 cycles: 5459891 heartbeat IPC: 4.939 cumulative IPC: 4.945 (Simulation time: 00 hr 01 min 35 sec)
Heartbeat CPU 0 instructions: 27500192 cycles: 5562092 heartbeat IPC: 4.892 cumulative IPC: 4.944 (Simulation time: 00 hr 01 min 37 sec)
Heartbeat CPU 0 instructions: 28000193 cycles: 5664095 heartbeat IPC: 4.902 cumulative IPC: 4.943 (Simulation time: 00 hr 01 min 39 sec)
Heartbeat CPU 0 instructions: 28500200 cycles: 5765885 heartbeat IPC: 4.912 cumulative IPC: 4.943 (Simulation time: 00 hr 01 min 41 sec)
Heartbeat CPU 0 instructions: 29000200 cycles: 5867372 heartbeat IPC: 4.927 cumulative IPC: 4.943 (Simulation time: 00 hr 01 min 43 sec)
Heartbeat CPU 0 instructions: 29500207 cycles: 5969007 heartbeat IPC: 4.92 cumulative IPC: 4.942 (Simulation time: 00 hr 01 min 45 sec)
Heartbeat CPU 0 instructions: 30000214 cycles: 6071906 heartbeat IPC: 4.859 cumulative IPC: 4.941 (Simulation time: 00 hr 01 min 47 sec)
Heartbeat CPU 0 instructions: 30500219 cycles: 6173477 heartbeat IPC: 4.923 cumulative IPC: 4.941 (Simulation time: 00 hr 01 min 48 sec)
Heartbeat CPU 0 instructions: 31000224 cycles: 6276920 heartbeat IPC: 4.834 cumulative IPC: 4.939 (Simulation time: 00 hr 01 min 50 sec)
Heartbeat CPU 0 instructions: 31500230 cycles: 6378815 heartbeat IPC: 4.907 cumulative IPC: 4.938 (Simulation time: 00 hr 01 min 52 sec)
Heartbeat CPU 0 instructions: 32000233 cycles: 6482092 heartbeat IPC: 4.841 cumulative IPC: 4.937 (Simulation time: 00 hr 01 min 54 sec)
Heartbeat CPU 0 instructions: 32500235 cycles: 6585819 heartbeat IPC: 4.82 cumulative IPC: 4.935 (Simulation time: 00 hr 01 min 56 sec)
Heartbeat CPU 0 instructions: 33000242 cycles: 6690243 heartbeat IPC: 4.788 cumulative IPC: 4.933 (Simulation time: 00 hr 01 min 58 sec)
Heartbeat CPU 0 instructions: 33500244 cycles: 6794295 heartbeat IPC: 4.805 cumulative IPC: 4.931 (Simulation time: 00 hr 02 min 00 sec)
Heartbeat CPU 0 instructions: 34000250 cycles: 6899569 heartbeat IPC: 4.75 cumulative IPC: 4.928 (Simulation time: 00 hr 02 min 02 sec)
Heartbeat CPU 0 instructions: 34500253 cycles: 7049621 heartbeat IPC: 3.332 cumulative IPC: 4.894 (Simulation time: 00 hr 02 min 05 sec)
Heartbeat CPU 0 instructions: 35000253 cycles: 7196251 heartbeat IPC: 3.41 cumulative IPC: 4.864 (Simulation time: 00 hr 02 min 08 sec)
Heartbeat CPU 0 instructions: 35500256 cycles: 7322541 heartbeat IPC: 3.959 cumulative IPC: 4.848 (Simulation time: 00 hr 02 min 10 sec)
Heartbeat CPU 0 instructions: 36000257 cycles: 7423774 heartbeat IPC: 4.939 cumulative IPC: 4.849 (Simulation time: 00 hr 02 min 12 sec)
Heartbeat CPU 0 instructions: 36500257 cycles: 7526694 heartbeat IPC: 4.858 cumulative IPC: 4.849 (Simulation time: 00 hr 02 min 14 sec)
Heartbeat CPU 0 instructions: 37000263 cycles: 7627763 heartbeat IPC: 4.947 cumulative IPC: 4.851 (Simulation time: 00 hr 02 min 16 sec)
Heartbeat CPU 0 instructions: 37500266 cycles: 7728400 heartbeat IPC: 4.968 cumulative IPC: 4.852 (Simulation time: 00 hr 02 min 18 sec)
Heartbeat CPU 0 instructions: 38000267 cycles: 7828764 heartbeat IPC: 4.982 cumulative IPC: 4.854 (Simulation time: 00 hr 02 min 19 sec)
Heartbeat CPU 0 instructions: 38500269 cycles: 7929645 heartbeat IPC: 4.956 cumulative IPC: 4.855 (Simulation time: 00 hr 02 min 21 sec)
Heartbeat CPU 0 instructions: 39000270 cycles: 8030311 heartbeat IPC: 4.967 cumulative IPC: 4.857 (Simulation time: 00 hr 02 min 23 sec)
Heartbeat CPU 0 instructions: 39500275 cycles: 8132176 heartbeat IPC: 4.909 cumulative IPC: 4.857 (Simulation time: 00 hr 02 min 25 sec)
Heartbeat CPU 0 instructions: 40000275 cycles: 8232591 heartbeat IPC: 4.979 cumulative IPC: 4.859 (Simulation time: 00 hr 02 min 27 sec)
Heartbeat CPU 0 instructions: 40500281 cycles: 8333663 heartbeat IPC: 4.947 cumulative IPC: 4.86 (Simulation time: 00 hr 02 min 28 sec)
Heartbeat CPU 0 instructions: 41000284 cycles: 8435723 heartbeat IPC: 4.899 cumulative IPC: 4.86 (Simulation time: 00 hr 02 min 30 sec)
Heartbeat CPU 0 instructions: 41500287 cycles: 8537841 heartbeat IPC: 4.896 cumulative IPC: 4.861 (Simulation time: 00 hr 02 min 32 sec)
Heartbeat CPU 0 instructions: 42000288 cycles: 8639610 heartbeat IPC: 4.913 cumulative IPC: 4.861 (Simulation time: 00 hr 02 min 34 sec)
Heartbeat CPU 0 instructions: 42500292 cycles: 8741448 heartbeat IPC: 4.91 cumulative IPC: 4.862 (Simulation time: 00 hr 02 min 36 sec)
Heartbeat CPU 0 instructions: 43000296 cycles: 8842299 heartbeat IPC: 4.958 cumulative IPC: 4.863 (Simulation time: 00 hr 02 min 38 sec)
Heartbeat CPU 0 instructions: 43500299 cycles: 8943726 heartbeat IPC: 4.93 cumulative IPC: 4.864 (Simulation time: 00 hr 02 min 40 sec)
Heartbeat CPU 0 instructions: 44000306 cycles: 9045778 heartbeat IPC: 4.9 cumulative IPC: 4.864 (Simulation time: 00 hr 02 min 41 sec)
Heartbeat CPU 0 instructions: 44500312 cycles: 9147181 heartbeat IPC: 4.931 cumulative IPC: 4.865 (Simulation time: 00 hr 02 min 43 sec)
Heartbeat CPU 0 instructions: 45000312 cycles: 9248785 heartbeat IPC: 4.921 cumulative IPC: 4.866 (Simulation time: 00 hr 02 min 45 sec)
Heartbeat CPU 0 instructions: 45500315 cycles: 9350409 heartbeat IPC: 4.92 cumulative IPC: 4.866 (Simulation time: 00 hr 02 min 47 sec)
Heartbeat CPU 0 instructions: 46000316 cycles: 9452137 heartbeat IPC: 4.915 cumulative IPC: 4.867 (Simulation time: 00 hr 02 min 49 sec)
Heartbeat CPU 0 instructions: 46500319 cycles: 9554292 heartbeat IPC: 4.895 cumulative IPC: 4.867 (Simulation time: 00 hr 02 min 51 sec)
Heartbeat CPU 0 instructions: 47000320 cycles: 9657112 heartbeat IPC: 4.863 cumulative IPC: 4.867 (Simulation time: 00 hr 02 min 53 sec)
Heartbeat CPU 0 instructions: 47500323 cycles: 9759932 heartbeat IPC: 4.863 cumulative IPC: 4.867 (Simulation time: 00 hr 02 min 55 sec)
Heartbeat CPU 0 instructions: 48000323 cycles: 9863449 heartbeat IPC: 4.83 cumulative IPC: 4.866 (Simulation time: 00 hr 02 min 57 sec)
Heartbeat CPU 0 instructions: 48500323 cycles: 9967419 heartbeat IPC: 4.809 cumulative IPC: 4.866 (Simulation time: 00 hr 02 min 59 sec)
Heartbeat CPU 0 instructions: 49000327 cycles: 10071639 heartbeat IPC: 4.798 cumulative IPC: 4.865 (Simulation time: 00 hr 03 min 01 sec)
Heartbeat CPU 0 instructions: 49500334 cycles: 10175432 heartbeat IPC: 4.817 cumulative IPC: 4.865 (Simulation time: 00 hr 03 min 03 sec)
Warmup finished CPU 0 instructions: 50000006 cycles: 10278863 cumulative IPC: 4.864 (Simulation time: 00 hr 03 min 05 sec)
Warmup complete CPU 0 instructions: 50000006 cycles: 10278863 cumulative IPC: 4.864 (Simulation time: 00 hr 03 min 05 sec)
Heartbeat CPU 0 instructions: 50000339 cycles: 10278956 heartbeat IPC: 4.83 cumulative IPC: 3.581 (Simulation time: 00 hr 03 min 05 sec)
Heartbeat CPU 0 instructions: 50500340 cycles: 10640639 heartbeat IPC: 1.382 cumulative IPC: 1.383 (Simulation time: 00 hr 03 min 07 sec)
Heartbeat CPU 0 instructions: 51000341 cycles: 10992145 heartbeat IPC: 1.422 cumulative IPC: 1.402 (Simulation time: 00 hr 03 min 10 sec)
Heartbeat CPU 0 instructions: 51500346 cycles: 11699482 heartbeat IPC: 0.7069 cumulative IPC: 1.056 (Simulation time: 00 hr 03 min 16 sec)
Heartbeat CPU 0 instructions: 52000351 cycles: 12817600 heartbeat IPC: 0.4472 cumulative IPC: 0.7879 (Simulation time: 00 hr 03 min 24 sec)
Heartbeat CPU 0 instructions: 52500354 cycles: 13169071 heartbeat IPC: 1.423 cumulative IPC: 0.8651 (Simulation time: 00 hr 03 min 27 sec)
Heartbeat CPU 0 instructions: 53000354 cycles: 13929368 heartbeat IPC: 0.6576 cumulative IPC: 0.8219 (Simulation time: 00 hr 03 min 33 sec)
Heartbeat CPU 0 instructions: 53500356 cycles: 14281382 heartbeat IPC: 1.42 cumulative IPC: 0.8745 (Simulation time: 00 hr 03 min 36 sec)
Heartbeat CPU 0 instructions: 54000363 cycles: 15570671 heartbeat IPC: 0.3878 cumulative IPC: 0.756 (Simulation time: 00 hr 03 min 46 sec)
Heartbeat CPU 0 instructions: 54500368 cycles: 15923585 heartbeat IPC: 1.417 cumulative IPC: 0.7973 (Simulation time: 00 hr 03 min 49 sec)
Heartbeat CPU 0 instructions: 55000372 cycles: 16638907 heartbeat IPC: 0.699 cumulative IPC: 0.7862 (Simulation time: 00 hr 03 min 54 sec)
Heartbeat CPU 0 instructions: 55500378 cycles: 17024377 heartbeat IPC: 1.297 cumulative IPC: 0.8154 (Simulation time: 00 hr 03 min 57 sec)
Heartbeat CPU 0 instructions: 56000379 cycles: 17386660 heartbeat IPC: 1.38 cumulative IPC: 0.8442 (Simulation time: 00 hr 04 min 00 sec)
Heartbeat CPU 0 instructions: 56500380 cycles: 17755595 heartbeat IPC: 1.355 cumulative IPC: 0.8694 (Simulation time: 00 hr 04 min 03 sec)
Heartbeat CPU 0 instructions: 57000381 cycles: 18502861 heartbeat IPC: 0.6691 cumulative IPC: 0.8512 (Simulation time: 00 hr 04 min 09 sec)
Heartbeat CPU 0 instructions: 57500381 cycles: 19180554 heartbeat IPC: 0.7378 cumulative IPC: 0.8426 (Simulation time: 00 hr 04 min 14 sec)
Heartbeat CPU 0 instructions: 58000384 cycles: 19904047 heartbeat IPC: 0.6911 cumulative IPC: 0.8312 (Simulation time: 00 hr 04 min 20 sec)
Heartbeat CPU 0 instructions: 58500387 cycles: 20956766 heartbeat IPC: 0.475 cumulative IPC: 0.7961 (Simulation time: 00 hr 04 min 28 sec)
Heartbeat CPU 0 instructions: 59000391 cycles: 21310181 heartbeat IPC: 1.415 cumulative IPC: 0.8159 (Simulation time: 00 hr 04 min 31 sec)
Heartbeat CPU 0 instructions: 59500392 cycles: 22045918 heartbeat IPC: 0.6796 cumulative IPC: 0.8074 (Simulation time: 00 hr 04 min 36 sec)
Heartbeat CPU 0 instructions: 60000392 cycles: 23121313 heartbeat IPC: 0.4649 cumulative IPC: 0.7787 (Simulation time: 00 hr 04 min 44 sec)
Heartbeat CPU 0 instructions: 60500398 cycles: 23531788 heartbeat IPC: 1.218 cumulative IPC: 0.7923 (Simulation time: 00 hr 04 min 47 sec)
Heartbeat CPU 0 instructions: 61000398 cycles: 23932523 heartbeat IPC: 1.248 cumulative IPC: 0.8057 (Simulation time: 00 hr 04 min 50 sec)
Heartbeat CPU 0 instructions: 61500404 cycles: 24320764 heartbeat IPC: 1.288 cumulative IPC: 0.819 (Simulation time: 00 hr 04 min 53 sec)
Heartbeat CPU 0 instructions: 62000405 cycles: 24714297 heartbeat IPC: 1.271 cumulative IPC: 0.8313 (Simulation time: 00 hr 04 min 56 sec)
Heartbeat CPU 0 instructions: 62500407 cycles: 25087233 heartbeat IPC: 1.341 cumulative IPC: 0.8441 (Simulation time: 00 hr 04 min 59 sec)
Heartbeat CPU 0 instructions: 63000409 cycles: 25477880 heartbeat IPC: 1.28 cumulative IPC: 0.8553 (Simulation time: 00 hr 05 min 02 sec)
Heartbeat CPU 0 instructions: 63500410 cycles: 25837907 heartbeat IPC: 1.389 cumulative IPC: 0.8677 (Simulation time: 00 hr 05 min 05 sec)
Heartbeat CPU 0 instructions: 64000412 cycles: 26218670 heartbeat IPC: 1.313 cumulative IPC: 0.8783 (Simulation time: 00 hr 05 min 08 sec)
Heartbeat CPU 0 instructions: 64500413 cycles: 26595486 heartbeat IPC: 1.327 cumulative IPC: 0.8887 (Simulation time: 00 hr 05 min 11 sec)
Heartbeat CPU 0 instructions: 65000417 cycles: 26973964 heartbeat IPC: 1.321 cumulative IPC: 0.8985 (Simulation time: 00 hr 05 min 14 sec)
Heartbeat CPU 0 instructions: 65500420 cycles: 27365022 heartbeat IPC: 1.279 cumulative IPC: 0.9072 (Simulation time: 00 hr 05 min 17 sec)
Heartbeat CPU 0 instructions: 66000422 cycles: 27733586 heartbeat IPC: 1.357 cumulative IPC: 0.9167 (Simulation time: 00 hr 05 min 20 sec)
Heartbeat CPU 0 instructions: 66500423 cycles: 28459381 heartbeat IPC: 0.6889 cumulative IPC: 0.9076 (Simulation time: 00 hr 05 min 26 sec)
Heartbeat CPU 0 instructions: 67000423 cycles: 29509932 heartbeat IPC: 0.4759 cumulative IPC: 0.884 (Simulation time: 00 hr 05 min 35 sec)
Heartbeat CPU 0 instructions: 67500429 cycles: 30564971 heartbeat IPC: 0.4739 cumulative IPC: 0.8627 (Simulation time: 00 hr 05 min 43 sec)
Heartbeat CPU 0 instructions: 68000432 cycles: 30966261 heartbeat IPC: 1.246 cumulative IPC: 0.8701 (Simulation time: 00 hr 05 min 46 sec)
Heartbeat CPU 0 instructions: 68500436 cycles: 31370802 heartbeat IPC: 1.236 cumulative IPC: 0.8771 (Simulation time: 00 hr 05 min 49 sec)
Heartbeat CPU 0 instructions: 69000437 cycles: 31773314 heartbeat IPC: 1.242 cumulative IPC: 0.884 (Simulation time: 00 hr 05 min 52 sec)
Heartbeat CPU 0 instructions: 69500439 cycles: 32162243 heartbeat IPC: 1.286 cumulative IPC: 0.8911 (Simulation time: 00 hr 05 min 55 sec)
Heartbeat CPU 0 instructions: 70000446 cycles: 32574015 heartbeat IPC: 1.214 cumulative IPC: 0.8971 (Simulation time: 00 hr 05 min 58 sec)
Heartbeat CPU 0 instructions: 70500449 cycles: 32971489 heartbeat IPC: 1.258 cumulative IPC: 0.9034 (Simulation time: 00 hr 06 min 01 sec)
Heartbeat CPU 0 instructions: 71000449 cycles: 33365809 heartbeat IPC: 1.268 cumulative IPC: 0.9096 (Simulation time: 00 hr 06 min 04 sec)
Heartbeat CPU 0 instructions: 71500449 cycles: 33772261 heartbeat IPC: 1.23 cumulative IPC: 0.9152 (Simulation time: 00 hr 06 min 07 sec)
Heartbeat CPU 0 instructions: 72000450 cycles: 34179195 heartbeat IPC: 1.229 cumulative IPC: 0.9205 (Simulation time: 00 hr 06 min 11 sec)
Heartbeat CPU 0 instructions: 72500451 cycles: 34595150 heartbeat IPC: 1.202 cumulative IPC: 0.9253 (Simulation time: 00 hr 06 min 14 sec)
Heartbeat CPU 0 instructions: 73000456 cycles: 34999671 heartbeat IPC: 1.236 cumulative IPC: 0.9304 (Simulation time: 00 hr 06 min 17 sec)
Heartbeat CPU 0 instructions: 73500458 cycles: 35406972 heartbeat IPC: 1.228 cumulative IPC: 0.9352 (Simulation time: 00 hr 06 min 20 sec)
Heartbeat CPU 0 instructions: 74000465 cycles: 35816855 heartbeat IPC: 1.22 cumulative IPC: 0.9398 (Simulation time: 00 hr 06 min 23 sec)
Heartbeat CPU 0 instructions: 74500469 cycles: 36213643 heartbeat IPC: 1.26 cumulative IPC: 0.9447 (Simulation time: 00 hr 06 min 26 sec)
Heartbeat CPU 0 instructions: 75000470 cycles: 36627092 heartbeat IPC: 1.209 cumulative IPC: 0.9488 (Simulation time: 00 hr 06 min 29 sec)
Heartbeat CPU 0 instructions: 75500470 cycles: 37031499 heartbeat IPC: 1.236 cumulative IPC: 0.9532 (Simulation time: 00 hr 06 min 32 sec)
Heartbeat CPU 0 instructions: 76000470 cycles: 37436768 heartbeat IPC: 1.234 cumulative IPC: 0.9574 (Simulation time: 00 hr 06 min 36 sec)
Heartbeat CPU 0 instructions: 76500473 cycles: 37852063 heartbeat IPC: 1.204 cumulative IPC: 0.9611 (Simulation time: 00 hr 06 min 39 sec)
Heartbeat CPU 0 instructions: 77000477 cycles: 38256917 heartbeat IPC: 1.235 cumulative IPC: 0.9651 (Simulation time: 00 hr 06 min 42 sec)
Heartbeat CPU 0 instructions: 77500477 cycles: 38650470 heartbeat IPC: 1.27 cumulative IPC: 0.9693 (Simulation time: 00 hr 06 min 45 sec)
Heartbeat CPU 0 instructions: 78000478 cycles: 39020514 heartbeat IPC: 1.351 cumulative IPC: 0.9742 (Simulation time: 00 hr 06 min 48 sec)
Heartbeat CPU 0 instructions: 78500478 cycles: 39415879 heartbeat IPC: 1.265 cumulative IPC: 0.9782 (Simulation time: 00 hr 06 min 51 sec)
Heartbeat CPU 0 instructions: 79000480 cycles: 39812477 heartbeat IPC: 1.261 cumulative IPC: 0.9819 (Simulation time: 00 hr 06 min 54 sec)
Heartbeat CPU 0 instructions: 79500483 cycles: 40226162 heartbeat IPC: 1.209 cumulative IPC: 0.9851 (Simulation time: 00 hr 06 min 57 sec)
Heartbeat CPU 0 instructions: 80000484 cycles: 40633145 heartbeat IPC: 1.229 cumulative IPC: 0.9883 (Simulation time: 00 hr 07 min 00 sec)
Heartbeat CPU 0 instructions: 80500487 cycles: 41031590 heartbeat IPC: 1.255 cumulative IPC: 0.9918 (Simulation time: 00 hr 07 min 03 sec)
Heartbeat CPU 0 instructions: 81000490 cycles: 41412725 heartbeat IPC: 1.312 cumulative IPC: 0.9957 (Simulation time: 00 hr 07 min 06 sec)
Heartbeat CPU 0 instructions: 81500491 cycles: 41806496 heartbeat IPC: 1.27 cumulative IPC: 0.9991 (Simulation time: 00 hr 07 min 09 sec)
Heartbeat CPU 0 instructions: 82000491 cycles: 42172785 heartbeat IPC: 1.365 cumulative IPC: 1.003 (Simulation time: 00 hr 07 min 12 sec)
Heartbeat CPU 0 instructions: 82500492 cycles: 42535570 heartbeat IPC: 1.378 cumulative IPC: 1.008 (Simulation time: 00 hr 07 min 15 sec)
Heartbeat CPU 0 instructions: 83000493 cycles: 42925060 heartbeat IPC: 1.284 cumulative IPC: 1.011 (Simulation time: 00 hr 07 min 18 sec)
Heartbeat CPU 0 instructions: 83500499 cycles: 43324201 heartbeat IPC: 1.253 cumulative IPC: 1.014 (Simulation time: 00 hr 07 min 21 sec)
Heartbeat CPU 0 instructions: 84000499 cycles: 43696928 heartbeat IPC: 1.341 cumulative IPC: 1.017 (Simulation time: 00 hr 07 min 24 sec)
Heartbeat CPU 0 instructions: 84500500 cycles: 44072939 heartbeat IPC: 1.33 cumulative IPC: 1.021 (Simulation time: 00 hr 07 min 27 sec)
Heartbeat CPU 0 instructions: 85000502 cycles: 44462439 heartbeat IPC: 1.284 cumulative IPC: 1.024 (Simulation time: 00 hr 07 min 30 sec)
Heartbeat CPU 0 instructions: 85500509 cycles: 44866134 heartbeat IPC: 1.239 cumulative IPC: 1.026 (Simulation time: 00 hr 07 min 33 sec)
Heartbeat CPU 0 instructions: 86000511 cycles: 45251512 heartbeat IPC: 1.297 cumulative IPC: 1.029 (Simulation time: 00 hr 07 min 36 sec)
Heartbeat CPU 0 instructions: 86500515 cycles: 45629441 heartbeat IPC: 1.323 cumulative IPC: 1.033 (Simulation time: 00 hr 07 min 39 sec)
Heartbeat CPU 0 instructions: 87000516 cycles: 46023708 heartbeat IPC: 1.268 cumulative IPC: 1.035 (Simulation time: 00 hr 07 min 42 sec)
Heartbeat CPU 0 instructions: 87500518 cycles: 46416209 heartbeat IPC: 1.274 cumulative IPC: 1.038 (Simulation time: 00 hr 07 min 45 sec)
Heartbeat CPU 0 instructions: 88000518 cycles: 46822689 heartbeat IPC: 1.23 cumulative IPC: 1.04 (Simulation time: 00 hr 07 min 48 sec)
Heartbeat CPU 0 instructions: 88500519 cycles: 47223015 heartbeat IPC: 1.249 cumulative IPC: 1.042 (Simulation time: 00 hr 07 min 51 sec)
Heartbeat CPU 0 instructions: 89000520 cycles: 47630595 heartbeat IPC: 1.227 cumulative IPC: 1.044 (Simulation time: 00 hr 07 min 54 sec)
Heartbeat CPU 0 instructions: 89500523 cycles: 48034940 heartbeat IPC: 1.237 cumulative IPC: 1.046 (Simulation time: 00 hr 07 min 58 sec)
Heartbeat CPU 0 instructions: 90000529 cycles: 48438858 heartbeat IPC: 1.238 cumulative IPC: 1.048 (Simulation time: 00 hr 08 min 01 sec)
Heartbeat CPU 0 instructions: 90500530 cycles: 48840550 heartbeat IPC: 1.245 cumulative IPC: 1.05 (Simulation time: 00 hr 08 min 04 sec)
Heartbeat CPU 0 instructions: 91000530 cycles: 49230780 heartbeat IPC: 1.281 cumulative IPC: 1.053 (Simulation time: 00 hr 08 min 07 sec)
Heartbeat CPU 0 instructions: 91500531 cycles: 49628094 heartbeat IPC: 1.258 cumulative IPC: 1.055 (Simulation time: 00 hr 08 min 10 sec)
Heartbeat CPU 0 instructions: 92000532 cycles: 50003946 heartbeat IPC: 1.33 cumulative IPC: 1.057 (Simulation time: 00 hr 08 min 13 sec)
Heartbeat CPU 0 instructions: 92500533 cycles: 50392552 heartbeat IPC: 1.287 cumulative IPC: 1.06 (Simulation time: 00 hr 08 min 16 sec)
Heartbeat CPU 0 instructions: 93000536 cycles: 50786464 heartbeat IPC: 1.269 cumulative IPC: 1.062 (Simulation time: 00 hr 08 min 19 sec)
Heartbeat CPU 0 instructions: 93500538 cycles: 51181231 heartbeat IPC: 1.267 cumulative IPC: 1.064 (Simulation time: 00 hr 08 min 22 sec)
Heartbeat CPU 0 instructions: 94000541 cycles: 51593073 heartbeat IPC: 1.214 cumulative IPC: 1.065 (Simulation time: 00 hr 08 min 25 sec)
Heartbeat CPU 0 instructions: 94500542 cycles: 52006039 heartbeat IPC: 1.211 cumulative IPC: 1.066 (Simulation time: 00 hr 08 min 28 sec)
Heartbeat CPU 0 instructions: 95000543 cycles: 52415067 heartbeat IPC: 1.222 cumulative IPC: 1.068 (Simulation time: 00 hr 08 min 31 sec)
Heartbeat CPU 0 instructions: 95500543 cycles: 52825560 heartbeat IPC: 1.218 cumulative IPC: 1.069 (Simulation time: 00 hr 08 min 34 sec)
Heartbeat CPU 0 instructions: 96000549 cycles: 53239105 heartbeat IPC: 1.209 cumulative IPC: 1.071 (Simulation time: 00 hr 08 min 38 sec)
Heartbeat CPU 0 instructions: 96500552 cycles: 53647394 heartbeat IPC: 1.225 cumulative IPC: 1.072 (Simulation time: 00 hr 08 min 41 sec)
Heartbeat CPU 0 instructions: 97000554 cycles: 54060842 heartbeat IPC: 1.209 cumulative IPC: 1.074 (Simulation time: 00 hr 08 min 44 sec)
Heartbeat CPU 0 instructions: 97500559 cycles: 54475514 heartbeat IPC: 1.206 cumulative IPC: 1.075 (Simulation time: 00 hr 08 min 47 sec)
Heartbeat CPU 0 instructions: 98000565 cycles: 54885690 heartbeat IPC: 1.219 cumulative IPC: 1.076 (Simulation time: 00 hr 08 min 50 sec)
Heartbeat CPU 0 instructions: 98500567 cycles: 55294531 heartbeat IPC: 1.223 cumulative IPC: 1.077 (Simulation time: 00 hr 08 min 53 sec)
Heartbeat CPU 0 instructions: 99000571 cycles: 55692329 heartbeat IPC: 1.257 cumulative IPC: 1.079 (Simulation time: 00 hr 08 min 56 sec)
Heartbeat CPU 0 instructions: 99500574 cycles: 56087935 heartbeat IPC: 1.264 cumulative IPC: 1.081 (Simulation time: 00 hr 09 min 00 sec)
Heartbeat CPU 0 instructions: 100000575 cycles: 56492359 heartbeat IPC: 1.236 cumulative IPC: 1.082 (Simulation time: 00 hr 09 min 03 sec)
Heartbeat CPU 0 instructions: 100500576 cycles: 56897767 heartbeat IPC: 1.233 cumulative IPC: 1.083 (Simulation time: 00 hr 09 min 06 sec)
Heartbeat CPU 0 instructions: 101000579 cycles: 57301703 heartbeat IPC: 1.238 cumulative IPC: 1.085 (Simulation time: 00 hr 09 min 09 sec)
Heartbeat CPU 0 instructions: 101500585 cycles: 57705448 heartbeat IPC: 1.238 cumulative IPC: 1.086 (Simulation time: 00 hr 09 min 12 sec)
Heartbeat CPU 0 instructions: 102000586 cycles: 58108457 heartbeat IPC: 1.241 cumulative IPC: 1.087 (Simulation time: 00 hr 09 min 15 sec)
Heartbeat CPU 0 instructions: 102500586 cycles: 58504831 heartbeat IPC: 1.261 cumulative IPC: 1.089 (Simulation time: 00 hr 09 min 18 sec)
Heartbeat CPU 0 instructions: 103000593 cycles: 58893649 heartbeat IPC: 1.286 cumulative IPC: 1.09 (Simulation time: 00 hr 09 min 21 sec)
Heartbeat CPU 0 instructions: 103500593 cycles: 59282658 heartbeat IPC: 1.285 cumulative IPC: 1.092 (Simulation time: 00 hr 09 min 24 sec)
Heartbeat CPU 0 instructions: 104000594 cycles: 59686180 heartbeat IPC: 1.239 cumulative IPC: 1.093 (Simulation time: 00 hr 09 min 27 sec)
Heartbeat CPU 0 instructions: 104500599 cycles: 60088551 heartbeat IPC: 1.243 cumulative IPC: 1.094 (Simulation time: 00 hr 09 min 30 sec)
Heartbeat CPU 0 instructions: 105000600 cycles: 60493104 heartbeat IPC: 1.236 cumulative IPC: 1.095 (Simulation time: 00 hr 09 min 33 sec)
Heartbeat CPU 0 instructions: 105500601 cycles: 60893529 heartbeat IPC: 1.249 cumulative IPC: 1.097 (Simulation time: 00 hr 09 min 37 sec)
Heartbeat CPU 0 instructions: 106000601 cycles: 61294312 heartbeat IPC: 1.248 cumulative IPC: 1.098 (Simulation time: 00 hr 09 min 40 sec)
Heartbeat CPU 0 instructions: 106500602 cycles: 61703456 heartbeat IPC: 1.222 cumulative IPC: 1.099 (Simulation time: 00 hr 09 min 43 sec)
Heartbeat CPU 0 instructions: 107000605 cycles: 62115123 heartbeat IPC: 1.215 cumulative IPC: 1.1 (Simulation time: 00 hr 09 min 46 sec)
Heartbeat CPU 0 instructions: 107500608 cycles: 62523840 heartbeat IPC: 1.223 cumulative IPC: 1.101 (Simulation time: 00 hr 09 min 49 sec)
Heartbeat CPU 0 instructions: 108000609 cycles: 62935772 heartbeat IPC: 1.214 cumulative IPC: 1.101 (Simulation time: 00 hr 09 min 52 sec)
Heartbeat CPU 0 instructions: 108500615 cycles: 63344374 heartbeat IPC: 1.224 cumulative IPC: 1.102 (Simulation time: 00 hr 09 min 55 sec)
Heartbeat CPU 0 instructions: 109000616 cycles: 63747751 heartbeat IPC: 1.24 cumulative IPC: 1.103 (Simulation time: 00 hr 09 min 58 sec)
Heartbeat CPU 0 instructions: 109500617 cycles: 64157699 heartbeat IPC: 1.22 cumulative IPC: 1.104 (Simulation time: 00 hr 10 min 02 sec)
Heartbeat CPU 0 instructions: 110000620 cycles: 64564793 heartbeat IPC: 1.228 cumulative IPC: 1.105 (Simulation time: 00 hr 10 min 05 sec)
Heartbeat CPU 0 instructions: 110500620 cycles: 64975645 heartbeat IPC: 1.217 cumulative IPC: 1.106 (Simulation time: 00 hr 10 min 08 sec)
Heartbeat CPU 0 instructions: 111000624 cycles: 65382904 heartbeat IPC: 1.228 cumulative IPC: 1.107 (Simulation time: 00 hr 10 min 11 sec)
Heartbeat CPU 0 instructions: 111500628 cycles: 65791442 heartbeat IPC: 1.224 cumulative IPC: 1.108 (Simulation time: 00 hr 10 min 14 sec)
Heartbeat CPU 0 instructions: 112000628 cycles: 66189912 heartbeat IPC: 1.255 cumulative IPC: 1.109 (Simulation time: 00 hr 10 min 17 sec)
Heartbeat CPU 0 instructions: 112500628 cycles: 66597630 heartbeat IPC: 1.226 cumulative IPC: 1.11 (Simulation time: 00 hr 10 min 20 sec)
Heartbeat CPU 0 instructions: 113000631 cycles: 67003833 heartbeat IPC: 1.231 cumulative IPC: 1.111 (Simulation time: 00 hr 10 min 23 sec)
Heartbeat CPU 0 instructions: 113500631 cycles: 67402884 heartbeat IPC: 1.253 cumulative IPC: 1.112 (Simulation time: 00 hr 10 min 26 sec)
Heartbeat CPU 0 instructions: 114000631 cycles: 67815122 heartbeat IPC: 1.213 cumulative IPC: 1.112 (Simulation time: 00 hr 10 min 30 sec)
Heartbeat CPU 0 instructions: 114500631 cycles: 68220627 heartbeat IPC: 1.233 cumulative IPC: 1.113 (Simulation time: 00 hr 10 min 33 sec)
Heartbeat CPU 0 instructions: 115000634 cycles: 68629777 heartbeat IPC: 1.222 cumulative IPC: 1.114 (Simulation time: 00 hr 10 min 36 sec)
Heartbeat CPU 0 instructions: 115500634 cycles: 69038433 heartbeat IPC: 1.224 cumulative IPC: 1.115 (Simulation time: 00 hr 10 min 39 sec)
Heartbeat CPU 0 instructions: 116000634 cycles: 69441719 heartbeat IPC: 1.24 cumulative IPC: 1.116 (Simulation time: 00 hr 10 min 42 sec)
Heartbeat CPU 0 instructions: 116500636 cycles: 69834459 heartbeat IPC: 1.273 cumulative IPC: 1.117 (Simulation time: 00 hr 10 min 45 sec)
Heartbeat CPU 0 instructions: 117000636 cycles: 70244784 heartbeat IPC: 1.219 cumulative IPC: 1.117 (Simulation time: 00 hr 10 min 48 sec)
Heartbeat CPU 0 instructions: 117500636 cycles: 70648228 heartbeat IPC: 1.239 cumulative IPC: 1.118 (Simulation time: 00 hr 10 min 51 sec)
Heartbeat CPU 0 instructions: 118000636 cycles: 71049860 heartbeat IPC: 1.245 cumulative IPC: 1.119 (Simulation time: 00 hr 10 min 54 sec)
Heartbeat CPU 0 instructions: 118500637 cycles: 71445348 heartbeat IPC: 1.264 cumulative IPC: 1.12 (Simulation time: 00 hr 10 min 57 sec)
Heartbeat CPU 0 instructions: 119000644 cycles: 71845372 heartbeat IPC: 1.25 cumulative IPC: 1.121 (Simulation time: 00 hr 11 min 01 sec)
Heartbeat CPU 0 instructions: 119500649 cycles: 72242357 heartbeat IPC: 1.26 cumulative IPC: 1.122 (Simulation time: 00 hr 11 min 04 sec)
Heartbeat CPU 0 instructions: 120000653 cycles: 72635783 heartbeat IPC: 1.271 cumulative IPC: 1.123 (Simulation time: 00 hr 11 min 07 sec)
Heartbeat CPU 0 instructions: 120500658 cycles: 73032680 heartbeat IPC: 1.26 cumulative IPC: 1.123 (Simulation time: 00 hr 11 min 10 sec)
Heartbeat CPU 0 instructions: 121000663 cycles: 73429769 heartbeat IPC: 1.259 cumulative IPC: 1.124 (Simulation time: 00 hr 11 min 13 sec)
Heartbeat CPU 0 instructions: 121500667 cycles: 73807171 heartbeat IPC: 1.325 cumulative IPC: 1.125 (Simulation time: 00 hr 11 min 16 sec)
Heartbeat CPU 0 instructions: 122000670 cycles: 74193718 heartbeat IPC: 1.294 cumulative IPC: 1.127 (Simulation time: 00 hr 11 min 19 sec)
Heartbeat CPU 0 instructions: 122500670 cycles: 74567956 heartbeat IPC: 1.336 cumulative IPC: 1.128 (Simulation time: 00 hr 11 min 22 sec)
Heartbeat CPU 0 instructions: 123000677 cycles: 74927464 heartbeat IPC: 1.391 cumulative IPC: 1.129 (Simulation time: 00 hr 11 min 25 sec)
Heartbeat CPU 0 instructions: 123500679 cycles: 75934381 heartbeat IPC: 0.4966 cumulative IPC: 1.119 (Simulation time: 00 hr 11 min 32 sec)
Heartbeat CPU 0 instructions: 124000685 cycles: 76328795 heartbeat IPC: 1.268 cumulative IPC: 1.12 (Simulation time: 00 hr 11 min 35 sec)
Heartbeat CPU 0 instructions: 124500685 cycles: 76721418 heartbeat IPC: 1.273 cumulative IPC: 1.121 (Simulation time: 00 hr 11 min 39 sec)
Heartbeat CPU 0 instructions: 125000686 cycles: 77106596 heartbeat IPC: 1.298 cumulative IPC: 1.122 (Simulation time: 00 hr 11 min 42 sec)
Heartbeat CPU 0 instructions: 125500688 cycles: 77608467 heartbeat IPC: 0.9963 cumulative IPC: 1.121 (Simulation time: 00 hr 11 min 45 sec)
Heartbeat CPU 0 instructions: 126000692 cycles: 78257526 heartbeat IPC: 0.7704 cumulative IPC: 1.118 (Simulation time: 00 hr 11 min 50 sec)
Heartbeat CPU 0 instructions: 126500695 cycles: 78628685 heartbeat IPC: 1.347 cumulative IPC: 1.119 (Simulation time: 00 hr 11 min 53 sec)
Heartbeat CPU 0 instructions: 127000697 cycles: 78979212 heartbeat IPC: 1.426 cumulative IPC: 1.121 (Simulation time: 00 hr 11 min 56 sec)
Heartbeat CPU 0 instructions: 127500697 cycles: 80144401 heartbeat IPC: 0.4291 cumulative IPC: 1.109 (Simulation time: 00 hr 12 min 05 sec)
Heartbeat CPU 0 instructions: 128000698 cycles: 80520668 heartbeat IPC: 1.329 cumulative IPC: 1.11 (Simulation time: 00 hr 12 min 08 sec)
Heartbeat CPU 0 instructions: 128500700 cycles: 81271490 heartbeat IPC: 0.6659 cumulative IPC: 1.106 (Simulation time: 00 hr 12 min 14 sec)
Heartbeat CPU 0 instructions: 129000700 cycles: 81684673 heartbeat IPC: 1.21 cumulative IPC: 1.106 (Simulation time: 00 hr 12 min 17 sec)
Heartbeat CPU 0 instructions: 129500700 cycles: 82087655 heartbeat IPC: 1.241 cumulative IPC: 1.107 (Simulation time: 00 hr 12 min 20 sec)
Heartbeat CPU 0 instructions: 130000700 cycles: 82480289 heartbeat IPC: 1.273 cumulative IPC: 1.108 (Simulation time: 00 hr 12 min 23 sec)
Heartbeat CPU 0 instructions: 130500700 cycles: 82884588 heartbeat IPC: 1.237 cumulative IPC: 1.109 (Simulation time: 00 hr 12 min 26 sec)
Heartbeat CPU 0 instructions: 131000701 cycles: 83271154 heartbeat IPC: 1.293 cumulative IPC: 1.11 (Simulation time: 00 hr 12 min 29 sec)
Heartbeat CPU 0 instructions: 131500703 cycles: 83656616 heartbeat IPC: 1.297 cumulative IPC: 1.111 (Simulation time: 00 hr 12 min 32 sec)
Heartbeat CPU 0 instructions: 132000704 cycles: 84045904 heartbeat IPC: 1.284 cumulative IPC: 1.112 (Simulation time: 00 hr 12 min 36 sec)
Heartbeat CPU 0 instructions: 132500704 cycles: 84432238 heartbeat IPC: 1.294 cumulative IPC: 1.113 (Simulation time: 00 hr 12 min 39 sec)
Heartbeat CPU 0 instructions: 133000705 cycles: 84839745 heartbeat IPC: 1.227 cumulative IPC: 1.113 (Simulation time: 00 hr 12 min 42 sec)
Heartbeat CPU 0 instructions: 133500706 cycles: 85575622 heartbeat IPC: 0.6795 cumulative IPC: 1.109 (Simulation time: 00 hr 12 min 47 sec)
Heartbeat CPU 0 instructions: 134000712 cycles: 85929575 heartbeat IPC: 1.413 cumulative IPC: 1.11 (Simulation time: 00 hr 12 min 50 sec)
Heartbeat CPU 0 instructions: 134500712 cycles: 87006875 heartbeat IPC: 0.4641 cumulative IPC: 1.101 (Simulation time: 00 hr 12 min 58 sec)
Heartbeat CPU 0 instructions: 135000712 cycles: 87380828 heartbeat IPC: 1.337 cumulative IPC: 1.102 (Simulation time: 00 hr 13 min 01 sec)
Heartbeat CPU 0 instructions: 135500714 cycles: 87861213 heartbeat IPC: 1.041 cumulative IPC: 1.102 (Simulation time: 00 hr 13 min 05 sec)
Heartbeat CPU 0 instructions: 136000716 cycles: 88737378 heartbeat IPC: 0.5707 cumulative IPC: 1.096 (Simulation time: 00 hr 13 min 12 sec)
Heartbeat CPU 0 instructions: 136500716 cycles: 89120482 heartbeat IPC: 1.305 cumulative IPC: 1.097 (Simulation time: 00 hr 13 min 15 sec)
Heartbeat CPU 0 instructions: 137000722 cycles: 89493129 heartbeat IPC: 1.342 cumulative IPC: 1.098 (Simulation time: 00 hr 13 min 18 sec)
Heartbeat CPU 0 instructions: 137500727 cycles: 89848840 heartbeat IPC: 1.406 cumulative IPC: 1.1 (Simulation time: 00 hr 13 min 20 sec)
Heartbeat CPU 0 instructions: 138000727 cycles: 91186811 heartbeat IPC: 0.3737 cumulative IPC: 1.088 (Simulation time: 00 hr 13 min 32 sec)
Heartbeat CPU 0 instructions: 138500728 cycles: 91958750 heartbeat IPC: 0.6477 cumulative IPC: 1.084 (Simulation time: 00 hr 13 min 38 sec)
Heartbeat CPU 0 instructions: 139000732 cycles: 93117329 heartbeat IPC: 0.4316 cumulative IPC: 1.074 (Simulation time: 00 hr 13 min 47 sec)
Heartbeat CPU 0 instructions: 139500738 cycles: 93784793 heartbeat IPC: 0.7491 cumulative IPC: 1.072 (Simulation time: 00 hr 13 min 52 sec)
Heartbeat CPU 0 instructions: 140000743 cycles: 94165955 heartbeat IPC: 1.312 cumulative IPC: 1.073 (Simulation time: 00 hr 13 min 55 sec)
Heartbeat CPU 0 instructions: 140500744 cycles: 94859777 heartbeat IPC: 0.7206 cumulative IPC: 1.07 (Simulation time: 00 hr 14 min 01 sec)
Heartbeat CPU 0 instructions: 141000751 cycles: 95555161 heartbeat IPC: 0.719 cumulative IPC: 1.067 (Simulation time: 00 hr 14 min 06 sec)
Heartbeat CPU 0 instructions: 141500756 cycles: 95955426 heartbeat IPC: 1.249 cumulative IPC: 1.068 (Simulation time: 00 hr 14 min 09 sec)
Heartbeat CPU 0 instructions: 142000760 cycles: 96367193 heartbeat IPC: 1.214 cumulative IPC: 1.069 (Simulation time: 00 hr 14 min 13 sec)
Heartbeat CPU 0 instructions: 142500766 cycles: 96780911 heartbeat IPC: 1.209 cumulative IPC: 1.069 (Simulation time: 00 hr 14 min 16 sec)
Heartbeat CPU 0 instructions: 143000766 cycles: 97192021 heartbeat IPC: 1.216 cumulative IPC: 1.07 (Simulation time: 00 hr 14 min 19 sec)
Heartbeat CPU 0 instructions: 143500770 cycles: 97588407 heartbeat IPC: 1.261 cumulative IPC: 1.071 (Simulation time: 00 hr 14 min 22 sec)
Heartbeat CPU 0 instructions: 144000773 cycles: 97984305 heartbeat IPC: 1.263 cumulative IPC: 1.072 (Simulation time: 00 hr 14 min 25 sec)
Heartbeat CPU 0 instructions: 144500774 cycles: 98367546 heartbeat IPC: 1.305 cumulative IPC: 1.073 (Simulation time: 00 hr 14 min 28 sec)
Heartbeat CPU 0 instructions: 145000781 cycles: 98749796 heartbeat IPC: 1.308 cumulative IPC: 1.074 (Simulation time: 00 hr 14 min 31 sec)
Heartbeat CPU 0 instructions: 145500782 cycles: 99140531 heartbeat IPC: 1.28 cumulative IPC: 1.075 (Simulation time: 00 hr 14 min 34 sec)
Heartbeat CPU 0 instructions: 146000783 cycles: 99544483 heartbeat IPC: 1.238 cumulative IPC: 1.075 (Simulation time: 00 hr 14 min 37 sec)
Heartbeat CPU 0 instructions: 146500789 cycles: 99952426 heartbeat IPC: 1.226 cumulative IPC: 1.076 (Simulation time: 00 hr 14 min 41 sec)
Heartbeat CPU 0 instructions: 147000793 cycles: 100360344 heartbeat IPC: 1.226 cumulative IPC: 1.077 (Simulation time: 00 hr 14 min 44 sec)
Heartbeat CPU 0 instructions: 147500794 cycles: 100749958 heartbeat IPC: 1.283 cumulative IPC: 1.078 (Simulation time: 00 hr 14 min 47 sec)
Heartbeat CPU 0 instructions: 148000797 cycles: 101148504 heartbeat IPC: 1.255 cumulative IPC: 1.078 (Simulation time: 00 hr 14 min 50 sec)
Heartbeat CPU 0 instructions: 148500804 cycles: 101545058 heartbeat IPC: 1.261 cumulative IPC: 1.079 (Simulation time: 00 hr 14 min 53 sec)
Heartbeat CPU 0 instructions: 149000811 cycles: 101929368 heartbeat IPC: 1.301 cumulative IPC: 1.08 (Simulation time: 00 hr 14 min 56 sec)
Heartbeat CPU 0 instructions: 149500812 cycles: 102666725 heartbeat IPC: 0.6781 cumulative IPC: 1.077 (Simulation time: 00 hr 15 min 02 sec)
Heartbeat CPU 0 instructions: 150000814 cycles: 103380076 heartbeat IPC: 0.7009 cumulative IPC: 1.074 (Simulation time: 00 hr 15 min 07 sec)
Heartbeat CPU 0 instructions: 150500815 cycles: 103774052 heartbeat IPC: 1.269 cumulative IPC: 1.075 (Simulation time: 00 hr 15 min 10 sec)
Heartbeat CPU 0 instructions: 151000816 cycles: 104140939 heartbeat IPC: 1.363 cumulative IPC: 1.076 (Simulation time: 00 hr 15 min 13 sec)
Heartbeat CPU 0 instructions: 151500817 cycles: 104814865 heartbeat IPC: 0.7419 cumulative IPC: 1.074 (Simulation time: 00 hr 15 min 19 sec)
Heartbeat CPU 0 instructions: 152000817 cycles: 105448215 heartbeat IPC: 0.7895 cumulative IPC: 1.072 (Simulation time: 00 hr 15 min 24 sec)
Heartbeat CPU 0 instructions: 152500817 cycles: 106725137 heartbeat IPC: 0.3916 cumulative IPC: 1.063 (Simulation time: 00 hr 15 min 34 sec)
Heartbeat CPU 0 instructions: 153000817 cycles: 107098049 heartbeat IPC: 1.341 cumulative IPC: 1.064 (Simulation time: 00 hr 15 min 37 sec)
Heartbeat CPU 0 instructions: 153500823 cycles: 107461732 heartbeat IPC: 1.375 cumulative IPC: 1.065 (Simulation time: 00 hr 15 min 40 sec)
Heartbeat CPU 0 instructions: 154000823 cycles: 107889121 heartbeat IPC: 1.17 cumulative IPC: 1.065 (Simulation time: 00 hr 15 min 44 sec)
Heartbeat CPU 0 instructions: 154500823 cycles: 108509472 heartbeat IPC: 0.806 cumulative IPC: 1.064 (Simulation time: 00 hr 15 min 49 sec)
Heartbeat CPU 0 instructions: 155000829 cycles: 109185279 heartbeat IPC: 0.7399 cumulative IPC: 1.062 (Simulation time: 00 hr 15 min 54 sec)
Heartbeat CPU 0 instructions: 155500834 cycles: 109558224 heartbeat IPC: 1.341 cumulative IPC: 1.063 (Simulation time: 00 hr 15 min 57 sec)
Heartbeat CPU 0 instructions: 156000836 cycles: 110007188 heartbeat IPC: 1.114 cumulative IPC: 1.063 (Simulation time: 00 hr 16 min 00 sec)
Heartbeat CPU 0 instructions: 156500836 cycles: 110550883 heartbeat IPC: 0.9196 cumulative IPC: 1.062 (Simulation time: 00 hr 16 min 04 sec)
Heartbeat CPU 0 instructions: 157000842 cycles: 111116385 heartbeat IPC: 0.8842 cumulative IPC: 1.061 (Simulation time: 00 hr 16 min 09 sec)
Heartbeat CPU 0 instructions: 157500845 cycles: 111829429 heartbeat IPC: 0.7012 cumulative IPC: 1.059 (Simulation time: 00 hr 16 min 14 sec)
Heartbeat CPU 0 instructions: 158000847 cycles: 112508627 heartbeat IPC: 0.7362 cumulative IPC: 1.056 (Simulation time: 00 hr 16 min 20 sec)
Heartbeat CPU 0 instructions: 158500847 cycles: 113013392 heartbeat IPC: 0.9906 cumulative IPC: 1.056 (Simulation time: 00 hr 16 min 24 sec)
Heartbeat CPU 0 instructions: 159000847 cycles: 113546466 heartbeat IPC: 0.938 cumulative IPC: 1.056 (Simulation time: 00 hr 16 min 27 sec)
Heartbeat CPU 0 instructions: 159500849 cycles: 113932823 heartbeat IPC: 1.294 cumulative IPC: 1.056 (Simulation time: 00 hr 16 min 31 sec)
Heartbeat CPU 0 instructions: 160000849 cycles: 114960331 heartbeat IPC: 0.4866 cumulative IPC: 1.051 (Simulation time: 00 hr 16 min 39 sec)
Heartbeat CPU 0 instructions: 160500854 cycles: 115323474 heartbeat IPC: 1.377 cumulative IPC: 1.052 (Simulation time: 00 hr 16 min 42 sec)
Heartbeat CPU 0 instructions: 161000857 cycles: 116006714 heartbeat IPC: 0.7318 cumulative IPC: 1.05 (Simulation time: 00 hr 16 min 47 sec)
Heartbeat CPU 0 instructions: 161500859 cycles: 116366497 heartbeat IPC: 1.39 cumulative IPC: 1.051 (Simulation time: 00 hr 16 min 50 sec)
Heartbeat CPU 0 instructions: 162000861 cycles: 116718138 heartbeat IPC: 1.422 cumulative IPC: 1.052 (Simulation time: 00 hr 16 min 52 sec)
Heartbeat CPU 0 instructions: 162500861 cycles: 117384663 heartbeat IPC: 0.7502 cumulative IPC: 1.05 (Simulation time: 00 hr 16 min 57 sec)
Heartbeat CPU 0 instructions: 163000862 cycles: 117742188 heartbeat IPC: 1.399 cumulative IPC: 1.052 (Simulation time: 00 hr 17 min 00 sec)
Heartbeat CPU 0 instructions: 163500862 cycles: 118527183 heartbeat IPC: 0.6369 cumulative IPC: 1.049 (Simulation time: 00 hr 17 min 07 sec)
Heartbeat CPU 0 instructions: 164000862 cycles: 119429672 heartbeat IPC: 0.554 cumulative IPC: 1.044 (Simulation time: 00 hr 17 min 14 sec)
Heartbeat CPU 0 instructions: 164500863 cycles: 120345873 heartbeat IPC: 0.5457 cumulative IPC: 1.04 (Simulation time: 00 hr 17 min 20 sec)
Heartbeat CPU 0 instructions: 165000863 cycles: 120744284 heartbeat IPC: 1.255 cumulative IPC: 1.041 (Simulation time: 00 hr 17 min 24 sec)
Heartbeat CPU 0 instructions: 165500866 cycles: 121138148 heartbeat IPC: 1.269 cumulative IPC: 1.042 (Simulation time: 00 hr 17 min 27 sec)
Heartbeat CPU 0 instructions: 166000872 cycles: 121538399 heartbeat IPC: 1.249 cumulative IPC: 1.043 (Simulation time: 00 hr 17 min 30 sec)
Heartbeat CPU 0 instructions: 166500874 cycles: 121927197 heartbeat IPC: 1.286 cumulative IPC: 1.043 (Simulation time: 00 hr 17 min 33 sec)
Heartbeat CPU 0 instructions: 167000880 cycles: 122318545 heartbeat IPC: 1.278 cumulative IPC: 1.044 (Simulation time: 00 hr 17 min 36 sec)
Heartbeat CPU 0 instructions: 167500885 cycles: 122709421 heartbeat IPC: 1.279 cumulative IPC: 1.045 (Simulation time: 00 hr 17 min 39 sec)
Heartbeat CPU 0 instructions: 168000890 cycles: 123087855 heartbeat IPC: 1.321 cumulative IPC: 1.046 (Simulation time: 00 hr 17 min 42 sec)
Heartbeat CPU 0 instructions: 168500891 cycles: 123753677 heartbeat IPC: 0.751 cumulative IPC: 1.044 (Simulation time: 00 hr 17 min 47 sec)
Heartbeat CPU 0 instructions: 169000894 cycles: 124144355 heartbeat IPC: 1.28 cumulative IPC: 1.045 (Simulation time: 00 hr 17 min 50 sec)
Heartbeat CPU 0 instructions: 169500896 cycles: 124523387 heartbeat IPC: 1.319 cumulative IPC: 1.046 (Simulation time: 00 hr 17 min 53 sec)
Heartbeat CPU 0 instructions: 170000896 cycles: 124944096 heartbeat IPC: 1.188 cumulative IPC: 1.047 (Simulation time: 00 hr 17 min 57 sec)
Heartbeat CPU 0 instructions: 170500897 cycles: 125956506 heartbeat IPC: 0.4939 cumulative IPC: 1.042 (Simulation time: 00 hr 18 min 04 sec)
Heartbeat CPU 0 instructions: 171000898 cycles: 126364218 heartbeat IPC: 1.226 cumulative IPC: 1.042 (Simulation time: 00 hr 18 min 07 sec)
Heartbeat CPU 0 instructions: 171500905 cycles: 126775612 heartbeat IPC: 1.215 cumulative IPC: 1.043 (Simulation time: 00 hr 18 min 10 sec)
Heartbeat CPU 0 instructions: 172000905 cycles: 127171546 heartbeat IPC: 1.263 cumulative IPC: 1.044 (Simulation time: 00 hr 18 min 14 sec)
Heartbeat CPU 0 instructions: 172500906 cycles: 127566716 heartbeat IPC: 1.265 cumulative IPC: 1.044 (Simulation time: 00 hr 18 min 17 sec)
Heartbeat CPU 0 instructions: 173000906 cycles: 127964822 heartbeat IPC: 1.256 cumulative IPC: 1.045 (Simulation time: 00 hr 18 min 20 sec)
Heartbeat CPU 0 instructions: 173500909 cycles: 128359298 heartbeat IPC: 1.268 cumulative IPC: 1.046 (Simulation time: 00 hr 18 min 23 sec)
Heartbeat CPU 0 instructions: 174000909 cycles: 128741857 heartbeat IPC: 1.307 cumulative IPC: 1.047 (Simulation time: 00 hr 18 min 26 sec)
Heartbeat CPU 0 instructions: 174500914 cycles: 129450332 heartbeat IPC: 0.7057 cumulative IPC: 1.045 (Simulation time: 00 hr 18 min 31 sec)
Heartbeat CPU 0 instructions: 175000917 cycles: 129833637 heartbeat IPC: 1.304 cumulative IPC: 1.046 (Simulation time: 00 hr 18 min 34 sec)
Heartbeat CPU 0 instructions: 175500917 cycles: 130208185 heartbeat IPC: 1.335 cumulative IPC: 1.046 (Simulation time: 00 hr 18 min 37 sec)
Heartbeat CPU 0 instructions: 176000918 cycles: 130888099 heartbeat IPC: 0.7354 cumulative IPC: 1.045 (Simulation time: 00 hr 18 min 43 sec)
Heartbeat CPU 0 instructions: 176500924 cycles: 132153573 heartbeat IPC: 0.3951 cumulative IPC: 1.038 (Simulation time: 00 hr 18 min 52 sec)
Heartbeat CPU 0 instructions: 177000926 cycles: 132538437 heartbeat IPC: 1.299 cumulative IPC: 1.039 (Simulation time: 00 hr 18 min 55 sec)
Heartbeat CPU 0 instructions: 177500926 cycles: 132913486 heartbeat IPC: 1.333 cumulative IPC: 1.04 (Simulation time: 00 hr 18 min 58 sec)
Heartbeat CPU 0 instructions: 178000926 cycles: 133579700 heartbeat IPC: 0.7505 cumulative IPC: 1.038 (Simulation time: 00 hr 19 min 03 sec)
Heartbeat CPU 0 instructions: 178500927 cycles: 134248210 heartbeat IPC: 0.7479 cumulative IPC: 1.037 (Simulation time: 00 hr 19 min 08 sec)
Heartbeat CPU 0 instructions: 179000929 cycles: 134621693 heartbeat IPC: 1.339 cumulative IPC: 1.037 (Simulation time: 00 hr 19 min 11 sec)
Heartbeat CPU 0 instructions: 179500936 cycles: 134974176 heartbeat IPC: 1.419 cumulative IPC: 1.039 (Simulation time: 00 hr 19 min 14 sec)
Heartbeat CPU 0 instructions: 180000938 cycles: 135655901 heartbeat IPC: 0.7334 cumulative IPC: 1.037 (Simulation time: 00 hr 19 min 19 sec)
Heartbeat CPU 0 instructions: 180500938 cycles: 136017389 heartbeat IPC: 1.383 cumulative IPC: 1.038 (Simulation time: 00 hr 19 min 22 sec)
Heartbeat CPU 0 instructions: 181000940 cycles: 136384734 heartbeat IPC: 1.361 cumulative IPC: 1.039 (Simulation time: 00 hr 19 min 25 sec)
Heartbeat CPU 0 instructions: 181500940 cycles: 136744860 heartbeat IPC: 1.388 cumulative IPC: 1.04 (Simulation time: 00 hr 19 min 28 sec)
Heartbeat CPU 0 instructions: 182000941 cycles: 137278032 heartbeat IPC: 0.9378 cumulative IPC: 1.039 (Simulation time: 00 hr 19 min 32 sec)
Heartbeat CPU 0 instructions: 182500945 cycles: 137770340 heartbeat IPC: 1.016 cumulative IPC: 1.039 (Simulation time: 00 hr 19 min 36 sec)
Heartbeat CPU 0 instructions: 183000949 cycles: 138448417 heartbeat IPC: 0.7374 cumulative IPC: 1.038 (Simulation time: 00 hr 19 min 41 sec)
Heartbeat CPU 0 instructions: 183500953 cycles: 139107713 heartbeat IPC: 0.7584 cumulative IPC: 1.036 (Simulation time: 00 hr 19 min 46 sec)
Heartbeat CPU 0 instructions: 184000953 cycles: 139509792 heartbeat IPC: 1.244 cumulative IPC: 1.037 (Simulation time: 00 hr 19 min 49 sec)
Heartbeat CPU 0 instructions: 184500955 cycles: 139903604 heartbeat IPC: 1.27 cumulative IPC: 1.038 (Simulation time: 00 hr 19 min 52 sec)
Heartbeat CPU 0 instructions: 185000956 cycles: 140304343 heartbeat IPC: 1.248 cumulative IPC: 1.038 (Simulation time: 00 hr 19 min 55 sec)
Heartbeat CPU 0 instructions: 185500962 cycles: 140680551 heartbeat IPC: 1.329 cumulative IPC: 1.039 (Simulation time: 00 hr 19 min 58 sec)
Heartbeat CPU 0 instructions: 186000965 cycles: 141074445 heartbeat IPC: 1.269 cumulative IPC: 1.04 (Simulation time: 00 hr 20 min 01 sec)
Heartbeat CPU 0 instructions: 186500969 cycles: 141459519 heartbeat IPC: 1.298 cumulative IPC: 1.041 (Simulation time: 00 hr 20 min 04 sec)
Heartbeat CPU 0 instructions: 187000974 cycles: 141826320 heartbeat IPC: 1.363 cumulative IPC: 1.041 (Simulation time: 00 hr 20 min 07 sec)
Heartbeat CPU 0 instructions: 187500977 cycles: 142428931 heartbeat IPC: 0.8297 cumulative IPC: 1.04 (Simulation time: 00 hr 20 min 12 sec)
Heartbeat CPU 0 instructions: 188000978 cycles: 143044809 heartbeat IPC: 0.8119 cumulative IPC: 1.039 (Simulation time: 00 hr 20 min 17 sec)
Heartbeat CPU 0 instructions: 188500979 cycles: 143994624 heartbeat IPC: 0.5264 cumulative IPC: 1.036 (Simulation time: 00 hr 20 min 24 sec)
Heartbeat CPU 0 instructions: 189000986 cycles: 144373588 heartbeat IPC: 1.319 cumulative IPC: 1.037 (Simulation time: 00 hr 20 min 27 sec)
Heartbeat CPU 0 instructions: 189500991 cycles: 144753045 heartbeat IPC: 1.318 cumulative IPC: 1.037 (Simulation time: 00 hr 20 min 30 sec)
Heartbeat CPU 0 instructions: 190000992 cycles: 145115532 heartbeat IPC: 1.379 cumulative IPC: 1.038 (Simulation time: 00 hr 20 min 33 sec)
Heartbeat CPU 0 instructions: 190500992 cycles: 145474570 heartbeat IPC: 1.393 cumulative IPC: 1.039 (Simulation time: 00 hr 20 min 36 sec)
Heartbeat CPU 0 instructions: 191000995 cycles: 145837045 heartbeat IPC: 1.379 cumulative IPC: 1.04 (Simulation time: 00 hr 20 min 39 sec)
Heartbeat CPU 0 instructions: 191500995 cycles: 146579714 heartbeat IPC: 0.6732 cumulative IPC: 1.038 (Simulation time: 00 hr 20 min 44 sec)
Heartbeat CPU 0 instructions: 192001000 cycles: 146967411 heartbeat IPC: 1.29 cumulative IPC: 1.039 (Simulation time: 00 hr 20 min 47 sec)
Heartbeat CPU 0 instructions: 192501003 cycles: 147345869 heartbeat IPC: 1.321 cumulative IPC: 1.04 (Simulation time: 00 hr 20 min 50 sec)
Heartbeat CPU 0 instructions: 193001004 cycles: 147727930 heartbeat IPC: 1.309 cumulative IPC: 1.04 (Simulation time: 00 hr 20 min 53 sec)
Heartbeat CPU 0 instructions: 193501006 cycles: 148088383 heartbeat IPC: 1.387 cumulative IPC: 1.041 (Simulation time: 00 hr 20 min 56 sec)
Heartbeat CPU 0 instructions: 194001010 cycles: 148467887 heartbeat IPC: 1.318 cumulative IPC: 1.042 (Simulation time: 00 hr 20 min 59 sec)
Heartbeat CPU 0 instructions: 194501015 cycles: 149197210 heartbeat IPC: 0.6856 cumulative IPC: 1.04 (Simulation time: 00 hr 21 min 04 sec)
Heartbeat CPU 0 instructions: 195001015 cycles: 149601488 heartbeat IPC: 1.237 cumulative IPC: 1.041 (Simulation time: 00 hr 21 min 07 sec)
Heartbeat CPU 0 instructions: 195501015 cycles: 149998418 heartbeat IPC: 1.26 cumulative IPC: 1.041 (Simulation time: 00 hr 21 min 10 sec)
Heartbeat CPU 0 instructions: 196001022 cycles: 150401029 heartbeat IPC: 1.242 cumulative IPC: 1.042 (Simulation time: 00 hr 21 min 13 sec)
Heartbeat CPU 0 instructions: 196501023 cycles: 150788082 heartbeat IPC: 1.292 cumulative IPC: 1.043 (Simulation time: 00 hr 21 min 16 sec)
Heartbeat CPU 0 instructions: 197001027 cycles: 151155589 heartbeat IPC: 1.361 cumulative IPC: 1.043 (Simulation time: 00 hr 21 min 19 sec)
Heartbeat CPU 0 instructions: 197501028 cycles: 151551981 heartbeat IPC: 1.261 cumulative IPC: 1.044 (Simulation time: 00 hr 21 min 22 sec)
Heartbeat CPU 0 instructions: 198001028 cycles: 151951789 heartbeat IPC: 1.251 cumulative IPC: 1.045 (Simulation time: 00 hr 21 min 25 sec)
Heartbeat CPU 0 instructions: 198501028 cycles: 152339714 heartbeat IPC: 1.289 cumulative IPC: 1.045 (Simulation time: 00 hr 21 min 28 sec)
Heartbeat CPU 0 instructions: 199001028 cycles: 152715747 heartbeat IPC: 1.33 cumulative IPC: 1.046 (Simulation time: 00 hr 21 min 31 sec)
Heartbeat CPU 0 instructions: 199501034 cycles: 153114285 heartbeat IPC: 1.255 cumulative IPC: 1.047 (Simulation time: 00 hr 21 min 34 sec)
Heartbeat CPU 0 instructions: 200001036 cycles: 153496394 heartbeat IPC: 1.309 cumulative IPC: 1.047 (Simulation time: 00 hr 21 min 37 sec)
Heartbeat CPU 0 instructions: 200501037 cycles: 153875182 heartbeat IPC: 1.32 cumulative IPC: 1.048 (Simulation time: 00 hr 21 min 40 sec)
Heartbeat CPU 0 instructions: 201001041 cycles: 154258821 heartbeat IPC: 1.303 cumulative IPC: 1.049 (Simulation time: 00 hr 21 min 43 sec)
Heartbeat CPU 0 instructions: 201501042 cycles: 155079587 heartbeat IPC: 0.6092 cumulative IPC: 1.046 (Simulation time: 00 hr 21 min 49 sec)
Heartbeat CPU 0 instructions: 202001046 cycles: 155653811 heartbeat IPC: 0.8707 cumulative IPC: 1.046 (Simulation time: 00 hr 21 min 53 sec)
Heartbeat CPU 0 instructions: 202501052 cycles: 156040730 heartbeat IPC: 1.292 cumulative IPC: 1.046 (Simulation time: 00 hr 21 min 56 sec)
Heartbeat CPU 0 instructions: 203001053 cycles: 156437195 heartbeat IPC: 1.261 cumulative IPC: 1.047 (Simulation time: 00 hr 21 min 59 sec)
Heartbeat CPU 0 instructions: 203501058 cycles: 156835614 heartbeat IPC: 1.255 cumulative IPC: 1.047 (Simulation time: 00 hr 22 min 02 sec)
Heartbeat CPU 0 instructions: 204001059 cycles: 157378267 heartbeat IPC: 0.9214 cumulative IPC: 1.047 (Simulation time: 00 hr 22 min 06 sec)
Heartbeat CPU 0 instructions: 204501060 cycles: 158202779 heartbeat IPC: 0.6064 cumulative IPC: 1.044 (Simulation time: 00 hr 22 min 12 sec)
Heartbeat CPU 0 instructions: 205001062 cycles: 158574363 heartbeat IPC: 1.346 cumulative IPC: 1.045 (Simulation time: 00 hr 22 min 15 sec)
Heartbeat CPU 0 instructions: 205501067 cycles: 158939594 heartbeat IPC: 1.369 cumulative IPC: 1.046 (Simulation time: 00 hr 22 min 18 sec)
Heartbeat CPU 0 instructions: 206001067 cycles: 159295602 heartbeat IPC: 1.404 cumulative IPC: 1.047 (Simulation time: 00 hr 22 min 21 sec)
Heartbeat CPU 0 instructions: 206501070 cycles: 159655788 heartbeat IPC: 1.388 cumulative IPC: 1.048 (Simulation time: 00 hr 22 min 23 sec)
Heartbeat CPU 0 instructions: 207001070 cycles: 160305073 heartbeat IPC: 0.7701 cumulative IPC: 1.046 (Simulation time: 00 hr 22 min 28 sec)
Heartbeat CPU 0 instructions: 207501072 cycles: 161045528 heartbeat IPC: 0.6753 cumulative IPC: 1.045 (Simulation time: 00 hr 22 min 34 sec)
Heartbeat CPU 0 instructions: 208001074 cycles: 161408082 heartbeat IPC: 1.379 cumulative IPC: 1.045 (Simulation time: 00 hr 22 min 37 sec)
Heartbeat CPU 0 instructions: 208501074 cycles: 162106331 heartbeat IPC: 0.7161 cumulative IPC: 1.044 (Simulation time: 00 hr 22 min 42 sec)
Heartbeat CPU 0 instructions: 209001080 cycles: 162773320 heartbeat IPC: 0.7496 cumulative IPC: 1.043 (Simulation time: 00 hr 22 min 47 sec)
Heartbeat CPU 0 instructions: 209501082 cycles: 163181566 heartbeat IPC: 1.225 cumulative IPC: 1.043 (Simulation time: 00 hr 22 min 50 sec)
Heartbeat CPU 0 instructions: 210001082 cycles: 163899651 heartbeat IPC: 0.6963 cumulative IPC: 1.042 (Simulation time: 00 hr 22 min 55 sec)
Heartbeat CPU 0 instructions: 210501082 cycles: 164260098 heartbeat IPC: 1.387 cumulative IPC: 1.042 (Simulation time: 00 hr 22 min 58 sec)
Heartbeat CPU 0 instructions: 211001084 cycles: 164962136 heartbeat IPC: 0.7122 cumulative IPC: 1.041 (Simulation time: 00 hr 23 min 03 sec)
Heartbeat CPU 0 instructions: 211501084 cycles: 165712346 heartbeat IPC: 0.6665 cumulative IPC: 1.039 (Simulation time: 00 hr 23 min 09 sec)
Heartbeat CPU 0 instructions: 212001087 cycles: 166341146 heartbeat IPC: 0.7952 cumulative IPC: 1.038 (Simulation time: 00 hr 23 min 13 sec)
Heartbeat CPU 0 instructions: 212501087 cycles: 166698444 heartbeat IPC: 1.399 cumulative IPC: 1.039 (Simulation time: 00 hr 23 min 16 sec)
Heartbeat CPU 0 instructions: 213001091 cycles: 167048279 heartbeat IPC: 1.429 cumulative IPC: 1.04 (Simulation time: 00 hr 23 min 19 sec)
Heartbeat CPU 0 instructions: 213501091 cycles: 167400197 heartbeat IPC: 1.421 cumulative IPC: 1.041 (Simulation time: 00 hr 23 min 22 sec)
Heartbeat CPU 0 instructions: 214001091 cycles: 168627251 heartbeat IPC: 0.4075 cumulative IPC: 1.036 (Simulation time: 00 hr 23 min 31 sec)
Heartbeat CPU 0 instructions: 214501091 cycles: 169022834 heartbeat IPC: 1.264 cumulative IPC: 1.036 (Simulation time: 00 hr 23 min 34 sec)
Heartbeat CPU 0 instructions: 215001095 cycles: 169405701 heartbeat IPC: 1.306 cumulative IPC: 1.037 (Simulation time: 00 hr 23 min 36 sec)
Heartbeat CPU 0 instructions: 215501096 cycles: 169806147 heartbeat IPC: 1.249 cumulative IPC: 1.037 (Simulation time: 00 hr 23 min 39 sec)
Heartbeat CPU 0 instructions: 216001098 cycles: 170203910 heartbeat IPC: 1.257 cumulative IPC: 1.038 (Simulation time: 00 hr 23 min 42 sec)
Heartbeat CPU 0 instructions: 216501100 cycles: 170600258 heartbeat IPC: 1.262 cumulative IPC: 1.039 (Simulation time: 00 hr 23 min 45 sec)
Heartbeat CPU 0 instructions: 217001104 cycles: 170985206 heartbeat IPC: 1.299 cumulative IPC: 1.039 (Simulation time: 00 hr 23 min 48 sec)
Heartbeat CPU 0 instructions: 217501108 cycles: 171372963 heartbeat IPC: 1.289 cumulative IPC: 1.04 (Simulation time: 00 hr 23 min 51 sec)
Heartbeat CPU 0 instructions: 218001108 cycles: 171753254 heartbeat IPC: 1.315 cumulative IPC: 1.04 (Simulation time: 00 hr 23 min 54 sec)
Heartbeat CPU 0 instructions: 218501110 cycles: 172605079 heartbeat IPC: 0.587 cumulative IPC: 1.038 (Simulation time: 00 hr 24 min 00 sec)
Heartbeat CPU 0 instructions: 219001114 cycles: 173448995 heartbeat IPC: 0.5925 cumulative IPC: 1.036 (Simulation time: 00 hr 24 min 06 sec)
Heartbeat CPU 0 instructions: 219501114 cycles: 173826649 heartbeat IPC: 1.324 cumulative IPC: 1.036 (Simulation time: 00 hr 24 min 09 sec)
Heartbeat CPU 0 instructions: 220001116 cycles: 174203522 heartbeat IPC: 1.327 cumulative IPC: 1.037 (Simulation time: 00 hr 24 min 12 sec)
Heartbeat CPU 0 instructions: 220501116 cycles: 175221182 heartbeat IPC: 0.4913 cumulative IPC: 1.034 (Simulation time: 00 hr 24 min 19 sec)
Heartbeat CPU 0 instructions: 221001119 cycles: 175932567 heartbeat IPC: 0.7029 cumulative IPC: 1.032 (Simulation time: 00 hr 24 min 24 sec)
Heartbeat CPU 0 instructions: 221501124 cycles: 176303728 heartbeat IPC: 1.347 cumulative IPC: 1.033 (Simulation time: 00 hr 24 min 27 sec)
Heartbeat CPU 0 instructions: 222001127 cycles: 176682425 heartbeat IPC: 1.32 cumulative IPC: 1.034 (Simulation time: 00 hr 24 min 30 sec)
Heartbeat CPU 0 instructions: 222501130 cycles: 177078075 heartbeat IPC: 1.264 cumulative IPC: 1.034 (Simulation time: 00 hr 24 min 33 sec)
Heartbeat CPU 0 instructions: 223001130 cycles: 177757191 heartbeat IPC: 0.7363 cumulative IPC: 1.033 (Simulation time: 00 hr 24 min 38 sec)
Heartbeat CPU 0 instructions: 223501136 cycles: 178152396 heartbeat IPC: 1.265 cumulative IPC: 1.034 (Simulation time: 00 hr 24 min 40 sec)
Heartbeat CPU 0 instructions: 224001140 cycles: 178536866 heartbeat IPC: 1.301 cumulative IPC: 1.034 (Simulation time: 00 hr 24 min 43 sec)
Heartbeat CPU 0 instructions: 224501141 cycles: 179249935 heartbeat IPC: 0.7012 cumulative IPC: 1.033 (Simulation time: 00 hr 24 min 48 sec)
Heartbeat CPU 0 instructions: 225001141 cycles: 179619068 heartbeat IPC: 1.355 cumulative IPC: 1.033 (Simulation time: 00 hr 24 min 51 sec)
Heartbeat CPU 0 instructions: 225501145 cycles: 179993837 heartbeat IPC: 1.334 cumulative IPC: 1.034 (Simulation time: 00 hr 24 min 54 sec)
Heartbeat CPU 0 instructions: 226001149 cycles: 180361964 heartbeat IPC: 1.358 cumulative IPC: 1.035 (Simulation time: 00 hr 24 min 56 sec)
Heartbeat CPU 0 instructions: 226501153 cycles: 180736768 heartbeat IPC: 1.334 cumulative IPC: 1.035 (Simulation time: 00 hr 24 min 59 sec)
Heartbeat CPU 0 instructions: 227001154 cycles: 181094106 heartbeat IPC: 1.399 cumulative IPC: 1.036 (Simulation time: 00 hr 25 min 02 sec)
Heartbeat CPU 0 instructions: 227501155 cycles: 181444312 heartbeat IPC: 1.428 cumulative IPC: 1.037 (Simulation time: 00 hr 25 min 04 sec)
Heartbeat CPU 0 instructions: 228001159 cycles: 181780047 heartbeat IPC: 1.489 cumulative IPC: 1.038 (Simulation time: 00 hr 25 min 07 sec)
Heartbeat CPU 0 instructions: 228501159 cycles: 182512357 heartbeat IPC: 0.6828 cumulative IPC: 1.036 (Simulation time: 00 hr 25 min 12 sec)
Heartbeat CPU 0 instructions: 229001164 cycles: 182907858 heartbeat IPC: 1.264 cumulative IPC: 1.037 (Simulation time: 00 hr 25 min 15 sec)
Heartbeat CPU 0 instructions: 229501167 cycles: 183304047 heartbeat IPC: 1.262 cumulative IPC: 1.037 (Simulation time: 00 hr 25 min 18 sec)
Heartbeat CPU 0 instructions: 230001170 cycles: 183699324 heartbeat IPC: 1.265 cumulative IPC: 1.038 (Simulation time: 00 hr 25 min 21 sec)
Heartbeat CPU 0 instructions: 230501170 cycles: 184075909 heartbeat IPC: 1.328 cumulative IPC: 1.039 (Simulation time: 00 hr 25 min 23 sec)
Heartbeat CPU 0 instructions: 231001170 cycles: 184461980 heartbeat IPC: 1.295 cumulative IPC: 1.039 (Simulation time: 00 hr 25 min 26 sec)
Heartbeat CPU 0 instructions: 231501171 cycles: 184841429 heartbeat IPC: 1.318 cumulative IPC: 1.04 (Simulation time: 00 hr 25 min 29 sec)
Heartbeat CPU 0 instructions: 232001173 cycles: 185497187 heartbeat IPC: 0.7625 cumulative IPC: 1.039 (Simulation time: 00 hr 25 min 34 sec)
Heartbeat CPU 0 instructions: 232501174 cycles: 186227942 heartbeat IPC: 0.6842 cumulative IPC: 1.037 (Simulation time: 00 hr 25 min 39 sec)
Heartbeat CPU 0 instructions: 233001174 cycles: 186617880 heartbeat IPC: 1.282 cumulative IPC: 1.038 (Simulation time: 00 hr 25 min 42 sec)
Heartbeat CPU 0 instructions: 233501176 cycles: 186994206 heartbeat IPC: 1.329 cumulative IPC: 1.038 (Simulation time: 00 hr 25 min 45 sec)
Heartbeat CPU 0 instructions: 234001177 cycles: 187682249 heartbeat IPC: 0.7267 cumulative IPC: 1.037 (Simulation time: 00 hr 25 min 50 sec)
Heartbeat CPU 0 instructions: 234501178 cycles: 188608769 heartbeat IPC: 0.5397 cumulative IPC: 1.035 (Simulation time: 00 hr 25 min 56 sec)
Heartbeat CPU 0 instructions: 235001182 cycles: 189350883 heartbeat IPC: 0.6738 cumulative IPC: 1.033 (Simulation time: 00 hr 26 min 02 sec)
Heartbeat CPU 0 instructions: 235501182 cycles: 189737912 heartbeat IPC: 1.292 cumulative IPC: 1.034 (Simulation time: 00 hr 26 min 04 sec)
Heartbeat CPU 0 instructions: 236001184 cycles: 190194299 heartbeat IPC: 1.096 cumulative IPC: 1.034 (Simulation time: 00 hr 26 min 08 sec)
Heartbeat CPU 0 instructions: 236501188 cycles: 191361242 heartbeat IPC: 0.4285 cumulative IPC: 1.03 (Simulation time: 00 hr 26 min 17 sec)
Heartbeat CPU 0 instructions: 237001191 cycles: 192031589 heartbeat IPC: 0.7459 cumulative IPC: 1.029 (Simulation time: 00 hr 26 min 22 sec)
Heartbeat CPU 0 instructions: 237501196 cycles: 192400130 heartbeat IPC: 1.357 cumulative IPC: 1.03 (Simulation time: 00 hr 26 min 24 sec)
Heartbeat CPU 0 instructions: 238001197 cycles: 193061838 heartbeat IPC: 0.7556 cumulative IPC: 1.029 (Simulation time: 00 hr 26 min 29 sec)
Heartbeat CPU 0 instructions: 238501197 cycles: 193446503 heartbeat IPC: 1.3 cumulative IPC: 1.029 (Simulation time: 00 hr 26 min 32 sec)
Heartbeat CPU 0 instructions: 239001197 cycles: 193845155 heartbeat IPC: 1.254 cumulative IPC: 1.03 (Simulation time: 00 hr 26 min 35 sec)
Heartbeat CPU 0 instructions: 239501198 cycles: 194233383 heartbeat IPC: 1.288 cumulative IPC: 1.03 (Simulation time: 00 hr 26 min 37 sec)
Heartbeat CPU 0 instructions: 240001203 cycles: 194616848 heartbeat IPC: 1.304 cumulative IPC: 1.031 (Simulation time: 00 hr 26 min 40 sec)
Heartbeat CPU 0 instructions: 240501204 cycles: 194994577 heartbeat IPC: 1.324 cumulative IPC: 1.031 (Simulation time: 00 hr 26 min 43 sec)
Heartbeat CPU 0 instructions: 241001205 cycles: 195716079 heartbeat IPC: 0.693 cumulative IPC: 1.03 (Simulation time: 00 hr 26 min 48 sec)
Heartbeat CPU 0 instructions: 241501208 cycles: 196159908 heartbeat IPC: 1.127 cumulative IPC: 1.03 (Simulation time: 00 hr 26 min 51 sec)
Heartbeat CPU 0 instructions: 242001214 cycles: 197074809 heartbeat IPC: 0.5465 cumulative IPC: 1.028 (Simulation time: 00 hr 26 min 57 sec)
Heartbeat CPU 0 instructions: 242501214 cycles: 197409437 heartbeat IPC: 1.494 cumulative IPC: 1.029 (Simulation time: 00 hr 27 min 00 sec)
Heartbeat CPU 0 instructions: 243001217 cycles: 198190316 heartbeat IPC: 0.6403 cumulative IPC: 1.027 (Simulation time: 00 hr 27 min 05 sec)
Heartbeat CPU 0 instructions: 243501219 cycles: 198741762 heartbeat IPC: 0.9067 cumulative IPC: 1.027 (Simulation time: 00 hr 27 min 09 sec)
Heartbeat CPU 0 instructions: 244001223 cycles: 199142582 heartbeat IPC: 1.247 cumulative IPC: 1.027 (Simulation time: 00 hr 27 min 12 sec)
Heartbeat CPU 0 instructions: 244501224 cycles: 199541871 heartbeat IPC: 1.252 cumulative IPC: 1.028 (Simulation time: 00 hr 27 min 15 sec)
Heartbeat CPU 0 instructions: 245001227 cycles: 199935680 heartbeat IPC: 1.27 cumulative IPC: 1.028 (Simulation time: 00 hr 27 min 17 sec)
Heartbeat CPU 0 instructions: 245501232 cycles: 200331399 heartbeat IPC: 1.264 cumulative IPC: 1.029 (Simulation time: 00 hr 27 min 20 sec)
Heartbeat CPU 0 instructions: 246001233 cycles: 200720936 heartbeat IPC: 1.284 cumulative IPC: 1.029 (Simulation time: 00 hr 27 min 23 sec)
Heartbeat CPU 0 instructions: 246501235 cycles: 201106390 heartbeat IPC: 1.297 cumulative IPC: 1.03 (Simulation time: 00 hr 27 min 26 sec)
Heartbeat CPU 0 instructions: 247001236 cycles: 201782780 heartbeat IPC: 0.7392 cumulative IPC: 1.029 (Simulation time: 00 hr 27 min 31 sec)
Heartbeat CPU 0 instructions: 247501240 cycles: 202324493 heartbeat IPC: 0.923 cumulative IPC: 1.028 (Simulation time: 00 hr 27 min 35 sec)
Heartbeat CPU 0 instructions: 248001247 cycles: 202961638 heartbeat IPC: 0.7848 cumulative IPC: 1.028 (Simulation time: 00 hr 27 min 39 sec)
Heartbeat CPU 0 instructions: 248501247 cycles: 203339536 heartbeat IPC: 1.323 cumulative IPC: 1.028 (Simulation time: 00 hr 27 min 42 sec)
Heartbeat CPU 0 instructions: 249001248 cycles: 203705267 heartbeat IPC: 1.367 cumulative IPC: 1.029 (Simulation time: 00 hr 27 min 44 sec)
Heartbeat CPU 0 instructions: 249501249 cycles: 204411702 heartbeat IPC: 0.7078 cumulative IPC: 1.028 (Simulation time: 00 hr 27 min 49 sec)
Simulation finished CPU 0 instructions: 200000000 cycles: 194525188 cumulative IPC: 1.028 (Simulation time: 00 hr 27 min 52 sec)
Simulation complete CPU 0 instructions: 200000000 cycles: 194525188 cumulative IPC: 1.028 (Simulation time: 00 hr 27 min 52 sec)

ChampSim completed all CPUs

=== Simulation ===
CPU 0 runs /local-ssd/ben/dpc4-traces/Graph/GMS/gms.k_clique_list_danisch_node_parallel.soc-pokec-relationships.slice-236.champsimstrace.gz

Region of Interest Statistics

CPU 0 cumulative IPC: 1.028 instructions: 200000000 cycles: 194525188
CPU 0 Branch Prediction Accuracy: 82.22% MPKI: 25.02 Average ROB Occupancy at Mispredict: 15.94
Branch type MPKI
BRANCH_DIRECT_JUMP: 0
BRANCH_INDIRECT: 0
BRANCH_CONDITIONAL: 25.02
BRANCH_DIRECT_CALL: 0
BRANCH_INDIRECT_CALL: 0
BRANCH_RETURN: 0

cpu0->cpu0_STLB TOTAL        ACCESS:    1625653 HIT:    1507091 MISS:     118562 MSHR_MERGE:          0
cpu0->cpu0_STLB LOAD         ACCESS:    1625653 HIT:    1507091 MISS:     118562 MSHR_MERGE:          0
cpu0->cpu0_STLB RFO          ACCESS:          0 HIT:          0 MISS:          0 MSHR_MERGE:          0
cpu0->cpu0_STLB PREFETCH     ACCESS:          0 HIT:          0 MISS:          0 MSHR_MERGE:          0
cpu0->cpu0_STLB WRITE        ACCESS:          0 HIT:          0 MISS:          0 MSHR_MERGE:          0
cpu0->cpu0_STLB TRANSLATION  ACCESS:          0 HIT:          0 MISS:          0 MSHR_MERGE:          0
cpu0->cpu0_STLB PREFETCH REQUESTED:          0 ISSUED:          0 USEFUL:          0 USELESS:          0
cpu0->cpu0_STLB AVERAGE MISS LATENCY: 104.6 cycles
cpu0->cpu0_L2C TOTAL        ACCESS:    3783902 HIT:    2304556 MISS:    1479346 MSHR_MERGE:      83581
cpu0->cpu0_L2C LOAD         ACCESS:    1526574 HIT:     927656 MISS:     598918 MSHR_MERGE:       9862
cpu0->cpu0_L2C RFO          ACCESS:      87970 HIT:      69040 MISS:      18930 MSHR_MERGE:          0
cpu0->cpu0_L2C PREFETCH     ACCESS:    1959344 HIT:    1128898 MISS:     830446 MSHR_MERGE:      73719
cpu0->cpu0_L2C WRITE        ACCESS:     113975 HIT:     113953 MISS:         22 MSHR_MERGE:          0
cpu0->cpu0_L2C TRANSLATION  ACCESS:      96039 HIT:      65009 MISS:      31030 MSHR_MERGE:          0
cpu0->cpu0_L2C PREFETCH REQUESTED:    1865342 ISSUED:    1779591 USEFUL:     227619 USELESS:     478198
cpu0->cpu0_L2C AVERAGE MISS LATENCY: 172.2 cycles
cpu0->cpu0_L1I TOTAL        ACCESS:    1634415 HIT:    1634415 MISS:          0 MSHR_MERGE:          0
cpu0->cpu0_L1I LOAD         ACCESS:    1634415 HIT:    1634415 MISS:          0 MSHR_MERGE:          0
cpu0->cpu0_L1I RFO          ACCESS:          0 HIT:          0 MISS:          0 MSHR_MERGE:          0
cpu0->cpu0_L1I PREFETCH     ACCESS:          0 HIT:          0 MISS:          0 MSHR_MERGE:          0
cpu0->cpu0_L1I WRITE        ACCESS:          0 HIT:          0 MISS:          0 MSHR_MERGE:          0
cpu0->cpu0_L1I TRANSLATION  ACCESS:          0 HIT:          0 MISS:          0 MSHR_MERGE:          0
cpu0->cpu0_L1I PREFETCH REQUESTED:          0 ISSUED:          0 USEFUL:          0 USELESS:          0
cpu0->cpu0_L1I AVERAGE MISS LATENCY: - cycles
cpu0->cpu0_L1D TOTAL        ACCESS:   76901221 HIT:   74621457 MISS:    2279764 MSHR_MERGE:     389425
cpu0->cpu0_L1D LOAD         ACCESS:   45556096 HIT:   43675467 MISS:    1880629 MSHR_MERGE:     354053
cpu0->cpu0_L1D RFO          ACCESS:          0 HIT:          0 MISS:          0 MSHR_MERGE:          0
cpu0->cpu0_L1D PREFETCH     ACCESS:     275451 HIT:      81980 MISS:     193471 MSHR_MERGE:      13718
cpu0->cpu0_L1D WRITE        ACCESS:   30828486 HIT:   30720495 MISS:     107991 MSHR_MERGE:      20020
cpu0->cpu0_L1D TRANSLATION  ACCESS:     241188 HIT:     143515 MISS:      97673 MSHR_MERGE:       1634
cpu0->cpu0_L1D PREFETCH REQUESTED:     276056 ISSUED:     275451 USEFUL:      80791 USELESS:      98973
cpu0->cpu0_L1D AVERAGE MISS LATENCY: 74.35 cycles
cpu0->cpu0_ITLB TOTAL        ACCESS:    1533253 HIT:    1533253 MISS:          0 MSHR_MERGE:          0
cpu0->cpu0_ITLB LOAD         ACCESS:    1533253 HIT:    1533253 MISS:          0 MSHR_MERGE:          0
cpu0->cpu0_ITLB RFO          ACCESS:          0 HIT:          0 MISS:          0 MSHR_MERGE:          0
cpu0->cpu0_ITLB PREFETCH     ACCESS:          0 HIT:          0 MISS:          0 MSHR_MERGE:          0
cpu0->cpu0_ITLB WRITE        ACCESS:          0 HIT:          0 MISS:          0 MSHR_MERGE:          0
cpu0->cpu0_ITLB TRANSLATION  ACCESS:          0 HIT:          0 MISS:          0 MSHR_MERGE:          0
cpu0->cpu0_ITLB PREFETCH REQUESTED:          0 ISSUED:          0 USEFUL:          0 USELESS:          0
cpu0->cpu0_ITLB AVERAGE MISS LATENCY: - cycles
cpu0->cpu0_DTLB TOTAL        ACCESS:   73218186 HIT:   71108524 MISS:    2109662 MSHR_MERGE:     484009
cpu0->cpu0_DTLB LOAD         ACCESS:   73218186 HIT:   71108524 MISS:    2109662 MSHR_MERGE:     484009
cpu0->cpu0_DTLB RFO          ACCESS:          0 HIT:          0 MISS:          0 MSHR_MERGE:          0
cpu0->cpu0_DTLB PREFETCH     ACCESS:          0 HIT:          0 MISS:          0 MSHR_MERGE:          0
cpu0->cpu0_DTLB WRITE        ACCESS:          0 HIT:          0 MISS:          0 MSHR_MERGE:          0
cpu0->cpu0_DTLB TRANSLATION  ACCESS:          0 HIT:          0 MISS:          0 MSHR_MERGE:          0
cpu0->cpu0_DTLB PREFETCH REQUESTED:          0 ISSUED:          0 USEFUL:          0 USELESS:          0
cpu0->cpu0_DTLB AVERAGE MISS LATENCY: 12.75 cycles
cpu0->LLC TOTAL        ACCESS:    2457723 HIT:    1085796 MISS:    1371927 MSHR_MERGE:     270200
cpu0->LLC LOAD         ACCESS:     589056 HIT:     261967 MISS:     327089 MSHR_MERGE:         31
cpu0->LLC RFO          ACCESS:      18930 HIT:      12581 MISS:       6349 MSHR_MERGE:          0
cpu0->LLC PREFETCH     ACCESS:    1783147 HIT:     782646 MISS:    1000501 MSHR_MERGE:     270169
cpu0->LLC WRITE        ACCESS:      35560 HIT:      24524 MISS:      11036 MSHR_MERGE:          0
cpu0->LLC TRANSLATION  ACCESS:      31030 HIT:       4078 MISS:      26952 MSHR_MERGE:          0
cpu0->LLC PREFETCH REQUESTED:    1026570 ISSUED:    1026420 USEFUL:      77616 USELESS:     285203
cpu0->LLC AVERAGE MISS LATENCY: 256.3 cycles

DRAM Statistics

Channel 0 RQ ROW_BUFFER_HIT:       2235
  ROW_BUFFER_MISS:    1088410
  AVG DBUS CONGESTED CYCLE: 9.456
Channel 0 WQ ROW_BUFFER_HIT:       5359
  ROW_BUFFER_MISS:       8431
  FULL:          0
Channel 0 REFRESHES ISSUED:      16209
