[VMEM] WARNING: physical memory size is smaller than virtual memory size.

*** ChampSim Multicore Out-of-Order Simulator ***
Warmup Instructions: 50000000
Simulation Instructions: 200000000
Number of CPUs: 1
Page size: 4096
Core 0: /local-ssd/ben/dpc4-traces/gtraces_v2/tango_0000.champsim.gz
 L1D Berti prefetcher
Off-chip DRAM Size: 64 GiB Channels: 1 Width: 64-bit Data Rate: 4807 MT/s
Heartbeat CPU 0 instructions: 500002 cycles: 242200 heartbeat IPC: 2.064 cumulative IPC: 2.064 (Simulation time: 00 hr 00 min 04 sec)
[BTB] WARNING: target of return is a lower address than the corresponding call. This is usually a problem with your trace.
[BTB] WARNING: target of return is a lower address than the corresponding call. This is usually a problem with your trace.
[BTB] WARNING: target of return is a lower address than the corresponding call. This is usually a problem with your trace.
[BTB] WARNING: target of return is a lower address than the corresponding call. This is usually a problem with your trace.
[BTB] WARNING: target of return is a lower address than the corresponding call. This is usually a problem with your trace.
[BTB] WARNING: target of return is a lower address than the corresponding call. This is usually a problem with your trace.
[BTB] WARNING: target of return is a lower address than the corresponding call. This is usually a problem with your trace.
[BTB] WARNING: target of return is a lower address than the corresponding call. This is usually a problem with your trace.
[BTB] WARNING: target of return is a lower address than the corresponding call. This is usually a problem with your trace.
[BTB] WARNING: target of return is a lower address than the corresponding call. This is usually a problem with your trace.
Heartbeat CPU 0 instructions: 1000002 cycles: 434474 heartbeat IPC: 2.6 cumulative IPC: 2.302 (Simulation time: 00 hr 00 min 07 sec)
Heartbeat CPU 0 instructions: 1500007 cycles: 581153 heartbeat IPC: 3.409 cumulative IPC: 2.581 (Simulation time: 00 hr 00 min 09 sec)
Heartbeat CPU 0 instructions: 2000009 cycles: 750568 heartbeat IPC: 2.951 cumulative IPC: 2.665 (Simulation time: 00 hr 00 min 12 sec)
Heartbeat CPU 0 instructions: 2500010 cycles: 912822 heartbeat IPC: 3.082 cumulative IPC: 2.739 (Simulation time: 00 hr 00 min 14 sec)
Heartbeat CPU 0 instructions: 3000016 cycles: 1112389 heartbeat IPC: 2.505 cumulative IPC: 2.697 (Simulation time: 00 hr 00 min 18 sec)
Heartbeat CPU 0 instructions: 3500021 cycles: 1283162 heartbeat IPC: 2.928 cumulative IPC: 2.728 (Simulation time: 00 hr 00 min 20 sec)
Heartbeat CPU 0 instructions: 4000025 cycles: 1454200 heartbeat IPC: 2.923 cumulative IPC: 2.751 (Simulation time: 00 hr 00 min 23 sec)
Heartbeat CPU 0 instructions: 4500027 cycles: 1603029 heartbeat IPC: 3.36 cumulative IPC: 2.807 (Simulation time: 00 hr 00 min 26 sec)
Heartbeat CPU 0 instructions: 5000029 cycles: 1787132 heartbeat IPC: 2.716 cumulative IPC: 2.798 (Simulation time: 00 hr 00 min 29 sec)
Heartbeat CPU 0 instructions: 5500033 cycles: 1972145 heartbeat IPC: 2.703 cumulative IPC: 2.789 (Simulation time: 00 hr 00 min 32 sec)
Heartbeat CPU 0 instructions: 6000036 cycles: 2105647 heartbeat IPC: 3.745 cumulative IPC: 2.849 (Simulation time: 00 hr 00 min 34 sec)
Heartbeat CPU 0 instructions: 6500037 cycles: 2211308 heartbeat IPC: 4.732 cumulative IPC: 2.939 (Simulation time: 00 hr 00 min 35 sec)
Heartbeat CPU 0 instructions: 7000044 cycles: 2354920 heartbeat IPC: 3.482 cumulative IPC: 2.973 (Simulation time: 00 hr 00 min 38 sec)
Heartbeat CPU 0 instructions: 7500044 cycles: 2509278 heartbeat IPC: 3.239 cumulative IPC: 2.989 (Simulation time: 00 hr 00 min 40 sec)
Heartbeat CPU 0 instructions: 8000051 cycles: 2635914 heartbeat IPC: 3.948 cumulative IPC: 3.035 (Simulation time: 00 hr 00 min 42 sec)
Heartbeat CPU 0 instructions: 8500051 cycles: 2756266 heartbeat IPC: 4.154 cumulative IPC: 3.084 (Simulation time: 00 hr 00 min 45 sec)
Heartbeat CPU 0 instructions: 9000053 cycles: 2919173 heartbeat IPC: 3.069 cumulative IPC: 3.083 (Simulation time: 00 hr 00 min 47 sec)
Heartbeat CPU 0 instructions: 9500053 cycles: 3095078 heartbeat IPC: 2.842 cumulative IPC: 3.069 (Simulation time: 00 hr 00 min 50 sec)
Heartbeat CPU 0 instructions: 10000060 cycles: 3267554 heartbeat IPC: 2.899 cumulative IPC: 3.06 (Simulation time: 00 hr 00 min 53 sec)
Heartbeat CPU 0 instructions: 10500062 cycles: 3392567 heartbeat IPC: 4 cumulative IPC: 3.095 (Simulation time: 00 hr 00 min 55 sec)
Heartbeat CPU 0 instructions: 11000063 cycles: 3550219 heartbeat IPC: 3.172 cumulative IPC: 3.098 (Simulation time: 00 hr 00 min 58 sec)
Heartbeat CPU 0 instructions: 11500065 cycles: 3700533 heartbeat IPC: 3.326 cumulative IPC: 3.108 (Simulation time: 00 hr 01 min 01 sec)
Heartbeat CPU 0 instructions: 12000069 cycles: 3842954 heartbeat IPC: 3.511 cumulative IPC: 3.123 (Simulation time: 00 hr 01 min 03 sec)
Heartbeat CPU 0 instructions: 12500073 cycles: 3959719 heartbeat IPC: 4.282 cumulative IPC: 3.157 (Simulation time: 00 hr 01 min 05 sec)
Heartbeat CPU 0 instructions: 13000078 cycles: 4065982 heartbeat IPC: 4.705 cumulative IPC: 3.197 (Simulation time: 00 hr 01 min 07 sec)
Heartbeat CPU 0 instructions: 13500080 cycles: 4214698 heartbeat IPC: 3.362 cumulative IPC: 3.203 (Simulation time: 00 hr 01 min 09 sec)
Heartbeat CPU 0 instructions: 14000085 cycles: 4359962 heartbeat IPC: 3.442 cumulative IPC: 3.211 (Simulation time: 00 hr 01 min 12 sec)
Heartbeat CPU 0 instructions: 14500091 cycles: 4479390 heartbeat IPC: 4.187 cumulative IPC: 3.237 (Simulation time: 00 hr 01 min 14 sec)
Heartbeat CPU 0 instructions: 15000095 cycles: 4610167 heartbeat IPC: 3.823 cumulative IPC: 3.254 (Simulation time: 00 hr 01 min 16 sec)
Heartbeat CPU 0 instructions: 15500097 cycles: 4752914 heartbeat IPC: 3.503 cumulative IPC: 3.261 (Simulation time: 00 hr 01 min 18 sec)
Heartbeat CPU 0 instructions: 16000101 cycles: 4878348 heartbeat IPC: 3.986 cumulative IPC: 3.28 (Simulation time: 00 hr 01 min 20 sec)
Heartbeat CPU 0 instructions: 16500101 cycles: 5035251 heartbeat IPC: 3.187 cumulative IPC: 3.277 (Simulation time: 00 hr 01 min 23 sec)
Heartbeat CPU 0 instructions: 17000106 cycles: 5220741 heartbeat IPC: 2.696 cumulative IPC: 3.256 (Simulation time: 00 hr 01 min 26 sec)
Heartbeat CPU 0 instructions: 17500112 cycles: 5388304 heartbeat IPC: 2.984 cumulative IPC: 3.248 (Simulation time: 00 hr 01 min 29 sec)
Heartbeat CPU 0 instructions: 18000113 cycles: 5556676 heartbeat IPC: 2.97 cumulative IPC: 3.239 (Simulation time: 00 hr 01 min 31 sec)
Heartbeat CPU 0 instructions: 18500115 cycles: 5703055 heartbeat IPC: 3.416 cumulative IPC: 3.244 (Simulation time: 00 hr 01 min 34 sec)
Heartbeat CPU 0 instructions: 19000120 cycles: 5869393 heartbeat IPC: 3.006 cumulative IPC: 3.237 (Simulation time: 00 hr 01 min 37 sec)
Heartbeat CPU 0 instructions: 19500125 cycles: 6026610 heartbeat IPC: 3.18 cumulative IPC: 3.236 (Simulation time: 00 hr 01 min 40 sec)
Heartbeat CPU 0 instructions: 20000131 cycles: 6156666 heartbeat IPC: 3.845 cumulative IPC: 3.249 (Simulation time: 00 hr 01 min 42 sec)
Heartbeat CPU 0 instructions: 20500135 cycles: 6274676 heartbeat IPC: 4.237 cumulative IPC: 3.267 (Simulation time: 00 hr 01 min 43 sec)
Heartbeat CPU 0 instructions: 21000141 cycles: 6417762 heartbeat IPC: 3.494 cumulative IPC: 3.272 (Simulation time: 00 hr 01 min 46 sec)
Heartbeat CPU 0 instructions: 21500145 cycles: 6547899 heartbeat IPC: 3.842 cumulative IPC: 3.284 (Simulation time: 00 hr 01 min 48 sec)
Heartbeat CPU 0 instructions: 22000148 cycles: 6691999 heartbeat IPC: 3.47 cumulative IPC: 3.288 (Simulation time: 00 hr 01 min 51 sec)
Heartbeat CPU 0 instructions: 22500152 cycles: 6813908 heartbeat IPC: 4.101 cumulative IPC: 3.302 (Simulation time: 00 hr 01 min 53 sec)
Heartbeat CPU 0 instructions: 23000152 cycles: 6924117 heartbeat IPC: 4.537 cumulative IPC: 3.322 (Simulation time: 00 hr 01 min 54 sec)
Heartbeat CPU 0 instructions: 23500156 cycles: 7061429 heartbeat IPC: 3.641 cumulative IPC: 3.328 (Simulation time: 00 hr 01 min 57 sec)
Heartbeat CPU 0 instructions: 24000162 cycles: 7194264 heartbeat IPC: 3.764 cumulative IPC: 3.336 (Simulation time: 00 hr 01 min 59 sec)
Heartbeat CPU 0 instructions: 24500165 cycles: 7338609 heartbeat IPC: 3.464 cumulative IPC: 3.339 (Simulation time: 00 hr 02 min 01 sec)
Heartbeat CPU 0 instructions: 25000166 cycles: 7473908 heartbeat IPC: 3.696 cumulative IPC: 3.345 (Simulation time: 00 hr 02 min 04 sec)
Heartbeat CPU 0 instructions: 25500167 cycles: 7630247 heartbeat IPC: 3.198 cumulative IPC: 3.342 (Simulation time: 00 hr 02 min 07 sec)
Heartbeat CPU 0 instructions: 26000168 cycles: 7793894 heartbeat IPC: 3.055 cumulative IPC: 3.336 (Simulation time: 00 hr 02 min 09 sec)
Heartbeat CPU 0 instructions: 26500172 cycles: 7906315 heartbeat IPC: 4.448 cumulative IPC: 3.352 (Simulation time: 00 hr 02 min 11 sec)
Heartbeat CPU 0 instructions: 27000176 cycles: 8062073 heartbeat IPC: 3.21 cumulative IPC: 3.349 (Simulation time: 00 hr 02 min 14 sec)
Heartbeat CPU 0 instructions: 27500176 cycles: 8217686 heartbeat IPC: 3.213 cumulative IPC: 3.346 (Simulation time: 00 hr 02 min 17 sec)
Heartbeat CPU 0 instructions: 28000179 cycles: 8354488 heartbeat IPC: 3.655 cumulative IPC: 3.352 (Simulation time: 00 hr 02 min 19 sec)
Heartbeat CPU 0 instructions: 28500179 cycles: 8486359 heartbeat IPC: 3.792 cumulative IPC: 3.358 (Simulation time: 00 hr 02 min 22 sec)
Heartbeat CPU 0 instructions: 29000184 cycles: 8641199 heartbeat IPC: 3.229 cumulative IPC: 3.356 (Simulation time: 00 hr 02 min 24 sec)
Heartbeat CPU 0 instructions: 29500191 cycles: 8787216 heartbeat IPC: 3.424 cumulative IPC: 3.357 (Simulation time: 00 hr 02 min 27 sec)
Heartbeat CPU 0 instructions: 30000193 cycles: 8953729 heartbeat IPC: 3.003 cumulative IPC: 3.351 (Simulation time: 00 hr 02 min 29 sec)
Heartbeat CPU 0 instructions: 30500198 cycles: 9070019 heartbeat IPC: 4.3 cumulative IPC: 3.363 (Simulation time: 00 hr 02 min 31 sec)
Heartbeat CPU 0 instructions: 31000204 cycles: 9211851 heartbeat IPC: 3.525 cumulative IPC: 3.365 (Simulation time: 00 hr 02 min 34 sec)
Heartbeat CPU 0 instructions: 31500204 cycles: 9337901 heartbeat IPC: 3.967 cumulative IPC: 3.373 (Simulation time: 00 hr 02 min 36 sec)
Heartbeat CPU 0 instructions: 32000205 cycles: 9486358 heartbeat IPC: 3.368 cumulative IPC: 3.373 (Simulation time: 00 hr 02 min 39 sec)
Heartbeat CPU 0 instructions: 32500205 cycles: 9636156 heartbeat IPC: 3.338 cumulative IPC: 3.373 (Simulation time: 00 hr 02 min 41 sec)
Heartbeat CPU 0 instructions: 33000206 cycles: 9763340 heartbeat IPC: 3.931 cumulative IPC: 3.38 (Simulation time: 00 hr 02 min 44 sec)
Heartbeat CPU 0 instructions: 33500208 cycles: 9889299 heartbeat IPC: 3.97 cumulative IPC: 3.388 (Simulation time: 00 hr 02 min 45 sec)
Heartbeat CPU 0 instructions: 34000213 cycles: 10026781 heartbeat IPC: 3.637 cumulative IPC: 3.391 (Simulation time: 00 hr 02 min 48 sec)
Heartbeat CPU 0 instructions: 34500219 cycles: 10173965 heartbeat IPC: 3.397 cumulative IPC: 3.391 (Simulation time: 00 hr 02 min 50 sec)
Heartbeat CPU 0 instructions: 35000222 cycles: 10301069 heartbeat IPC: 3.934 cumulative IPC: 3.398 (Simulation time: 00 hr 02 min 52 sec)
Heartbeat CPU 0 instructions: 35500225 cycles: 10417581 heartbeat IPC: 4.291 cumulative IPC: 3.408 (Simulation time: 00 hr 02 min 54 sec)
Heartbeat CPU 0 instructions: 36000227 cycles: 10536394 heartbeat IPC: 4.208 cumulative IPC: 3.417 (Simulation time: 00 hr 02 min 57 sec)
Heartbeat CPU 0 instructions: 36500230 cycles: 10643018 heartbeat IPC: 4.689 cumulative IPC: 3.429 (Simulation time: 00 hr 02 min 58 sec)
Heartbeat CPU 0 instructions: 37000237 cycles: 10754461 heartbeat IPC: 4.487 cumulative IPC: 3.44 (Simulation time: 00 hr 03 min 00 sec)
Heartbeat CPU 0 instructions: 37500243 cycles: 10887677 heartbeat IPC: 3.753 cumulative IPC: 3.444 (Simulation time: 00 hr 03 min 03 sec)
Heartbeat CPU 0 instructions: 38000246 cycles: 11003777 heartbeat IPC: 4.307 cumulative IPC: 3.453 (Simulation time: 00 hr 03 min 05 sec)
Heartbeat CPU 0 instructions: 38500249 cycles: 11116032 heartbeat IPC: 4.454 cumulative IPC: 3.463 (Simulation time: 00 hr 03 min 07 sec)
Heartbeat CPU 0 instructions: 39000255 cycles: 11229528 heartbeat IPC: 4.405 cumulative IPC: 3.473 (Simulation time: 00 hr 03 min 09 sec)
Heartbeat CPU 0 instructions: 39500256 cycles: 11343908 heartbeat IPC: 4.371 cumulative IPC: 3.482 (Simulation time: 00 hr 03 min 11 sec)
Heartbeat CPU 0 instructions: 40000259 cycles: 11449883 heartbeat IPC: 4.718 cumulative IPC: 3.494 (Simulation time: 00 hr 03 min 13 sec)
Heartbeat CPU 0 instructions: 40500266 cycles: 11555868 heartbeat IPC: 4.718 cumulative IPC: 3.505 (Simulation time: 00 hr 03 min 14 sec)
Heartbeat CPU 0 instructions: 41000267 cycles: 11675452 heartbeat IPC: 4.181 cumulative IPC: 3.512 (Simulation time: 00 hr 03 min 16 sec)
Heartbeat CPU 0 instructions: 41500268 cycles: 11803748 heartbeat IPC: 3.897 cumulative IPC: 3.516 (Simulation time: 00 hr 03 min 19 sec)
Heartbeat CPU 0 instructions: 42000275 cycles: 11919165 heartbeat IPC: 4.332 cumulative IPC: 3.524 (Simulation time: 00 hr 03 min 21 sec)
Heartbeat CPU 0 instructions: 42500276 cycles: 12029502 heartbeat IPC: 4.532 cumulative IPC: 3.533 (Simulation time: 00 hr 03 min 22 sec)
Heartbeat CPU 0 instructions: 43000283 cycles: 12200435 heartbeat IPC: 2.925 cumulative IPC: 3.524 (Simulation time: 00 hr 03 min 25 sec)
Heartbeat CPU 0 instructions: 43500285 cycles: 12336606 heartbeat IPC: 3.672 cumulative IPC: 3.526 (Simulation time: 00 hr 03 min 28 sec)
Heartbeat CPU 0 instructions: 44000285 cycles: 12472717 heartbeat IPC: 3.673 cumulative IPC: 3.528 (Simulation time: 00 hr 03 min 30 sec)
Heartbeat CPU 0 instructions: 44500285 cycles: 12587441 heartbeat IPC: 4.358 cumulative IPC: 3.535 (Simulation time: 00 hr 03 min 32 sec)
Heartbeat CPU 0 instructions: 45000292 cycles: 12712723 heartbeat IPC: 3.991 cumulative IPC: 3.54 (Simulation time: 00 hr 03 min 35 sec)
Heartbeat CPU 0 instructions: 45500295 cycles: 12845533 heartbeat IPC: 3.765 cumulative IPC: 3.542 (Simulation time: 00 hr 03 min 37 sec)
Heartbeat CPU 0 instructions: 46000296 cycles: 12968924 heartbeat IPC: 4.052 cumulative IPC: 3.547 (Simulation time: 00 hr 03 min 39 sec)
Heartbeat CPU 0 instructions: 46500301 cycles: 13108846 heartbeat IPC: 3.573 cumulative IPC: 3.547 (Simulation time: 00 hr 03 min 42 sec)
Heartbeat CPU 0 instructions: 47000301 cycles: 13245968 heartbeat IPC: 3.646 cumulative IPC: 3.548 (Simulation time: 00 hr 03 min 44 sec)
Heartbeat CPU 0 instructions: 47500303 cycles: 13384135 heartbeat IPC: 3.619 cumulative IPC: 3.549 (Simulation time: 00 hr 03 min 46 sec)
Heartbeat CPU 0 instructions: 48000305 cycles: 13513447 heartbeat IPC: 3.867 cumulative IPC: 3.552 (Simulation time: 00 hr 03 min 49 sec)
Heartbeat CPU 0 instructions: 48500312 cycles: 13635361 heartbeat IPC: 4.101 cumulative IPC: 3.557 (Simulation time: 00 hr 03 min 51 sec)
Heartbeat CPU 0 instructions: 49000318 cycles: 13757589 heartbeat IPC: 4.091 cumulative IPC: 3.562 (Simulation time: 00 hr 03 min 53 sec)
Heartbeat CPU 0 instructions: 49500318 cycles: 13892580 heartbeat IPC: 3.704 cumulative IPC: 3.563 (Simulation time: 00 hr 03 min 55 sec)
Warmup finished CPU 0 instructions: 50000006 cycles: 14001673 cumulative IPC: 3.571 (Simulation time: 00 hr 03 min 57 sec)
Warmup complete CPU 0 instructions: 50000006 cycles: 14001673 cumulative IPC: 3.571 (Simulation time: 00 hr 03 min 57 sec)
Heartbeat CPU 0 instructions: 50000324 cycles: 14001742 heartbeat IPC: 4.58 cumulative IPC: 4.609 (Simulation time: 00 hr 03 min 57 sec)
Heartbeat CPU 0 instructions: 50500324 cycles: 14750489 heartbeat IPC: 0.6678 cumulative IPC: 0.6681 (Simulation time: 00 hr 04 min 03 sec)
Heartbeat CPU 0 instructions: 51000324 cycles: 15389358 heartbeat IPC: 0.7826 cumulative IPC: 0.7209 (Simulation time: 00 hr 04 min 08 sec)
Heartbeat CPU 0 instructions: 51500324 cycles: 15849096 heartbeat IPC: 1.088 cumulative IPC: 0.8121 (Simulation time: 00 hr 04 min 12 sec)
Heartbeat CPU 0 instructions: 52000328 cycles: 16620940 heartbeat IPC: 0.6478 cumulative IPC: 0.7637 (Simulation time: 00 hr 04 min 18 sec)
Heartbeat CPU 0 instructions: 52500330 cycles: 17034881 heartbeat IPC: 1.208 cumulative IPC: 0.8243 (Simulation time: 00 hr 04 min 21 sec)
Heartbeat CPU 0 instructions: 53000331 cycles: 17357078 heartbeat IPC: 1.552 cumulative IPC: 0.8942 (Simulation time: 00 hr 04 min 24 sec)
Heartbeat CPU 0 instructions: 53500331 cycles: 17836135 heartbeat IPC: 1.044 cumulative IPC: 0.9129 (Simulation time: 00 hr 04 min 28 sec)
Heartbeat CPU 0 instructions: 54000338 cycles: 18501462 heartbeat IPC: 0.7515 cumulative IPC: 0.889 (Simulation time: 00 hr 04 min 33 sec)
Heartbeat CPU 0 instructions: 54500345 cycles: 18874433 heartbeat IPC: 1.341 cumulative IPC: 0.9236 (Simulation time: 00 hr 04 min 37 sec)
Heartbeat CPU 0 instructions: 55000346 cycles: 19355346 heartbeat IPC: 1.04 cumulative IPC: 0.934 (Simulation time: 00 hr 04 min 41 sec)
Heartbeat CPU 0 instructions: 55500346 cycles: 19686116 heartbeat IPC: 1.512 cumulative IPC: 0.9676 (Simulation time: 00 hr 04 min 45 sec)
Heartbeat CPU 0 instructions: 56000346 cycles: 20268809 heartbeat IPC: 0.8581 cumulative IPC: 0.9574 (Simulation time: 00 hr 04 min 50 sec)
Heartbeat CPU 0 instructions: 56500351 cycles: 21722133 heartbeat IPC: 0.344 cumulative IPC: 0.842 (Simulation time: 00 hr 05 min 01 sec)
Heartbeat CPU 0 instructions: 57000352 cycles: 22690904 heartbeat IPC: 0.5161 cumulative IPC: 0.8056 (Simulation time: 00 hr 05 min 08 sec)
Heartbeat CPU 0 instructions: 57500353 cycles: 23934955 heartbeat IPC: 0.4019 cumulative IPC: 0.7551 (Simulation time: 00 hr 05 min 17 sec)
Heartbeat CPU 0 instructions: 58000360 cycles: 24945898 heartbeat IPC: 0.4946 cumulative IPC: 0.731 (Simulation time: 00 hr 05 min 24 sec)
Heartbeat CPU 0 instructions: 58500361 cycles: 25654554 heartbeat IPC: 0.7056 cumulative IPC: 0.7295 (Simulation time: 00 hr 05 min 29 sec)
Heartbeat CPU 0 instructions: 59000361 cycles: 26324096 heartbeat IPC: 0.7468 cumulative IPC: 0.7304 (Simulation time: 00 hr 05 min 34 sec)
Heartbeat CPU 0 instructions: 59500363 cycles: 27137230 heartbeat IPC: 0.6149 cumulative IPC: 0.7233 (Simulation time: 00 hr 05 min 40 sec)
Heartbeat CPU 0 instructions: 60000363 cycles: 27603174 heartbeat IPC: 1.073 cumulative IPC: 0.7352 (Simulation time: 00 hr 05 min 45 sec)
Heartbeat CPU 0 instructions: 60500364 cycles: 27954786 heartbeat IPC: 1.422 cumulative IPC: 0.7525 (Simulation time: 00 hr 05 min 48 sec)
Heartbeat CPU 0 instructions: 61000370 cycles: 28246756 heartbeat IPC: 1.713 cumulative IPC: 0.7722 (Simulation time: 00 hr 05 min 51 sec)
Heartbeat CPU 0 instructions: 61500373 cycles: 28658568 heartbeat IPC: 1.214 cumulative IPC: 0.7846 (Simulation time: 00 hr 05 min 55 sec)
Heartbeat CPU 0 instructions: 62000375 cycles: 29000853 heartbeat IPC: 1.461 cumulative IPC: 0.8001 (Simulation time: 00 hr 05 min 58 sec)
Heartbeat CPU 0 instructions: 62500382 cycles: 29243006 heartbeat IPC: 2.065 cumulative IPC: 0.8202 (Simulation time: 00 hr 06 min 00 sec)
Heartbeat CPU 0 instructions: 63000389 cycles: 29645356 heartbeat IPC: 1.243 cumulative IPC: 0.831 (Simulation time: 00 hr 06 min 04 sec)
Heartbeat CPU 0 instructions: 63500390 cycles: 30236479 heartbeat IPC: 0.8458 cumulative IPC: 0.8316 (Simulation time: 00 hr 06 min 10 sec)
Heartbeat CPU 0 instructions: 64000390 cycles: 30444902 heartbeat IPC: 2.399 cumulative IPC: 0.8514 (Simulation time: 00 hr 06 min 13 sec)
Heartbeat CPU 0 instructions: 64500390 cycles: 31385154 heartbeat IPC: 0.5318 cumulative IPC: 0.8341 (Simulation time: 00 hr 06 min 19 sec)
Heartbeat CPU 0 instructions: 65000395 cycles: 32243454 heartbeat IPC: 0.5826 cumulative IPC: 0.8223 (Simulation time: 00 hr 06 min 26 sec)
Heartbeat CPU 0 instructions: 65500395 cycles: 32995587 heartbeat IPC: 0.6648 cumulative IPC: 0.8161 (Simulation time: 00 hr 06 min 31 sec)
Heartbeat CPU 0 instructions: 66000401 cycles: 33939983 heartbeat IPC: 0.5294 cumulative IPC: 0.8025 (Simulation time: 00 hr 06 min 38 sec)
Heartbeat CPU 0 instructions: 66500406 cycles: 34639346 heartbeat IPC: 0.7149 cumulative IPC: 0.7995 (Simulation time: 00 hr 06 min 44 sec)
Heartbeat CPU 0 instructions: 67000408 cycles: 35605738 heartbeat IPC: 0.5174 cumulative IPC: 0.7869 (Simulation time: 00 hr 06 min 51 sec)
Heartbeat CPU 0 instructions: 67500410 cycles: 36338483 heartbeat IPC: 0.6824 cumulative IPC: 0.7835 (Simulation time: 00 hr 06 min 57 sec)
Heartbeat CPU 0 instructions: 68000414 cycles: 37476309 heartbeat IPC: 0.4394 cumulative IPC: 0.7668 (Simulation time: 00 hr 07 min 05 sec)
Heartbeat CPU 0 instructions: 68500420 cycles: 38358134 heartbeat IPC: 0.567 cumulative IPC: 0.7596 (Simulation time: 00 hr 07 min 12 sec)
Heartbeat CPU 0 instructions: 69000427 cycles: 38768798 heartbeat IPC: 1.218 cumulative IPC: 0.7672 (Simulation time: 00 hr 07 min 15 sec)
Heartbeat CPU 0 instructions: 69500427 cycles: 39025251 heartbeat IPC: 1.95 cumulative IPC: 0.7793 (Simulation time: 00 hr 07 min 18 sec)
Heartbeat CPU 0 instructions: 70000429 cycles: 39843486 heartbeat IPC: 0.6111 cumulative IPC: 0.774 (Simulation time: 00 hr 07 min 24 sec)
Heartbeat CPU 0 instructions: 70500432 cycles: 40812434 heartbeat IPC: 0.516 cumulative IPC: 0.7646 (Simulation time: 00 hr 07 min 31 sec)
Heartbeat CPU 0 instructions: 71000432 cycles: 41765267 heartbeat IPC: 0.5248 cumulative IPC: 0.7564 (Simulation time: 00 hr 07 min 38 sec)
Heartbeat CPU 0 instructions: 71500433 cycles: 42581536 heartbeat IPC: 0.6125 cumulative IPC: 0.7523 (Simulation time: 00 hr 07 min 44 sec)
Heartbeat CPU 0 instructions: 72000433 cycles: 43070094 heartbeat IPC: 1.023 cumulative IPC: 0.7568 (Simulation time: 00 hr 07 min 48 sec)
Heartbeat CPU 0 instructions: 72500439 cycles: 43270712 heartbeat IPC: 2.492 cumulative IPC: 0.7687 (Simulation time: 00 hr 07 min 51 sec)
Heartbeat CPU 0 instructions: 73000441 cycles: 43479174 heartbeat IPC: 2.399 cumulative IPC: 0.7803 (Simulation time: 00 hr 07 min 53 sec)
Heartbeat CPU 0 instructions: 73500445 cycles: 43686235 heartbeat IPC: 2.415 cumulative IPC: 0.7917 (Simulation time: 00 hr 07 min 56 sec)
Heartbeat CPU 0 instructions: 74000445 cycles: 44278458 heartbeat IPC: 0.8443 cumulative IPC: 0.7927 (Simulation time: 00 hr 08 min 00 sec)
Heartbeat CPU 0 instructions: 74500449 cycles: 45353161 heartbeat IPC: 0.4652 cumulative IPC: 0.7815 (Simulation time: 00 hr 08 min 08 sec)
Heartbeat CPU 0 instructions: 75000449 cycles: 45898879 heartbeat IPC: 0.9162 cumulative IPC: 0.7838 (Simulation time: 00 hr 08 min 13 sec)
Heartbeat CPU 0 instructions: 75500452 cycles: 47016047 heartbeat IPC: 0.4476 cumulative IPC: 0.7724 (Simulation time: 00 hr 08 min 21 sec)
Heartbeat CPU 0 instructions: 76000456 cycles: 47970637 heartbeat IPC: 0.5238 cumulative IPC: 0.7654 (Simulation time: 00 hr 08 min 27 sec)
Heartbeat CPU 0 instructions: 76500457 cycles: 48323408 heartbeat IPC: 1.417 cumulative IPC: 0.7721 (Simulation time: 00 hr 08 min 31 sec)
Heartbeat CPU 0 instructions: 77000457 cycles: 48701724 heartbeat IPC: 1.322 cumulative IPC: 0.7781 (Simulation time: 00 hr 08 min 34 sec)
Heartbeat CPU 0 instructions: 77500457 cycles: 49343522 heartbeat IPC: 0.7791 cumulative IPC: 0.7781 (Simulation time: 00 hr 08 min 39 sec)
Heartbeat CPU 0 instructions: 78000458 cycles: 50107509 heartbeat IPC: 0.6545 cumulative IPC: 0.7755 (Simulation time: 00 hr 08 min 45 sec)
Heartbeat CPU 0 instructions: 78500459 cycles: 50446139 heartbeat IPC: 1.477 cumulative IPC: 0.782 (Simulation time: 00 hr 08 min 50 sec)
Heartbeat CPU 0 instructions: 79000461 cycles: 50798474 heartbeat IPC: 1.419 cumulative IPC: 0.7881 (Simulation time: 00 hr 08 min 54 sec)
Heartbeat CPU 0 instructions: 79500461 cycles: 51375456 heartbeat IPC: 0.8666 cumulative IPC: 0.7893 (Simulation time: 00 hr 09 min 00 sec)
Heartbeat CPU 0 instructions: 80000461 cycles: 52255284 heartbeat IPC: 0.5683 cumulative IPC: 0.7843 (Simulation time: 00 hr 09 min 06 sec)
Heartbeat CPU 0 instructions: 80500461 cycles: 53159919 heartbeat IPC: 0.5527 cumulative IPC: 0.7789 (Simulation time: 00 hr 09 min 13 sec)
Heartbeat CPU 0 instructions: 81000463 cycles: 54465495 heartbeat IPC: 0.383 cumulative IPC: 0.7661 (Simulation time: 00 hr 09 min 24 sec)
Heartbeat CPU 0 instructions: 81500464 cycles: 55418971 heartbeat IPC: 0.5244 cumulative IPC: 0.7606 (Simulation time: 00 hr 09 min 31 sec)
Heartbeat CPU 0 instructions: 82000464 cycles: 56144907 heartbeat IPC: 0.6888 cumulative IPC: 0.7593 (Simulation time: 00 hr 09 min 37 sec)
Heartbeat CPU 0 instructions: 82500464 cycles: 56706388 heartbeat IPC: 0.8905 cumulative IPC: 0.7611 (Simulation time: 00 hr 09 min 42 sec)
Heartbeat CPU 0 instructions: 83000465 cycles: 57306615 heartbeat IPC: 0.833 cumulative IPC: 0.762 (Simulation time: 00 hr 09 min 47 sec)
Heartbeat CPU 0 instructions: 83500465 cycles: 57641342 heartbeat IPC: 1.494 cumulative IPC: 0.7677 (Simulation time: 00 hr 09 min 50 sec)
Heartbeat CPU 0 instructions: 84000466 cycles: 58251167 heartbeat IPC: 0.8199 cumulative IPC: 0.7684 (Simulation time: 00 hr 09 min 54 sec)
Heartbeat CPU 0 instructions: 84500473 cycles: 58877329 heartbeat IPC: 0.7985 cumulative IPC: 0.7688 (Simulation time: 00 hr 09 min 59 sec)
Heartbeat CPU 0 instructions: 85000476 cycles: 59743546 heartbeat IPC: 0.5772 cumulative IPC: 0.7652 (Simulation time: 00 hr 10 min 06 sec)
Heartbeat CPU 0 instructions: 85500482 cycles: 60169341 heartbeat IPC: 1.174 cumulative IPC: 0.7689 (Simulation time: 00 hr 10 min 09 sec)
Heartbeat CPU 0 instructions: 86000482 cycles: 60978044 heartbeat IPC: 0.6183 cumulative IPC: 0.7664 (Simulation time: 00 hr 10 min 15 sec)
Heartbeat CPU 0 instructions: 86500486 cycles: 61260157 heartbeat IPC: 1.772 cumulative IPC: 0.7724 (Simulation time: 00 hr 10 min 18 sec)
Heartbeat CPU 0 instructions: 87000487 cycles: 62086530 heartbeat IPC: 0.6051 cumulative IPC: 0.7695 (Simulation time: 00 hr 10 min 24 sec)
Heartbeat CPU 0 instructions: 87500492 cycles: 62725176 heartbeat IPC: 0.7829 cumulative IPC: 0.7697 (Simulation time: 00 hr 10 min 29 sec)
Heartbeat CPU 0 instructions: 88000492 cycles: 63881981 heartbeat IPC: 0.4322 cumulative IPC: 0.7618 (Simulation time: 00 hr 10 min 38 sec)
Heartbeat CPU 0 instructions: 88500493 cycles: 64574485 heartbeat IPC: 0.722 cumulative IPC: 0.7613 (Simulation time: 00 hr 10 min 43 sec)
Heartbeat CPU 0 instructions: 89000493 cycles: 65164046 heartbeat IPC: 0.8481 cumulative IPC: 0.7623 (Simulation time: 00 hr 10 min 48 sec)
Heartbeat CPU 0 instructions: 89500493 cycles: 65793517 heartbeat IPC: 0.7943 cumulative IPC: 0.7627 (Simulation time: 00 hr 10 min 53 sec)
Heartbeat CPU 0 instructions: 90000494 cycles: 66571496 heartbeat IPC: 0.6427 cumulative IPC: 0.7609 (Simulation time: 00 hr 10 min 59 sec)
Heartbeat CPU 0 instructions: 90500500 cycles: 67111312 heartbeat IPC: 0.9263 cumulative IPC: 0.7626 (Simulation time: 00 hr 11 min 04 sec)
Heartbeat CPU 0 instructions: 91000501 cycles: 67962921 heartbeat IPC: 0.5871 cumulative IPC: 0.7598 (Simulation time: 00 hr 11 min 10 sec)
Heartbeat CPU 0 instructions: 91500507 cycles: 69061138 heartbeat IPC: 0.4553 cumulative IPC: 0.7537 (Simulation time: 00 hr 11 min 18 sec)
Heartbeat CPU 0 instructions: 92000511 cycles: 69941074 heartbeat IPC: 0.5682 cumulative IPC: 0.7508 (Simulation time: 00 hr 11 min 25 sec)
Heartbeat CPU 0 instructions: 92500515 cycles: 70808966 heartbeat IPC: 0.5761 cumulative IPC: 0.7482 (Simulation time: 00 hr 11 min 31 sec)
Heartbeat CPU 0 instructions: 93000515 cycles: 71621039 heartbeat IPC: 0.6157 cumulative IPC: 0.7463 (Simulation time: 00 hr 11 min 37 sec)
Heartbeat CPU 0 instructions: 93500520 cycles: 72529195 heartbeat IPC: 0.5506 cumulative IPC: 0.7432 (Simulation time: 00 hr 11 min 44 sec)
Heartbeat CPU 0 instructions: 94000520 cycles: 73583682 heartbeat IPC: 0.4742 cumulative IPC: 0.7385 (Simulation time: 00 hr 11 min 52 sec)
Heartbeat CPU 0 instructions: 94500526 cycles: 74312940 heartbeat IPC: 0.6856 cumulative IPC: 0.7378 (Simulation time: 00 hr 11 min 57 sec)
Heartbeat CPU 0 instructions: 95000531 cycles: 75290669 heartbeat IPC: 0.5114 cumulative IPC: 0.7342 (Simulation time: 00 hr 12 min 04 sec)
Heartbeat CPU 0 instructions: 95500531 cycles: 76382772 heartbeat IPC: 0.4578 cumulative IPC: 0.7294 (Simulation time: 00 hr 12 min 13 sec)
Heartbeat CPU 0 instructions: 96000538 cycles: 77333319 heartbeat IPC: 0.526 cumulative IPC: 0.7263 (Simulation time: 00 hr 12 min 19 sec)
Heartbeat CPU 0 instructions: 96500538 cycles: 78207156 heartbeat IPC: 0.5722 cumulative IPC: 0.7242 (Simulation time: 00 hr 12 min 26 sec)
Heartbeat CPU 0 instructions: 97000544 cycles: 78894525 heartbeat IPC: 0.7274 cumulative IPC: 0.7243 (Simulation time: 00 hr 12 min 31 sec)
Heartbeat CPU 0 instructions: 97500545 cycles: 79387288 heartbeat IPC: 1.015 cumulative IPC: 0.7265 (Simulation time: 00 hr 12 min 36 sec)
Heartbeat CPU 0 instructions: 98000545 cycles: 80091876 heartbeat IPC: 0.7096 cumulative IPC: 0.7263 (Simulation time: 00 hr 12 min 41 sec)
Heartbeat CPU 0 instructions: 98500551 cycles: 80868288 heartbeat IPC: 0.644 cumulative IPC: 0.7253 (Simulation time: 00 hr 12 min 47 sec)
Heartbeat CPU 0 instructions: 99000552 cycles: 81657515 heartbeat IPC: 0.6335 cumulative IPC: 0.7243 (Simulation time: 00 hr 12 min 53 sec)
Heartbeat CPU 0 instructions: 99500552 cycles: 82202749 heartbeat IPC: 0.917 cumulative IPC: 0.7258 (Simulation time: 00 hr 12 min 58 sec)
Heartbeat CPU 0 instructions: 100000557 cycles: 82966110 heartbeat IPC: 0.655 cumulative IPC: 0.725 (Simulation time: 00 hr 13 min 03 sec)
Heartbeat CPU 0 instructions: 100500557 cycles: 83981476 heartbeat IPC: 0.4924 cumulative IPC: 0.7216 (Simulation time: 00 hr 13 min 11 sec)
Heartbeat CPU 0 instructions: 101000559 cycles: 84944149 heartbeat IPC: 0.5194 cumulative IPC: 0.7189 (Simulation time: 00 hr 13 min 18 sec)
Heartbeat CPU 0 instructions: 101500559 cycles: 85783807 heartbeat IPC: 0.5955 cumulative IPC: 0.7175 (Simulation time: 00 hr 13 min 25 sec)
Heartbeat CPU 0 instructions: 102000565 cycles: 86477129 heartbeat IPC: 0.7212 cumulative IPC: 0.7175 (Simulation time: 00 hr 13 min 30 sec)
Heartbeat CPU 0 instructions: 102500572 cycles: 86955501 heartbeat IPC: 1.045 cumulative IPC: 0.7196 (Simulation time: 00 hr 13 min 35 sec)
Heartbeat CPU 0 instructions: 103000577 cycles: 87362909 heartbeat IPC: 1.227 cumulative IPC: 0.7225 (Simulation time: 00 hr 13 min 38 sec)
Heartbeat CPU 0 instructions: 103500581 cycles: 87871585 heartbeat IPC: 0.983 cumulative IPC: 0.7243 (Simulation time: 00 hr 13 min 43 sec)
Heartbeat CPU 0 instructions: 104000582 cycles: 88272570 heartbeat IPC: 1.247 cumulative IPC: 0.7271 (Simulation time: 00 hr 13 min 47 sec)
Heartbeat CPU 0 instructions: 104500588 cycles: 88755483 heartbeat IPC: 1.035 cumulative IPC: 0.7291 (Simulation time: 00 hr 13 min 51 sec)
Heartbeat CPU 0 instructions: 105000592 cycles: 89158965 heartbeat IPC: 1.239 cumulative IPC: 0.7318 (Simulation time: 00 hr 13 min 54 sec)
Heartbeat CPU 0 instructions: 105500594 cycles: 89867225 heartbeat IPC: 0.706 cumulative IPC: 0.7316 (Simulation time: 00 hr 14 min 00 sec)
Heartbeat CPU 0 instructions: 106000595 cycles: 90596089 heartbeat IPC: 0.686 cumulative IPC: 0.7311 (Simulation time: 00 hr 14 min 05 sec)
Heartbeat CPU 0 instructions: 106500601 cycles: 91341009 heartbeat IPC: 0.6712 cumulative IPC: 0.7306 (Simulation time: 00 hr 14 min 10 sec)
Heartbeat CPU 0 instructions: 107000602 cycles: 91759557 heartbeat IPC: 1.195 cumulative IPC: 0.7331 (Simulation time: 00 hr 14 min 14 sec)
Heartbeat CPU 0 instructions: 107500609 cycles: 92202574 heartbeat IPC: 1.129 cumulative IPC: 0.7353 (Simulation time: 00 hr 14 min 18 sec)
Heartbeat CPU 0 instructions: 108000610 cycles: 92918883 heartbeat IPC: 0.698 cumulative IPC: 0.735 (Simulation time: 00 hr 14 min 24 sec)
Heartbeat CPU 0 instructions: 108500610 cycles: 94187911 heartbeat IPC: 0.394 cumulative IPC: 0.7296 (Simulation time: 00 hr 14 min 34 sec)
Heartbeat CPU 0 instructions: 109000610 cycles: 95129933 heartbeat IPC: 0.5308 cumulative IPC: 0.7273 (Simulation time: 00 hr 14 min 42 sec)
Heartbeat CPU 0 instructions: 109500617 cycles: 95830500 heartbeat IPC: 0.7137 cumulative IPC: 0.7271 (Simulation time: 00 hr 14 min 47 sec)
Heartbeat CPU 0 instructions: 110000619 cycles: 96198334 heartbeat IPC: 1.359 cumulative IPC: 0.73 (Simulation time: 00 hr 14 min 50 sec)
Heartbeat CPU 0 instructions: 110500623 cycles: 96570467 heartbeat IPC: 1.344 cumulative IPC: 0.7327 (Simulation time: 00 hr 14 min 54 sec)
Heartbeat CPU 0 instructions: 111000627 cycles: 97137567 heartbeat IPC: 0.8817 cumulative IPC: 0.7337 (Simulation time: 00 hr 14 min 58 sec)
Heartbeat CPU 0 instructions: 111500628 cycles: 97569279 heartbeat IPC: 1.158 cumulative IPC: 0.7359 (Simulation time: 00 hr 15 min 02 sec)
Heartbeat CPU 0 instructions: 112000631 cycles: 97934631 heartbeat IPC: 1.369 cumulative IPC: 0.7387 (Simulation time: 00 hr 15 min 05 sec)
Heartbeat CPU 0 instructions: 112500632 cycles: 98934525 heartbeat IPC: 0.5001 cumulative IPC: 0.7359 (Simulation time: 00 hr 15 min 12 sec)
Heartbeat CPU 0 instructions: 113000632 cycles: 99650735 heartbeat IPC: 0.6981 cumulative IPC: 0.7356 (Simulation time: 00 hr 15 min 18 sec)
Heartbeat CPU 0 instructions: 113500633 cycles: 100323480 heartbeat IPC: 0.7432 cumulative IPC: 0.7356 (Simulation time: 00 hr 15 min 23 sec)
Heartbeat CPU 0 instructions: 114000633 cycles: 100867960 heartbeat IPC: 0.9183 cumulative IPC: 0.7368 (Simulation time: 00 hr 15 min 28 sec)
Heartbeat CPU 0 instructions: 114500634 cycles: 101313752 heartbeat IPC: 1.122 cumulative IPC: 0.7387 (Simulation time: 00 hr 15 min 32 sec)
Heartbeat CPU 0 instructions: 115000635 cycles: 101873153 heartbeat IPC: 0.8938 cumulative IPC: 0.7397 (Simulation time: 00 hr 15 min 37 sec)
Heartbeat CPU 0 instructions: 115500642 cycles: 102301882 heartbeat IPC: 1.166 cumulative IPC: 0.7418 (Simulation time: 00 hr 15 min 41 sec)
Heartbeat CPU 0 instructions: 116000648 cycles: 102550012 heartbeat IPC: 2.015 cumulative IPC: 0.7454 (Simulation time: 00 hr 15 min 43 sec)
Heartbeat CPU 0 instructions: 116500648 cycles: 102774231 heartbeat IPC: 2.23 cumulative IPC: 0.7491 (Simulation time: 00 hr 15 min 46 sec)
Heartbeat CPU 0 instructions: 117000651 cycles: 103282103 heartbeat IPC: 0.9845 cumulative IPC: 0.7505 (Simulation time: 00 hr 15 min 51 sec)
Heartbeat CPU 0 instructions: 117500652 cycles: 103930216 heartbeat IPC: 0.7715 cumulative IPC: 0.7506 (Simulation time: 00 hr 15 min 56 sec)
Heartbeat CPU 0 instructions: 118000656 cycles: 104281798 heartbeat IPC: 1.422 cumulative IPC: 0.7532 (Simulation time: 00 hr 15 min 59 sec)
Heartbeat CPU 0 instructions: 118500659 cycles: 104651819 heartbeat IPC: 1.351 cumulative IPC: 0.7557 (Simulation time: 00 hr 16 min 03 sec)
Heartbeat CPU 0 instructions: 119000660 cycles: 105382930 heartbeat IPC: 0.6839 cumulative IPC: 0.7551 (Simulation time: 00 hr 16 min 09 sec)
Heartbeat CPU 0 instructions: 119500664 cycles: 106146775 heartbeat IPC: 0.6546 cumulative IPC: 0.7543 (Simulation time: 00 hr 16 min 15 sec)
Heartbeat CPU 0 instructions: 120000664 cycles: 106700604 heartbeat IPC: 0.9028 cumulative IPC: 0.7551 (Simulation time: 00 hr 16 min 20 sec)
Heartbeat CPU 0 instructions: 120500670 cycles: 106968466 heartbeat IPC: 1.867 cumulative IPC: 0.7583 (Simulation time: 00 hr 16 min 23 sec)
Heartbeat CPU 0 instructions: 121000670 cycles: 107707434 heartbeat IPC: 0.6766 cumulative IPC: 0.7577 (Simulation time: 00 hr 16 min 28 sec)
Heartbeat CPU 0 instructions: 121500676 cycles: 108227985 heartbeat IPC: 0.9605 cumulative IPC: 0.7588 (Simulation time: 00 hr 16 min 33 sec)
Heartbeat CPU 0 instructions: 122000676 cycles: 109059955 heartbeat IPC: 0.601 cumulative IPC: 0.7574 (Simulation time: 00 hr 16 min 39 sec)
Heartbeat CPU 0 instructions: 122500678 cycles: 109673977 heartbeat IPC: 0.8143 cumulative IPC: 0.7578 (Simulation time: 00 hr 16 min 44 sec)
Heartbeat CPU 0 instructions: 123000678 cycles: 110445148 heartbeat IPC: 0.6484 cumulative IPC: 0.7569 (Simulation time: 00 hr 16 min 50 sec)
Heartbeat CPU 0 instructions: 123500685 cycles: 111404768 heartbeat IPC: 0.521 cumulative IPC: 0.7546 (Simulation time: 00 hr 16 min 56 sec)
Heartbeat CPU 0 instructions: 124000685 cycles: 112442154 heartbeat IPC: 0.482 cumulative IPC: 0.7517 (Simulation time: 00 hr 17 min 04 sec)
Heartbeat CPU 0 instructions: 124500685 cycles: 113012490 heartbeat IPC: 0.8767 cumulative IPC: 0.7524 (Simulation time: 00 hr 17 min 08 sec)
Heartbeat CPU 0 instructions: 125000686 cycles: 113274359 heartbeat IPC: 1.909 cumulative IPC: 0.7555 (Simulation time: 00 hr 17 min 11 sec)
Heartbeat CPU 0 instructions: 125500686 cycles: 113584562 heartbeat IPC: 1.612 cumulative IPC: 0.7582 (Simulation time: 00 hr 17 min 14 sec)
Heartbeat CPU 0 instructions: 126000686 cycles: 114085688 heartbeat IPC: 0.9978 cumulative IPC: 0.7594 (Simulation time: 00 hr 17 min 18 sec)
Heartbeat CPU 0 instructions: 126500690 cycles: 114563687 heartbeat IPC: 1.046 cumulative IPC: 0.7607 (Simulation time: 00 hr 17 min 22 sec)
Heartbeat CPU 0 instructions: 127000692 cycles: 114848149 heartbeat IPC: 1.758 cumulative IPC: 0.7635 (Simulation time: 00 hr 17 min 25 sec)
Heartbeat CPU 0 instructions: 127500699 cycles: 115718844 heartbeat IPC: 0.5743 cumulative IPC: 0.7619 (Simulation time: 00 hr 17 min 31 sec)
Heartbeat CPU 0 instructions: 128000705 cycles: 116608219 heartbeat IPC: 0.5622 cumulative IPC: 0.7602 (Simulation time: 00 hr 17 min 38 sec)
Heartbeat CPU 0 instructions: 128500707 cycles: 117310584 heartbeat IPC: 0.7119 cumulative IPC: 0.7599 (Simulation time: 00 hr 17 min 43 sec)
Heartbeat CPU 0 instructions: 129000708 cycles: 118154527 heartbeat IPC: 0.5925 cumulative IPC: 0.7585 (Simulation time: 00 hr 17 min 49 sec)
Heartbeat CPU 0 instructions: 129500708 cycles: 119099957 heartbeat IPC: 0.5289 cumulative IPC: 0.7564 (Simulation time: 00 hr 17 min 56 sec)
Heartbeat CPU 0 instructions: 130000708 cycles: 119911913 heartbeat IPC: 0.6158 cumulative IPC: 0.7554 (Simulation time: 00 hr 18 min 02 sec)
Heartbeat CPU 0 instructions: 130500712 cycles: 120458431 heartbeat IPC: 0.9149 cumulative IPC: 0.7562 (Simulation time: 00 hr 18 min 07 sec)
Heartbeat CPU 0 instructions: 131000717 cycles: 121251421 heartbeat IPC: 0.6305 cumulative IPC: 0.7553 (Simulation time: 00 hr 18 min 13 sec)
Heartbeat CPU 0 instructions: 131500720 cycles: 122226179 heartbeat IPC: 0.513 cumulative IPC: 0.7531 (Simulation time: 00 hr 18 min 20 sec)
Heartbeat CPU 0 instructions: 132000727 cycles: 123268255 heartbeat IPC: 0.4798 cumulative IPC: 0.7505 (Simulation time: 00 hr 18 min 28 sec)
Heartbeat CPU 0 instructions: 132500727 cycles: 123990462 heartbeat IPC: 0.6923 cumulative IPC: 0.7501 (Simulation time: 00 hr 18 min 33 sec)
Heartbeat CPU 0 instructions: 133000728 cycles: 124687820 heartbeat IPC: 0.717 cumulative IPC: 0.7499 (Simulation time: 00 hr 18 min 38 sec)
Heartbeat CPU 0 instructions: 133500729 cycles: 125868395 heartbeat IPC: 0.4235 cumulative IPC: 0.7464 (Simulation time: 00 hr 18 min 46 sec)
Heartbeat CPU 0 instructions: 134000732 cycles: 126412904 heartbeat IPC: 0.9183 cumulative IPC: 0.7473 (Simulation time: 00 hr 18 min 51 sec)
Heartbeat CPU 0 instructions: 134500732 cycles: 126911602 heartbeat IPC: 1.003 cumulative IPC: 0.7484 (Simulation time: 00 hr 18 min 55 sec)
Heartbeat CPU 0 instructions: 135000736 cycles: 127526361 heartbeat IPC: 0.8133 cumulative IPC: 0.7487 (Simulation time: 00 hr 19 min 00 sec)
Heartbeat CPU 0 instructions: 135500736 cycles: 128385609 heartbeat IPC: 0.5819 cumulative IPC: 0.7475 (Simulation time: 00 hr 19 min 06 sec)
Heartbeat CPU 0 instructions: 136000738 cycles: 129314903 heartbeat IPC: 0.538 cumulative IPC: 0.7458 (Simulation time: 00 hr 19 min 13 sec)
Heartbeat CPU 0 instructions: 136500744 cycles: 130189765 heartbeat IPC: 0.5715 cumulative IPC: 0.7445 (Simulation time: 00 hr 19 min 21 sec)
Heartbeat CPU 0 instructions: 137000749 cycles: 131017434 heartbeat IPC: 0.6041 cumulative IPC: 0.7435 (Simulation time: 00 hr 19 min 29 sec)
Heartbeat CPU 0 instructions: 137500751 cycles: 131838992 heartbeat IPC: 0.6086 cumulative IPC: 0.7426 (Simulation time: 00 hr 19 min 36 sec)
Heartbeat CPU 0 instructions: 138000753 cycles: 132505896 heartbeat IPC: 0.7497 cumulative IPC: 0.7426 (Simulation time: 00 hr 19 min 42 sec)
Heartbeat CPU 0 instructions: 138500753 cycles: 132845096 heartbeat IPC: 1.474 cumulative IPC: 0.7447 (Simulation time: 00 hr 19 min 45 sec)
Heartbeat CPU 0 instructions: 139000755 cycles: 133149952 heartbeat IPC: 1.64 cumulative IPC: 0.747 (Simulation time: 00 hr 19 min 48 sec)
Heartbeat CPU 0 instructions: 139500758 cycles: 133503878 heartbeat IPC: 1.413 cumulative IPC: 0.7489 (Simulation time: 00 hr 19 min 52 sec)
Heartbeat CPU 0 instructions: 140000763 cycles: 134229816 heartbeat IPC: 0.6888 cumulative IPC: 0.7486 (Simulation time: 00 hr 19 min 59 sec)
Heartbeat CPU 0 instructions: 140500769 cycles: 134828390 heartbeat IPC: 0.8353 cumulative IPC: 0.749 (Simulation time: 00 hr 20 min 04 sec)
Heartbeat CPU 0 instructions: 141000769 cycles: 135763688 heartbeat IPC: 0.5346 cumulative IPC: 0.7474 (Simulation time: 00 hr 20 min 12 sec)
Heartbeat CPU 0 instructions: 141500776 cycles: 136926201 heartbeat IPC: 0.4301 cumulative IPC: 0.7444 (Simulation time: 00 hr 20 min 22 sec)
Heartbeat CPU 0 instructions: 142000777 cycles: 138052377 heartbeat IPC: 0.444 cumulative IPC: 0.7416 (Simulation time: 00 hr 20 min 33 sec)
Heartbeat CPU 0 instructions: 142500777 cycles: 138368659 heartbeat IPC: 1.581 cumulative IPC: 0.7438 (Simulation time: 00 hr 20 min 36 sec)
Heartbeat CPU 0 instructions: 143000777 cycles: 139480390 heartbeat IPC: 0.4497 cumulative IPC: 0.7412 (Simulation time: 00 hr 20 min 44 sec)
Heartbeat CPU 0 instructions: 143500777 cycles: 140458644 heartbeat IPC: 0.5111 cumulative IPC: 0.7394 (Simulation time: 00 hr 20 min 51 sec)
Heartbeat CPU 0 instructions: 144000784 cycles: 141150004 heartbeat IPC: 0.7232 cumulative IPC: 0.7393 (Simulation time: 00 hr 20 min 56 sec)
Heartbeat CPU 0 instructions: 144500784 cycles: 141803509 heartbeat IPC: 0.7651 cumulative IPC: 0.7394 (Simulation time: 00 hr 21 min 01 sec)
Heartbeat CPU 0 instructions: 145000785 cycles: 142028456 heartbeat IPC: 2.223 cumulative IPC: 0.742 (Simulation time: 00 hr 21 min 03 sec)
Heartbeat CPU 0 instructions: 145500792 cycles: 142410104 heartbeat IPC: 1.31 cumulative IPC: 0.7437 (Simulation time: 00 hr 21 min 07 sec)
Heartbeat CPU 0 instructions: 146000795 cycles: 142760297 heartbeat IPC: 1.428 cumulative IPC: 0.7456 (Simulation time: 00 hr 21 min 10 sec)
Heartbeat CPU 0 instructions: 146500801 cycles: 143971812 heartbeat IPC: 0.4127 cumulative IPC: 0.7425 (Simulation time: 00 hr 21 min 18 sec)
Heartbeat CPU 0 instructions: 147000802 cycles: 144709499 heartbeat IPC: 0.6778 cumulative IPC: 0.7421 (Simulation time: 00 hr 21 min 24 sec)
Heartbeat CPU 0 instructions: 147500802 cycles: 145552010 heartbeat IPC: 0.5935 cumulative IPC: 0.7412 (Simulation time: 00 hr 21 min 30 sec)
Heartbeat CPU 0 instructions: 148000802 cycles: 146535401 heartbeat IPC: 0.5084 cumulative IPC: 0.7394 (Simulation time: 00 hr 21 min 36 sec)
Heartbeat CPU 0 instructions: 148500802 cycles: 147534659 heartbeat IPC: 0.5004 cumulative IPC: 0.7377 (Simulation time: 00 hr 21 min 43 sec)
Heartbeat CPU 0 instructions: 149000807 cycles: 148286275 heartbeat IPC: 0.6652 cumulative IPC: 0.7372 (Simulation time: 00 hr 21 min 49 sec)
Heartbeat CPU 0 instructions: 149500812 cycles: 149239247 heartbeat IPC: 0.5247 cumulative IPC: 0.7357 (Simulation time: 00 hr 21 min 56 sec)
Heartbeat CPU 0 instructions: 150000812 cycles: 149758281 heartbeat IPC: 0.9633 cumulative IPC: 0.7366 (Simulation time: 00 hr 22 min 01 sec)
Heartbeat CPU 0 instructions: 150500815 cycles: 150780574 heartbeat IPC: 0.4891 cumulative IPC: 0.7348 (Simulation time: 00 hr 22 min 08 sec)
Heartbeat CPU 0 instructions: 151000815 cycles: 151637573 heartbeat IPC: 0.5834 cumulative IPC: 0.7338 (Simulation time: 00 hr 22 min 14 sec)
Heartbeat CPU 0 instructions: 151500815 cycles: 152707566 heartbeat IPC: 0.4673 cumulative IPC: 0.7318 (Simulation time: 00 hr 22 min 21 sec)
Heartbeat CPU 0 instructions: 152000816 cycles: 153324318 heartbeat IPC: 0.8107 cumulative IPC: 0.7321 (Simulation time: 00 hr 22 min 26 sec)
Heartbeat CPU 0 instructions: 152500816 cycles: 154260809 heartbeat IPC: 0.5339 cumulative IPC: 0.7308 (Simulation time: 00 hr 22 min 32 sec)
Heartbeat CPU 0 instructions: 153000816 cycles: 155181581 heartbeat IPC: 0.543 cumulative IPC: 0.7296 (Simulation time: 00 hr 22 min 39 sec)
Heartbeat CPU 0 instructions: 153500816 cycles: 156064788 heartbeat IPC: 0.5661 cumulative IPC: 0.7286 (Simulation time: 00 hr 22 min 45 sec)
Heartbeat CPU 0 instructions: 154000821 cycles: 156708823 heartbeat IPC: 0.7764 cumulative IPC: 0.7288 (Simulation time: 00 hr 22 min 50 sec)
Heartbeat CPU 0 instructions: 154500821 cycles: 157579669 heartbeat IPC: 0.5742 cumulative IPC: 0.7278 (Simulation time: 00 hr 22 min 56 sec)
Heartbeat CPU 0 instructions: 155000821 cycles: 158557772 heartbeat IPC: 0.5112 cumulative IPC: 0.7264 (Simulation time: 00 hr 23 min 03 sec)
Heartbeat CPU 0 instructions: 155500825 cycles: 159421835 heartbeat IPC: 0.5787 cumulative IPC: 0.7255 (Simulation time: 00 hr 23 min 09 sec)
Heartbeat CPU 0 instructions: 156000830 cycles: 160255635 heartbeat IPC: 0.5997 cumulative IPC: 0.7248 (Simulation time: 00 hr 23 min 15 sec)
Heartbeat CPU 0 instructions: 156500835 cycles: 160986712 heartbeat IPC: 0.6839 cumulative IPC: 0.7246 (Simulation time: 00 hr 23 min 20 sec)
Heartbeat CPU 0 instructions: 157000836 cycles: 161197013 heartbeat IPC: 2.378 cumulative IPC: 0.7269 (Simulation time: 00 hr 23 min 22 sec)
Heartbeat CPU 0 instructions: 157500840 cycles: 161508937 heartbeat IPC: 1.603 cumulative IPC: 0.7288 (Simulation time: 00 hr 23 min 25 sec)
Heartbeat CPU 0 instructions: 158000840 cycles: 162734757 heartbeat IPC: 0.4079 cumulative IPC: 0.7261 (Simulation time: 00 hr 23 min 35 sec)
Heartbeat CPU 0 instructions: 158500842 cycles: 163444509 heartbeat IPC: 0.7045 cumulative IPC: 0.726 (Simulation time: 00 hr 23 min 41 sec)
Heartbeat CPU 0 instructions: 159000845 cycles: 164499697 heartbeat IPC: 0.4739 cumulative IPC: 0.7243 (Simulation time: 00 hr 23 min 48 sec)
Heartbeat CPU 0 instructions: 159500852 cycles: 165488252 heartbeat IPC: 0.5058 cumulative IPC: 0.7228 (Simulation time: 00 hr 23 min 55 sec)
Heartbeat CPU 0 instructions: 160000852 cycles: 166245042 heartbeat IPC: 0.6607 cumulative IPC: 0.7225 (Simulation time: 00 hr 24 min 00 sec)
Heartbeat CPU 0 instructions: 160500855 cycles: 167383876 heartbeat IPC: 0.439 cumulative IPC: 0.7204 (Simulation time: 00 hr 24 min 08 sec)
Heartbeat CPU 0 instructions: 161000855 cycles: 168409926 heartbeat IPC: 0.4873 cumulative IPC: 0.7189 (Simulation time: 00 hr 24 min 15 sec)
Heartbeat CPU 0 instructions: 161500861 cycles: 169853747 heartbeat IPC: 0.3463 cumulative IPC: 0.7154 (Simulation time: 00 hr 24 min 26 sec)
Heartbeat CPU 0 instructions: 162000861 cycles: 170933489 heartbeat IPC: 0.4631 cumulative IPC: 0.7137 (Simulation time: 00 hr 24 min 33 sec)
Heartbeat CPU 0 instructions: 162500862 cycles: 171913267 heartbeat IPC: 0.5103 cumulative IPC: 0.7124 (Simulation time: 00 hr 24 min 40 sec)
Heartbeat CPU 0 instructions: 163000864 cycles: 172576861 heartbeat IPC: 0.7535 cumulative IPC: 0.7126 (Simulation time: 00 hr 24 min 44 sec)
Heartbeat CPU 0 instructions: 163500865 cycles: 173395936 heartbeat IPC: 0.6104 cumulative IPC: 0.7121 (Simulation time: 00 hr 24 min 50 sec)
Heartbeat CPU 0 instructions: 164000865 cycles: 174180601 heartbeat IPC: 0.6372 cumulative IPC: 0.7117 (Simulation time: 00 hr 24 min 55 sec)
Heartbeat CPU 0 instructions: 164500865 cycles: 175018708 heartbeat IPC: 0.5966 cumulative IPC: 0.7111 (Simulation time: 00 hr 25 min 01 sec)
Heartbeat CPU 0 instructions: 165000867 cycles: 175838554 heartbeat IPC: 0.6099 cumulative IPC: 0.7106 (Simulation time: 00 hr 25 min 07 sec)
Heartbeat CPU 0 instructions: 165500872 cycles: 176571798 heartbeat IPC: 0.6819 cumulative IPC: 0.7105 (Simulation time: 00 hr 25 min 12 sec)
Heartbeat CPU 0 instructions: 166000872 cycles: 176820900 heartbeat IPC: 2.007 cumulative IPC: 0.7125 (Simulation time: 00 hr 25 min 14 sec)
Heartbeat CPU 0 instructions: 166500872 cycles: 177857879 heartbeat IPC: 0.4822 cumulative IPC: 0.711 (Simulation time: 00 hr 25 min 21 sec)
Heartbeat CPU 0 instructions: 167000872 cycles: 178493984 heartbeat IPC: 0.786 cumulative IPC: 0.7113 (Simulation time: 00 hr 25 min 26 sec)
Heartbeat CPU 0 instructions: 167500875 cycles: 179163582 heartbeat IPC: 0.7467 cumulative IPC: 0.7114 (Simulation time: 00 hr 25 min 31 sec)
Heartbeat CPU 0 instructions: 168000876 cycles: 179908472 heartbeat IPC: 0.6712 cumulative IPC: 0.7112 (Simulation time: 00 hr 25 min 36 sec)
Heartbeat CPU 0 instructions: 168500877 cycles: 181072611 heartbeat IPC: 0.4295 cumulative IPC: 0.7093 (Simulation time: 00 hr 25 min 44 sec)
Heartbeat CPU 0 instructions: 169000882 cycles: 181753896 heartbeat IPC: 0.7339 cumulative IPC: 0.7094 (Simulation time: 00 hr 25 min 49 sec)
Heartbeat CPU 0 instructions: 169500883 cycles: 182806936 heartbeat IPC: 0.4748 cumulative IPC: 0.7079 (Simulation time: 00 hr 25 min 55 sec)
Heartbeat CPU 0 instructions: 170000885 cycles: 183588151 heartbeat IPC: 0.64 cumulative IPC: 0.7076 (Simulation time: 00 hr 26 min 01 sec)
Heartbeat CPU 0 instructions: 170500886 cycles: 184461239 heartbeat IPC: 0.5727 cumulative IPC: 0.7069 (Simulation time: 00 hr 26 min 07 sec)
Heartbeat CPU 0 instructions: 171000892 cycles: 185345780 heartbeat IPC: 0.5653 cumulative IPC: 0.7062 (Simulation time: 00 hr 26 min 13 sec)
Heartbeat CPU 0 instructions: 171500897 cycles: 186214760 heartbeat IPC: 0.5754 cumulative IPC: 0.7055 (Simulation time: 00 hr 26 min 19 sec)
Heartbeat CPU 0 instructions: 172000898 cycles: 187225241 heartbeat IPC: 0.4948 cumulative IPC: 0.7043 (Simulation time: 00 hr 26 min 25 sec)
Heartbeat CPU 0 instructions: 172500898 cycles: 187981255 heartbeat IPC: 0.6614 cumulative IPC: 0.7041 (Simulation time: 00 hr 26 min 31 sec)
Heartbeat CPU 0 instructions: 173000900 cycles: 188338660 heartbeat IPC: 1.399 cumulative IPC: 0.7055 (Simulation time: 00 hr 26 min 34 sec)
Heartbeat CPU 0 instructions: 173500905 cycles: 188710770 heartbeat IPC: 1.344 cumulative IPC: 0.7069 (Simulation time: 00 hr 26 min 37 sec)
Heartbeat CPU 0 instructions: 174000905 cycles: 189635348 heartbeat IPC: 0.5408 cumulative IPC: 0.706 (Simulation time: 00 hr 26 min 43 sec)
Heartbeat CPU 0 instructions: 174500907 cycles: 190501335 heartbeat IPC: 0.5774 cumulative IPC: 0.7054 (Simulation time: 00 hr 26 min 49 sec)
Heartbeat CPU 0 instructions: 175000914 cycles: 191206194 heartbeat IPC: 0.7094 cumulative IPC: 0.7054 (Simulation time: 00 hr 26 min 54 sec)
Heartbeat CPU 0 instructions: 175500917 cycles: 191862892 heartbeat IPC: 0.7614 cumulative IPC: 0.7056 (Simulation time: 00 hr 26 min 58 sec)
Heartbeat CPU 0 instructions: 176000924 cycles: 192248450 heartbeat IPC: 1.297 cumulative IPC: 0.7069 (Simulation time: 00 hr 27 min 01 sec)
Heartbeat CPU 0 instructions: 176500925 cycles: 193174799 heartbeat IPC: 0.5398 cumulative IPC: 0.706 (Simulation time: 00 hr 27 min 07 sec)
Heartbeat CPU 0 instructions: 177000925 cycles: 194024149 heartbeat IPC: 0.5887 cumulative IPC: 0.7055 (Simulation time: 00 hr 27 min 13 sec)
Heartbeat CPU 0 instructions: 177500930 cycles: 194864768 heartbeat IPC: 0.5948 cumulative IPC: 0.705 (Simulation time: 00 hr 27 min 18 sec)
Heartbeat CPU 0 instructions: 178000930 cycles: 195436511 heartbeat IPC: 0.8745 cumulative IPC: 0.7055 (Simulation time: 00 hr 27 min 22 sec)
Heartbeat CPU 0 instructions: 178500937 cycles: 196091700 heartbeat IPC: 0.7631 cumulative IPC: 0.7057 (Simulation time: 00 hr 27 min 27 sec)
Heartbeat CPU 0 instructions: 179000941 cycles: 196453860 heartbeat IPC: 1.381 cumulative IPC: 0.707 (Simulation time: 00 hr 27 min 30 sec)
Heartbeat CPU 0 instructions: 179500943 cycles: 197514908 heartbeat IPC: 0.4712 cumulative IPC: 0.7057 (Simulation time: 00 hr 27 min 36 sec)
Heartbeat CPU 0 instructions: 180000950 cycles: 198505917 heartbeat IPC: 0.5045 cumulative IPC: 0.7046 (Simulation time: 00 hr 27 min 42 sec)
Heartbeat CPU 0 instructions: 180500950 cycles: 199260926 heartbeat IPC: 0.6622 cumulative IPC: 0.7044 (Simulation time: 00 hr 27 min 47 sec)
Heartbeat CPU 0 instructions: 181000951 cycles: 199928209 heartbeat IPC: 0.7493 cumulative IPC: 0.7046 (Simulation time: 00 hr 27 min 52 sec)
Heartbeat CPU 0 instructions: 181500953 cycles: 200508204 heartbeat IPC: 0.8621 cumulative IPC: 0.7051 (Simulation time: 00 hr 27 min 56 sec)
Heartbeat CPU 0 instructions: 182000953 cycles: 201555187 heartbeat IPC: 0.4776 cumulative IPC: 0.7038 (Simulation time: 00 hr 28 min 03 sec)
Heartbeat CPU 0 instructions: 182500954 cycles: 202659566 heartbeat IPC: 0.4527 cumulative IPC: 0.7023 (Simulation time: 00 hr 28 min 10 sec)
Heartbeat CPU 0 instructions: 183000955 cycles: 203340146 heartbeat IPC: 0.7347 cumulative IPC: 0.7025 (Simulation time: 00 hr 28 min 15 sec)
Heartbeat CPU 0 instructions: 183500959 cycles: 203878824 heartbeat IPC: 0.9282 cumulative IPC: 0.7031 (Simulation time: 00 hr 28 min 19 sec)
Heartbeat CPU 0 instructions: 184000959 cycles: 204665878 heartbeat IPC: 0.6353 cumulative IPC: 0.7028 (Simulation time: 00 hr 28 min 24 sec)
Heartbeat CPU 0 instructions: 184500962 cycles: 205258521 heartbeat IPC: 0.8437 cumulative IPC: 0.7032 (Simulation time: 00 hr 28 min 28 sec)
Heartbeat CPU 0 instructions: 185000968 cycles: 205820949 heartbeat IPC: 0.889 cumulative IPC: 0.7038 (Simulation time: 00 hr 28 min 32 sec)
Heartbeat CPU 0 instructions: 185500971 cycles: 206626365 heartbeat IPC: 0.6208 cumulative IPC: 0.7034 (Simulation time: 00 hr 28 min 38 sec)
Heartbeat CPU 0 instructions: 186000977 cycles: 207247774 heartbeat IPC: 0.8046 cumulative IPC: 0.7038 (Simulation time: 00 hr 28 min 42 sec)
Heartbeat CPU 0 instructions: 186500977 cycles: 208143400 heartbeat IPC: 0.5583 cumulative IPC: 0.7031 (Simulation time: 00 hr 28 min 48 sec)
Heartbeat CPU 0 instructions: 187000981 cycles: 208983788 heartbeat IPC: 0.595 cumulative IPC: 0.7026 (Simulation time: 00 hr 28 min 53 sec)
Heartbeat CPU 0 instructions: 187500981 cycles: 210188291 heartbeat IPC: 0.4151 cumulative IPC: 0.7009 (Simulation time: 00 hr 29 min 01 sec)
Heartbeat CPU 0 instructions: 188000985 cycles: 211260605 heartbeat IPC: 0.4663 cumulative IPC: 0.6996 (Simulation time: 00 hr 29 min 08 sec)
Heartbeat CPU 0 instructions: 188500988 cycles: 211915825 heartbeat IPC: 0.7631 cumulative IPC: 0.6998 (Simulation time: 00 hr 29 min 12 sec)
Heartbeat CPU 0 instructions: 189000994 cycles: 212776164 heartbeat IPC: 0.5812 cumulative IPC: 0.6993 (Simulation time: 00 hr 29 min 18 sec)
Heartbeat CPU 0 instructions: 189500996 cycles: 213715660 heartbeat IPC: 0.5322 cumulative IPC: 0.6985 (Simulation time: 00 hr 29 min 24 sec)
Heartbeat CPU 0 instructions: 190000997 cycles: 214559254 heartbeat IPC: 0.5927 cumulative IPC: 0.6981 (Simulation time: 00 hr 29 min 29 sec)
Heartbeat CPU 0 instructions: 190500997 cycles: 215828802 heartbeat IPC: 0.3938 cumulative IPC: 0.6961 (Simulation time: 00 hr 29 min 37 sec)
Heartbeat CPU 0 instructions: 191001002 cycles: 216766989 heartbeat IPC: 0.5329 cumulative IPC: 0.6954 (Simulation time: 00 hr 29 min 43 sec)
Heartbeat CPU 0 instructions: 191501004 cycles: 217917303 heartbeat IPC: 0.4347 cumulative IPC: 0.6939 (Simulation time: 00 hr 29 min 50 sec)
Heartbeat CPU 0 instructions: 192001008 cycles: 218617699 heartbeat IPC: 0.7139 cumulative IPC: 0.694 (Simulation time: 00 hr 29 min 55 sec)
Heartbeat CPU 0 instructions: 192501008 cycles: 219437660 heartbeat IPC: 0.6098 cumulative IPC: 0.6937 (Simulation time: 00 hr 30 min 00 sec)
Heartbeat CPU 0 instructions: 193001015 cycles: 220399900 heartbeat IPC: 0.5196 cumulative IPC: 0.6928 (Simulation time: 00 hr 30 min 06 sec)
Heartbeat CPU 0 instructions: 193501019 cycles: 221218702 heartbeat IPC: 0.6107 cumulative IPC: 0.6925 (Simulation time: 00 hr 30 min 12 sec)
Heartbeat CPU 0 instructions: 194001024 cycles: 222231884 heartbeat IPC: 0.4935 cumulative IPC: 0.6915 (Simulation time: 00 hr 30 min 18 sec)
Heartbeat CPU 0 instructions: 194501031 cycles: 223179696 heartbeat IPC: 0.5275 cumulative IPC: 0.6908 (Simulation time: 00 hr 30 min 24 sec)
Heartbeat CPU 0 instructions: 195001035 cycles: 223954588 heartbeat IPC: 0.6453 cumulative IPC: 0.6906 (Simulation time: 00 hr 30 min 29 sec)
Heartbeat CPU 0 instructions: 195501035 cycles: 224498126 heartbeat IPC: 0.9199 cumulative IPC: 0.6912 (Simulation time: 00 hr 30 min 33 sec)
Heartbeat CPU 0 instructions: 196001039 cycles: 225360025 heartbeat IPC: 0.5801 cumulative IPC: 0.6908 (Simulation time: 00 hr 30 min 39 sec)
Heartbeat CPU 0 instructions: 196501040 cycles: 226561215 heartbeat IPC: 0.4163 cumulative IPC: 0.6892 (Simulation time: 00 hr 30 min 47 sec)
Heartbeat CPU 0 instructions: 197001041 cycles: 227175831 heartbeat IPC: 0.8135 cumulative IPC: 0.6896 (Simulation time: 00 hr 30 min 52 sec)
Heartbeat CPU 0 instructions: 197501043 cycles: 227486154 heartbeat IPC: 1.611 cumulative IPC: 0.6909 (Simulation time: 00 hr 30 min 55 sec)
Heartbeat CPU 0 instructions: 198001043 cycles: 227696539 heartbeat IPC: 2.377 cumulative IPC: 0.6926 (Simulation time: 00 hr 30 min 57 sec)
Heartbeat CPU 0 instructions: 198501044 cycles: 228583952 heartbeat IPC: 0.5634 cumulative IPC: 0.692 (Simulation time: 00 hr 31 min 03 sec)
Heartbeat CPU 0 instructions: 199001044 cycles: 229187203 heartbeat IPC: 0.8288 cumulative IPC: 0.6924 (Simulation time: 00 hr 31 min 07 sec)
Heartbeat CPU 0 instructions: 199501047 cycles: 229655088 heartbeat IPC: 1.069 cumulative IPC: 0.6932 (Simulation time: 00 hr 31 min 11 sec)
Heartbeat CPU 0 instructions: 200001047 cycles: 230600875 heartbeat IPC: 0.5287 cumulative IPC: 0.6925 (Simulation time: 00 hr 31 min 17 sec)
Heartbeat CPU 0 instructions: 200501047 cycles: 231826219 heartbeat IPC: 0.408 cumulative IPC: 0.6909 (Simulation time: 00 hr 31 min 25 sec)
Heartbeat CPU 0 instructions: 201001047 cycles: 232480947 heartbeat IPC: 0.7637 cumulative IPC: 0.6911 (Simulation time: 00 hr 31 min 30 sec)
Heartbeat CPU 0 instructions: 201501049 cycles: 232687526 heartbeat IPC: 2.42 cumulative IPC: 0.6928 (Simulation time: 00 hr 31 min 32 sec)
Heartbeat CPU 0 instructions: 202001053 cycles: 233057623 heartbeat IPC: 1.351 cumulative IPC: 0.6939 (Simulation time: 00 hr 31 min 35 sec)
Heartbeat CPU 0 instructions: 202501053 cycles: 233723074 heartbeat IPC: 0.7514 cumulative IPC: 0.6941 (Simulation time: 00 hr 31 min 39 sec)
Heartbeat CPU 0 instructions: 203001054 cycles: 234593800 heartbeat IPC: 0.5742 cumulative IPC: 0.6936 (Simulation time: 00 hr 31 min 45 sec)
Heartbeat CPU 0 instructions: 203501054 cycles: 235356508 heartbeat IPC: 0.6556 cumulative IPC: 0.6935 (Simulation time: 00 hr 31 min 50 sec)
Heartbeat CPU 0 instructions: 204001061 cycles: 236194624 heartbeat IPC: 0.5966 cumulative IPC: 0.6931 (Simulation time: 00 hr 31 min 56 sec)
Heartbeat CPU 0 instructions: 204501061 cycles: 237082094 heartbeat IPC: 0.5634 cumulative IPC: 0.6926 (Simulation time: 00 hr 32 min 01 sec)
Heartbeat CPU 0 instructions: 205001062 cycles: 238005076 heartbeat IPC: 0.5417 cumulative IPC: 0.692 (Simulation time: 00 hr 32 min 07 sec)
Heartbeat CPU 0 instructions: 205501062 cycles: 238773259 heartbeat IPC: 0.6509 cumulative IPC: 0.6918 (Simulation time: 00 hr 32 min 12 sec)
Heartbeat CPU 0 instructions: 206001063 cycles: 239562758 heartbeat IPC: 0.6333 cumulative IPC: 0.6916 (Simulation time: 00 hr 32 min 18 sec)
Heartbeat CPU 0 instructions: 206501063 cycles: 240323084 heartbeat IPC: 0.6576 cumulative IPC: 0.6915 (Simulation time: 00 hr 32 min 23 sec)
Heartbeat CPU 0 instructions: 207001064 cycles: 241182650 heartbeat IPC: 0.5817 cumulative IPC: 0.6911 (Simulation time: 00 hr 32 min 28 sec)
Heartbeat CPU 0 instructions: 207501069 cycles: 241947246 heartbeat IPC: 0.6539 cumulative IPC: 0.691 (Simulation time: 00 hr 32 min 33 sec)
Heartbeat CPU 0 instructions: 208001069 cycles: 242712829 heartbeat IPC: 0.6531 cumulative IPC: 0.6908 (Simulation time: 00 hr 32 min 38 sec)
Heartbeat CPU 0 instructions: 208501070 cycles: 243623939 heartbeat IPC: 0.5488 cumulative IPC: 0.6903 (Simulation time: 00 hr 32 min 44 sec)
Heartbeat CPU 0 instructions: 209001070 cycles: 244452237 heartbeat IPC: 0.6036 cumulative IPC: 0.69 (Simulation time: 00 hr 32 min 50 sec)
Heartbeat CPU 0 instructions: 209501070 cycles: 245225443 heartbeat IPC: 0.6467 cumulative IPC: 0.6898 (Simulation time: 00 hr 32 min 55 sec)
Heartbeat CPU 0 instructions: 210001070 cycles: 246264290 heartbeat IPC: 0.4813 cumulative IPC: 0.6889 (Simulation time: 00 hr 33 min 01 sec)
Heartbeat CPU 0 instructions: 210501073 cycles: 247213773 heartbeat IPC: 0.5266 cumulative IPC: 0.6882 (Simulation time: 00 hr 33 min 07 sec)
Heartbeat CPU 0 instructions: 211001074 cycles: 247904640 heartbeat IPC: 0.7237 cumulative IPC: 0.6883 (Simulation time: 00 hr 33 min 12 sec)
Heartbeat CPU 0 instructions: 211501076 cycles: 248701185 heartbeat IPC: 0.6277 cumulative IPC: 0.6881 (Simulation time: 00 hr 33 min 17 sec)
Heartbeat CPU 0 instructions: 212001077 cycles: 249612561 heartbeat IPC: 0.5486 cumulative IPC: 0.6876 (Simulation time: 00 hr 33 min 23 sec)
Heartbeat CPU 0 instructions: 212501077 cycles: 249811860 heartbeat IPC: 2.509 cumulative IPC: 0.6891 (Simulation time: 00 hr 33 min 26 sec)
Heartbeat CPU 0 instructions: 213001083 cycles: 250021372 heartbeat IPC: 2.387 cumulative IPC: 0.6906 (Simulation time: 00 hr 33 min 29 sec)
Heartbeat CPU 0 instructions: 213501087 cycles: 250483619 heartbeat IPC: 1.082 cumulative IPC: 0.6914 (Simulation time: 00 hr 33 min 33 sec)
Heartbeat CPU 0 instructions: 214001088 cycles: 250857797 heartbeat IPC: 1.336 cumulative IPC: 0.6924 (Simulation time: 00 hr 33 min 38 sec)
Heartbeat CPU 0 instructions: 214501092 cycles: 251224871 heartbeat IPC: 1.362 cumulative IPC: 0.6934 (Simulation time: 00 hr 33 min 42 sec)
Heartbeat CPU 0 instructions: 215001092 cycles: 251581974 heartbeat IPC: 1.4 cumulative IPC: 0.6945 (Simulation time: 00 hr 33 min 46 sec)
Heartbeat CPU 0 instructions: 215501094 cycles: 251918688 heartbeat IPC: 1.485 cumulative IPC: 0.6956 (Simulation time: 00 hr 33 min 50 sec)
Heartbeat CPU 0 instructions: 216001099 cycles: 252297496 heartbeat IPC: 1.32 cumulative IPC: 0.6966 (Simulation time: 00 hr 33 min 55 sec)
Heartbeat CPU 0 instructions: 216501101 cycles: 252675409 heartbeat IPC: 1.323 cumulative IPC: 0.6976 (Simulation time: 00 hr 33 min 59 sec)
Heartbeat CPU 0 instructions: 217001102 cycles: 253058439 heartbeat IPC: 1.305 cumulative IPC: 0.6986 (Simulation time: 00 hr 34 min 03 sec)
Heartbeat CPU 0 instructions: 217501104 cycles: 253453725 heartbeat IPC: 1.265 cumulative IPC: 0.6995 (Simulation time: 00 hr 34 min 08 sec)
Heartbeat CPU 0 instructions: 218001104 cycles: 253830147 heartbeat IPC: 1.328 cumulative IPC: 0.7005 (Simulation time: 00 hr 34 min 13 sec)
Heartbeat CPU 0 instructions: 218501108 cycles: 254182546 heartbeat IPC: 1.419 cumulative IPC: 0.7016 (Simulation time: 00 hr 34 min 17 sec)
Heartbeat CPU 0 instructions: 219001108 cycles: 254557480 heartbeat IPC: 1.334 cumulative IPC: 0.7025 (Simulation time: 00 hr 34 min 21 sec)
Heartbeat CPU 0 instructions: 219501108 cycles: 254932125 heartbeat IPC: 1.335 cumulative IPC: 0.7035 (Simulation time: 00 hr 34 min 26 sec)
Heartbeat CPU 0 instructions: 220001111 cycles: 255956418 heartbeat IPC: 0.4881 cumulative IPC: 0.7026 (Simulation time: 00 hr 34 min 33 sec)
Heartbeat CPU 0 instructions: 220501117 cycles: 256928108 heartbeat IPC: 0.5146 cumulative IPC: 0.7019 (Simulation time: 00 hr 34 min 39 sec)
Heartbeat CPU 0 instructions: 221001117 cycles: 257811342 heartbeat IPC: 0.5661 cumulative IPC: 0.7014 (Simulation time: 00 hr 34 min 45 sec)
Heartbeat CPU 0 instructions: 221501120 cycles: 258693821 heartbeat IPC: 0.5666 cumulative IPC: 0.7009 (Simulation time: 00 hr 34 min 51 sec)
Heartbeat CPU 0 instructions: 222001120 cycles: 259607905 heartbeat IPC: 0.547 cumulative IPC: 0.7003 (Simulation time: 00 hr 34 min 57 sec)
Heartbeat CPU 0 instructions: 222501124 cycles: 260495038 heartbeat IPC: 0.5636 cumulative IPC: 0.6998 (Simulation time: 00 hr 35 min 03 sec)
Heartbeat CPU 0 instructions: 223001129 cycles: 261359247 heartbeat IPC: 0.5786 cumulative IPC: 0.6994 (Simulation time: 00 hr 35 min 08 sec)
Heartbeat CPU 0 instructions: 223501130 cycles: 262143456 heartbeat IPC: 0.6376 cumulative IPC: 0.6992 (Simulation time: 00 hr 35 min 14 sec)
Heartbeat CPU 0 instructions: 224001133 cycles: 263222447 heartbeat IPC: 0.4634 cumulative IPC: 0.6982 (Simulation time: 00 hr 35 min 20 sec)
Heartbeat CPU 0 instructions: 224501134 cycles: 264249473 heartbeat IPC: 0.4868 cumulative IPC: 0.6973 (Simulation time: 00 hr 35 min 27 sec)
Heartbeat CPU 0 instructions: 225001140 cycles: 264937022 heartbeat IPC: 0.7272 cumulative IPC: 0.6974 (Simulation time: 00 hr 35 min 32 sec)
Heartbeat CPU 0 instructions: 225501144 cycles: 265682729 heartbeat IPC: 0.6705 cumulative IPC: 0.6973 (Simulation time: 00 hr 35 min 36 sec)
Heartbeat CPU 0 instructions: 226001144 cycles: 266390346 heartbeat IPC: 0.7066 cumulative IPC: 0.6973 (Simulation time: 00 hr 35 min 41 sec)
Heartbeat CPU 0 instructions: 226501144 cycles: 267181198 heartbeat IPC: 0.6322 cumulative IPC: 0.6971 (Simulation time: 00 hr 35 min 47 sec)
Heartbeat CPU 0 instructions: 227001145 cycles: 268056329 heartbeat IPC: 0.5713 cumulative IPC: 0.6967 (Simulation time: 00 hr 35 min 52 sec)
Heartbeat CPU 0 instructions: 227501147 cycles: 268668469 heartbeat IPC: 0.8168 cumulative IPC: 0.697 (Simulation time: 00 hr 35 min 56 sec)
Heartbeat CPU 0 instructions: 228001152 cycles: 269331579 heartbeat IPC: 0.754 cumulative IPC: 0.6971 (Simulation time: 00 hr 36 min 01 sec)
Heartbeat CPU 0 instructions: 228501154 cycles: 270086801 heartbeat IPC: 0.6621 cumulative IPC: 0.697 (Simulation time: 00 hr 36 min 06 sec)
Heartbeat CPU 0 instructions: 229001160 cycles: 270989696 heartbeat IPC: 0.5538 cumulative IPC: 0.6965 (Simulation time: 00 hr 36 min 12 sec)
Heartbeat CPU 0 instructions: 229501167 cycles: 271439651 heartbeat IPC: 1.111 cumulative IPC: 0.6973 (Simulation time: 00 hr 36 min 16 sec)
Heartbeat CPU 0 instructions: 230001171 cycles: 271795900 heartbeat IPC: 1.404 cumulative IPC: 0.6982 (Simulation time: 00 hr 36 min 19 sec)
Heartbeat CPU 0 instructions: 230501173 cycles: 272147737 heartbeat IPC: 1.421 cumulative IPC: 0.6992 (Simulation time: 00 hr 36 min 23 sec)
Heartbeat CPU 0 instructions: 231001173 cycles: 272504699 heartbeat IPC: 1.401 cumulative IPC: 0.7002 (Simulation time: 00 hr 36 min 26 sec)
Heartbeat CPU 0 instructions: 231501175 cycles: 273027310 heartbeat IPC: 0.9567 cumulative IPC: 0.7007 (Simulation time: 00 hr 36 min 30 sec)
Heartbeat CPU 0 instructions: 232001180 cycles: 273371136 heartbeat IPC: 1.454 cumulative IPC: 0.7017 (Simulation time: 00 hr 36 min 33 sec)
Heartbeat CPU 0 instructions: 232501180 cycles: 273657077 heartbeat IPC: 1.749 cumulative IPC: 0.7029 (Simulation time: 00 hr 36 min 36 sec)
Heartbeat CPU 0 instructions: 233001185 cycles: 274543111 heartbeat IPC: 0.5643 cumulative IPC: 0.7024 (Simulation time: 00 hr 36 min 42 sec)
Heartbeat CPU 0 instructions: 233501187 cycles: 275413215 heartbeat IPC: 0.5746 cumulative IPC: 0.702 (Simulation time: 00 hr 36 min 49 sec)
Heartbeat CPU 0 instructions: 234001187 cycles: 276027134 heartbeat IPC: 0.8144 cumulative IPC: 0.7022 (Simulation time: 00 hr 36 min 54 sec)
Heartbeat CPU 0 instructions: 234501188 cycles: 276875322 heartbeat IPC: 0.5895 cumulative IPC: 0.7019 (Simulation time: 00 hr 37 min 00 sec)
Heartbeat CPU 0 instructions: 235001190 cycles: 278014318 heartbeat IPC: 0.439 cumulative IPC: 0.7007 (Simulation time: 00 hr 37 min 07 sec)
Heartbeat CPU 0 instructions: 235501190 cycles: 279069638 heartbeat IPC: 0.4738 cumulative IPC: 0.6998 (Simulation time: 00 hr 37 min 13 sec)
Heartbeat CPU 0 instructions: 236001193 cycles: 279736812 heartbeat IPC: 0.7494 cumulative IPC: 0.6999 (Simulation time: 00 hr 37 min 18 sec)
Heartbeat CPU 0 instructions: 236501195 cycles: 280550137 heartbeat IPC: 0.6148 cumulative IPC: 0.6997 (Simulation time: 00 hr 37 min 23 sec)
Heartbeat CPU 0 instructions: 237001198 cycles: 281417452 heartbeat IPC: 0.5765 cumulative IPC: 0.6993 (Simulation time: 00 hr 37 min 29 sec)
Heartbeat CPU 0 instructions: 237501198 cycles: 282020451 heartbeat IPC: 0.8292 cumulative IPC: 0.6996 (Simulation time: 00 hr 37 min 33 sec)
Heartbeat CPU 0 instructions: 238001200 cycles: 282839726 heartbeat IPC: 0.6103 cumulative IPC: 0.6993 (Simulation time: 00 hr 37 min 39 sec)
Heartbeat CPU 0 instructions: 238501201 cycles: 283815763 heartbeat IPC: 0.5123 cumulative IPC: 0.6986 (Simulation time: 00 hr 37 min 45 sec)
Heartbeat CPU 0 instructions: 239001201 cycles: 284312377 heartbeat IPC: 1.007 cumulative IPC: 0.6992 (Simulation time: 00 hr 37 min 49 sec)
Heartbeat CPU 0 instructions: 239501203 cycles: 285058527 heartbeat IPC: 0.6701 cumulative IPC: 0.6991 (Simulation time: 00 hr 37 min 54 sec)
Heartbeat CPU 0 instructions: 240001203 cycles: 285695626 heartbeat IPC: 0.7848 cumulative IPC: 0.6993 (Simulation time: 00 hr 37 min 58 sec)
Heartbeat CPU 0 instructions: 240501209 cycles: 286121177 heartbeat IPC: 1.175 cumulative IPC: 0.7001 (Simulation time: 00 hr 38 min 02 sec)
Heartbeat CPU 0 instructions: 241001209 cycles: 287051978 heartbeat IPC: 0.5372 cumulative IPC: 0.6995 (Simulation time: 00 hr 38 min 08 sec)
Heartbeat CPU 0 instructions: 241501209 cycles: 287759887 heartbeat IPC: 0.7063 cumulative IPC: 0.6995 (Simulation time: 00 hr 38 min 13 sec)
Heartbeat CPU 0 instructions: 242001210 cycles: 288718153 heartbeat IPC: 0.5218 cumulative IPC: 0.6989 (Simulation time: 00 hr 38 min 19 sec)
Heartbeat CPU 0 instructions: 242501211 cycles: 289475034 heartbeat IPC: 0.6606 cumulative IPC: 0.6988 (Simulation time: 00 hr 38 min 24 sec)
Heartbeat CPU 0 instructions: 243001215 cycles: 290457208 heartbeat IPC: 0.5091 cumulative IPC: 0.6981 (Simulation time: 00 hr 38 min 31 sec)
Heartbeat CPU 0 instructions: 243501222 cycles: 291340488 heartbeat IPC: 0.5661 cumulative IPC: 0.6977 (Simulation time: 00 hr 38 min 36 sec)
Heartbeat CPU 0 instructions: 244001225 cycles: 291859667 heartbeat IPC: 0.9631 cumulative IPC: 0.6982 (Simulation time: 00 hr 38 min 40 sec)
Heartbeat CPU 0 instructions: 244501225 cycles: 292510236 heartbeat IPC: 0.7686 cumulative IPC: 0.6984 (Simulation time: 00 hr 38 min 44 sec)
Heartbeat CPU 0 instructions: 245001227 cycles: 293476892 heartbeat IPC: 0.5172 cumulative IPC: 0.6977 (Simulation time: 00 hr 38 min 50 sec)
Heartbeat CPU 0 instructions: 245501230 cycles: 294373858 heartbeat IPC: 0.5574 cumulative IPC: 0.6973 (Simulation time: 00 hr 38 min 56 sec)
Heartbeat CPU 0 instructions: 246001237 cycles: 295205922 heartbeat IPC: 0.6009 cumulative IPC: 0.697 (Simulation time: 00 hr 39 min 02 sec)
Heartbeat CPU 0 instructions: 246501238 cycles: 296272591 heartbeat IPC: 0.4687 cumulative IPC: 0.6961 (Simulation time: 00 hr 39 min 08 sec)
Heartbeat CPU 0 instructions: 247001239 cycles: 297077580 heartbeat IPC: 0.6211 cumulative IPC: 0.6959 (Simulation time: 00 hr 39 min 14 sec)
Heartbeat CPU 0 instructions: 247501240 cycles: 297646118 heartbeat IPC: 0.8795 cumulative IPC: 0.6963 (Simulation time: 00 hr 39 min 18 sec)
Heartbeat CPU 0 instructions: 248001240 cycles: 298420528 heartbeat IPC: 0.6457 cumulative IPC: 0.6962 (Simulation time: 00 hr 39 min 23 sec)
Heartbeat CPU 0 instructions: 248501240 cycles: 299699118 heartbeat IPC: 0.3911 cumulative IPC: 0.6948 (Simulation time: 00 hr 39 min 31 sec)
Heartbeat CPU 0 instructions: 249001243 cycles: 300703128 heartbeat IPC: 0.498 cumulative IPC: 0.6941 (Simulation time: 00 hr 39 min 37 sec)
Heartbeat CPU 0 instructions: 249501249 cycles: 301829131 heartbeat IPC: 0.4441 cumulative IPC: 0.6931 (Simulation time: 00 hr 39 min 45 sec)
Simulation finished CPU 0 instructions: 200000001 cycles: 288810895 cumulative IPC: 0.6925 (Simulation time: 00 hr 39 min 51 sec)
Simulation complete CPU 0 instructions: 200000001 cycles: 288810895 cumulative IPC: 0.6925 (Simulation time: 00 hr 39 min 51 sec)

ChampSim completed all CPUs

=== Simulation ===
CPU 0 runs /local-ssd/ben/dpc4-traces/gtraces_v2/tango_0000.champsim.gz

Region of Interest Statistics

CPU 0 cumulative IPC: 0.6925 instructions: 200000001 cycles: 288810895
CPU 0 Branch Prediction Accuracy: 89.45% MPKI: 19.5 Average ROB Occupancy at Mispredict: 23.69
Branch type MPKI
BRANCH_DIRECT_JUMP: 0.5813
BRANCH_INDIRECT: 0.3396
BRANCH_CONDITIONAL: 16.6
BRANCH_DIRECT_CALL: 0.8659
BRANCH_INDIRECT_CALL: 0.3326
BRANCH_RETURN: 0.7816

cpu0->cpu0_STLB TOTAL        ACCESS:    2458941 HIT:    1802632 MISS:     656309 MSHR_MERGE:          0
cpu0->cpu0_STLB LOAD         ACCESS:    2458941 HIT:    1802632 MISS:     656309 MSHR_MERGE:          0
cpu0->cpu0_STLB RFO          ACCESS:          0 HIT:          0 MISS:          0 MSHR_MERGE:          0
cpu0->cpu0_STLB PREFETCH     ACCESS:          0 HIT:          0 MISS:          0 MSHR_MERGE:          0
cpu0->cpu0_STLB WRITE        ACCESS:          0 HIT:          0 MISS:          0 MSHR_MERGE:          0
cpu0->cpu0_STLB TRANSLATION  ACCESS:          0 HIT:          0 MISS:          0 MSHR_MERGE:          0
cpu0->cpu0_STLB PREFETCH REQUESTED:          0 ISSUED:          0 USEFUL:          0 USELESS:          0
cpu0->cpu0_STLB AVERAGE MISS LATENCY: 126.1 cycles
cpu0->cpu0_L2C TOTAL        ACCESS:    9599309 HIT:    6690174 MISS:    2909135 MSHR_MERGE:     411029
cpu0->cpu0_L2C LOAD         ACCESS:    1667979 HIT:    1172061 MISS:     495918 MSHR_MERGE:      19703
cpu0->cpu0_L2C RFO          ACCESS:     717981 HIT:     243920 MISS:     474061 MSHR_MERGE:       4189
cpu0->cpu0_L2C PREFETCH     ACCESS:    5270649 HIT:    3552158 MISS:    1718491 MSHR_MERGE:     387137
cpu0->cpu0_L2C WRITE        ACCESS:    1218656 HIT:    1218631 MISS:         25 MSHR_MERGE:          0
cpu0->cpu0_L2C TRANSLATION  ACCESS:     724044 HIT:     503404 MISS:     220640 MSHR_MERGE:          0
cpu0->cpu0_L2C PREFETCH REQUESTED:    4449180 ISSUED:    4378070 USEFUL:     338867 USELESS:     685730
cpu0->cpu0_L2C AVERAGE MISS LATENCY: 231.1 cycles
cpu0->cpu0_L1I TOTAL        ACCESS:   17139081 HIT:   17100186 MISS:      38895 MSHR_MERGE:       6595
cpu0->cpu0_L1I LOAD         ACCESS:   17139081 HIT:   17100186 MISS:      38895 MSHR_MERGE:       6595
cpu0->cpu0_L1I RFO          ACCESS:          0 HIT:          0 MISS:          0 MSHR_MERGE:          0
cpu0->cpu0_L1I PREFETCH     ACCESS:          0 HIT:          0 MISS:          0 MSHR_MERGE:          0
cpu0->cpu0_L1I WRITE        ACCESS:          0 HIT:          0 MISS:          0 MSHR_MERGE:          0
cpu0->cpu0_L1I TRANSLATION  ACCESS:          0 HIT:          0 MISS:          0 MSHR_MERGE:          0
cpu0->cpu0_L1I PREFETCH REQUESTED:          0 ISSUED:          0 USEFUL:          0 USELESS:          0
cpu0->cpu0_L1I AVERAGE MISS LATENCY: 163.9 cycles
cpu0->cpu0_L1D TOTAL        ACCESS:   61887252 HIT:   55067465 MISS:    6819787 MSHR_MERGE:    2849471
cpu0->cpu0_L1D LOAD         ACCESS:   32056685 HIT:   29839233 MISS:    2217452 MSHR_MERGE:     581757
cpu0->cpu0_L1D RFO          ACCESS:          0 HIT:          0 MISS:          0 MSHR_MERGE:          0
cpu0->cpu0_L1D PREFETCH     ACCESS:    1946677 HIT:    1011637 MISS:     935040 MSHR_MERGE:      42461
cpu0->cpu0_L1D WRITE        ACCESS:   26191178 HIT:   23253379 MISS:    2937799 MSHR_MERGE:    2219801
cpu0->cpu0_L1D TRANSLATION  ACCESS:    1692712 HIT:     963216 MISS:     729496 MSHR_MERGE:       5452
cpu0->cpu0_L1D PREFETCH REQUESTED:    1968068 ISSUED:    1946676 USEFUL:     344706 USELESS:     547841
cpu0->cpu0_L1D AVERAGE MISS LATENCY: 96.17 cycles
cpu0->cpu0_ITLB TOTAL        ACCESS:   14466495 HIT:   13978331 MISS:     488164 MSHR_MERGE:     232390
cpu0->cpu0_ITLB LOAD         ACCESS:   14466495 HIT:   13978331 MISS:     488164 MSHR_MERGE:     232390
cpu0->cpu0_ITLB RFO          ACCESS:          0 HIT:          0 MISS:          0 MSHR_MERGE:          0
cpu0->cpu0_ITLB PREFETCH     ACCESS:          0 HIT:          0 MISS:          0 MSHR_MERGE:          0
cpu0->cpu0_ITLB WRITE        ACCESS:          0 HIT:          0 MISS:          0 MSHR_MERGE:          0
cpu0->cpu0_ITLB TRANSLATION  ACCESS:          0 HIT:          0 MISS:          0 MSHR_MERGE:          0
cpu0->cpu0_ITLB PREFETCH REQUESTED:          0 ISSUED:          0 USEFUL:          0 USELESS:          0
cpu0->cpu0_ITLB AVERAGE MISS LATENCY: 20.61 cycles
cpu0->cpu0_DTLB TOTAL        ACCESS:   57157636 HIT:   53103115 MISS:    4054521 MSHR_MERGE:    1851353
cpu0->cpu0_DTLB LOAD         ACCESS:   57157636 HIT:   53103115 MISS:    4054521 MSHR_MERGE:    1851353
cpu0->cpu0_DTLB RFO          ACCESS:          0 HIT:          0 MISS:          0 MSHR_MERGE:          0
cpu0->cpu0_DTLB PREFETCH     ACCESS:          0 HIT:          0 MISS:          0 MSHR_MERGE:          0
cpu0->cpu0_DTLB WRITE        ACCESS:          0 HIT:          0 MISS:          0 MSHR_MERGE:          0
cpu0->cpu0_DTLB TRANSLATION  ACCESS:          0 HIT:          0 MISS:          0 MSHR_MERGE:          0
cpu0->cpu0_DTLB PREFETCH REQUESTED:          0 ISSUED:          0 USEFUL:          0 USELESS:          0
cpu0->cpu0_DTLB AVERAGE MISS LATENCY: 41.06 cycles
cpu0->LLC TOTAL        ACCESS:    4189138 HIT:     561376 MISS:    3627762 MSHR_MERGE:     183610
cpu0->LLC LOAD         ACCESS:     476215 HIT:      66460 MISS:     409755 MSHR_MERGE:       1480
cpu0->LLC RFO          ACCESS:     469871 HIT:      20450 MISS:     449421 MSHR_MERGE:        282
cpu0->LLC PREFETCH     ACCESS:    2213043 HIT:     320956 MISS:    1892087 MSHR_MERGE:     181848
cpu0->LLC WRITE        ACCESS:     809369 HIT:     137064 MISS:     672305 MSHR_MERGE:          0
cpu0->LLC TRANSLATION  ACCESS:     220640 HIT:      16446 MISS:     204194 MSHR_MERGE:          0
cpu0->LLC PREFETCH REQUESTED:     889547 ISSUED:     881689 USEFUL:      84262 USELESS:     506615
cpu0->LLC AVERAGE MISS LATENCY: 147.5 cycles

DRAM Statistics

Channel 0 RQ ROW_BUFFER_HIT:      35718
  ROW_BUFFER_MISS:    2736113
  AVG DBUS CONGESTED CYCLE: 21.97
Channel 0 WQ ROW_BUFFER_HIT:     189702
  ROW_BUFFER_MISS:     561841
  FULL:          0
Channel 0 REFRESHES ISSUED:      24066
