[VMEM] WARNING: physical memory size is smaller than virtual memory size.

*** ChampSim Multicore Out-of-Order Simulator ***
Warmup Instructions: 50000000
Simulation Instructions: 200000000
Number of CPUs: 1
Page size: 4096
Core 0: /local-ssd/ben/dpc4-traces/gtraces_v2/tango_0004.champsim.gz
 L1D Berti prefetcher
Off-chip DRAM Size: 64 GiB Channels: 1 Width: 64-bit Data Rate: 4807 MT/s
[BTB] WARNING: target of return is a lower address than the corresponding call. This is usually a problem with your trace.
[BTB] WARNING: target of return is a lower address than the corresponding call. This is usually a problem with your trace.
[BTB] WARNING: target of return is a lower address than the corresponding call. This is usually a problem with your trace.
[BTB] WARNING: target of return is a lower address than the corresponding call. This is usually a problem with your trace.
[BTB] WARNING: target of return is a lower address than the corresponding call. This is usually a problem with your trace.
[BTB] WARNING: target of return is a lower address than the corresponding call. This is usually a problem with your trace.
[BTB] WARNING: target of return is a lower address than the corresponding call. This is usually a problem with your trace.
Heartbeat CPU 0 instructions: 500002 cycles: 269572 heartbeat IPC: 1.855 cumulative IPC: 1.855 (Simulation time: 00 hr 00 min 04 sec)
[BTB] WARNING: target of return is a lower address than the corresponding call. This is usually a problem with your trace.
[BTB] WARNING: target of return is a lower address than the corresponding call. This is usually a problem with your trace.
[BTB] WARNING: target of return is a lower address than the corresponding call. This is usually a problem with your trace.
Heartbeat CPU 0 instructions: 1000007 cycles: 474047 heartbeat IPC: 2.445 cumulative IPC: 2.11 (Simulation time: 00 hr 00 min 07 sec)
Heartbeat CPU 0 instructions: 1500008 cycles: 608073 heartbeat IPC: 3.731 cumulative IPC: 2.467 (Simulation time: 00 hr 00 min 09 sec)
Heartbeat CPU 0 instructions: 2000008 cycles: 764804 heartbeat IPC: 3.19 cumulative IPC: 2.615 (Simulation time: 00 hr 00 min 11 sec)
Heartbeat CPU 0 instructions: 2500012 cycles: 933419 heartbeat IPC: 2.965 cumulative IPC: 2.678 (Simulation time: 00 hr 00 min 14 sec)
Heartbeat CPU 0 instructions: 3000015 cycles: 1083588 heartbeat IPC: 3.33 cumulative IPC: 2.769 (Simulation time: 00 hr 00 min 16 sec)
Heartbeat CPU 0 instructions: 3500018 cycles: 1256822 heartbeat IPC: 2.886 cumulative IPC: 2.785 (Simulation time: 00 hr 00 min 19 sec)
Heartbeat CPU 0 instructions: 4000023 cycles: 1485845 heartbeat IPC: 2.183 cumulative IPC: 2.692 (Simulation time: 00 hr 00 min 23 sec)
Heartbeat CPU 0 instructions: 4500029 cycles: 1615104 heartbeat IPC: 3.868 cumulative IPC: 2.786 (Simulation time: 00 hr 00 min 25 sec)
Heartbeat CPU 0 instructions: 5000035 cycles: 1770454 heartbeat IPC: 3.219 cumulative IPC: 2.824 (Simulation time: 00 hr 00 min 28 sec)
Heartbeat CPU 0 instructions: 5500035 cycles: 1922187 heartbeat IPC: 3.295 cumulative IPC: 2.861 (Simulation time: 00 hr 00 min 30 sec)
Heartbeat CPU 0 instructions: 6000035 cycles: 2077019 heartbeat IPC: 3.229 cumulative IPC: 2.889 (Simulation time: 00 hr 00 min 33 sec)
Heartbeat CPU 0 instructions: 6500035 cycles: 2230742 heartbeat IPC: 3.253 cumulative IPC: 2.914 (Simulation time: 00 hr 00 min 36 sec)
Heartbeat CPU 0 instructions: 7000036 cycles: 2369369 heartbeat IPC: 3.607 cumulative IPC: 2.954 (Simulation time: 00 hr 00 min 38 sec)
Heartbeat CPU 0 instructions: 7500036 cycles: 2510667 heartbeat IPC: 3.539 cumulative IPC: 2.987 (Simulation time: 00 hr 00 min 40 sec)
Heartbeat CPU 0 instructions: 8000043 cycles: 2671647 heartbeat IPC: 3.106 cumulative IPC: 2.994 (Simulation time: 00 hr 00 min 43 sec)
Heartbeat CPU 0 instructions: 8500049 cycles: 2811489 heartbeat IPC: 3.576 cumulative IPC: 3.023 (Simulation time: 00 hr 00 min 45 sec)
Heartbeat CPU 0 instructions: 9000054 cycles: 2957864 heartbeat IPC: 3.416 cumulative IPC: 3.043 (Simulation time: 00 hr 00 min 48 sec)
Heartbeat CPU 0 instructions: 9500058 cycles: 3118202 heartbeat IPC: 3.118 cumulative IPC: 3.047 (Simulation time: 00 hr 00 min 50 sec)
Heartbeat CPU 0 instructions: 10000060 cycles: 3273907 heartbeat IPC: 3.211 cumulative IPC: 3.054 (Simulation time: 00 hr 00 min 53 sec)
Heartbeat CPU 0 instructions: 10500063 cycles: 3418170 heartbeat IPC: 3.466 cumulative IPC: 3.072 (Simulation time: 00 hr 00 min 56 sec)
Heartbeat CPU 0 instructions: 11000067 cycles: 3525323 heartbeat IPC: 4.666 cumulative IPC: 3.12 (Simulation time: 00 hr 00 min 57 sec)
Heartbeat CPU 0 instructions: 11500068 cycles: 3665338 heartbeat IPC: 3.571 cumulative IPC: 3.138 (Simulation time: 00 hr 00 min 59 sec)
Heartbeat CPU 0 instructions: 12000069 cycles: 3825211 heartbeat IPC: 3.127 cumulative IPC: 3.137 (Simulation time: 00 hr 01 min 02 sec)
Heartbeat CPU 0 instructions: 12500072 cycles: 4004689 heartbeat IPC: 2.786 cumulative IPC: 3.121 (Simulation time: 00 hr 01 min 05 sec)
Heartbeat CPU 0 instructions: 13000072 cycles: 4140030 heartbeat IPC: 3.694 cumulative IPC: 3.14 (Simulation time: 00 hr 01 min 07 sec)
Heartbeat CPU 0 instructions: 13500076 cycles: 4271724 heartbeat IPC: 3.797 cumulative IPC: 3.16 (Simulation time: 00 hr 01 min 09 sec)
Heartbeat CPU 0 instructions: 14000076 cycles: 4406718 heartbeat IPC: 3.704 cumulative IPC: 3.177 (Simulation time: 00 hr 01 min 11 sec)
Heartbeat CPU 0 instructions: 14500076 cycles: 4554233 heartbeat IPC: 3.389 cumulative IPC: 3.184 (Simulation time: 00 hr 01 min 14 sec)
Heartbeat CPU 0 instructions: 15000077 cycles: 4696348 heartbeat IPC: 3.518 cumulative IPC: 3.194 (Simulation time: 00 hr 01 min 16 sec)
Heartbeat CPU 0 instructions: 15500078 cycles: 4824225 heartbeat IPC: 3.91 cumulative IPC: 3.213 (Simulation time: 00 hr 01 min 18 sec)
Heartbeat CPU 0 instructions: 16000080 cycles: 4990495 heartbeat IPC: 3.007 cumulative IPC: 3.206 (Simulation time: 00 hr 01 min 21 sec)
Heartbeat CPU 0 instructions: 16500082 cycles: 5124489 heartbeat IPC: 3.732 cumulative IPC: 3.22 (Simulation time: 00 hr 01 min 23 sec)
Heartbeat CPU 0 instructions: 17000088 cycles: 5264139 heartbeat IPC: 3.58 cumulative IPC: 3.229 (Simulation time: 00 hr 01 min 26 sec)
Heartbeat CPU 0 instructions: 17500094 cycles: 5404064 heartbeat IPC: 3.573 cumulative IPC: 3.238 (Simulation time: 00 hr 01 min 28 sec)
Heartbeat CPU 0 instructions: 18000100 cycles: 5565487 heartbeat IPC: 3.097 cumulative IPC: 3.234 (Simulation time: 00 hr 01 min 31 sec)
Heartbeat CPU 0 instructions: 18500107 cycles: 5710791 heartbeat IPC: 3.441 cumulative IPC: 3.239 (Simulation time: 00 hr 01 min 33 sec)
Heartbeat CPU 0 instructions: 19000113 cycles: 5858654 heartbeat IPC: 3.382 cumulative IPC: 3.243 (Simulation time: 00 hr 01 min 36 sec)
Heartbeat CPU 0 instructions: 19500114 cycles: 6012333 heartbeat IPC: 3.254 cumulative IPC: 3.243 (Simulation time: 00 hr 01 min 38 sec)
Heartbeat CPU 0 instructions: 20000116 cycles: 6152724 heartbeat IPC: 3.561 cumulative IPC: 3.251 (Simulation time: 00 hr 01 min 41 sec)
Heartbeat CPU 0 instructions: 20500121 cycles: 6318490 heartbeat IPC: 3.016 cumulative IPC: 3.244 (Simulation time: 00 hr 01 min 44 sec)
Heartbeat CPU 0 instructions: 21000126 cycles: 6461518 heartbeat IPC: 3.496 cumulative IPC: 3.25 (Simulation time: 00 hr 01 min 46 sec)
Heartbeat CPU 0 instructions: 21500129 cycles: 6608047 heartbeat IPC: 3.412 cumulative IPC: 3.254 (Simulation time: 00 hr 01 min 48 sec)
Heartbeat CPU 0 instructions: 22000136 cycles: 6747282 heartbeat IPC: 3.591 cumulative IPC: 3.261 (Simulation time: 00 hr 01 min 51 sec)
Heartbeat CPU 0 instructions: 22500136 cycles: 6889657 heartbeat IPC: 3.512 cumulative IPC: 3.266 (Simulation time: 00 hr 01 min 53 sec)
Heartbeat CPU 0 instructions: 23000136 cycles: 7050940 heartbeat IPC: 3.1 cumulative IPC: 3.262 (Simulation time: 00 hr 01 min 56 sec)
Heartbeat CPU 0 instructions: 23500136 cycles: 7180654 heartbeat IPC: 3.855 cumulative IPC: 3.273 (Simulation time: 00 hr 01 min 58 sec)
Heartbeat CPU 0 instructions: 24000137 cycles: 7319460 heartbeat IPC: 3.602 cumulative IPC: 3.279 (Simulation time: 00 hr 02 min 01 sec)
Heartbeat CPU 0 instructions: 24500139 cycles: 7448615 heartbeat IPC: 3.871 cumulative IPC: 3.289 (Simulation time: 00 hr 02 min 03 sec)
Heartbeat CPU 0 instructions: 25000145 cycles: 7582997 heartbeat IPC: 3.721 cumulative IPC: 3.297 (Simulation time: 00 hr 02 min 05 sec)
Heartbeat CPU 0 instructions: 25500148 cycles: 7742513 heartbeat IPC: 3.135 cumulative IPC: 3.294 (Simulation time: 00 hr 02 min 08 sec)
Heartbeat CPU 0 instructions: 26000150 cycles: 7852553 heartbeat IPC: 4.544 cumulative IPC: 3.311 (Simulation time: 00 hr 02 min 10 sec)
Heartbeat CPU 0 instructions: 26500150 cycles: 7993867 heartbeat IPC: 3.538 cumulative IPC: 3.315 (Simulation time: 00 hr 02 min 12 sec)
Heartbeat CPU 0 instructions: 27000153 cycles: 8120916 heartbeat IPC: 3.936 cumulative IPC: 3.325 (Simulation time: 00 hr 02 min 14 sec)
Heartbeat CPU 0 instructions: 27500154 cycles: 8259394 heartbeat IPC: 3.611 cumulative IPC: 3.33 (Simulation time: 00 hr 02 min 17 sec)
Heartbeat CPU 0 instructions: 28000156 cycles: 8385768 heartbeat IPC: 3.957 cumulative IPC: 3.339 (Simulation time: 00 hr 02 min 19 sec)
Heartbeat CPU 0 instructions: 28500158 cycles: 8561244 heartbeat IPC: 2.849 cumulative IPC: 3.329 (Simulation time: 00 hr 02 min 22 sec)
Heartbeat CPU 0 instructions: 29000160 cycles: 8722990 heartbeat IPC: 3.091 cumulative IPC: 3.325 (Simulation time: 00 hr 02 min 25 sec)
Heartbeat CPU 0 instructions: 29500160 cycles: 8875710 heartbeat IPC: 3.274 cumulative IPC: 3.324 (Simulation time: 00 hr 02 min 27 sec)
Heartbeat CPU 0 instructions: 30000161 cycles: 8995059 heartbeat IPC: 4.189 cumulative IPC: 3.335 (Simulation time: 00 hr 02 min 29 sec)
Heartbeat CPU 0 instructions: 30500164 cycles: 9132331 heartbeat IPC: 3.642 cumulative IPC: 3.34 (Simulation time: 00 hr 02 min 32 sec)
Heartbeat CPU 0 instructions: 31000166 cycles: 9256693 heartbeat IPC: 4.021 cumulative IPC: 3.349 (Simulation time: 00 hr 02 min 34 sec)
Heartbeat CPU 0 instructions: 31500168 cycles: 9391420 heartbeat IPC: 3.711 cumulative IPC: 3.354 (Simulation time: 00 hr 02 min 36 sec)
Heartbeat CPU 0 instructions: 32000173 cycles: 9533857 heartbeat IPC: 3.51 cumulative IPC: 3.356 (Simulation time: 00 hr 02 min 38 sec)
Heartbeat CPU 0 instructions: 32500180 cycles: 9678761 heartbeat IPC: 3.451 cumulative IPC: 3.358 (Simulation time: 00 hr 02 min 41 sec)
Heartbeat CPU 0 instructions: 33000182 cycles: 9829290 heartbeat IPC: 3.322 cumulative IPC: 3.357 (Simulation time: 00 hr 02 min 43 sec)
Heartbeat CPU 0 instructions: 33500186 cycles: 9982332 heartbeat IPC: 3.267 cumulative IPC: 3.356 (Simulation time: 00 hr 02 min 46 sec)
Heartbeat CPU 0 instructions: 34000190 cycles: 10114346 heartbeat IPC: 3.788 cumulative IPC: 3.362 (Simulation time: 00 hr 02 min 48 sec)
Heartbeat CPU 0 instructions: 34500197 cycles: 10270131 heartbeat IPC: 3.21 cumulative IPC: 3.359 (Simulation time: 00 hr 02 min 51 sec)
Heartbeat CPU 0 instructions: 35000198 cycles: 10404603 heartbeat IPC: 3.718 cumulative IPC: 3.364 (Simulation time: 00 hr 02 min 53 sec)
Heartbeat CPU 0 instructions: 35500199 cycles: 10552509 heartbeat IPC: 3.381 cumulative IPC: 3.364 (Simulation time: 00 hr 02 min 56 sec)
Heartbeat CPU 0 instructions: 36000201 cycles: 10678961 heartbeat IPC: 3.954 cumulative IPC: 3.371 (Simulation time: 00 hr 02 min 58 sec)
Heartbeat CPU 0 instructions: 36500205 cycles: 10819966 heartbeat IPC: 3.546 cumulative IPC: 3.373 (Simulation time: 00 hr 03 min 00 sec)
Heartbeat CPU 0 instructions: 37000210 cycles: 10943673 heartbeat IPC: 4.042 cumulative IPC: 3.381 (Simulation time: 00 hr 03 min 02 sec)
Heartbeat CPU 0 instructions: 37500210 cycles: 11087282 heartbeat IPC: 3.482 cumulative IPC: 3.382 (Simulation time: 00 hr 03 min 04 sec)
Heartbeat CPU 0 instructions: 38000211 cycles: 11224241 heartbeat IPC: 3.651 cumulative IPC: 3.386 (Simulation time: 00 hr 03 min 07 sec)
Heartbeat CPU 0 instructions: 38500216 cycles: 11359431 heartbeat IPC: 3.699 cumulative IPC: 3.389 (Simulation time: 00 hr 03 min 09 sec)
Heartbeat CPU 0 instructions: 39000218 cycles: 11490351 heartbeat IPC: 3.819 cumulative IPC: 3.394 (Simulation time: 00 hr 03 min 11 sec)
Heartbeat CPU 0 instructions: 39500222 cycles: 11612508 heartbeat IPC: 4.093 cumulative IPC: 3.402 (Simulation time: 00 hr 03 min 13 sec)
Heartbeat CPU 0 instructions: 40000224 cycles: 11751309 heartbeat IPC: 3.602 cumulative IPC: 3.404 (Simulation time: 00 hr 03 min 16 sec)
Heartbeat CPU 0 instructions: 40500229 cycles: 11876776 heartbeat IPC: 3.985 cumulative IPC: 3.41 (Simulation time: 00 hr 03 min 18 sec)
Heartbeat CPU 0 instructions: 41000231 cycles: 12029773 heartbeat IPC: 3.268 cumulative IPC: 3.408 (Simulation time: 00 hr 03 min 21 sec)
Heartbeat CPU 0 instructions: 41500232 cycles: 12163876 heartbeat IPC: 3.728 cumulative IPC: 3.412 (Simulation time: 00 hr 03 min 23 sec)
Heartbeat CPU 0 instructions: 42000234 cycles: 12296906 heartbeat IPC: 3.759 cumulative IPC: 3.416 (Simulation time: 00 hr 03 min 25 sec)
Heartbeat CPU 0 instructions: 42500240 cycles: 12428991 heartbeat IPC: 3.785 cumulative IPC: 3.419 (Simulation time: 00 hr 03 min 28 sec)
Heartbeat CPU 0 instructions: 43000244 cycles: 12562591 heartbeat IPC: 3.743 cumulative IPC: 3.423 (Simulation time: 00 hr 03 min 30 sec)
Heartbeat CPU 0 instructions: 43500244 cycles: 12706639 heartbeat IPC: 3.471 cumulative IPC: 3.423 (Simulation time: 00 hr 03 min 33 sec)
Heartbeat CPU 0 instructions: 44000247 cycles: 12823420 heartbeat IPC: 4.282 cumulative IPC: 3.431 (Simulation time: 00 hr 03 min 35 sec)
Heartbeat CPU 0 instructions: 44500248 cycles: 12930583 heartbeat IPC: 4.666 cumulative IPC: 3.441 (Simulation time: 00 hr 03 min 36 sec)
Heartbeat CPU 0 instructions: 45000249 cycles: 13054924 heartbeat IPC: 4.021 cumulative IPC: 3.447 (Simulation time: 00 hr 03 min 38 sec)
Heartbeat CPU 0 instructions: 45500254 cycles: 13181609 heartbeat IPC: 3.947 cumulative IPC: 3.452 (Simulation time: 00 hr 03 min 40 sec)
Heartbeat CPU 0 instructions: 46000255 cycles: 13318182 heartbeat IPC: 3.661 cumulative IPC: 3.454 (Simulation time: 00 hr 03 min 43 sec)
Heartbeat CPU 0 instructions: 46500262 cycles: 13434974 heartbeat IPC: 4.281 cumulative IPC: 3.461 (Simulation time: 00 hr 03 min 45 sec)
Heartbeat CPU 0 instructions: 47000263 cycles: 13551352 heartbeat IPC: 4.296 cumulative IPC: 3.468 (Simulation time: 00 hr 03 min 46 sec)
Heartbeat CPU 0 instructions: 47500263 cycles: 13706256 heartbeat IPC: 3.228 cumulative IPC: 3.466 (Simulation time: 00 hr 03 min 49 sec)
Heartbeat CPU 0 instructions: 48000266 cycles: 13811777 heartbeat IPC: 4.738 cumulative IPC: 3.475 (Simulation time: 00 hr 03 min 51 sec)
Heartbeat CPU 0 instructions: 48500270 cycles: 13938660 heartbeat IPC: 3.941 cumulative IPC: 3.48 (Simulation time: 00 hr 03 min 53 sec)
Heartbeat CPU 0 instructions: 49000271 cycles: 14062872 heartbeat IPC: 4.025 cumulative IPC: 3.484 (Simulation time: 00 hr 03 min 55 sec)
Heartbeat CPU 0 instructions: 49500273 cycles: 14201982 heartbeat IPC: 3.594 cumulative IPC: 3.485 (Simulation time: 00 hr 03 min 57 sec)
Warmup finished CPU 0 instructions: 50000007 cycles: 14339768 cumulative IPC: 3.487 (Simulation time: 00 hr 04 min 00 sec)
Warmup complete CPU 0 instructions: 50000007 cycles: 14339768 cumulative IPC: 3.487 (Simulation time: 00 hr 04 min 00 sec)
Heartbeat CPU 0 instructions: 50000277 cycles: 14340363 heartbeat IPC: 3.613 cumulative IPC: 0.4538 (Simulation time: 00 hr 04 min 00 sec)
Heartbeat CPU 0 instructions: 50500277 cycles: 15004292 heartbeat IPC: 0.7531 cumulative IPC: 0.7528 (Simulation time: 00 hr 04 min 05 sec)
Heartbeat CPU 0 instructions: 51000279 cycles: 15654191 heartbeat IPC: 0.7694 cumulative IPC: 0.761 (Simulation time: 00 hr 04 min 10 sec)
Heartbeat CPU 0 instructions: 51500280 cycles: 16641524 heartbeat IPC: 0.5064 cumulative IPC: 0.6518 (Simulation time: 00 hr 04 min 19 sec)
Heartbeat CPU 0 instructions: 52000282 cycles: 17624489 heartbeat IPC: 0.5087 cumulative IPC: 0.609 (Simulation time: 00 hr 04 min 26 sec)
Heartbeat CPU 0 instructions: 52500287 cycles: 18137971 heartbeat IPC: 0.9738 cumulative IPC: 0.6583 (Simulation time: 00 hr 04 min 31 sec)
Heartbeat CPU 0 instructions: 53000292 cycles: 18607657 heartbeat IPC: 1.065 cumulative IPC: 0.703 (Simulation time: 00 hr 04 min 34 sec)
Heartbeat CPU 0 instructions: 53500296 cycles: 19555841 heartbeat IPC: 0.5273 cumulative IPC: 0.6711 (Simulation time: 00 hr 04 min 41 sec)
Heartbeat CPU 0 instructions: 54000299 cycles: 19839189 heartbeat IPC: 1.765 cumulative IPC: 0.7274 (Simulation time: 00 hr 04 min 44 sec)
Heartbeat CPU 0 instructions: 54500300 cycles: 20082166 heartbeat IPC: 2.058 cumulative IPC: 0.7837 (Simulation time: 00 hr 04 min 46 sec)
Heartbeat CPU 0 instructions: 55000307 cycles: 20976565 heartbeat IPC: 0.559 cumulative IPC: 0.7534 (Simulation time: 00 hr 04 min 53 sec)
Heartbeat CPU 0 instructions: 55500307 cycles: 21742089 heartbeat IPC: 0.6531 cumulative IPC: 0.7431 (Simulation time: 00 hr 04 min 59 sec)
Heartbeat CPU 0 instructions: 56000308 cycles: 22731956 heartbeat IPC: 0.5051 cumulative IPC: 0.715 (Simulation time: 00 hr 05 min 06 sec)
Heartbeat CPU 0 instructions: 56500311 cycles: 23662826 heartbeat IPC: 0.5371 cumulative IPC: 0.6972 (Simulation time: 00 hr 05 min 13 sec)
Heartbeat CPU 0 instructions: 57000311 cycles: 24227503 heartbeat IPC: 0.8855 cumulative IPC: 0.708 (Simulation time: 00 hr 05 min 18 sec)
Heartbeat CPU 0 instructions: 57500311 cycles: 25555621 heartbeat IPC: 0.3765 cumulative IPC: 0.6687 (Simulation time: 00 hr 05 min 27 sec)
Heartbeat CPU 0 instructions: 58000316 cycles: 26591310 heartbeat IPC: 0.4828 cumulative IPC: 0.653 (Simulation time: 00 hr 05 min 35 sec)
Heartbeat CPU 0 instructions: 58500320 cycles: 27283216 heartbeat IPC: 0.7226 cumulative IPC: 0.6567 (Simulation time: 00 hr 05 min 41 sec)
Heartbeat CPU 0 instructions: 59000322 cycles: 27868710 heartbeat IPC: 0.854 cumulative IPC: 0.6653 (Simulation time: 00 hr 05 min 46 sec)
Heartbeat CPU 0 instructions: 59500326 cycles: 28398644 heartbeat IPC: 0.9435 cumulative IPC: 0.6758 (Simulation time: 00 hr 05 min 51 sec)
Heartbeat CPU 0 instructions: 60000327 cycles: 28891323 heartbeat IPC: 1.015 cumulative IPC: 0.6872 (Simulation time: 00 hr 05 min 56 sec)
Heartbeat CPU 0 instructions: 60500327 cycles: 29339828 heartbeat IPC: 1.115 cumulative IPC: 0.7 (Simulation time: 00 hr 06 min 01 sec)
Heartbeat CPU 0 instructions: 61000327 cycles: 29887438 heartbeat IPC: 0.9131 cumulative IPC: 0.7075 (Simulation time: 00 hr 06 min 06 sec)
Heartbeat CPU 0 instructions: 61500331 cycles: 30241667 heartbeat IPC: 1.412 cumulative IPC: 0.7232 (Simulation time: 00 hr 06 min 09 sec)
Heartbeat CPU 0 instructions: 62000338 cycles: 30514576 heartbeat IPC: 1.832 cumulative IPC: 0.7419 (Simulation time: 00 hr 06 min 12 sec)
Heartbeat CPU 0 instructions: 62500345 cycles: 30795042 heartbeat IPC: 1.783 cumulative IPC: 0.7597 (Simulation time: 00 hr 06 min 15 sec)
Heartbeat CPU 0 instructions: 63000352 cycles: 31058065 heartbeat IPC: 1.901 cumulative IPC: 0.7776 (Simulation time: 00 hr 06 min 18 sec)
Heartbeat CPU 0 instructions: 63500352 cycles: 31320234 heartbeat IPC: 1.907 cumulative IPC: 0.7951 (Simulation time: 00 hr 06 min 20 sec)
Heartbeat CPU 0 instructions: 64000352 cycles: 31580377 heartbeat IPC: 1.922 cumulative IPC: 0.8121 (Simulation time: 00 hr 06 min 23 sec)
Heartbeat CPU 0 instructions: 64500352 cycles: 31847767 heartbeat IPC: 1.87 cumulative IPC: 0.8282 (Simulation time: 00 hr 06 min 26 sec)
Heartbeat CPU 0 instructions: 65000359 cycles: 32107895 heartbeat IPC: 1.922 cumulative IPC: 0.8442 (Simulation time: 00 hr 06 min 29 sec)
Heartbeat CPU 0 instructions: 65500359 cycles: 32360268 heartbeat IPC: 1.981 cumulative IPC: 0.8602 (Simulation time: 00 hr 06 min 31 sec)
Heartbeat CPU 0 instructions: 66000359 cycles: 32618509 heartbeat IPC: 1.936 cumulative IPC: 0.8754 (Simulation time: 00 hr 06 min 34 sec)
Heartbeat CPU 0 instructions: 66500359 cycles: 32879038 heartbeat IPC: 1.919 cumulative IPC: 0.89 (Simulation time: 00 hr 06 min 37 sec)
Heartbeat CPU 0 instructions: 67000365 cycles: 33163535 heartbeat IPC: 1.758 cumulative IPC: 0.9031 (Simulation time: 00 hr 06 min 40 sec)
Heartbeat CPU 0 instructions: 67500368 cycles: 33722355 heartbeat IPC: 0.8947 cumulative IPC: 0.9029 (Simulation time: 00 hr 06 min 46 sec)
Heartbeat CPU 0 instructions: 68000369 cycles: 34744805 heartbeat IPC: 0.489 cumulative IPC: 0.8822 (Simulation time: 00 hr 06 min 55 sec)
Heartbeat CPU 0 instructions: 68500371 cycles: 35273732 heartbeat IPC: 0.9453 cumulative IPC: 0.8837 (Simulation time: 00 hr 07 min 01 sec)
Heartbeat CPU 0 instructions: 69000373 cycles: 35632855 heartbeat IPC: 1.392 cumulative IPC: 0.8923 (Simulation time: 00 hr 07 min 05 sec)
Heartbeat CPU 0 instructions: 69500379 cycles: 35813597 heartbeat IPC: 2.766 cumulative IPC: 0.9081 (Simulation time: 00 hr 07 min 07 sec)
Heartbeat CPU 0 instructions: 70000382 cycles: 36216642 heartbeat IPC: 1.241 cumulative IPC: 0.9142 (Simulation time: 00 hr 07 min 11 sec)
Heartbeat CPU 0 instructions: 70500385 cycles: 36609705 heartbeat IPC: 1.272 cumulative IPC: 0.9205 (Simulation time: 00 hr 07 min 15 sec)
Heartbeat CPU 0 instructions: 71000389 cycles: 36879001 heartbeat IPC: 1.857 cumulative IPC: 0.9317 (Simulation time: 00 hr 07 min 17 sec)
Heartbeat CPU 0 instructions: 71500395 cycles: 37441270 heartbeat IPC: 0.8893 cumulative IPC: 0.9307 (Simulation time: 00 hr 07 min 23 sec)
Heartbeat CPU 0 instructions: 72000395 cycles: 38186878 heartbeat IPC: 0.6706 cumulative IPC: 0.9226 (Simulation time: 00 hr 07 min 29 sec)
Heartbeat CPU 0 instructions: 72500398 cycles: 38782021 heartbeat IPC: 0.8401 cumulative IPC: 0.9206 (Simulation time: 00 hr 07 min 35 sec)
Heartbeat CPU 0 instructions: 73000402 cycles: 39137559 heartbeat IPC: 1.406 cumulative IPC: 0.9275 (Simulation time: 00 hr 07 min 39 sec)
Heartbeat CPU 0 instructions: 73500407 cycles: 39463399 heartbeat IPC: 1.535 cumulative IPC: 0.9354 (Simulation time: 00 hr 07 min 42 sec)
Heartbeat CPU 0 instructions: 74000407 cycles: 39674257 heartbeat IPC: 2.371 cumulative IPC: 0.9473 (Simulation time: 00 hr 07 min 45 sec)
Heartbeat CPU 0 instructions: 74500409 cycles: 39933594 heartbeat IPC: 1.928 cumulative IPC: 0.9573 (Simulation time: 00 hr 07 min 48 sec)
Heartbeat CPU 0 instructions: 75000410 cycles: 40136807 heartbeat IPC: 2.46 cumulative IPC: 0.9691 (Simulation time: 00 hr 07 min 50 sec)
Heartbeat CPU 0 instructions: 75500412 cycles: 40456554 heartbeat IPC: 1.564 cumulative IPC: 0.9764 (Simulation time: 00 hr 07 min 54 sec)
Heartbeat CPU 0 instructions: 76000412 cycles: 40714010 heartbeat IPC: 1.942 cumulative IPC: 0.9858 (Simulation time: 00 hr 07 min 57 sec)
Heartbeat CPU 0 instructions: 76500416 cycles: 41008277 heartbeat IPC: 1.699 cumulative IPC: 0.9937 (Simulation time: 00 hr 08 min 00 sec)
Heartbeat CPU 0 instructions: 77000423 cycles: 41257886 heartbeat IPC: 2.003 cumulative IPC: 1.003 (Simulation time: 00 hr 08 min 03 sec)
Heartbeat CPU 0 instructions: 77500429 cycles: 42018395 heartbeat IPC: 0.6575 cumulative IPC: 0.9936 (Simulation time: 00 hr 08 min 09 sec)
Heartbeat CPU 0 instructions: 78000434 cycles: 42689211 heartbeat IPC: 0.7454 cumulative IPC: 0.9877 (Simulation time: 00 hr 08 min 14 sec)
Heartbeat CPU 0 instructions: 78500437 cycles: 43125325 heartbeat IPC: 1.146 cumulative IPC: 0.9901 (Simulation time: 00 hr 08 min 17 sec)
Heartbeat CPU 0 instructions: 79000440 cycles: 44047626 heartbeat IPC: 0.5421 cumulative IPC: 0.9762 (Simulation time: 00 hr 08 min 24 sec)
Heartbeat CPU 0 instructions: 79500440 cycles: 45107447 heartbeat IPC: 0.4718 cumulative IPC: 0.9588 (Simulation time: 00 hr 08 min 32 sec)
Heartbeat CPU 0 instructions: 80000441 cycles: 46296273 heartbeat IPC: 0.4206 cumulative IPC: 0.9388 (Simulation time: 00 hr 08 min 40 sec)
Heartbeat CPU 0 instructions: 80500441 cycles: 47259435 heartbeat IPC: 0.5191 cumulative IPC: 0.9265 (Simulation time: 00 hr 08 min 47 sec)
Heartbeat CPU 0 instructions: 81000446 cycles: 47809821 heartbeat IPC: 0.9085 cumulative IPC: 0.9262 (Simulation time: 00 hr 08 min 52 sec)
Heartbeat CPU 0 instructions: 81500448 cycles: 48580452 heartbeat IPC: 0.6488 cumulative IPC: 0.92 (Simulation time: 00 hr 08 min 57 sec)
Heartbeat CPU 0 instructions: 82000450 cycles: 49029359 heartbeat IPC: 1.114 cumulative IPC: 0.9225 (Simulation time: 00 hr 09 min 01 sec)
Heartbeat CPU 0 instructions: 82500450 cycles: 49495363 heartbeat IPC: 1.073 cumulative IPC: 0.9245 (Simulation time: 00 hr 09 min 05 sec)
Heartbeat CPU 0 instructions: 83000450 cycles: 50773316 heartbeat IPC: 0.3913 cumulative IPC: 0.9058 (Simulation time: 00 hr 09 min 16 sec)
Heartbeat CPU 0 instructions: 83500453 cycles: 51504816 heartbeat IPC: 0.6835 cumulative IPC: 0.9014 (Simulation time: 00 hr 09 min 22 sec)
Heartbeat CPU 0 instructions: 84000459 cycles: 52016442 heartbeat IPC: 0.9773 cumulative IPC: 0.9024 (Simulation time: 00 hr 09 min 26 sec)
Heartbeat CPU 0 instructions: 84500459 cycles: 52815046 heartbeat IPC: 0.6261 cumulative IPC: 0.8967 (Simulation time: 00 hr 09 min 32 sec)
Heartbeat CPU 0 instructions: 85000459 cycles: 53840695 heartbeat IPC: 0.4875 cumulative IPC: 0.8861 (Simulation time: 00 hr 09 min 39 sec)
Heartbeat CPU 0 instructions: 85500462 cycles: 54908587 heartbeat IPC: 0.4682 cumulative IPC: 0.8751 (Simulation time: 00 hr 09 min 47 sec)
Heartbeat CPU 0 instructions: 86000462 cycles: 55777557 heartbeat IPC: 0.5754 cumulative IPC: 0.8688 (Simulation time: 00 hr 09 min 53 sec)
Heartbeat CPU 0 instructions: 86500467 cycles: 56764849 heartbeat IPC: 0.5064 cumulative IPC: 0.8604 (Simulation time: 00 hr 10 min 00 sec)
Heartbeat CPU 0 instructions: 87000469 cycles: 57417018 heartbeat IPC: 0.7667 cumulative IPC: 0.8589 (Simulation time: 00 hr 10 min 05 sec)
Heartbeat CPU 0 instructions: 87500476 cycles: 58184801 heartbeat IPC: 0.6512 cumulative IPC: 0.8553 (Simulation time: 00 hr 10 min 11 sec)
Heartbeat CPU 0 instructions: 88000479 cycles: 59022731 heartbeat IPC: 0.5967 cumulative IPC: 0.8504 (Simulation time: 00 hr 10 min 18 sec)
Heartbeat CPU 0 instructions: 88500480 cycles: 59709566 heartbeat IPC: 0.728 cumulative IPC: 0.8486 (Simulation time: 00 hr 10 min 23 sec)
Heartbeat CPU 0 instructions: 89000486 cycles: 60571879 heartbeat IPC: 0.5798 cumulative IPC: 0.8436 (Simulation time: 00 hr 10 min 30 sec)
Heartbeat CPU 0 instructions: 89500488 cycles: 61699839 heartbeat IPC: 0.4433 cumulative IPC: 0.834 (Simulation time: 00 hr 10 min 38 sec)
Heartbeat CPU 0 instructions: 90000490 cycles: 62418307 heartbeat IPC: 0.6959 cumulative IPC: 0.832 (Simulation time: 00 hr 10 min 44 sec)
Heartbeat CPU 0 instructions: 90500490 cycles: 63389273 heartbeat IPC: 0.515 cumulative IPC: 0.8257 (Simulation time: 00 hr 10 min 50 sec)
Heartbeat CPU 0 instructions: 91000490 cycles: 64356355 heartbeat IPC: 0.517 cumulative IPC: 0.8197 (Simulation time: 00 hr 10 min 57 sec)
Heartbeat CPU 0 instructions: 91500492 cycles: 65169325 heartbeat IPC: 0.615 cumulative IPC: 0.8165 (Simulation time: 00 hr 11 min 03 sec)
Heartbeat CPU 0 instructions: 92000499 cycles: 66135015 heartbeat IPC: 0.5178 cumulative IPC: 0.8109 (Simulation time: 00 hr 11 min 11 sec)
Heartbeat CPU 0 instructions: 92500499 cycles: 66989590 heartbeat IPC: 0.5851 cumulative IPC: 0.8072 (Simulation time: 00 hr 11 min 17 sec)
Heartbeat CPU 0 instructions: 93000499 cycles: 67595873 heartbeat IPC: 0.8247 cumulative IPC: 0.8074 (Simulation time: 00 hr 11 min 22 sec)
Heartbeat CPU 0 instructions: 93500504 cycles: 68386901 heartbeat IPC: 0.6321 cumulative IPC: 0.8049 (Simulation time: 00 hr 11 min 28 sec)
Heartbeat CPU 0 instructions: 94000506 cycles: 69478306 heartbeat IPC: 0.4581 cumulative IPC: 0.798 (Simulation time: 00 hr 11 min 36 sec)
Heartbeat CPU 0 instructions: 94500506 cycles: 70387770 heartbeat IPC: 0.5498 cumulative IPC: 0.794 (Simulation time: 00 hr 11 min 43 sec)
Heartbeat CPU 0 instructions: 95000511 cycles: 71486203 heartbeat IPC: 0.4552 cumulative IPC: 0.7875 (Simulation time: 00 hr 11 min 51 sec)
Heartbeat CPU 0 instructions: 95500514 cycles: 72046747 heartbeat IPC: 0.892 cumulative IPC: 0.7885 (Simulation time: 00 hr 11 min 55 sec)
Heartbeat CPU 0 instructions: 96000519 cycles: 72487430 heartbeat IPC: 1.135 cumulative IPC: 0.7911 (Simulation time: 00 hr 11 min 59 sec)
Heartbeat CPU 0 instructions: 96500523 cycles: 73370711 heartbeat IPC: 0.5661 cumulative IPC: 0.7877 (Simulation time: 00 hr 12 min 06 sec)
Heartbeat CPU 0 instructions: 97000523 cycles: 73765913 heartbeat IPC: 1.265 cumulative IPC: 0.7909 (Simulation time: 00 hr 12 min 09 sec)
Heartbeat CPU 0 instructions: 97500528 cycles: 74069190 heartbeat IPC: 1.649 cumulative IPC: 0.7953 (Simulation time: 00 hr 12 min 12 sec)
Heartbeat CPU 0 instructions: 98000532 cycles: 74306175 heartbeat IPC: 2.11 cumulative IPC: 0.8005 (Simulation time: 00 hr 12 min 15 sec)
Heartbeat CPU 0 instructions: 98500536 cycles: 75079013 heartbeat IPC: 0.647 cumulative IPC: 0.7985 (Simulation time: 00 hr 12 min 20 sec)
Heartbeat CPU 0 instructions: 99000536 cycles: 75882637 heartbeat IPC: 0.6222 cumulative IPC: 0.7962 (Simulation time: 00 hr 12 min 26 sec)
Heartbeat CPU 0 instructions: 99500536 cycles: 76526128 heartbeat IPC: 0.777 cumulative IPC: 0.796 (Simulation time: 00 hr 12 min 31 sec)
Heartbeat CPU 0 instructions: 100000537 cycles: 77155451 heartbeat IPC: 0.7945 cumulative IPC: 0.796 (Simulation time: 00 hr 12 min 37 sec)
Heartbeat CPU 0 instructions: 100500538 cycles: 77619800 heartbeat IPC: 1.077 cumulative IPC: 0.798 (Simulation time: 00 hr 12 min 41 sec)
Heartbeat CPU 0 instructions: 101000539 cycles: 78463574 heartbeat IPC: 0.5926 cumulative IPC: 0.7953 (Simulation time: 00 hr 12 min 47 sec)
Heartbeat CPU 0 instructions: 101500539 cycles: 79391519 heartbeat IPC: 0.5388 cumulative IPC: 0.7917 (Simulation time: 00 hr 12 min 54 sec)
Heartbeat CPU 0 instructions: 102000544 cycles: 80250334 heartbeat IPC: 0.5822 cumulative IPC: 0.789 (Simulation time: 00 hr 13 min 00 sec)
Heartbeat CPU 0 instructions: 102500544 cycles: 80630739 heartbeat IPC: 1.314 cumulative IPC: 0.792 (Simulation time: 00 hr 13 min 03 sec)
Heartbeat CPU 0 instructions: 103000545 cycles: 82137999 heartbeat IPC: 0.3317 cumulative IPC: 0.7817 (Simulation time: 00 hr 13 min 15 sec)
Heartbeat CPU 0 instructions: 103500548 cycles: 82766842 heartbeat IPC: 0.7951 cumulative IPC: 0.7819 (Simulation time: 00 hr 13 min 20 sec)
Heartbeat CPU 0 instructions: 104000549 cycles: 83308897 heartbeat IPC: 0.9224 cumulative IPC: 0.783 (Simulation time: 00 hr 13 min 24 sec)
Heartbeat CPU 0 instructions: 104500549 cycles: 84310027 heartbeat IPC: 0.4994 cumulative IPC: 0.7789 (Simulation time: 00 hr 13 min 31 sec)
Heartbeat CPU 0 instructions: 105000553 cycles: 84556619 heartbeat IPC: 2.028 cumulative IPC: 0.7833 (Simulation time: 00 hr 13 min 34 sec)
Heartbeat CPU 0 instructions: 105500553 cycles: 84951150 heartbeat IPC: 1.267 cumulative IPC: 0.786 (Simulation time: 00 hr 13 min 37 sec)
Heartbeat CPU 0 instructions: 106000558 cycles: 85473254 heartbeat IPC: 0.9577 cumulative IPC: 0.7873 (Simulation time: 00 hr 13 min 41 sec)
Heartbeat CPU 0 instructions: 106500558 cycles: 86126854 heartbeat IPC: 0.765 cumulative IPC: 0.7871 (Simulation time: 00 hr 13 min 46 sec)
Heartbeat CPU 0 instructions: 107000558 cycles: 87042927 heartbeat IPC: 0.5458 cumulative IPC: 0.784 (Simulation time: 00 hr 13 min 53 sec)
Heartbeat CPU 0 instructions: 107500558 cycles: 87908291 heartbeat IPC: 0.5778 cumulative IPC: 0.7816 (Simulation time: 00 hr 14 min 00 sec)
Heartbeat CPU 0 instructions: 108000560 cycles: 88709625 heartbeat IPC: 0.624 cumulative IPC: 0.7799 (Simulation time: 00 hr 14 min 06 sec)
Heartbeat CPU 0 instructions: 108500567 cycles: 89201768 heartbeat IPC: 1.016 cumulative IPC: 0.7814 (Simulation time: 00 hr 14 min 10 sec)
Heartbeat CPU 0 instructions: 109000567 cycles: 90309385 heartbeat IPC: 0.4514 cumulative IPC: 0.7766 (Simulation time: 00 hr 14 min 18 sec)
Heartbeat CPU 0 instructions: 109500567 cycles: 90898630 heartbeat IPC: 0.8485 cumulative IPC: 0.7772 (Simulation time: 00 hr 14 min 23 sec)
Heartbeat CPU 0 instructions: 110000568 cycles: 91606753 heartbeat IPC: 0.7061 cumulative IPC: 0.7765 (Simulation time: 00 hr 14 min 28 sec)
Heartbeat CPU 0 instructions: 110500574 cycles: 92253175 heartbeat IPC: 0.7735 cumulative IPC: 0.7765 (Simulation time: 00 hr 14 min 33 sec)
Heartbeat CPU 0 instructions: 111000575 cycles: 92941476 heartbeat IPC: 0.7264 cumulative IPC: 0.7761 (Simulation time: 00 hr 14 min 38 sec)
Heartbeat CPU 0 instructions: 111500581 cycles: 93795461 heartbeat IPC: 0.5855 cumulative IPC: 0.774 (Simulation time: 00 hr 14 min 45 sec)
Heartbeat CPU 0 instructions: 112000582 cycles: 94519285 heartbeat IPC: 0.6908 cumulative IPC: 0.7733 (Simulation time: 00 hr 14 min 51 sec)
Heartbeat CPU 0 instructions: 112500587 cycles: 95272360 heartbeat IPC: 0.664 cumulative IPC: 0.7723 (Simulation time: 00 hr 14 min 57 sec)
Heartbeat CPU 0 instructions: 113000591 cycles: 95506008 heartbeat IPC: 2.14 cumulative IPC: 0.7762 (Simulation time: 00 hr 14 min 59 sec)
Heartbeat CPU 0 instructions: 113500597 cycles: 96442166 heartbeat IPC: 0.5341 cumulative IPC: 0.7734 (Simulation time: 00 hr 15 min 06 sec)
Heartbeat CPU 0 instructions: 114000597 cycles: 97439033 heartbeat IPC: 0.5016 cumulative IPC: 0.7702 (Simulation time: 00 hr 15 min 13 sec)
Heartbeat CPU 0 instructions: 114500597 cycles: 98163093 heartbeat IPC: 0.6906 cumulative IPC: 0.7695 (Simulation time: 00 hr 15 min 19 sec)
Heartbeat CPU 0 instructions: 115000601 cycles: 99003791 heartbeat IPC: 0.5947 cumulative IPC: 0.7677 (Simulation time: 00 hr 15 min 25 sec)
Heartbeat CPU 0 instructions: 115500607 cycles: 99928348 heartbeat IPC: 0.5408 cumulative IPC: 0.7653 (Simulation time: 00 hr 15 min 32 sec)
Heartbeat CPU 0 instructions: 116000608 cycles: 100575874 heartbeat IPC: 0.7722 cumulative IPC: 0.7653 (Simulation time: 00 hr 15 min 37 sec)
Heartbeat CPU 0 instructions: 116500611 cycles: 101259918 heartbeat IPC: 0.731 cumulative IPC: 0.7651 (Simulation time: 00 hr 15 min 43 sec)
Heartbeat CPU 0 instructions: 117000611 cycles: 101626737 heartbeat IPC: 1.363 cumulative IPC: 0.7676 (Simulation time: 00 hr 15 min 46 sec)
Heartbeat CPU 0 instructions: 117500615 cycles: 102506920 heartbeat IPC: 0.5681 cumulative IPC: 0.7656 (Simulation time: 00 hr 15 min 53 sec)
Heartbeat CPU 0 instructions: 118000617 cycles: 103468159 heartbeat IPC: 0.5202 cumulative IPC: 0.763 (Simulation time: 00 hr 16 min 00 sec)
Heartbeat CPU 0 instructions: 118500618 cycles: 104591332 heartbeat IPC: 0.4452 cumulative IPC: 0.759 (Simulation time: 00 hr 16 min 08 sec)
Heartbeat CPU 0 instructions: 119000619 cycles: 105548097 heartbeat IPC: 0.5226 cumulative IPC: 0.7565 (Simulation time: 00 hr 16 min 15 sec)
Heartbeat CPU 0 instructions: 119500619 cycles: 106338442 heartbeat IPC: 0.6326 cumulative IPC: 0.7555 (Simulation time: 00 hr 16 min 21 sec)
Heartbeat CPU 0 instructions: 120000621 cycles: 106888159 heartbeat IPC: 0.9096 cumulative IPC: 0.7564 (Simulation time: 00 hr 16 min 25 sec)
Heartbeat CPU 0 instructions: 120500627 cycles: 107802639 heartbeat IPC: 0.5468 cumulative IPC: 0.7543 (Simulation time: 00 hr 16 min 32 sec)
Heartbeat CPU 0 instructions: 121000629 cycles: 108625112 heartbeat IPC: 0.6079 cumulative IPC: 0.753 (Simulation time: 00 hr 16 min 38 sec)
Heartbeat CPU 0 instructions: 121500636 cycles: 108986394 heartbeat IPC: 1.384 cumulative IPC: 0.7554 (Simulation time: 00 hr 16 min 41 sec)
Heartbeat CPU 0 instructions: 122000637 cycles: 109427897 heartbeat IPC: 1.132 cumulative IPC: 0.7572 (Simulation time: 00 hr 16 min 45 sec)
Heartbeat CPU 0 instructions: 122500637 cycles: 109794097 heartbeat IPC: 1.365 cumulative IPC: 0.7595 (Simulation time: 00 hr 16 min 49 sec)
Heartbeat CPU 0 instructions: 123000639 cycles: 110298588 heartbeat IPC: 0.9911 cumulative IPC: 0.7607 (Simulation time: 00 hr 16 min 54 sec)
Heartbeat CPU 0 instructions: 123500644 cycles: 111762376 heartbeat IPC: 0.3416 cumulative IPC: 0.7545 (Simulation time: 00 hr 17 min 04 sec)
Heartbeat CPU 0 instructions: 124000644 cycles: 112720824 heartbeat IPC: 0.5217 cumulative IPC: 0.7522 (Simulation time: 00 hr 17 min 12 sec)
Heartbeat CPU 0 instructions: 124500646 cycles: 113398765 heartbeat IPC: 0.7375 cumulative IPC: 0.7521 (Simulation time: 00 hr 17 min 18 sec)
Heartbeat CPU 0 instructions: 125000650 cycles: 114120288 heartbeat IPC: 0.693 cumulative IPC: 0.7517 (Simulation time: 00 hr 17 min 26 sec)
Heartbeat CPU 0 instructions: 125500652 cycles: 114837320 heartbeat IPC: 0.6973 cumulative IPC: 0.7513 (Simulation time: 00 hr 17 min 33 sec)
Heartbeat CPU 0 instructions: 126000655 cycles: 115445292 heartbeat IPC: 0.8224 cumulative IPC: 0.7517 (Simulation time: 00 hr 17 min 40 sec)
Heartbeat CPU 0 instructions: 126500655 cycles: 116003558 heartbeat IPC: 0.8956 cumulative IPC: 0.7525 (Simulation time: 00 hr 17 min 45 sec)
Heartbeat CPU 0 instructions: 127000656 cycles: 116640011 heartbeat IPC: 0.7856 cumulative IPC: 0.7527 (Simulation time: 00 hr 17 min 52 sec)
Heartbeat CPU 0 instructions: 127500662 cycles: 117238471 heartbeat IPC: 0.8355 cumulative IPC: 0.7532 (Simulation time: 00 hr 17 min 58 sec)
Heartbeat CPU 0 instructions: 128000662 cycles: 117863327 heartbeat IPC: 0.8002 cumulative IPC: 0.7535 (Simulation time: 00 hr 18 min 04 sec)
Heartbeat CPU 0 instructions: 128500662 cycles: 118509816 heartbeat IPC: 0.7734 cumulative IPC: 0.7536 (Simulation time: 00 hr 18 min 12 sec)
Heartbeat CPU 0 instructions: 129000665 cycles: 119187658 heartbeat IPC: 0.7376 cumulative IPC: 0.7535 (Simulation time: 00 hr 18 min 19 sec)
Heartbeat CPU 0 instructions: 129500669 cycles: 120253692 heartbeat IPC: 0.469 cumulative IPC: 0.7506 (Simulation time: 00 hr 18 min 27 sec)
Heartbeat CPU 0 instructions: 130000674 cycles: 121359018 heartbeat IPC: 0.4524 cumulative IPC: 0.7475 (Simulation time: 00 hr 18 min 36 sec)
Heartbeat CPU 0 instructions: 130500675 cycles: 122503604 heartbeat IPC: 0.4368 cumulative IPC: 0.7442 (Simulation time: 00 hr 18 min 43 sec)
Heartbeat CPU 0 instructions: 131000681 cycles: 123486808 heartbeat IPC: 0.5085 cumulative IPC: 0.7421 (Simulation time: 00 hr 18 min 51 sec)
Heartbeat CPU 0 instructions: 131500681 cycles: 124451701 heartbeat IPC: 0.5182 cumulative IPC: 0.7402 (Simulation time: 00 hr 18 min 58 sec)
Heartbeat CPU 0 instructions: 132000686 cycles: 124958486 heartbeat IPC: 0.9866 cumulative IPC: 0.7413 (Simulation time: 00 hr 19 min 02 sec)
Heartbeat CPU 0 instructions: 132500688 cycles: 125396933 heartbeat IPC: 1.14 cumulative IPC: 0.7429 (Simulation time: 00 hr 19 min 06 sec)
Heartbeat CPU 0 instructions: 133000689 cycles: 125865292 heartbeat IPC: 1.068 cumulative IPC: 0.7442 (Simulation time: 00 hr 19 min 10 sec)
Heartbeat CPU 0 instructions: 133500689 cycles: 126969690 heartbeat IPC: 0.4527 cumulative IPC: 0.7414 (Simulation time: 00 hr 19 min 18 sec)
Heartbeat CPU 0 instructions: 134000690 cycles: 128034880 heartbeat IPC: 0.4694 cumulative IPC: 0.7388 (Simulation time: 00 hr 19 min 26 sec)
Heartbeat CPU 0 instructions: 134500690 cycles: 128942785 heartbeat IPC: 0.5507 cumulative IPC: 0.7373 (Simulation time: 00 hr 19 min 33 sec)
Heartbeat CPU 0 instructions: 135000696 cycles: 129841246 heartbeat IPC: 0.5565 cumulative IPC: 0.7359 (Simulation time: 00 hr 19 min 40 sec)
Heartbeat CPU 0 instructions: 135500698 cycles: 130983938 heartbeat IPC: 0.4376 cumulative IPC: 0.733 (Simulation time: 00 hr 19 min 47 sec)
Heartbeat CPU 0 instructions: 136000699 cycles: 131754978 heartbeat IPC: 0.6485 cumulative IPC: 0.7324 (Simulation time: 00 hr 19 min 53 sec)
Heartbeat CPU 0 instructions: 136500700 cycles: 132226206 heartbeat IPC: 1.061 cumulative IPC: 0.7338 (Simulation time: 00 hr 19 min 57 sec)
Heartbeat CPU 0 instructions: 137000700 cycles: 133346870 heartbeat IPC: 0.4462 cumulative IPC: 0.7311 (Simulation time: 00 hr 20 min 05 sec)
Heartbeat CPU 0 instructions: 137500700 cycles: 134225359 heartbeat IPC: 0.5692 cumulative IPC: 0.7299 (Simulation time: 00 hr 20 min 12 sec)
Heartbeat CPU 0 instructions: 138000707 cycles: 134650838 heartbeat IPC: 1.175 cumulative IPC: 0.7314 (Simulation time: 00 hr 20 min 15 sec)
Heartbeat CPU 0 instructions: 138500709 cycles: 134870795 heartbeat IPC: 2.273 cumulative IPC: 0.7343 (Simulation time: 00 hr 20 min 17 sec)
Heartbeat CPU 0 instructions: 139000716 cycles: 135200993 heartbeat IPC: 1.514 cumulative IPC: 0.7364 (Simulation time: 00 hr 20 min 20 sec)
Heartbeat CPU 0 instructions: 139500718 cycles: 135483707 heartbeat IPC: 1.769 cumulative IPC: 0.7388 (Simulation time: 00 hr 20 min 23 sec)
Heartbeat CPU 0 instructions: 140000718 cycles: 136164905 heartbeat IPC: 0.734 cumulative IPC: 0.7388 (Simulation time: 00 hr 20 min 28 sec)
Heartbeat CPU 0 instructions: 140500722 cycles: 136641398 heartbeat IPC: 1.049 cumulative IPC: 0.74 (Simulation time: 00 hr 20 min 33 sec)
Heartbeat CPU 0 instructions: 141000723 cycles: 137101157 heartbeat IPC: 1.088 cumulative IPC: 0.7413 (Simulation time: 00 hr 20 min 37 sec)
Heartbeat CPU 0 instructions: 141500723 cycles: 138320713 heartbeat IPC: 0.41 cumulative IPC: 0.738 (Simulation time: 00 hr 20 min 46 sec)
Heartbeat CPU 0 instructions: 142000725 cycles: 139022332 heartbeat IPC: 0.7126 cumulative IPC: 0.7379 (Simulation time: 00 hr 20 min 51 sec)
Heartbeat CPU 0 instructions: 142500727 cycles: 139738742 heartbeat IPC: 0.6979 cumulative IPC: 0.7377 (Simulation time: 00 hr 20 min 57 sec)
Heartbeat CPU 0 instructions: 143000730 cycles: 140455027 heartbeat IPC: 0.6981 cumulative IPC: 0.7374 (Simulation time: 00 hr 21 min 02 sec)
Heartbeat CPU 0 instructions: 143500735 cycles: 141210424 heartbeat IPC: 0.6619 cumulative IPC: 0.737 (Simulation time: 00 hr 21 min 08 sec)
Heartbeat CPU 0 instructions: 144000737 cycles: 142109160 heartbeat IPC: 0.5563 cumulative IPC: 0.7357 (Simulation time: 00 hr 21 min 14 sec)
Heartbeat CPU 0 instructions: 144500741 cycles: 143142990 heartbeat IPC: 0.4836 cumulative IPC: 0.7337 (Simulation time: 00 hr 21 min 22 sec)
Heartbeat CPU 0 instructions: 145000741 cycles: 143692786 heartbeat IPC: 0.9094 cumulative IPC: 0.7344 (Simulation time: 00 hr 21 min 27 sec)
Heartbeat CPU 0 instructions: 145500741 cycles: 144627663 heartbeat IPC: 0.5348 cumulative IPC: 0.733 (Simulation time: 00 hr 21 min 33 sec)
Heartbeat CPU 0 instructions: 146000745 cycles: 145281011 heartbeat IPC: 0.7653 cumulative IPC: 0.7332 (Simulation time: 00 hr 21 min 38 sec)
Heartbeat CPU 0 instructions: 146500747 cycles: 145553153 heartbeat IPC: 1.837 cumulative IPC: 0.7354 (Simulation time: 00 hr 21 min 41 sec)
Heartbeat CPU 0 instructions: 147000748 cycles: 145932932 heartbeat IPC: 1.317 cumulative IPC: 0.7371 (Simulation time: 00 hr 21 min 44 sec)
Heartbeat CPU 0 instructions: 147500751 cycles: 146145919 heartbeat IPC: 2.348 cumulative IPC: 0.7397 (Simulation time: 00 hr 21 min 46 sec)
Heartbeat CPU 0 instructions: 148000753 cycles: 146521390 heartbeat IPC: 1.332 cumulative IPC: 0.7414 (Simulation time: 00 hr 21 min 50 sec)
Heartbeat CPU 0 instructions: 148500757 cycles: 147430937 heartbeat IPC: 0.5497 cumulative IPC: 0.7401 (Simulation time: 00 hr 21 min 56 sec)
Heartbeat CPU 0 instructions: 149000760 cycles: 148706720 heartbeat IPC: 0.3919 cumulative IPC: 0.7368 (Simulation time: 00 hr 22 min 05 sec)
Heartbeat CPU 0 instructions: 149500761 cycles: 149100345 heartbeat IPC: 1.27 cumulative IPC: 0.7384 (Simulation time: 00 hr 22 min 09 sec)
Heartbeat CPU 0 instructions: 150000766 cycles: 149404734 heartbeat IPC: 1.643 cumulative IPC: 0.7404 (Simulation time: 00 hr 22 min 12 sec)
Heartbeat CPU 0 instructions: 150500766 cycles: 150047795 heartbeat IPC: 0.7775 cumulative IPC: 0.7406 (Simulation time: 00 hr 22 min 16 sec)
Heartbeat CPU 0 instructions: 151000769 cycles: 150907123 heartbeat IPC: 0.5819 cumulative IPC: 0.7396 (Simulation time: 00 hr 22 min 23 sec)
Heartbeat CPU 0 instructions: 151500769 cycles: 151592293 heartbeat IPC: 0.7297 cumulative IPC: 0.7395 (Simulation time: 00 hr 22 min 28 sec)
Heartbeat CPU 0 instructions: 152000771 cycles: 152112113 heartbeat IPC: 0.9619 cumulative IPC: 0.7404 (Simulation time: 00 hr 22 min 32 sec)
Heartbeat CPU 0 instructions: 152500773 cycles: 153075994 heartbeat IPC: 0.5187 cumulative IPC: 0.7388 (Simulation time: 00 hr 22 min 39 sec)
Heartbeat CPU 0 instructions: 153000773 cycles: 153603633 heartbeat IPC: 0.9476 cumulative IPC: 0.7396 (Simulation time: 00 hr 22 min 43 sec)
Heartbeat CPU 0 instructions: 153500773 cycles: 154484860 heartbeat IPC: 0.5674 cumulative IPC: 0.7385 (Simulation time: 00 hr 22 min 50 sec)
Heartbeat CPU 0 instructions: 154000779 cycles: 155139173 heartbeat IPC: 0.7642 cumulative IPC: 0.7386 (Simulation time: 00 hr 22 min 55 sec)
Heartbeat CPU 0 instructions: 154500779 cycles: 155817561 heartbeat IPC: 0.737 cumulative IPC: 0.7386 (Simulation time: 00 hr 23 min 00 sec)
Heartbeat CPU 0 instructions: 155000782 cycles: 157144613 heartbeat IPC: 0.3768 cumulative IPC: 0.7353 (Simulation time: 00 hr 23 min 09 sec)
Heartbeat CPU 0 instructions: 155500783 cycles: 158137275 heartbeat IPC: 0.5037 cumulative IPC: 0.7337 (Simulation time: 00 hr 23 min 16 sec)
Heartbeat CPU 0 instructions: 156000785 cycles: 159126157 heartbeat IPC: 0.5056 cumulative IPC: 0.7321 (Simulation time: 00 hr 23 min 23 sec)
Heartbeat CPU 0 instructions: 156500785 cycles: 160069619 heartbeat IPC: 0.53 cumulative IPC: 0.7308 (Simulation time: 00 hr 23 min 30 sec)
Heartbeat CPU 0 instructions: 157000787 cycles: 160961459 heartbeat IPC: 0.5606 cumulative IPC: 0.7298 (Simulation time: 00 hr 23 min 36 sec)
Heartbeat CPU 0 instructions: 157500789 cycles: 162008053 heartbeat IPC: 0.4777 cumulative IPC: 0.728 (Simulation time: 00 hr 23 min 43 sec)
Heartbeat CPU 0 instructions: 158000790 cycles: 162634070 heartbeat IPC: 0.7987 cumulative IPC: 0.7283 (Simulation time: 00 hr 23 min 47 sec)
Heartbeat CPU 0 instructions: 158500790 cycles: 163355753 heartbeat IPC: 0.6928 cumulative IPC: 0.7281 (Simulation time: 00 hr 23 min 53 sec)
Heartbeat CPU 0 instructions: 159000790 cycles: 164133631 heartbeat IPC: 0.6428 cumulative IPC: 0.7277 (Simulation time: 00 hr 23 min 58 sec)
Heartbeat CPU 0 instructions: 159500793 cycles: 165037783 heartbeat IPC: 0.553 cumulative IPC: 0.7266 (Simulation time: 00 hr 24 min 04 sec)
Heartbeat CPU 0 instructions: 160000794 cycles: 165733686 heartbeat IPC: 0.7185 cumulative IPC: 0.7266 (Simulation time: 00 hr 24 min 09 sec)
Heartbeat CPU 0 instructions: 160500794 cycles: 166499917 heartbeat IPC: 0.6525 cumulative IPC: 0.7262 (Simulation time: 00 hr 24 min 15 sec)
Heartbeat CPU 0 instructions: 161000796 cycles: 166852841 heartbeat IPC: 1.417 cumulative IPC: 0.7278 (Simulation time: 00 hr 24 min 18 sec)
Heartbeat CPU 0 instructions: 161500796 cycles: 167550535 heartbeat IPC: 0.7166 cumulative IPC: 0.7278 (Simulation time: 00 hr 24 min 22 sec)
Heartbeat CPU 0 instructions: 162000796 cycles: 168629820 heartbeat IPC: 0.4633 cumulative IPC: 0.7259 (Simulation time: 00 hr 24 min 30 sec)
Heartbeat CPU 0 instructions: 162500800 cycles: 169908613 heartbeat IPC: 0.391 cumulative IPC: 0.7232 (Simulation time: 00 hr 24 min 39 sec)
Heartbeat CPU 0 instructions: 163000807 cycles: 170930832 heartbeat IPC: 0.4891 cumulative IPC: 0.7216 (Simulation time: 00 hr 24 min 46 sec)
Heartbeat CPU 0 instructions: 163500807 cycles: 171567289 heartbeat IPC: 0.7856 cumulative IPC: 0.7219 (Simulation time: 00 hr 24 min 51 sec)
Heartbeat CPU 0 instructions: 164000809 cycles: 172359901 heartbeat IPC: 0.6308 cumulative IPC: 0.7214 (Simulation time: 00 hr 24 min 56 sec)
Heartbeat CPU 0 instructions: 164500810 cycles: 173711770 heartbeat IPC: 0.3699 cumulative IPC: 0.7184 (Simulation time: 00 hr 25 min 05 sec)
Heartbeat CPU 0 instructions: 165000810 cycles: 174345147 heartbeat IPC: 0.7894 cumulative IPC: 0.7187 (Simulation time: 00 hr 25 min 10 sec)
Heartbeat CPU 0 instructions: 165500812 cycles: 175354776 heartbeat IPC: 0.4952 cumulative IPC: 0.7173 (Simulation time: 00 hr 25 min 16 sec)
Heartbeat CPU 0 instructions: 166000813 cycles: 176150765 heartbeat IPC: 0.6282 cumulative IPC: 0.7169 (Simulation time: 00 hr 25 min 22 sec)
Heartbeat CPU 0 instructions: 166500815 cycles: 177093423 heartbeat IPC: 0.5304 cumulative IPC: 0.7158 (Simulation time: 00 hr 25 min 28 sec)
Heartbeat CPU 0 instructions: 167000815 cycles: 177573210 heartbeat IPC: 1.042 cumulative IPC: 0.7168 (Simulation time: 00 hr 25 min 32 sec)
Heartbeat CPU 0 instructions: 167500815 cycles: 178129760 heartbeat IPC: 0.8984 cumulative IPC: 0.7174 (Simulation time: 00 hr 25 min 36 sec)
Heartbeat CPU 0 instructions: 168000821 cycles: 178430570 heartbeat IPC: 1.662 cumulative IPC: 0.7191 (Simulation time: 00 hr 25 min 39 sec)
Heartbeat CPU 0 instructions: 168500828 cycles: 179236485 heartbeat IPC: 0.6204 cumulative IPC: 0.7186 (Simulation time: 00 hr 25 min 45 sec)
Heartbeat CPU 0 instructions: 169000832 cycles: 179883912 heartbeat IPC: 0.7723 cumulative IPC: 0.7188 (Simulation time: 00 hr 25 min 49 sec)
Heartbeat CPU 0 instructions: 169500837 cycles: 180645392 heartbeat IPC: 0.6566 cumulative IPC: 0.7186 (Simulation time: 00 hr 25 min 55 sec)
Heartbeat CPU 0 instructions: 170000840 cycles: 181365595 heartbeat IPC: 0.6943 cumulative IPC: 0.7185 (Simulation time: 00 hr 26 min 00 sec)
Heartbeat CPU 0 instructions: 170500842 cycles: 181967586 heartbeat IPC: 0.8306 cumulative IPC: 0.7189 (Simulation time: 00 hr 26 min 04 sec)
Heartbeat CPU 0 instructions: 171000849 cycles: 182590184 heartbeat IPC: 0.8031 cumulative IPC: 0.7192 (Simulation time: 00 hr 26 min 08 sec)
Heartbeat CPU 0 instructions: 171500850 cycles: 183317265 heartbeat IPC: 0.6877 cumulative IPC: 0.719 (Simulation time: 00 hr 26 min 13 sec)
Heartbeat CPU 0 instructions: 172000855 cycles: 184217707 heartbeat IPC: 0.5553 cumulative IPC: 0.7182 (Simulation time: 00 hr 26 min 20 sec)
Heartbeat CPU 0 instructions: 172500855 cycles: 185070590 heartbeat IPC: 0.5862 cumulative IPC: 0.7175 (Simulation time: 00 hr 26 min 25 sec)
Heartbeat CPU 0 instructions: 173000855 cycles: 186095434 heartbeat IPC: 0.4879 cumulative IPC: 0.7161 (Simulation time: 00 hr 26 min 32 sec)
Heartbeat CPU 0 instructions: 173500856 cycles: 186744863 heartbeat IPC: 0.7699 cumulative IPC: 0.7163 (Simulation time: 00 hr 26 min 36 sec)
Heartbeat CPU 0 instructions: 174000856 cycles: 187383546 heartbeat IPC: 0.7829 cumulative IPC: 0.7166 (Simulation time: 00 hr 26 min 41 sec)
Heartbeat CPU 0 instructions: 174500857 cycles: 188446246 heartbeat IPC: 0.4705 cumulative IPC: 0.7151 (Simulation time: 00 hr 26 min 48 sec)
Heartbeat CPU 0 instructions: 175000857 cycles: 189502656 heartbeat IPC: 0.4733 cumulative IPC: 0.7136 (Simulation time: 00 hr 26 min 55 sec)
Heartbeat CPU 0 instructions: 175500857 cycles: 190146883 heartbeat IPC: 0.7761 cumulative IPC: 0.7139 (Simulation time: 00 hr 26 min 59 sec)
Heartbeat CPU 0 instructions: 176000859 cycles: 190808885 heartbeat IPC: 0.7553 cumulative IPC: 0.714 (Simulation time: 00 hr 27 min 04 sec)
Heartbeat CPU 0 instructions: 176500860 cycles: 191649969 heartbeat IPC: 0.5945 cumulative IPC: 0.7134 (Simulation time: 00 hr 27 min 10 sec)
Heartbeat CPU 0 instructions: 177000861 cycles: 192585595 heartbeat IPC: 0.5344 cumulative IPC: 0.7125 (Simulation time: 00 hr 27 min 16 sec)
Heartbeat CPU 0 instructions: 177500863 cycles: 193552249 heartbeat IPC: 0.5173 cumulative IPC: 0.7115 (Simulation time: 00 hr 27 min 22 sec)
Heartbeat CPU 0 instructions: 178000863 cycles: 194405214 heartbeat IPC: 0.5862 cumulative IPC: 0.7109 (Simulation time: 00 hr 27 min 28 sec)
Heartbeat CPU 0 instructions: 178500865 cycles: 195123800 heartbeat IPC: 0.6958 cumulative IPC: 0.7108 (Simulation time: 00 hr 27 min 33 sec)
Heartbeat CPU 0 instructions: 179000865 cycles: 195498090 heartbeat IPC: 1.336 cumulative IPC: 0.7121 (Simulation time: 00 hr 27 min 36 sec)
Heartbeat CPU 0 instructions: 179500865 cycles: 195859022 heartbeat IPC: 1.385 cumulative IPC: 0.7134 (Simulation time: 00 hr 27 min 39 sec)
Heartbeat CPU 0 instructions: 180000870 cycles: 196283078 heartbeat IPC: 1.179 cumulative IPC: 0.7145 (Simulation time: 00 hr 27 min 43 sec)
Heartbeat CPU 0 instructions: 180500870 cycles: 196702831 heartbeat IPC: 1.191 cumulative IPC: 0.7156 (Simulation time: 00 hr 27 min 46 sec)
Heartbeat CPU 0 instructions: 181000873 cycles: 197042857 heartbeat IPC: 1.47 cumulative IPC: 0.717 (Simulation time: 00 hr 27 min 49 sec)
Heartbeat CPU 0 instructions: 181500875 cycles: 198291009 heartbeat IPC: 0.4006 cumulative IPC: 0.7149 (Simulation time: 00 hr 27 min 58 sec)
Heartbeat CPU 0 instructions: 182000880 cycles: 199143944 heartbeat IPC: 0.5862 cumulative IPC: 0.7143 (Simulation time: 00 hr 28 min 04 sec)
Heartbeat CPU 0 instructions: 182500880 cycles: 199804269 heartbeat IPC: 0.7572 cumulative IPC: 0.7144 (Simulation time: 00 hr 28 min 08 sec)
Heartbeat CPU 0 instructions: 183000885 cycles: 200748374 heartbeat IPC: 0.5296 cumulative IPC: 0.7135 (Simulation time: 00 hr 28 min 15 sec)
Heartbeat CPU 0 instructions: 183500888 cycles: 201487356 heartbeat IPC: 0.6766 cumulative IPC: 0.7133 (Simulation time: 00 hr 28 min 20 sec)
Heartbeat CPU 0 instructions: 184000894 cycles: 202296677 heartbeat IPC: 0.6178 cumulative IPC: 0.7129 (Simulation time: 00 hr 28 min 25 sec)
Heartbeat CPU 0 instructions: 184500898 cycles: 203199938 heartbeat IPC: 0.5536 cumulative IPC: 0.7122 (Simulation time: 00 hr 28 min 31 sec)
Heartbeat CPU 0 instructions: 185000900 cycles: 204154689 heartbeat IPC: 0.5237 cumulative IPC: 0.7112 (Simulation time: 00 hr 28 min 37 sec)
Heartbeat CPU 0 instructions: 185500906 cycles: 204707452 heartbeat IPC: 0.9046 cumulative IPC: 0.7118 (Simulation time: 00 hr 28 min 41 sec)
Heartbeat CPU 0 instructions: 186000912 cycles: 205361274 heartbeat IPC: 0.7647 cumulative IPC: 0.712 (Simulation time: 00 hr 28 min 46 sec)
Heartbeat CPU 0 instructions: 186500912 cycles: 205960906 heartbeat IPC: 0.8338 cumulative IPC: 0.7123 (Simulation time: 00 hr 28 min 50 sec)
Heartbeat CPU 0 instructions: 187000913 cycles: 206540797 heartbeat IPC: 0.8622 cumulative IPC: 0.7128 (Simulation time: 00 hr 28 min 54 sec)
Heartbeat CPU 0 instructions: 187500919 cycles: 206867417 heartbeat IPC: 1.531 cumulative IPC: 0.7142 (Simulation time: 00 hr 28 min 57 sec)
Heartbeat CPU 0 instructions: 188000923 cycles: 207048614 heartbeat IPC: 2.759 cumulative IPC: 0.7161 (Simulation time: 00 hr 28 min 59 sec)
Heartbeat CPU 0 instructions: 188500924 cycles: 207464222 heartbeat IPC: 1.203 cumulative IPC: 0.7172 (Simulation time: 00 hr 29 min 02 sec)
Heartbeat CPU 0 instructions: 189000925 cycles: 207727231 heartbeat IPC: 1.901 cumulative IPC: 0.7188 (Simulation time: 00 hr 29 min 04 sec)
Heartbeat CPU 0 instructions: 189500927 cycles: 208515123 heartbeat IPC: 0.6346 cumulative IPC: 0.7184 (Simulation time: 00 hr 29 min 10 sec)
Heartbeat CPU 0 instructions: 190000932 cycles: 209455581 heartbeat IPC: 0.5317 cumulative IPC: 0.7175 (Simulation time: 00 hr 29 min 16 sec)
Heartbeat CPU 0 instructions: 190500934 cycles: 210071975 heartbeat IPC: 0.8112 cumulative IPC: 0.7178 (Simulation time: 00 hr 29 min 20 sec)
Heartbeat CPU 0 instructions: 191000941 cycles: 210433822 heartbeat IPC: 1.382 cumulative IPC: 0.719 (Simulation time: 00 hr 29 min 23 sec)
Heartbeat CPU 0 instructions: 191500943 cycles: 211234953 heartbeat IPC: 0.6241 cumulative IPC: 0.7187 (Simulation time: 00 hr 29 min 28 sec)
Heartbeat CPU 0 instructions: 192000944 cycles: 211749799 heartbeat IPC: 0.9712 cumulative IPC: 0.7193 (Simulation time: 00 hr 29 min 32 sec)
Heartbeat CPU 0 instructions: 192500944 cycles: 212401621 heartbeat IPC: 0.7671 cumulative IPC: 0.7195 (Simulation time: 00 hr 29 min 37 sec)
Heartbeat CPU 0 instructions: 193000944 cycles: 213441632 heartbeat IPC: 0.4808 cumulative IPC: 0.7182 (Simulation time: 00 hr 29 min 43 sec)
Heartbeat CPU 0 instructions: 193500946 cycles: 214350054 heartbeat IPC: 0.5504 cumulative IPC: 0.7175 (Simulation time: 00 hr 29 min 49 sec)
Heartbeat CPU 0 instructions: 194000946 cycles: 215442813 heartbeat IPC: 0.4576 cumulative IPC: 0.7161 (Simulation time: 00 hr 29 min 56 sec)
Heartbeat CPU 0 instructions: 194500948 cycles: 216345926 heartbeat IPC: 0.5536 cumulative IPC: 0.7153 (Simulation time: 00 hr 30 min 02 sec)
Heartbeat CPU 0 instructions: 195000951 cycles: 217213260 heartbeat IPC: 0.5765 cumulative IPC: 0.7147 (Simulation time: 00 hr 30 min 07 sec)
Heartbeat CPU 0 instructions: 195500952 cycles: 217563368 heartbeat IPC: 1.428 cumulative IPC: 0.716 (Simulation time: 00 hr 30 min 10 sec)
Heartbeat CPU 0 instructions: 196000953 cycles: 217913120 heartbeat IPC: 1.43 cumulative IPC: 0.7172 (Simulation time: 00 hr 30 min 13 sec)
Heartbeat CPU 0 instructions: 196500953 cycles: 218266267 heartbeat IPC: 1.416 cumulative IPC: 0.7184 (Simulation time: 00 hr 30 min 15 sec)
Heartbeat CPU 0 instructions: 197000958 cycles: 218579602 heartbeat IPC: 1.596 cumulative IPC: 0.7197 (Simulation time: 00 hr 30 min 18 sec)
Heartbeat CPU 0 instructions: 197500961 cycles: 218896485 heartbeat IPC: 1.578 cumulative IPC: 0.7211 (Simulation time: 00 hr 30 min 20 sec)
Heartbeat CPU 0 instructions: 198000962 cycles: 219212825 heartbeat IPC: 1.581 cumulative IPC: 0.7224 (Simulation time: 00 hr 30 min 23 sec)
Heartbeat CPU 0 instructions: 198500969 cycles: 219531469 heartbeat IPC: 1.569 cumulative IPC: 0.7237 (Simulation time: 00 hr 30 min 26 sec)
Heartbeat CPU 0 instructions: 199000976 cycles: 219902022 heartbeat IPC: 1.349 cumulative IPC: 0.7248 (Simulation time: 00 hr 30 min 28 sec)
Heartbeat CPU 0 instructions: 199500976 cycles: 221122981 heartbeat IPC: 0.4095 cumulative IPC: 0.723 (Simulation time: 00 hr 30 min 37 sec)
Heartbeat CPU 0 instructions: 200000977 cycles: 222171987 heartbeat IPC: 0.4766 cumulative IPC: 0.7217 (Simulation time: 00 hr 30 min 43 sec)
Heartbeat CPU 0 instructions: 200500977 cycles: 222968617 heartbeat IPC: 0.6276 cumulative IPC: 0.7214 (Simulation time: 00 hr 30 min 49 sec)
Heartbeat CPU 0 instructions: 201000977 cycles: 223834511 heartbeat IPC: 0.5774 cumulative IPC: 0.7208 (Simulation time: 00 hr 30 min 54 sec)
Heartbeat CPU 0 instructions: 201500980 cycles: 224692243 heartbeat IPC: 0.5829 cumulative IPC: 0.7202 (Simulation time: 00 hr 31 min 00 sec)
Heartbeat CPU 0 instructions: 202000981 cycles: 225262947 heartbeat IPC: 0.8761 cumulative IPC: 0.7206 (Simulation time: 00 hr 31 min 04 sec)
Heartbeat CPU 0 instructions: 202500985 cycles: 225984079 heartbeat IPC: 0.6934 cumulative IPC: 0.7206 (Simulation time: 00 hr 31 min 09 sec)
Heartbeat CPU 0 instructions: 203000990 cycles: 227148463 heartbeat IPC: 0.4294 cumulative IPC: 0.719 (Simulation time: 00 hr 31 min 17 sec)
Heartbeat CPU 0 instructions: 203500991 cycles: 228389709 heartbeat IPC: 0.4028 cumulative IPC: 0.7171 (Simulation time: 00 hr 31 min 26 sec)
Heartbeat CPU 0 instructions: 204000994 cycles: 229543625 heartbeat IPC: 0.4333 cumulative IPC: 0.7156 (Simulation time: 00 hr 31 min 33 sec)
Heartbeat CPU 0 instructions: 204500995 cycles: 230341744 heartbeat IPC: 0.6265 cumulative IPC: 0.7153 (Simulation time: 00 hr 31 min 38 sec)
Heartbeat CPU 0 instructions: 205001002 cycles: 231190345 heartbeat IPC: 0.5892 cumulative IPC: 0.7148 (Simulation time: 00 hr 31 min 44 sec)
Heartbeat CPU 0 instructions: 205501002 cycles: 232072505 heartbeat IPC: 0.5668 cumulative IPC: 0.7142 (Simulation time: 00 hr 31 min 49 sec)
Heartbeat CPU 0 instructions: 206001003 cycles: 233132033 heartbeat IPC: 0.4719 cumulative IPC: 0.713 (Simulation time: 00 hr 31 min 56 sec)
Heartbeat CPU 0 instructions: 206501010 cycles: 233926156 heartbeat IPC: 0.6296 cumulative IPC: 0.7127 (Simulation time: 00 hr 32 min 01 sec)
Heartbeat CPU 0 instructions: 207001013 cycles: 234249362 heartbeat IPC: 1.547 cumulative IPC: 0.7139 (Simulation time: 00 hr 32 min 04 sec)
Heartbeat CPU 0 instructions: 207501017 cycles: 234702539 heartbeat IPC: 1.103 cumulative IPC: 0.7147 (Simulation time: 00 hr 32 min 08 sec)
Heartbeat CPU 0 instructions: 208001017 cycles: 235039941 heartbeat IPC: 1.482 cumulative IPC: 0.7159 (Simulation time: 00 hr 32 min 11 sec)
Heartbeat CPU 0 instructions: 208501017 cycles: 235670972 heartbeat IPC: 0.7924 cumulative IPC: 0.7161 (Simulation time: 00 hr 32 min 16 sec)
Heartbeat CPU 0 instructions: 209001021 cycles: 236381928 heartbeat IPC: 0.7033 cumulative IPC: 0.7161 (Simulation time: 00 hr 32 min 20 sec)
Heartbeat CPU 0 instructions: 209501024 cycles: 237728329 heartbeat IPC: 0.3714 cumulative IPC: 0.714 (Simulation time: 00 hr 32 min 30 sec)
Heartbeat CPU 0 instructions: 210001029 cycles: 238569858 heartbeat IPC: 0.5942 cumulative IPC: 0.7136 (Simulation time: 00 hr 32 min 36 sec)
Heartbeat CPU 0 instructions: 210501032 cycles: 239525939 heartbeat IPC: 0.523 cumulative IPC: 0.7127 (Simulation time: 00 hr 32 min 42 sec)
Heartbeat CPU 0 instructions: 211001033 cycles: 240821899 heartbeat IPC: 0.3858 cumulative IPC: 0.7109 (Simulation time: 00 hr 32 min 50 sec)
Heartbeat CPU 0 instructions: 211501033 cycles: 241514881 heartbeat IPC: 0.7215 cumulative IPC: 0.7109 (Simulation time: 00 hr 32 min 55 sec)
Heartbeat CPU 0 instructions: 212001036 cycles: 242730517 heartbeat IPC: 0.4113 cumulative IPC: 0.7093 (Simulation time: 00 hr 33 min 02 sec)
Heartbeat CPU 0 instructions: 212501036 cycles: 243276709 heartbeat IPC: 0.9154 cumulative IPC: 0.7098 (Simulation time: 00 hr 33 min 06 sec)
Heartbeat CPU 0 instructions: 213001039 cycles: 244323752 heartbeat IPC: 0.4775 cumulative IPC: 0.7087 (Simulation time: 00 hr 33 min 13 sec)
Heartbeat CPU 0 instructions: 213501041 cycles: 245201755 heartbeat IPC: 0.5695 cumulative IPC: 0.7082 (Simulation time: 00 hr 33 min 18 sec)
Heartbeat CPU 0 instructions: 214001043 cycles: 245677123 heartbeat IPC: 1.052 cumulative IPC: 0.7089 (Simulation time: 00 hr 33 min 22 sec)
Heartbeat CPU 0 instructions: 214501044 cycles: 246209257 heartbeat IPC: 0.9396 cumulative IPC: 0.7095 (Simulation time: 00 hr 33 min 26 sec)
Heartbeat CPU 0 instructions: 215001044 cycles: 246759217 heartbeat IPC: 0.9092 cumulative IPC: 0.7099 (Simulation time: 00 hr 33 min 30 sec)
Heartbeat CPU 0 instructions: 215501044 cycles: 247534914 heartbeat IPC: 0.6446 cumulative IPC: 0.7097 (Simulation time: 00 hr 33 min 35 sec)
Heartbeat CPU 0 instructions: 216001046 cycles: 248466743 heartbeat IPC: 0.5366 cumulative IPC: 0.709 (Simulation time: 00 hr 33 min 41 sec)
Heartbeat CPU 0 instructions: 216501046 cycles: 249487389 heartbeat IPC: 0.4899 cumulative IPC: 0.7081 (Simulation time: 00 hr 33 min 47 sec)
Heartbeat CPU 0 instructions: 217001046 cycles: 250444003 heartbeat IPC: 0.5227 cumulative IPC: 0.7073 (Simulation time: 00 hr 33 min 53 sec)
Heartbeat CPU 0 instructions: 217501049 cycles: 251221467 heartbeat IPC: 0.6431 cumulative IPC: 0.7071 (Simulation time: 00 hr 33 min 58 sec)
Heartbeat CPU 0 instructions: 218001049 cycles: 252209675 heartbeat IPC: 0.506 cumulative IPC: 0.7063 (Simulation time: 00 hr 34 min 05 sec)
Heartbeat CPU 0 instructions: 218501049 cycles: 253060355 heartbeat IPC: 0.5878 cumulative IPC: 0.7059 (Simulation time: 00 hr 34 min 10 sec)
Heartbeat CPU 0 instructions: 219001052 cycles: 254034677 heartbeat IPC: 0.5132 cumulative IPC: 0.7051 (Simulation time: 00 hr 34 min 16 sec)
Heartbeat CPU 0 instructions: 219501052 cycles: 254776700 heartbeat IPC: 0.6738 cumulative IPC: 0.705 (Simulation time: 00 hr 34 min 21 sec)
Heartbeat CPU 0 instructions: 220001053 cycles: 255592253 heartbeat IPC: 0.6131 cumulative IPC: 0.7047 (Simulation time: 00 hr 34 min 26 sec)
Heartbeat CPU 0 instructions: 220501053 cycles: 256353077 heartbeat IPC: 0.6572 cumulative IPC: 0.7045 (Simulation time: 00 hr 34 min 31 sec)
Heartbeat CPU 0 instructions: 221001053 cycles: 257297688 heartbeat IPC: 0.5293 cumulative IPC: 0.7038 (Simulation time: 00 hr 34 min 37 sec)
Heartbeat CPU 0 instructions: 221501054 cycles: 258086857 heartbeat IPC: 0.6336 cumulative IPC: 0.7036 (Simulation time: 00 hr 34 min 43 sec)
Heartbeat CPU 0 instructions: 222001060 cycles: 258624093 heartbeat IPC: 0.9307 cumulative IPC: 0.7041 (Simulation time: 00 hr 34 min 46 sec)
Heartbeat CPU 0 instructions: 222501065 cycles: 259170872 heartbeat IPC: 0.9145 cumulative IPC: 0.7046 (Simulation time: 00 hr 34 min 51 sec)
Heartbeat CPU 0 instructions: 223001068 cycles: 260022241 heartbeat IPC: 0.5873 cumulative IPC: 0.7042 (Simulation time: 00 hr 34 min 56 sec)
Heartbeat CPU 0 instructions: 223501068 cycles: 260902138 heartbeat IPC: 0.5682 cumulative IPC: 0.7037 (Simulation time: 00 hr 35 min 02 sec)
Heartbeat CPU 0 instructions: 224001069 cycles: 261853151 heartbeat IPC: 0.5258 cumulative IPC: 0.703 (Simulation time: 00 hr 35 min 08 sec)
Heartbeat CPU 0 instructions: 224501070 cycles: 262569180 heartbeat IPC: 0.6983 cumulative IPC: 0.703 (Simulation time: 00 hr 35 min 13 sec)
Heartbeat CPU 0 instructions: 225001070 cycles: 263901833 heartbeat IPC: 0.3752 cumulative IPC: 0.7012 (Simulation time: 00 hr 35 min 22 sec)
Heartbeat CPU 0 instructions: 225501070 cycles: 264580365 heartbeat IPC: 0.7369 cumulative IPC: 0.7013 (Simulation time: 00 hr 35 min 28 sec)
Heartbeat CPU 0 instructions: 226001071 cycles: 265182181 heartbeat IPC: 0.8308 cumulative IPC: 0.7016 (Simulation time: 00 hr 35 min 33 sec)
Heartbeat CPU 0 instructions: 226501076 cycles: 265713909 heartbeat IPC: 0.9403 cumulative IPC: 0.7021 (Simulation time: 00 hr 35 min 38 sec)
Heartbeat CPU 0 instructions: 227001076 cycles: 266234241 heartbeat IPC: 0.9609 cumulative IPC: 0.7027 (Simulation time: 00 hr 35 min 42 sec)
Heartbeat CPU 0 instructions: 227501080 cycles: 266784045 heartbeat IPC: 0.9094 cumulative IPC: 0.7031 (Simulation time: 00 hr 35 min 47 sec)
Heartbeat CPU 0 instructions: 228001083 cycles: 267340479 heartbeat IPC: 0.8986 cumulative IPC: 0.7036 (Simulation time: 00 hr 35 min 52 sec)
Heartbeat CPU 0 instructions: 228501086 cycles: 267789795 heartbeat IPC: 1.113 cumulative IPC: 0.7043 (Simulation time: 00 hr 35 min 56 sec)
Heartbeat CPU 0 instructions: 229001092 cycles: 268144610 heartbeat IPC: 1.409 cumulative IPC: 0.7053 (Simulation time: 00 hr 35 min 59 sec)
Heartbeat CPU 0 instructions: 229501094 cycles: 268527572 heartbeat IPC: 1.306 cumulative IPC: 0.7062 (Simulation time: 00 hr 36 min 03 sec)
Heartbeat CPU 0 instructions: 230001096 cycles: 269400825 heartbeat IPC: 0.5726 cumulative IPC: 0.7057 (Simulation time: 00 hr 36 min 11 sec)
Heartbeat CPU 0 instructions: 230501097 cycles: 269879406 heartbeat IPC: 1.045 cumulative IPC: 0.7064 (Simulation time: 00 hr 36 min 15 sec)
Heartbeat CPU 0 instructions: 231001098 cycles: 270418851 heartbeat IPC: 0.9269 cumulative IPC: 0.7068 (Simulation time: 00 hr 36 min 20 sec)
Heartbeat CPU 0 instructions: 231501099 cycles: 270826234 heartbeat IPC: 1.227 cumulative IPC: 0.7076 (Simulation time: 00 hr 36 min 24 sec)
Heartbeat CPU 0 instructions: 232001099 cycles: 272078002 heartbeat IPC: 0.3994 cumulative IPC: 0.7061 (Simulation time: 00 hr 36 min 32 sec)
Heartbeat CPU 0 instructions: 232501102 cycles: 272774153 heartbeat IPC: 0.7182 cumulative IPC: 0.7062 (Simulation time: 00 hr 36 min 39 sec)
Heartbeat CPU 0 instructions: 233001103 cycles: 273206557 heartbeat IPC: 1.156 cumulative IPC: 0.7069 (Simulation time: 00 hr 36 min 43 sec)
Heartbeat CPU 0 instructions: 233501105 cycles: 273596188 heartbeat IPC: 1.283 cumulative IPC: 0.7078 (Simulation time: 00 hr 36 min 48 sec)
Heartbeat CPU 0 instructions: 234001107 cycles: 273972614 heartbeat IPC: 1.328 cumulative IPC: 0.7087 (Simulation time: 00 hr 36 min 52 sec)
Heartbeat CPU 0 instructions: 234501110 cycles: 274350661 heartbeat IPC: 1.323 cumulative IPC: 0.7096 (Simulation time: 00 hr 36 min 55 sec)
Heartbeat CPU 0 instructions: 235001111 cycles: 274555896 heartbeat IPC: 2.436 cumulative IPC: 0.711 (Simulation time: 00 hr 36 min 58 sec)
Heartbeat CPU 0 instructions: 235501118 cycles: 274748083 heartbeat IPC: 2.602 cumulative IPC: 0.7123 (Simulation time: 00 hr 37 min 00 sec)
Heartbeat CPU 0 instructions: 236001121 cycles: 274932515 heartbeat IPC: 2.711 cumulative IPC: 0.7138 (Simulation time: 00 hr 37 min 02 sec)
Heartbeat CPU 0 instructions: 236501122 cycles: 275115990 heartbeat IPC: 2.725 cumulative IPC: 0.7152 (Simulation time: 00 hr 37 min 04 sec)
Heartbeat CPU 0 instructions: 237001129 cycles: 275307108 heartbeat IPC: 2.616 cumulative IPC: 0.7166 (Simulation time: 00 hr 37 min 07 sec)
Heartbeat CPU 0 instructions: 237501134 cycles: 275488412 heartbeat IPC: 2.758 cumulative IPC: 0.718 (Simulation time: 00 hr 37 min 09 sec)
Heartbeat CPU 0 instructions: 238001135 cycles: 275733988 heartbeat IPC: 2.036 cumulative IPC: 0.7192 (Simulation time: 00 hr 37 min 12 sec)
Heartbeat CPU 0 instructions: 238501136 cycles: 276511314 heartbeat IPC: 0.6432 cumulative IPC: 0.719 (Simulation time: 00 hr 37 min 18 sec)
Heartbeat CPU 0 instructions: 239001143 cycles: 276792552 heartbeat IPC: 1.778 cumulative IPC: 0.7201 (Simulation time: 00 hr 37 min 20 sec)
Heartbeat CPU 0 instructions: 239501150 cycles: 277018579 heartbeat IPC: 2.212 cumulative IPC: 0.7214 (Simulation time: 00 hr 37 min 23 sec)
Heartbeat CPU 0 instructions: 240001150 cycles: 277221213 heartbeat IPC: 2.468 cumulative IPC: 0.7228 (Simulation time: 00 hr 37 min 25 sec)
Heartbeat CPU 0 instructions: 240501154 cycles: 277416580 heartbeat IPC: 2.559 cumulative IPC: 0.7241 (Simulation time: 00 hr 37 min 28 sec)
Heartbeat CPU 0 instructions: 241001156 cycles: 277605376 heartbeat IPC: 2.648 cumulative IPC: 0.7255 (Simulation time: 00 hr 37 min 30 sec)
Heartbeat CPU 0 instructions: 241501161 cycles: 277798825 heartbeat IPC: 2.585 cumulative IPC: 0.7269 (Simulation time: 00 hr 37 min 32 sec)
Heartbeat CPU 0 instructions: 242001164 cycles: 277989948 heartbeat IPC: 2.616 cumulative IPC: 0.7282 (Simulation time: 00 hr 37 min 35 sec)
Heartbeat CPU 0 instructions: 242501167 cycles: 278470759 heartbeat IPC: 1.04 cumulative IPC: 0.7288 (Simulation time: 00 hr 37 min 39 sec)
Heartbeat CPU 0 instructions: 243001171 cycles: 279584126 heartbeat IPC: 0.4491 cumulative IPC: 0.7276 (Simulation time: 00 hr 37 min 46 sec)
Heartbeat CPU 0 instructions: 243501171 cycles: 280379987 heartbeat IPC: 0.6283 cumulative IPC: 0.7273 (Simulation time: 00 hr 37 min 51 sec)
Heartbeat CPU 0 instructions: 244001173 cycles: 281277960 heartbeat IPC: 0.5568 cumulative IPC: 0.7268 (Simulation time: 00 hr 37 min 57 sec)
Heartbeat CPU 0 instructions: 244501173 cycles: 282088443 heartbeat IPC: 0.6169 cumulative IPC: 0.7264 (Simulation time: 00 hr 38 min 02 sec)
Heartbeat CPU 0 instructions: 245001174 cycles: 282956501 heartbeat IPC: 0.576 cumulative IPC: 0.7259 (Simulation time: 00 hr 38 min 08 sec)
Heartbeat CPU 0 instructions: 245501178 cycles: 284045315 heartbeat IPC: 0.4592 cumulative IPC: 0.7249 (Simulation time: 00 hr 38 min 15 sec)
Heartbeat CPU 0 instructions: 246001182 cycles: 284935267 heartbeat IPC: 0.5618 cumulative IPC: 0.7243 (Simulation time: 00 hr 38 min 20 sec)
Heartbeat CPU 0 instructions: 246501182 cycles: 286048191 heartbeat IPC: 0.4493 cumulative IPC: 0.7232 (Simulation time: 00 hr 38 min 29 sec)
Heartbeat CPU 0 instructions: 247001183 cycles: 286887231 heartbeat IPC: 0.5959 cumulative IPC: 0.7228 (Simulation time: 00 hr 38 min 35 sec)
Heartbeat CPU 0 instructions: 247501183 cycles: 287967905 heartbeat IPC: 0.4627 cumulative IPC: 0.7218 (Simulation time: 00 hr 38 min 41 sec)
Heartbeat CPU 0 instructions: 248001186 cycles: 288596925 heartbeat IPC: 0.7949 cumulative IPC: 0.722 (Simulation time: 00 hr 38 min 46 sec)
Heartbeat CPU 0 instructions: 248501189 cycles: 289487053 heartbeat IPC: 0.5617 cumulative IPC: 0.7214 (Simulation time: 00 hr 38 min 52 sec)
Heartbeat CPU 0 instructions: 249001196 cycles: 290091589 heartbeat IPC: 0.8271 cumulative IPC: 0.7217 (Simulation time: 00 hr 38 min 56 sec)
Heartbeat CPU 0 instructions: 249501197 cycles: 290773695 heartbeat IPC: 0.733 cumulative IPC: 0.7217 (Simulation time: 00 hr 39 min 01 sec)
Simulation finished CPU 0 instructions: 200000000 cycles: 277358433 cumulative IPC: 0.7211 (Simulation time: 00 hr 39 min 07 sec)
Simulation complete CPU 0 instructions: 200000000 cycles: 277358433 cumulative IPC: 0.7211 (Simulation time: 00 hr 39 min 07 sec)

ChampSim completed all CPUs

=== Simulation ===
CPU 0 runs /local-ssd/ben/dpc4-traces/gtraces_v2/tango_0004.champsim.gz

Region of Interest Statistics

CPU 0 cumulative IPC: 0.7211 instructions: 200000000 cycles: 277358433
CPU 0 Branch Prediction Accuracy: 90.34% MPKI: 17.97 Average ROB Occupancy at Mispredict: 26.81
Branch type MPKI
BRANCH_DIRECT_JUMP: 0.5656
BRANCH_INDIRECT: 0.3338
BRANCH_CONDITIONAL: 15.15
BRANCH_DIRECT_CALL: 0.8592
BRANCH_INDIRECT_CALL: 0.362
BRANCH_RETURN: 0.6986

cpu0->cpu0_STLB TOTAL        ACCESS:    2271973 HIT:    1604941 MISS:     667032 MSHR_MERGE:          0
cpu0->cpu0_STLB LOAD         ACCESS:    2271973 HIT:    1604941 MISS:     667032 MSHR_MERGE:          0
cpu0->cpu0_STLB RFO          ACCESS:          0 HIT:          0 MISS:          0 MSHR_MERGE:          0
cpu0->cpu0_STLB PREFETCH     ACCESS:          0 HIT:          0 MISS:          0 MSHR_MERGE:          0
cpu0->cpu0_STLB WRITE        ACCESS:          0 HIT:          0 MISS:          0 MSHR_MERGE:          0
cpu0->cpu0_STLB TRANSLATION  ACCESS:          0 HIT:          0 MISS:          0 MSHR_MERGE:          0
cpu0->cpu0_STLB PREFETCH REQUESTED:          0 ISSUED:          0 USEFUL:          0 USELESS:          0
cpu0->cpu0_STLB AVERAGE MISS LATENCY: 120.1 cycles
cpu0->cpu0_L2C TOTAL        ACCESS:    8960520 HIT:    6095981 MISS:    2864539 MSHR_MERGE:     403635
cpu0->cpu0_L2C LOAD         ACCESS:    1574525 HIT:    1074900 MISS:     499625 MSHR_MERGE:      18703
cpu0->cpu0_L2C RFO          ACCESS:     668882 HIT:     208126 MISS:     460756 MSHR_MERGE:       5537
cpu0->cpu0_L2C PREFETCH     ACCESS:    4891778 HIT:    3194867 MISS:    1696911 MSHR_MERGE:     379395
cpu0->cpu0_L2C WRITE        ACCESS:    1120499 HIT:    1120467 MISS:         32 MSHR_MERGE:          0
cpu0->cpu0_L2C TRANSLATION  ACCESS:     704836 HIT:     497621 MISS:     207215 MSHR_MERGE:          0
cpu0->cpu0_L2C PREFETCH REQUESTED:    4133297 ISSUED:    4066350 USEFUL:     312103 USELESS:     708861
cpu0->cpu0_L2C AVERAGE MISS LATENCY: 227.9 cycles
cpu0->cpu0_L1I TOTAL        ACCESS:   16903359 HIT:   16882465 MISS:      20894 MSHR_MERGE:       3217
cpu0->cpu0_L1I LOAD         ACCESS:   16903359 HIT:   16882465 MISS:      20894 MSHR_MERGE:       3217
cpu0->cpu0_L1I RFO          ACCESS:          0 HIT:          0 MISS:          0 MSHR_MERGE:          0
cpu0->cpu0_L1I PREFETCH     ACCESS:          0 HIT:          0 MISS:          0 MSHR_MERGE:          0
cpu0->cpu0_L1I WRITE        ACCESS:          0 HIT:          0 MISS:          0 MSHR_MERGE:          0
cpu0->cpu0_L1I TRANSLATION  ACCESS:          0 HIT:          0 MISS:          0 MSHR_MERGE:          0
cpu0->cpu0_L1I PREFETCH REQUESTED:          0 ISSUED:          0 USEFUL:          0 USELESS:          0
cpu0->cpu0_L1I AVERAGE MISS LATENCY: 180.9 cycles
cpu0->cpu0_L1D TOTAL        ACCESS:   61003126 HIT:   54516172 MISS:    6486954 MSHR_MERGE:    2730923
cpu0->cpu0_L1D LOAD         ACCESS:   31264013 HIT:   29102896 MISS:    2161117 MSHR_MERGE:     604257
cpu0->cpu0_L1D RFO          ACCESS:          0 HIT:          0 MISS:          0 MSHR_MERGE:          0
cpu0->cpu0_L1D PREFETCH     ACCESS:    1768648 HIT:     906614 MISS:     862034 MSHR_MERGE:      36605
cpu0->cpu0_L1D WRITE        ACCESS:   26273261 HIT:   23519490 MISS:    2753771 MSHR_MERGE:    2084865
cpu0->cpu0_L1D TRANSLATION  ACCESS:    1697204 HIT:     987172 MISS:     710032 MSHR_MERGE:       5196
cpu0->cpu0_L1D PREFETCH REQUESTED:    1791750 ISSUED:    1768645 USEFUL:     316251 USELESS:     509145
cpu0->cpu0_L1D AVERAGE MISS LATENCY: 98.18 cycles
cpu0->cpu0_ITLB TOTAL        ACCESS:   14296335 HIT:   13895391 MISS:     400944 MSHR_MERGE:     188418
cpu0->cpu0_ITLB LOAD         ACCESS:   14296335 HIT:   13895391 MISS:     400944 MSHR_MERGE:     188418
cpu0->cpu0_ITLB RFO          ACCESS:          0 HIT:          0 MISS:          0 MSHR_MERGE:          0
cpu0->cpu0_ITLB PREFETCH     ACCESS:          0 HIT:          0 MISS:          0 MSHR_MERGE:          0
cpu0->cpu0_ITLB WRITE        ACCESS:          0 HIT:          0 MISS:          0 MSHR_MERGE:          0
cpu0->cpu0_ITLB TRANSLATION  ACCESS:          0 HIT:          0 MISS:          0 MSHR_MERGE:          0
cpu0->cpu0_ITLB PREFETCH REQUESTED:          0 ISSUED:          0 USEFUL:          0 USELESS:          0
cpu0->cpu0_ITLB AVERAGE MISS LATENCY: 23.18 cycles
cpu0->cpu0_DTLB TOTAL        ACCESS:   56290060 HIT:   52433520 MISS:    3856540 MSHR_MERGE:    1797094
cpu0->cpu0_DTLB LOAD         ACCESS:   56290060 HIT:   52433520 MISS:    3856540 MSHR_MERGE:    1797094
cpu0->cpu0_DTLB RFO          ACCESS:          0 HIT:          0 MISS:          0 MSHR_MERGE:          0
cpu0->cpu0_DTLB PREFETCH     ACCESS:          0 HIT:          0 MISS:          0 MSHR_MERGE:          0
cpu0->cpu0_DTLB WRITE        ACCESS:          0 HIT:          0 MISS:          0 MSHR_MERGE:          0
cpu0->cpu0_DTLB TRANSLATION  ACCESS:          0 HIT:          0 MISS:          0 MSHR_MERGE:          0
cpu0->cpu0_DTLB PREFETCH REQUESTED:          0 ISSUED:          0 USEFUL:          0 USELESS:          0
cpu0->cpu0_DTLB AVERAGE MISS LATENCY: 42.34 cycles
cpu0->LLC TOTAL        ACCESS:    4150045 HIT:     561907 MISS:    3588138 MSHR_MERGE:     201173
cpu0->LLC LOAD         ACCESS:     480922 HIT:      99300 MISS:     381622 MSHR_MERGE:       1780
cpu0->LLC RFO          ACCESS:     455219 HIT:      17733 MISS:     437486 MSHR_MERGE:        269
cpu0->LLC PREFETCH     ACCESS:    2252847 HIT:     307777 MISS:    1945070 MSHR_MERGE:     199124
cpu0->LLC WRITE        ACCESS:     753842 HIT:     126075 MISS:     627767 MSHR_MERGE:          0
cpu0->LLC TRANSLATION  ACCESS:     207215 HIT:      11022 MISS:     196193 MSHR_MERGE:          0
cpu0->LLC PREFETCH REQUESTED:     959997 ISSUED:     935331 USEFUL:      76163 USELESS:     546205
cpu0->LLC AVERAGE MISS LATENCY: 150.2 cycles

DRAM Statistics

Channel 0 RQ ROW_BUFFER_HIT:      41033
  ROW_BUFFER_MISS:    2718127
  AVG DBUS CONGESTED CYCLE: 21.46
Channel 0 WQ ROW_BUFFER_HIT:     173839
  ROW_BUFFER_MISS:     527477
  FULL:          0
Channel 0 REFRESHES ISSUED:      23112
