[VMEM] WARNING: physical memory size is smaller than virtual memory size.

*** ChampSim Multicore Out-of-Order Simulator ***
Warmup Instructions: 50000000
Simulation Instructions: 200000000
Number of CPUs: 1
Page size: 4096
Core 0: /local-ssd/ben/dpc4-traces/gtraces_v2/sierra.a.3_0002.champsim.gz
 L1D Berti prefetcher
Off-chip DRAM Size: 64 GiB Channels: 1 Width: 64-bit Data Rate: 4807 MT/s
[BTB] WARNING: target of return is a lower address than the corresponding call. This is usually a problem with your trace.
[BTB] WARNING: target of return is a lower address than the corresponding call. This is usually a problem with your trace.
[BTB] WARNING: target of return is a lower address than the corresponding call. This is usually a problem with your trace.
[BTB] WARNING: target of return is a lower address than the corresponding call. This is usually a problem with your trace.
Heartbeat CPU 0 instructions: 500001 cycles: 277276 heartbeat IPC: 1.803 cumulative IPC: 1.803 (Simulation time: 00 hr 00 min 04 sec)
[BTB] WARNING: target of return is a lower address than the corresponding call. This is usually a problem with your trace.
[BTB] WARNING: target of return is a lower address than the corresponding call. This is usually a problem with your trace.
[BTB] WARNING: target of return is a lower address than the corresponding call. This is usually a problem with your trace.
[BTB] WARNING: target of return is a lower address than the corresponding call. This is usually a problem with your trace.
[BTB] WARNING: target of return is a lower address than the corresponding call. This is usually a problem with your trace.
[BTB] WARNING: target of return is a lower address than the corresponding call. This is usually a problem with your trace.
Heartbeat CPU 0 instructions: 1000005 cycles: 512525 heartbeat IPC: 2.125 cumulative IPC: 1.951 (Simulation time: 00 hr 00 min 08 sec)
Heartbeat CPU 0 instructions: 1500009 cycles: 691168 heartbeat IPC: 2.799 cumulative IPC: 2.17 (Simulation time: 00 hr 00 min 11 sec)
Heartbeat CPU 0 instructions: 2000011 cycles: 862010 heartbeat IPC: 2.927 cumulative IPC: 2.32 (Simulation time: 00 hr 00 min 14 sec)
Heartbeat CPU 0 instructions: 2500017 cycles: 1028517 heartbeat IPC: 3.003 cumulative IPC: 2.431 (Simulation time: 00 hr 00 min 17 sec)
Heartbeat CPU 0 instructions: 3000024 cycles: 1199825 heartbeat IPC: 2.919 cumulative IPC: 2.5 (Simulation time: 00 hr 00 min 19 sec)
Heartbeat CPU 0 instructions: 3500031 cycles: 1368856 heartbeat IPC: 2.958 cumulative IPC: 2.557 (Simulation time: 00 hr 00 min 22 sec)
Heartbeat CPU 0 instructions: 4000037 cycles: 1533407 heartbeat IPC: 3.039 cumulative IPC: 2.609 (Simulation time: 00 hr 00 min 25 sec)
Heartbeat CPU 0 instructions: 4500042 cycles: 1700847 heartbeat IPC: 2.986 cumulative IPC: 2.646 (Simulation time: 00 hr 00 min 28 sec)
Heartbeat CPU 0 instructions: 5000043 cycles: 1870917 heartbeat IPC: 2.94 cumulative IPC: 2.673 (Simulation time: 00 hr 00 min 31 sec)
Heartbeat CPU 0 instructions: 5500043 cycles: 2038307 heartbeat IPC: 2.987 cumulative IPC: 2.698 (Simulation time: 00 hr 00 min 34 sec)
Heartbeat CPU 0 instructions: 6000047 cycles: 2198674 heartbeat IPC: 3.118 cumulative IPC: 2.729 (Simulation time: 00 hr 00 min 37 sec)
Heartbeat CPU 0 instructions: 6500051 cycles: 2366540 heartbeat IPC: 2.979 cumulative IPC: 2.747 (Simulation time: 00 hr 00 min 40 sec)
Heartbeat CPU 0 instructions: 7000056 cycles: 2536239 heartbeat IPC: 2.946 cumulative IPC: 2.76 (Simulation time: 00 hr 00 min 43 sec)
Heartbeat CPU 0 instructions: 7500062 cycles: 2703987 heartbeat IPC: 2.981 cumulative IPC: 2.774 (Simulation time: 00 hr 00 min 46 sec)
Heartbeat CPU 0 instructions: 8000069 cycles: 2861927 heartbeat IPC: 3.166 cumulative IPC: 2.795 (Simulation time: 00 hr 00 min 48 sec)
Heartbeat CPU 0 instructions: 8500076 cycles: 3029110 heartbeat IPC: 2.991 cumulative IPC: 2.806 (Simulation time: 00 hr 00 min 51 sec)
Heartbeat CPU 0 instructions: 9000079 cycles: 3197041 heartbeat IPC: 2.977 cumulative IPC: 2.815 (Simulation time: 00 hr 00 min 54 sec)
Heartbeat CPU 0 instructions: 9500086 cycles: 3353138 heartbeat IPC: 3.203 cumulative IPC: 2.833 (Simulation time: 00 hr 00 min 57 sec)
Heartbeat CPU 0 instructions: 10000090 cycles: 3520397 heartbeat IPC: 2.989 cumulative IPC: 2.841 (Simulation time: 00 hr 01 min 00 sec)
Heartbeat CPU 0 instructions: 10500095 cycles: 3688326 heartbeat IPC: 2.977 cumulative IPC: 2.847 (Simulation time: 00 hr 01 min 03 sec)
Heartbeat CPU 0 instructions: 11000096 cycles: 3854064 heartbeat IPC: 3.017 cumulative IPC: 2.854 (Simulation time: 00 hr 01 min 06 sec)
Heartbeat CPU 0 instructions: 11500098 cycles: 4034330 heartbeat IPC: 2.774 cumulative IPC: 2.851 (Simulation time: 00 hr 01 min 09 sec)
Heartbeat CPU 0 instructions: 12000100 cycles: 4186634 heartbeat IPC: 3.283 cumulative IPC: 2.866 (Simulation time: 00 hr 01 min 11 sec)
Heartbeat CPU 0 instructions: 12500105 cycles: 4353540 heartbeat IPC: 2.996 cumulative IPC: 2.871 (Simulation time: 00 hr 01 min 14 sec)
Heartbeat CPU 0 instructions: 13000105 cycles: 4521489 heartbeat IPC: 2.977 cumulative IPC: 2.875 (Simulation time: 00 hr 01 min 17 sec)
Heartbeat CPU 0 instructions: 13500106 cycles: 4673781 heartbeat IPC: 3.283 cumulative IPC: 2.888 (Simulation time: 00 hr 01 min 20 sec)
Heartbeat CPU 0 instructions: 14000110 cycles: 4841804 heartbeat IPC: 2.976 cumulative IPC: 2.892 (Simulation time: 00 hr 01 min 23 sec)
Heartbeat CPU 0 instructions: 14500112 cycles: 5008977 heartbeat IPC: 2.991 cumulative IPC: 2.895 (Simulation time: 00 hr 01 min 26 sec)
Heartbeat CPU 0 instructions: 15000119 cycles: 5173380 heartbeat IPC: 3.041 cumulative IPC: 2.899 (Simulation time: 00 hr 01 min 29 sec)
Heartbeat CPU 0 instructions: 15500125 cycles: 5318623 heartbeat IPC: 3.443 cumulative IPC: 2.914 (Simulation time: 00 hr 01 min 31 sec)
Heartbeat CPU 0 instructions: 16000128 cycles: 5485635 heartbeat IPC: 2.994 cumulative IPC: 2.917 (Simulation time: 00 hr 01 min 34 sec)
Heartbeat CPU 0 instructions: 16500128 cycles: 5646604 heartbeat IPC: 3.106 cumulative IPC: 2.922 (Simulation time: 00 hr 01 min 37 sec)
Heartbeat CPU 0 instructions: 17000134 cycles: 5809492 heartbeat IPC: 3.07 cumulative IPC: 2.926 (Simulation time: 00 hr 01 min 40 sec)
Heartbeat CPU 0 instructions: 17500139 cycles: 5976124 heartbeat IPC: 3.001 cumulative IPC: 2.928 (Simulation time: 00 hr 01 min 43 sec)
Heartbeat CPU 0 instructions: 18000145 cycles: 6139176 heartbeat IPC: 3.067 cumulative IPC: 2.932 (Simulation time: 00 hr 01 min 46 sec)
Heartbeat CPU 0 instructions: 18500150 cycles: 6304294 heartbeat IPC: 3.028 cumulative IPC: 2.935 (Simulation time: 00 hr 01 min 49 sec)
Heartbeat CPU 0 instructions: 19000150 cycles: 6466830 heartbeat IPC: 3.076 cumulative IPC: 2.938 (Simulation time: 00 hr 01 min 52 sec)
Heartbeat CPU 0 instructions: 19500151 cycles: 6631261 heartbeat IPC: 3.041 cumulative IPC: 2.941 (Simulation time: 00 hr 01 min 54 sec)
Heartbeat CPU 0 instructions: 20000154 cycles: 6822817 heartbeat IPC: 2.61 cumulative IPC: 2.931 (Simulation time: 00 hr 01 min 58 sec)
Heartbeat CPU 0 instructions: 20500155 cycles: 6975902 heartbeat IPC: 3.266 cumulative IPC: 2.939 (Simulation time: 00 hr 02 min 00 sec)
Heartbeat CPU 0 instructions: 21000162 cycles: 7115576 heartbeat IPC: 3.58 cumulative IPC: 2.951 (Simulation time: 00 hr 02 min 03 sec)
Heartbeat CPU 0 instructions: 21500168 cycles: 7265396 heartbeat IPC: 3.337 cumulative IPC: 2.959 (Simulation time: 00 hr 02 min 06 sec)
Heartbeat CPU 0 instructions: 22000172 cycles: 7420467 heartbeat IPC: 3.224 cumulative IPC: 2.965 (Simulation time: 00 hr 02 min 08 sec)
Heartbeat CPU 0 instructions: 22500177 cycles: 7529173 heartbeat IPC: 4.6 cumulative IPC: 2.988 (Simulation time: 00 hr 02 min 10 sec)
Heartbeat CPU 0 instructions: 23000177 cycles: 7639936 heartbeat IPC: 4.514 cumulative IPC: 3.011 (Simulation time: 00 hr 02 min 12 sec)
Heartbeat CPU 0 instructions: 23500181 cycles: 7783919 heartbeat IPC: 3.473 cumulative IPC: 3.019 (Simulation time: 00 hr 02 min 14 sec)
Heartbeat CPU 0 instructions: 24000185 cycles: 7933247 heartbeat IPC: 3.348 cumulative IPC: 3.025 (Simulation time: 00 hr 02 min 17 sec)
Heartbeat CPU 0 instructions: 24500189 cycles: 8064065 heartbeat IPC: 3.822 cumulative IPC: 3.038 (Simulation time: 00 hr 02 min 19 sec)
Heartbeat CPU 0 instructions: 25000195 cycles: 8198966 heartbeat IPC: 3.706 cumulative IPC: 3.049 (Simulation time: 00 hr 02 min 22 sec)
Heartbeat CPU 0 instructions: 25500198 cycles: 8340978 heartbeat IPC: 3.521 cumulative IPC: 3.057 (Simulation time: 00 hr 02 min 24 sec)
Heartbeat CPU 0 instructions: 26000203 cycles: 8499137 heartbeat IPC: 3.161 cumulative IPC: 3.059 (Simulation time: 00 hr 02 min 27 sec)
Heartbeat CPU 0 instructions: 26500207 cycles: 8659519 heartbeat IPC: 3.118 cumulative IPC: 3.06 (Simulation time: 00 hr 02 min 30 sec)
Heartbeat CPU 0 instructions: 27000207 cycles: 8802945 heartbeat IPC: 3.486 cumulative IPC: 3.067 (Simulation time: 00 hr 02 min 33 sec)
Heartbeat CPU 0 instructions: 27500211 cycles: 8932610 heartbeat IPC: 3.856 cumulative IPC: 3.079 (Simulation time: 00 hr 02 min 35 sec)
Heartbeat CPU 0 instructions: 28000217 cycles: 9061917 heartbeat IPC: 3.867 cumulative IPC: 3.09 (Simulation time: 00 hr 02 min 38 sec)
Heartbeat CPU 0 instructions: 28500218 cycles: 9192730 heartbeat IPC: 3.822 cumulative IPC: 3.1 (Simulation time: 00 hr 02 min 40 sec)
Heartbeat CPU 0 instructions: 29000218 cycles: 9314977 heartbeat IPC: 4.09 cumulative IPC: 3.113 (Simulation time: 00 hr 02 min 42 sec)
Heartbeat CPU 0 instructions: 29500225 cycles: 9466926 heartbeat IPC: 3.291 cumulative IPC: 3.116 (Simulation time: 00 hr 02 min 45 sec)
Heartbeat CPU 0 instructions: 30000230 cycles: 9593854 heartbeat IPC: 3.939 cumulative IPC: 3.127 (Simulation time: 00 hr 02 min 48 sec)
Heartbeat CPU 0 instructions: 30500231 cycles: 9729617 heartbeat IPC: 3.683 cumulative IPC: 3.135 (Simulation time: 00 hr 02 min 50 sec)
Heartbeat CPU 0 instructions: 31000231 cycles: 9864553 heartbeat IPC: 3.705 cumulative IPC: 3.143 (Simulation time: 00 hr 02 min 53 sec)
Heartbeat CPU 0 instructions: 31500232 cycles: 9988977 heartbeat IPC: 4.019 cumulative IPC: 3.153 (Simulation time: 00 hr 02 min 55 sec)
Heartbeat CPU 0 instructions: 32000237 cycles: 10116288 heartbeat IPC: 3.927 cumulative IPC: 3.163 (Simulation time: 00 hr 02 min 57 sec)
Heartbeat CPU 0 instructions: 32500240 cycles: 10285843 heartbeat IPC: 2.949 cumulative IPC: 3.16 (Simulation time: 00 hr 03 min 00 sec)
Heartbeat CPU 0 instructions: 33000241 cycles: 10439590 heartbeat IPC: 3.252 cumulative IPC: 3.161 (Simulation time: 00 hr 03 min 03 sec)
Heartbeat CPU 0 instructions: 33500246 cycles: 10588409 heartbeat IPC: 3.36 cumulative IPC: 3.164 (Simulation time: 00 hr 03 min 05 sec)
Heartbeat CPU 0 instructions: 34000247 cycles: 10714506 heartbeat IPC: 3.965 cumulative IPC: 3.173 (Simulation time: 00 hr 03 min 08 sec)
Heartbeat CPU 0 instructions: 34500250 cycles: 10866276 heartbeat IPC: 3.294 cumulative IPC: 3.175 (Simulation time: 00 hr 03 min 11 sec)
Heartbeat CPU 0 instructions: 35000256 cycles: 11014482 heartbeat IPC: 3.374 cumulative IPC: 3.178 (Simulation time: 00 hr 03 min 13 sec)
Heartbeat CPU 0 instructions: 35500260 cycles: 11190126 heartbeat IPC: 2.847 cumulative IPC: 3.172 (Simulation time: 00 hr 03 min 16 sec)
Heartbeat CPU 0 instructions: 36000266 cycles: 11318533 heartbeat IPC: 3.894 cumulative IPC: 3.181 (Simulation time: 00 hr 03 min 18 sec)
Heartbeat CPU 0 instructions: 36500270 cycles: 11446703 heartbeat IPC: 3.901 cumulative IPC: 3.189 (Simulation time: 00 hr 03 min 21 sec)
Heartbeat CPU 0 instructions: 37000275 cycles: 11579234 heartbeat IPC: 3.773 cumulative IPC: 3.195 (Simulation time: 00 hr 03 min 23 sec)
Heartbeat CPU 0 instructions: 37500279 cycles: 11707616 heartbeat IPC: 3.895 cumulative IPC: 3.203 (Simulation time: 00 hr 03 min 26 sec)
Heartbeat CPU 0 instructions: 38000285 cycles: 11869307 heartbeat IPC: 3.092 cumulative IPC: 3.202 (Simulation time: 00 hr 03 min 28 sec)
Heartbeat CPU 0 instructions: 38500289 cycles: 12053970 heartbeat IPC: 2.708 cumulative IPC: 3.194 (Simulation time: 00 hr 03 min 31 sec)
Heartbeat CPU 0 instructions: 39000296 cycles: 12179759 heartbeat IPC: 3.975 cumulative IPC: 3.202 (Simulation time: 00 hr 03 min 34 sec)
Heartbeat CPU 0 instructions: 39500300 cycles: 12305221 heartbeat IPC: 3.985 cumulative IPC: 3.21 (Simulation time: 00 hr 03 min 36 sec)
Heartbeat CPU 0 instructions: 40000303 cycles: 12426349 heartbeat IPC: 4.128 cumulative IPC: 3.219 (Simulation time: 00 hr 03 min 38 sec)
Heartbeat CPU 0 instructions: 40500305 cycles: 12566903 heartbeat IPC: 3.557 cumulative IPC: 3.223 (Simulation time: 00 hr 03 min 41 sec)
Heartbeat CPU 0 instructions: 41000308 cycles: 12702249 heartbeat IPC: 3.694 cumulative IPC: 3.228 (Simulation time: 00 hr 03 min 43 sec)
Heartbeat CPU 0 instructions: 41500308 cycles: 12832772 heartbeat IPC: 3.831 cumulative IPC: 3.234 (Simulation time: 00 hr 03 min 46 sec)
Heartbeat CPU 0 instructions: 42000311 cycles: 12979560 heartbeat IPC: 3.406 cumulative IPC: 3.236 (Simulation time: 00 hr 03 min 48 sec)
Heartbeat CPU 0 instructions: 42500313 cycles: 13110104 heartbeat IPC: 3.83 cumulative IPC: 3.242 (Simulation time: 00 hr 03 min 51 sec)
Heartbeat CPU 0 instructions: 43000319 cycles: 13257379 heartbeat IPC: 3.395 cumulative IPC: 3.244 (Simulation time: 00 hr 03 min 53 sec)
Heartbeat CPU 0 instructions: 43500320 cycles: 13382056 heartbeat IPC: 4.01 cumulative IPC: 3.251 (Simulation time: 00 hr 03 min 56 sec)
Heartbeat CPU 0 instructions: 44000322 cycles: 13507729 heartbeat IPC: 3.979 cumulative IPC: 3.257 (Simulation time: 00 hr 03 min 58 sec)
Heartbeat CPU 0 instructions: 44500322 cycles: 13641723 heartbeat IPC: 3.732 cumulative IPC: 3.262 (Simulation time: 00 hr 04 min 01 sec)
Heartbeat CPU 0 instructions: 45000327 cycles: 13850372 heartbeat IPC: 2.396 cumulative IPC: 3.249 (Simulation time: 00 hr 04 min 04 sec)
Heartbeat CPU 0 instructions: 45500332 cycles: 14119396 heartbeat IPC: 1.859 cumulative IPC: 3.223 (Simulation time: 00 hr 04 min 08 sec)
Heartbeat CPU 0 instructions: 46000332 cycles: 14332463 heartbeat IPC: 2.347 cumulative IPC: 3.21 (Simulation time: 00 hr 04 min 12 sec)
Heartbeat CPU 0 instructions: 46500335 cycles: 14477503 heartbeat IPC: 3.447 cumulative IPC: 3.212 (Simulation time: 00 hr 04 min 14 sec)
Heartbeat CPU 0 instructions: 47000340 cycles: 14635510 heartbeat IPC: 3.164 cumulative IPC: 3.211 (Simulation time: 00 hr 04 min 17 sec)
Heartbeat CPU 0 instructions: 47500347 cycles: 14765399 heartbeat IPC: 3.849 cumulative IPC: 3.217 (Simulation time: 00 hr 04 min 20 sec)
Heartbeat CPU 0 instructions: 48000347 cycles: 14896683 heartbeat IPC: 3.809 cumulative IPC: 3.222 (Simulation time: 00 hr 04 min 22 sec)
Heartbeat CPU 0 instructions: 48500347 cycles: 15031817 heartbeat IPC: 3.7 cumulative IPC: 3.227 (Simulation time: 00 hr 04 min 25 sec)
Heartbeat CPU 0 instructions: 49000350 cycles: 15187479 heartbeat IPC: 3.212 cumulative IPC: 3.226 (Simulation time: 00 hr 04 min 27 sec)
Heartbeat CPU 0 instructions: 49500355 cycles: 15351841 heartbeat IPC: 3.042 cumulative IPC: 3.224 (Simulation time: 00 hr 04 min 30 sec)
Warmup finished CPU 0 instructions: 50000004 cycles: 15498521 cumulative IPC: 3.226 (Simulation time: 00 hr 04 min 33 sec)
Warmup complete CPU 0 instructions: 50000004 cycles: 15498521 cumulative IPC: 3.226 (Simulation time: 00 hr 04 min 33 sec)
Heartbeat CPU 0 instructions: 50000356 cycles: 15498565 heartbeat IPC: 3.408 cumulative IPC: 8 (Simulation time: 00 hr 04 min 33 sec)
Heartbeat CPU 0 instructions: 50500357 cycles: 16272171 heartbeat IPC: 0.6463 cumulative IPC: 0.6467 (Simulation time: 00 hr 04 min 39 sec)
Heartbeat CPU 0 instructions: 51000359 cycles: 17489772 heartbeat IPC: 0.4106 cumulative IPC: 0.5024 (Simulation time: 00 hr 04 min 47 sec)
Heartbeat CPU 0 instructions: 51500359 cycles: 18407782 heartbeat IPC: 0.5447 cumulative IPC: 0.5157 (Simulation time: 00 hr 04 min 54 sec)
Heartbeat CPU 0 instructions: 52000359 cycles: 19290480 heartbeat IPC: 0.5664 cumulative IPC: 0.5275 (Simulation time: 00 hr 05 min 00 sec)
Heartbeat CPU 0 instructions: 52500362 cycles: 20193425 heartbeat IPC: 0.5537 cumulative IPC: 0.5326 (Simulation time: 00 hr 05 min 07 sec)
Heartbeat CPU 0 instructions: 53000362 cycles: 21245989 heartbeat IPC: 0.475 cumulative IPC: 0.522 (Simulation time: 00 hr 05 min 14 sec)
Heartbeat CPU 0 instructions: 53500362 cycles: 22040806 heartbeat IPC: 0.6291 cumulative IPC: 0.535 (Simulation time: 00 hr 05 min 20 sec)
Heartbeat CPU 0 instructions: 54000365 cycles: 23201181 heartbeat IPC: 0.4309 cumulative IPC: 0.5193 (Simulation time: 00 hr 05 min 28 sec)
Heartbeat CPU 0 instructions: 54500365 cycles: 25111417 heartbeat IPC: 0.2617 cumulative IPC: 0.4682 (Simulation time: 00 hr 05 min 42 sec)
Heartbeat CPU 0 instructions: 55000365 cycles: 26906060 heartbeat IPC: 0.2786 cumulative IPC: 0.4383 (Simulation time: 00 hr 05 min 54 sec)
Heartbeat CPU 0 instructions: 55500369 cycles: 27846874 heartbeat IPC: 0.5315 cumulative IPC: 0.4454 (Simulation time: 00 hr 06 min 01 sec)
Heartbeat CPU 0 instructions: 56000369 cycles: 29409891 heartbeat IPC: 0.3199 cumulative IPC: 0.4313 (Simulation time: 00 hr 06 min 12 sec)
Heartbeat CPU 0 instructions: 56500372 cycles: 30676594 heartbeat IPC: 0.3947 cumulative IPC: 0.4283 (Simulation time: 00 hr 06 min 21 sec)
Heartbeat CPU 0 instructions: 57000373 cycles: 30975855 heartbeat IPC: 1.671 cumulative IPC: 0.4523 (Simulation time: 00 hr 06 min 24 sec)
Heartbeat CPU 0 instructions: 57500376 cycles: 31276661 heartbeat IPC: 1.662 cumulative IPC: 0.4754 (Simulation time: 00 hr 06 min 27 sec)
Heartbeat CPU 0 instructions: 58000376 cycles: 31541042 heartbeat IPC: 1.891 cumulative IPC: 0.4987 (Simulation time: 00 hr 06 min 30 sec)
Heartbeat CPU 0 instructions: 58500376 cycles: 31768844 heartbeat IPC: 2.195 cumulative IPC: 0.5224 (Simulation time: 00 hr 06 min 32 sec)
Heartbeat CPU 0 instructions: 59000379 cycles: 32104522 heartbeat IPC: 1.49 cumulative IPC: 0.542 (Simulation time: 00 hr 06 min 35 sec)
Heartbeat CPU 0 instructions: 59500382 cycles: 33439486 heartbeat IPC: 0.3745 cumulative IPC: 0.5295 (Simulation time: 00 hr 06 min 44 sec)
Heartbeat CPU 0 instructions: 60000387 cycles: 34283256 heartbeat IPC: 0.5926 cumulative IPC: 0.5324 (Simulation time: 00 hr 06 min 51 sec)
Heartbeat CPU 0 instructions: 60500387 cycles: 35856377 heartbeat IPC: 0.3178 cumulative IPC: 0.5158 (Simulation time: 00 hr 07 min 02 sec)
Heartbeat CPU 0 instructions: 61000391 cycles: 37054274 heartbeat IPC: 0.4174 cumulative IPC: 0.5103 (Simulation time: 00 hr 07 min 10 sec)
Heartbeat CPU 0 instructions: 61500395 cycles: 38333965 heartbeat IPC: 0.3907 cumulative IPC: 0.5036 (Simulation time: 00 hr 07 min 19 sec)
Heartbeat CPU 0 instructions: 62000400 cycles: 39332800 heartbeat IPC: 0.5006 cumulative IPC: 0.5035 (Simulation time: 00 hr 07 min 26 sec)
Heartbeat CPU 0 instructions: 62500402 cycles: 40127073 heartbeat IPC: 0.6295 cumulative IPC: 0.5076 (Simulation time: 00 hr 07 min 33 sec)
Heartbeat CPU 0 instructions: 63000403 cycles: 41974413 heartbeat IPC: 0.2707 cumulative IPC: 0.491 (Simulation time: 00 hr 07 min 45 sec)
Heartbeat CPU 0 instructions: 63500403 cycles: 43204642 heartbeat IPC: 0.4064 cumulative IPC: 0.4873 (Simulation time: 00 hr 07 min 54 sec)
Heartbeat CPU 0 instructions: 64000403 cycles: 44244778 heartbeat IPC: 0.4807 cumulative IPC: 0.487 (Simulation time: 00 hr 08 min 01 sec)
Heartbeat CPU 0 instructions: 64500407 cycles: 44827823 heartbeat IPC: 0.8576 cumulative IPC: 0.4944 (Simulation time: 00 hr 08 min 06 sec)
Heartbeat CPU 0 instructions: 65000408 cycles: 45118392 heartbeat IPC: 1.721 cumulative IPC: 0.5064 (Simulation time: 00 hr 08 min 09 sec)
Heartbeat CPU 0 instructions: 65500414 cycles: 45366834 heartbeat IPC: 2.013 cumulative IPC: 0.519 (Simulation time: 00 hr 08 min 12 sec)
Heartbeat CPU 0 instructions: 66000420 cycles: 45622998 heartbeat IPC: 1.952 cumulative IPC: 0.5311 (Simulation time: 00 hr 08 min 14 sec)
Heartbeat CPU 0 instructions: 66500421 cycles: 45938502 heartbeat IPC: 1.585 cumulative IPC: 0.5421 (Simulation time: 00 hr 08 min 18 sec)
Heartbeat CPU 0 instructions: 67000421 cycles: 46118003 heartbeat IPC: 2.785 cumulative IPC: 0.5552 (Simulation time: 00 hr 08 min 20 sec)
Heartbeat CPU 0 instructions: 67500426 cycles: 46724737 heartbeat IPC: 0.8241 cumulative IPC: 0.5604 (Simulation time: 00 hr 08 min 25 sec)
Heartbeat CPU 0 instructions: 68000426 cycles: 47395125 heartbeat IPC: 0.7458 cumulative IPC: 0.5643 (Simulation time: 00 hr 08 min 30 sec)
Heartbeat CPU 0 instructions: 68500432 cycles: 48476369 heartbeat IPC: 0.4624 cumulative IPC: 0.561 (Simulation time: 00 hr 08 min 37 sec)
Heartbeat CPU 0 instructions: 69000432 cycles: 49943599 heartbeat IPC: 0.3408 cumulative IPC: 0.5516 (Simulation time: 00 hr 08 min 47 sec)
Heartbeat CPU 0 instructions: 69500432 cycles: 51074312 heartbeat IPC: 0.4422 cumulative IPC: 0.5481 (Simulation time: 00 hr 08 min 55 sec)
Heartbeat CPU 0 instructions: 70000436 cycles: 51979203 heartbeat IPC: 0.5526 cumulative IPC: 0.5482 (Simulation time: 00 hr 09 min 02 sec)
Heartbeat CPU 0 instructions: 70500436 cycles: 52927491 heartbeat IPC: 0.5273 cumulative IPC: 0.5477 (Simulation time: 00 hr 09 min 09 sec)
Heartbeat CPU 0 instructions: 71000437 cycles: 53939300 heartbeat IPC: 0.4942 cumulative IPC: 0.5463 (Simulation time: 00 hr 09 min 16 sec)
Heartbeat CPU 0 instructions: 71500437 cycles: 54310354 heartbeat IPC: 1.348 cumulative IPC: 0.554 (Simulation time: 00 hr 09 min 20 sec)
Heartbeat CPU 0 instructions: 72000440 cycles: 54628864 heartbeat IPC: 1.57 cumulative IPC: 0.5622 (Simulation time: 00 hr 09 min 23 sec)
Heartbeat CPU 0 instructions: 72500441 cycles: 54916131 heartbeat IPC: 1.741 cumulative IPC: 0.5708 (Simulation time: 00 hr 09 min 26 sec)
Heartbeat CPU 0 instructions: 73000443 cycles: 55376324 heartbeat IPC: 1.087 cumulative IPC: 0.5768 (Simulation time: 00 hr 09 min 30 sec)
Heartbeat CPU 0 instructions: 73500444 cycles: 56448328 heartbeat IPC: 0.4664 cumulative IPC: 0.5739 (Simulation time: 00 hr 09 min 37 sec)
Heartbeat CPU 0 instructions: 74000445 cycles: 56971955 heartbeat IPC: 0.9549 cumulative IPC: 0.5787 (Simulation time: 00 hr 09 min 42 sec)
Heartbeat CPU 0 instructions: 74500446 cycles: 57386263 heartbeat IPC: 1.207 cumulative IPC: 0.5849 (Simulation time: 00 hr 09 min 45 sec)
Heartbeat CPU 0 instructions: 75000446 cycles: 58548089 heartbeat IPC: 0.4304 cumulative IPC: 0.5807 (Simulation time: 00 hr 09 min 53 sec)
Heartbeat CPU 0 instructions: 75500446 cycles: 59770905 heartbeat IPC: 0.4089 cumulative IPC: 0.576 (Simulation time: 00 hr 10 min 02 sec)
Heartbeat CPU 0 instructions: 76000450 cycles: 60598959 heartbeat IPC: 0.6038 cumulative IPC: 0.5765 (Simulation time: 00 hr 10 min 08 sec)
Heartbeat CPU 0 instructions: 76500455 cycles: 61318689 heartbeat IPC: 0.6947 cumulative IPC: 0.5784 (Simulation time: 00 hr 10 min 14 sec)
Heartbeat CPU 0 instructions: 77000458 cycles: 61616806 heartbeat IPC: 1.677 cumulative IPC: 0.5855 (Simulation time: 00 hr 10 min 17 sec)
Heartbeat CPU 0 instructions: 77500461 cycles: 61868913 heartbeat IPC: 1.983 cumulative IPC: 0.5931 (Simulation time: 00 hr 10 min 20 sec)
Heartbeat CPU 0 instructions: 78000462 cycles: 62278520 heartbeat IPC: 1.221 cumulative IPC: 0.5986 (Simulation time: 00 hr 10 min 23 sec)
Heartbeat CPU 0 instructions: 78500462 cycles: 63431869 heartbeat IPC: 0.4335 cumulative IPC: 0.5946 (Simulation time: 00 hr 10 min 31 sec)
Heartbeat CPU 0 instructions: 79000466 cycles: 64560228 heartbeat IPC: 0.4431 cumulative IPC: 0.5911 (Simulation time: 00 hr 10 min 39 sec)
Heartbeat CPU 0 instructions: 79500469 cycles: 65579583 heartbeat IPC: 0.4905 cumulative IPC: 0.5891 (Simulation time: 00 hr 10 min 47 sec)
Heartbeat CPU 0 instructions: 80000473 cycles: 66503889 heartbeat IPC: 0.541 cumulative IPC: 0.5882 (Simulation time: 00 hr 10 min 54 sec)
Heartbeat CPU 0 instructions: 80500473 cycles: 67438026 heartbeat IPC: 0.5353 cumulative IPC: 0.5872 (Simulation time: 00 hr 11 min 01 sec)
Heartbeat CPU 0 instructions: 81000476 cycles: 68361292 heartbeat IPC: 0.5416 cumulative IPC: 0.5864 (Simulation time: 00 hr 11 min 07 sec)
Heartbeat CPU 0 instructions: 81500477 cycles: 69393829 heartbeat IPC: 0.4842 cumulative IPC: 0.5845 (Simulation time: 00 hr 11 min 15 sec)
Heartbeat CPU 0 instructions: 82000478 cycles: 71334118 heartbeat IPC: 0.2577 cumulative IPC: 0.5731 (Simulation time: 00 hr 11 min 28 sec)
Heartbeat CPU 0 instructions: 82500478 cycles: 72594519 heartbeat IPC: 0.3967 cumulative IPC: 0.5692 (Simulation time: 00 hr 11 min 36 sec)
Heartbeat CPU 0 instructions: 83000480 cycles: 73748177 heartbeat IPC: 0.4334 cumulative IPC: 0.5665 (Simulation time: 00 hr 11 min 44 sec)
Heartbeat CPU 0 instructions: 83500483 cycles: 74105167 heartbeat IPC: 1.401 cumulative IPC: 0.5716 (Simulation time: 00 hr 11 min 47 sec)
Heartbeat CPU 0 instructions: 84000483 cycles: 74416040 heartbeat IPC: 1.608 cumulative IPC: 0.5771 (Simulation time: 00 hr 11 min 50 sec)
Heartbeat CPU 0 instructions: 84500483 cycles: 74712690 heartbeat IPC: 1.685 cumulative IPC: 0.5826 (Simulation time: 00 hr 11 min 53 sec)
Heartbeat CPU 0 instructions: 85000487 cycles: 75498244 heartbeat IPC: 0.6365 cumulative IPC: 0.5833 (Simulation time: 00 hr 11 min 59 sec)
Heartbeat CPU 0 instructions: 85500489 cycles: 75782295 heartbeat IPC: 1.76 cumulative IPC: 0.5889 (Simulation time: 00 hr 12 min 02 sec)
Heartbeat CPU 0 instructions: 86000496 cycles: 76098632 heartbeat IPC: 1.581 cumulative IPC: 0.5941 (Simulation time: 00 hr 12 min 04 sec)
Heartbeat CPU 0 instructions: 86500501 cycles: 76370529 heartbeat IPC: 1.839 cumulative IPC: 0.5996 (Simulation time: 00 hr 12 min 07 sec)
Heartbeat CPU 0 instructions: 87000504 cycles: 77462621 heartbeat IPC: 0.4578 cumulative IPC: 0.5971 (Simulation time: 00 hr 12 min 15 sec)
Heartbeat CPU 0 instructions: 87500507 cycles: 78774813 heartbeat IPC: 0.381 cumulative IPC: 0.5926 (Simulation time: 00 hr 12 min 24 sec)
Heartbeat CPU 0 instructions: 88000507 cycles: 80588155 heartbeat IPC: 0.2757 cumulative IPC: 0.5838 (Simulation time: 00 hr 12 min 35 sec)
Heartbeat CPU 0 instructions: 88500507 cycles: 81667545 heartbeat IPC: 0.4632 cumulative IPC: 0.5819 (Simulation time: 00 hr 12 min 43 sec)
Heartbeat CPU 0 instructions: 89000509 cycles: 82838143 heartbeat IPC: 0.4271 cumulative IPC: 0.5792 (Simulation time: 00 hr 12 min 52 sec)
Heartbeat CPU 0 instructions: 89500510 cycles: 83642413 heartbeat IPC: 0.6217 cumulative IPC: 0.5797 (Simulation time: 00 hr 12 min 57 sec)
Heartbeat CPU 0 instructions: 90000515 cycles: 83979639 heartbeat IPC: 1.483 cumulative IPC: 0.5841 (Simulation time: 00 hr 13 min 00 sec)
Heartbeat CPU 0 instructions: 90500518 cycles: 84253973 heartbeat IPC: 1.823 cumulative IPC: 0.5891 (Simulation time: 00 hr 13 min 03 sec)
Heartbeat CPU 0 instructions: 91000518 cycles: 84539104 heartbeat IPC: 1.754 cumulative IPC: 0.5939 (Simulation time: 00 hr 13 min 06 sec)
Heartbeat CPU 0 instructions: 91500520 cycles: 85829247 heartbeat IPC: 0.3876 cumulative IPC: 0.5901 (Simulation time: 00 hr 13 min 14 sec)
Heartbeat CPU 0 instructions: 92000521 cycles: 87163304 heartbeat IPC: 0.3748 cumulative IPC: 0.5861 (Simulation time: 00 hr 13 min 23 sec)
Heartbeat CPU 0 instructions: 92500523 cycles: 87464056 heartbeat IPC: 1.663 cumulative IPC: 0.5906 (Simulation time: 00 hr 13 min 26 sec)
Heartbeat CPU 0 instructions: 93000524 cycles: 87779032 heartbeat IPC: 1.587 cumulative IPC: 0.5949 (Simulation time: 00 hr 13 min 29 sec)
Heartbeat CPU 0 instructions: 93500524 cycles: 88057349 heartbeat IPC: 1.797 cumulative IPC: 0.5995 (Simulation time: 00 hr 13 min 32 sec)
Heartbeat CPU 0 instructions: 94000524 cycles: 88330068 heartbeat IPC: 1.833 cumulative IPC: 0.6041 (Simulation time: 00 hr 13 min 34 sec)
Heartbeat CPU 0 instructions: 94500525 cycles: 88935426 heartbeat IPC: 0.826 cumulative IPC: 0.606 (Simulation time: 00 hr 13 min 39 sec)
Heartbeat CPU 0 instructions: 95000525 cycles: 89988515 heartbeat IPC: 0.4748 cumulative IPC: 0.6041 (Simulation time: 00 hr 13 min 46 sec)
Heartbeat CPU 0 instructions: 95500525 cycles: 90254587 heartbeat IPC: 1.879 cumulative IPC: 0.6087 (Simulation time: 00 hr 13 min 49 sec)
Heartbeat CPU 0 instructions: 96000525 cycles: 90539701 heartbeat IPC: 1.754 cumulative IPC: 0.613 (Simulation time: 00 hr 13 min 52 sec)
Heartbeat CPU 0 instructions: 96500529 cycles: 90773997 heartbeat IPC: 2.134 cumulative IPC: 0.6177 (Simulation time: 00 hr 13 min 54 sec)
Heartbeat CPU 0 instructions: 97000535 cycles: 91058165 heartbeat IPC: 1.76 cumulative IPC: 0.622 (Simulation time: 00 hr 13 min 57 sec)
Heartbeat CPU 0 instructions: 97500536 cycles: 92313450 heartbeat IPC: 0.3983 cumulative IPC: 0.6184 (Simulation time: 00 hr 14 min 06 sec)
Heartbeat CPU 0 instructions: 98000536 cycles: 93137067 heartbeat IPC: 0.6071 cumulative IPC: 0.6183 (Simulation time: 00 hr 14 min 15 sec)
Heartbeat CPU 0 instructions: 98500536 cycles: 93832843 heartbeat IPC: 0.7186 cumulative IPC: 0.6191 (Simulation time: 00 hr 14 min 23 sec)
Heartbeat CPU 0 instructions: 99000540 cycles: 95504073 heartbeat IPC: 0.2992 cumulative IPC: 0.6125 (Simulation time: 00 hr 14 min 35 sec)
Heartbeat CPU 0 instructions: 99500540 cycles: 96908681 heartbeat IPC: 0.356 cumulative IPC: 0.608 (Simulation time: 00 hr 14 min 44 sec)
Heartbeat CPU 0 instructions: 100000541 cycles: 97893990 heartbeat IPC: 0.5075 cumulative IPC: 0.6068 (Simulation time: 00 hr 14 min 52 sec)
Heartbeat CPU 0 instructions: 100500547 cycles: 99223825 heartbeat IPC: 0.376 cumulative IPC: 0.6032 (Simulation time: 00 hr 15 min 01 sec)
Heartbeat CPU 0 instructions: 101000547 cycles: 99582774 heartbeat IPC: 1.393 cumulative IPC: 0.6065 (Simulation time: 00 hr 15 min 04 sec)
Heartbeat CPU 0 instructions: 101500547 cycles: 99870822 heartbeat IPC: 1.736 cumulative IPC: 0.6104 (Simulation time: 00 hr 15 min 07 sec)
Heartbeat CPU 0 instructions: 102000549 cycles: 100157002 heartbeat IPC: 1.747 cumulative IPC: 0.6142 (Simulation time: 00 hr 15 min 10 sec)
Heartbeat CPU 0 instructions: 102500550 cycles: 100948760 heartbeat IPC: 0.6315 cumulative IPC: 0.6144 (Simulation time: 00 hr 15 min 15 sec)
Heartbeat CPU 0 instructions: 103000555 cycles: 101213551 heartbeat IPC: 1.888 cumulative IPC: 0.6183 (Simulation time: 00 hr 15 min 18 sec)
Heartbeat CPU 0 instructions: 103500557 cycles: 102191453 heartbeat IPC: 0.5113 cumulative IPC: 0.6171 (Simulation time: 00 hr 15 min 25 sec)
Heartbeat CPU 0 instructions: 104000558 cycles: 102984954 heartbeat IPC: 0.6301 cumulative IPC: 0.6172 (Simulation time: 00 hr 15 min 31 sec)
Heartbeat CPU 0 instructions: 104500558 cycles: 103529040 heartbeat IPC: 0.919 cumulative IPC: 0.6191 (Simulation time: 00 hr 15 min 35 sec)
Heartbeat CPU 0 instructions: 105000558 cycles: 104998625 heartbeat IPC: 0.3402 cumulative IPC: 0.6145 (Simulation time: 00 hr 15 min 46 sec)
Heartbeat CPU 0 instructions: 105500560 cycles: 105363652 heartbeat IPC: 1.37 cumulative IPC: 0.6176 (Simulation time: 00 hr 15 min 49 sec)
Heartbeat CPU 0 instructions: 106000562 cycles: 105668715 heartbeat IPC: 1.639 cumulative IPC: 0.6211 (Simulation time: 00 hr 15 min 52 sec)
Heartbeat CPU 0 instructions: 106500566 cycles: 106099405 heartbeat IPC: 1.161 cumulative IPC: 0.6236 (Simulation time: 00 hr 15 min 56 sec)
Heartbeat CPU 0 instructions: 107000568 cycles: 107116298 heartbeat IPC: 0.4917 cumulative IPC: 0.6222 (Simulation time: 00 hr 16 min 03 sec)
Heartbeat CPU 0 instructions: 107500568 cycles: 107996377 heartbeat IPC: 0.5681 cumulative IPC: 0.6216 (Simulation time: 00 hr 16 min 09 sec)
Heartbeat CPU 0 instructions: 108000568 cycles: 109249557 heartbeat IPC: 0.399 cumulative IPC: 0.6187 (Simulation time: 00 hr 16 min 18 sec)
Heartbeat CPU 0 instructions: 108500571 cycles: 109604732 heartbeat IPC: 1.408 cumulative IPC: 0.6216 (Simulation time: 00 hr 16 min 21 sec)
Heartbeat CPU 0 instructions: 109000572 cycles: 109900763 heartbeat IPC: 1.689 cumulative IPC: 0.625 (Simulation time: 00 hr 16 min 24 sec)
Heartbeat CPU 0 instructions: 109500575 cycles: 110189477 heartbeat IPC: 1.732 cumulative IPC: 0.6284 (Simulation time: 00 hr 16 min 27 sec)
Heartbeat CPU 0 instructions: 110000581 cycles: 110903370 heartbeat IPC: 0.7004 cumulative IPC: 0.6289 (Simulation time: 00 hr 16 min 32 sec)
Heartbeat CPU 0 instructions: 110500585 cycles: 112357460 heartbeat IPC: 0.3439 cumulative IPC: 0.6246 (Simulation time: 00 hr 16 min 42 sec)
Heartbeat CPU 0 instructions: 111000592 cycles: 113033823 heartbeat IPC: 0.7393 cumulative IPC: 0.6254 (Simulation time: 00 hr 16 min 47 sec)
Heartbeat CPU 0 instructions: 111500596 cycles: 113332308 heartbeat IPC: 1.675 cumulative IPC: 0.6286 (Simulation time: 00 hr 16 min 50 sec)
Heartbeat CPU 0 instructions: 112000603 cycles: 113613340 heartbeat IPC: 1.779 cumulative IPC: 0.6319 (Simulation time: 00 hr 16 min 53 sec)
Heartbeat CPU 0 instructions: 112500605 cycles: 114294733 heartbeat IPC: 0.7338 cumulative IPC: 0.6326 (Simulation time: 00 hr 16 min 58 sec)
Heartbeat CPU 0 instructions: 113000606 cycles: 115805755 heartbeat IPC: 0.3309 cumulative IPC: 0.6281 (Simulation time: 00 hr 17 min 08 sec)
Heartbeat CPU 0 instructions: 113500610 cycles: 116708230 heartbeat IPC: 0.554 cumulative IPC: 0.6274 (Simulation time: 00 hr 17 min 14 sec)
Heartbeat CPU 0 instructions: 114000611 cycles: 117150681 heartbeat IPC: 1.13 cumulative IPC: 0.6296 (Simulation time: 00 hr 17 min 18 sec)
Heartbeat CPU 0 instructions: 114500613 cycles: 117934882 heartbeat IPC: 0.6376 cumulative IPC: 0.6297 (Simulation time: 00 hr 17 min 23 sec)
Heartbeat CPU 0 instructions: 115000620 cycles: 118232339 heartbeat IPC: 1.681 cumulative IPC: 0.6327 (Simulation time: 00 hr 17 min 26 sec)
Heartbeat CPU 0 instructions: 115500627 cycles: 119673578 heartbeat IPC: 0.3469 cumulative IPC: 0.6288 (Simulation time: 00 hr 17 min 36 sec)
Heartbeat CPU 0 instructions: 116000630 cycles: 120978419 heartbeat IPC: 0.3832 cumulative IPC: 0.6257 (Simulation time: 00 hr 17 min 45 sec)
Heartbeat CPU 0 instructions: 116500630 cycles: 121909466 heartbeat IPC: 0.537 cumulative IPC: 0.6249 (Simulation time: 00 hr 17 min 52 sec)
Heartbeat CPU 0 instructions: 117000631 cycles: 122799299 heartbeat IPC: 0.5619 cumulative IPC: 0.6244 (Simulation time: 00 hr 17 min 58 sec)
Heartbeat CPU 0 instructions: 117500632 cycles: 123123221 heartbeat IPC: 1.544 cumulative IPC: 0.6272 (Simulation time: 00 hr 18 min 01 sec)
Heartbeat CPU 0 instructions: 118000633 cycles: 123417296 heartbeat IPC: 1.7 cumulative IPC: 0.6301 (Simulation time: 00 hr 18 min 04 sec)
Heartbeat CPU 0 instructions: 118500639 cycles: 123704011 heartbeat IPC: 1.744 cumulative IPC: 0.6331 (Simulation time: 00 hr 18 min 07 sec)
Heartbeat CPU 0 instructions: 119000639 cycles: 124942549 heartbeat IPC: 0.4037 cumulative IPC: 0.6305 (Simulation time: 00 hr 18 min 15 sec)
Heartbeat CPU 0 instructions: 119500639 cycles: 125249145 heartbeat IPC: 1.631 cumulative IPC: 0.6333 (Simulation time: 00 hr 18 min 18 sec)
Heartbeat CPU 0 instructions: 120000646 cycles: 125545133 heartbeat IPC: 1.689 cumulative IPC: 0.6361 (Simulation time: 00 hr 18 min 21 sec)
Heartbeat CPU 0 instructions: 120500650 cycles: 126408394 heartbeat IPC: 0.5792 cumulative IPC: 0.6357 (Simulation time: 00 hr 18 min 27 sec)
Heartbeat CPU 0 instructions: 121000653 cycles: 126958808 heartbeat IPC: 0.9084 cumulative IPC: 0.637 (Simulation time: 00 hr 18 min 31 sec)
Heartbeat CPU 0 instructions: 121500655 cycles: 127265918 heartbeat IPC: 1.628 cumulative IPC: 0.6397 (Simulation time: 00 hr 18 min 34 sec)
Heartbeat CPU 0 instructions: 122000655 cycles: 127573752 heartbeat IPC: 1.624 cumulative IPC: 0.6424 (Simulation time: 00 hr 18 min 37 sec)
Heartbeat CPU 0 instructions: 122500655 cycles: 128764204 heartbeat IPC: 0.42 cumulative IPC: 0.6401 (Simulation time: 00 hr 18 min 45 sec)
Heartbeat CPU 0 instructions: 123000655 cycles: 129599734 heartbeat IPC: 0.5984 cumulative IPC: 0.6398 (Simulation time: 00 hr 18 min 52 sec)
Heartbeat CPU 0 instructions: 123500657 cycles: 130424409 heartbeat IPC: 0.6063 cumulative IPC: 0.6395 (Simulation time: 00 hr 18 min 58 sec)
Heartbeat CPU 0 instructions: 124000661 cycles: 131340918 heartbeat IPC: 0.5456 cumulative IPC: 0.6388 (Simulation time: 00 hr 19 min 05 sec)
Heartbeat CPU 0 instructions: 124500667 cycles: 132467025 heartbeat IPC: 0.444 cumulative IPC: 0.6369 (Simulation time: 00 hr 19 min 13 sec)
Heartbeat CPU 0 instructions: 125000670 cycles: 133831694 heartbeat IPC: 0.3664 cumulative IPC: 0.6338 (Simulation time: 00 hr 19 min 22 sec)
Heartbeat CPU 0 instructions: 125500673 cycles: 134678587 heartbeat IPC: 0.5904 cumulative IPC: 0.6335 (Simulation time: 00 hr 19 min 28 sec)
Heartbeat CPU 0 instructions: 126000674 cycles: 136047252 heartbeat IPC: 0.3653 cumulative IPC: 0.6305 (Simulation time: 00 hr 19 min 38 sec)
Heartbeat CPU 0 instructions: 126500674 cycles: 137089900 heartbeat IPC: 0.4795 cumulative IPC: 0.6292 (Simulation time: 00 hr 19 min 45 sec)
Heartbeat CPU 0 instructions: 127000674 cycles: 137907001 heartbeat IPC: 0.6119 cumulative IPC: 0.629 (Simulation time: 00 hr 19 min 51 sec)
Heartbeat CPU 0 instructions: 127500676 cycles: 138910606 heartbeat IPC: 0.4982 cumulative IPC: 0.628 (Simulation time: 00 hr 19 min 59 sec)
Heartbeat CPU 0 instructions: 128000682 cycles: 139802215 heartbeat IPC: 0.5608 cumulative IPC: 0.6275 (Simulation time: 00 hr 20 min 05 sec)
Heartbeat CPU 0 instructions: 128500686 cycles: 140748071 heartbeat IPC: 0.5286 cumulative IPC: 0.6268 (Simulation time: 00 hr 20 min 12 sec)
Heartbeat CPU 0 instructions: 129000687 cycles: 141518912 heartbeat IPC: 0.6486 cumulative IPC: 0.6269 (Simulation time: 00 hr 20 min 18 sec)
Heartbeat CPU 0 instructions: 129500687 cycles: 142545731 heartbeat IPC: 0.4869 cumulative IPC: 0.6258 (Simulation time: 00 hr 20 min 25 sec)
Heartbeat CPU 0 instructions: 130000687 cycles: 143406282 heartbeat IPC: 0.581 cumulative IPC: 0.6255 (Simulation time: 00 hr 20 min 32 sec)
Heartbeat CPU 0 instructions: 130500691 cycles: 144591811 heartbeat IPC: 0.4218 cumulative IPC: 0.6236 (Simulation time: 00 hr 20 min 40 sec)
Heartbeat CPU 0 instructions: 131000693 cycles: 145604406 heartbeat IPC: 0.4938 cumulative IPC: 0.6226 (Simulation time: 00 hr 20 min 47 sec)
Heartbeat CPU 0 instructions: 131500693 cycles: 146930553 heartbeat IPC: 0.377 cumulative IPC: 0.6201 (Simulation time: 00 hr 20 min 56 sec)
Heartbeat CPU 0 instructions: 132000694 cycles: 147711973 heartbeat IPC: 0.6399 cumulative IPC: 0.6202 (Simulation time: 00 hr 21 min 02 sec)
Heartbeat CPU 0 instructions: 132500695 cycles: 148975345 heartbeat IPC: 0.3958 cumulative IPC: 0.6181 (Simulation time: 00 hr 21 min 11 sec)
Heartbeat CPU 0 instructions: 133000697 cycles: 149925109 heartbeat IPC: 0.5264 cumulative IPC: 0.6174 (Simulation time: 00 hr 21 min 18 sec)
Heartbeat CPU 0 instructions: 133500699 cycles: 150741813 heartbeat IPC: 0.6122 cumulative IPC: 0.6174 (Simulation time: 00 hr 21 min 24 sec)
Heartbeat CPU 0 instructions: 134000699 cycles: 151920999 heartbeat IPC: 0.424 cumulative IPC: 0.6157 (Simulation time: 00 hr 21 min 32 sec)
Heartbeat CPU 0 instructions: 134500699 cycles: 152657882 heartbeat IPC: 0.6785 cumulative IPC: 0.6161 (Simulation time: 00 hr 21 min 38 sec)
Heartbeat CPU 0 instructions: 135000700 cycles: 153515784 heartbeat IPC: 0.5828 cumulative IPC: 0.6159 (Simulation time: 00 hr 21 min 44 sec)
Heartbeat CPU 0 instructions: 135500704 cycles: 154309843 heartbeat IPC: 0.6297 cumulative IPC: 0.6159 (Simulation time: 00 hr 21 min 50 sec)
Heartbeat CPU 0 instructions: 136000706 cycles: 155142710 heartbeat IPC: 0.6003 cumulative IPC: 0.6159 (Simulation time: 00 hr 21 min 56 sec)
Heartbeat CPU 0 instructions: 136500708 cycles: 156383578 heartbeat IPC: 0.4029 cumulative IPC: 0.614 (Simulation time: 00 hr 22 min 04 sec)
Heartbeat CPU 0 instructions: 137000710 cycles: 157359413 heartbeat IPC: 0.5124 cumulative IPC: 0.6133 (Simulation time: 00 hr 22 min 11 sec)
Heartbeat CPU 0 instructions: 137500713 cycles: 158165406 heartbeat IPC: 0.6204 cumulative IPC: 0.6133 (Simulation time: 00 hr 22 min 18 sec)
Heartbeat CPU 0 instructions: 138000714 cycles: 159065801 heartbeat IPC: 0.5553 cumulative IPC: 0.613 (Simulation time: 00 hr 22 min 24 sec)
Heartbeat CPU 0 instructions: 138500714 cycles: 160055952 heartbeat IPC: 0.505 cumulative IPC: 0.6122 (Simulation time: 00 hr 22 min 31 sec)
Heartbeat CPU 0 instructions: 139000718 cycles: 161104875 heartbeat IPC: 0.4767 cumulative IPC: 0.6112 (Simulation time: 00 hr 22 min 38 sec)
Heartbeat CPU 0 instructions: 139500719 cycles: 162593887 heartbeat IPC: 0.3358 cumulative IPC: 0.6085 (Simulation time: 00 hr 22 min 48 sec)
Heartbeat CPU 0 instructions: 140000719 cycles: 163776844 heartbeat IPC: 0.4227 cumulative IPC: 0.607 (Simulation time: 00 hr 22 min 56 sec)
Heartbeat CPU 0 instructions: 140500724 cycles: 165216026 heartbeat IPC: 0.3474 cumulative IPC: 0.6045 (Simulation time: 00 hr 23 min 06 sec)
Heartbeat CPU 0 instructions: 141000725 cycles: 166298282 heartbeat IPC: 0.462 cumulative IPC: 0.6035 (Simulation time: 00 hr 23 min 13 sec)
Heartbeat CPU 0 instructions: 141500725 cycles: 167131066 heartbeat IPC: 0.6004 cumulative IPC: 0.6034 (Simulation time: 00 hr 23 min 19 sec)
Heartbeat CPU 0 instructions: 142000726 cycles: 167438185 heartbeat IPC: 1.628 cumulative IPC: 0.6055 (Simulation time: 00 hr 23 min 22 sec)
Heartbeat CPU 0 instructions: 142500731 cycles: 167745934 heartbeat IPC: 1.625 cumulative IPC: 0.6076 (Simulation time: 00 hr 23 min 25 sec)
Heartbeat CPU 0 instructions: 143000731 cycles: 168074544 heartbeat IPC: 1.522 cumulative IPC: 0.6095 (Simulation time: 00 hr 23 min 28 sec)
Heartbeat CPU 0 instructions: 143500734 cycles: 168367176 heartbeat IPC: 1.709 cumulative IPC: 0.6116 (Simulation time: 00 hr 23 min 31 sec)
Heartbeat CPU 0 instructions: 144000735 cycles: 168627487 heartbeat IPC: 1.921 cumulative IPC: 0.6139 (Simulation time: 00 hr 23 min 33 sec)
Heartbeat CPU 0 instructions: 144500735 cycles: 168864601 heartbeat IPC: 2.109 cumulative IPC: 0.6162 (Simulation time: 00 hr 23 min 36 sec)
Heartbeat CPU 0 instructions: 145000737 cycles: 169105849 heartbeat IPC: 2.073 cumulative IPC: 0.6185 (Simulation time: 00 hr 23 min 38 sec)
Heartbeat CPU 0 instructions: 145500738 cycles: 169283683 heartbeat IPC: 2.812 cumulative IPC: 0.621 (Simulation time: 00 hr 23 min 40 sec)
Heartbeat CPU 0 instructions: 146000738 cycles: 170210306 heartbeat IPC: 0.5396 cumulative IPC: 0.6205 (Simulation time: 00 hr 23 min 46 sec)
Heartbeat CPU 0 instructions: 146500739 cycles: 171351501 heartbeat IPC: 0.4381 cumulative IPC: 0.6192 (Simulation time: 00 hr 23 min 54 sec)
Heartbeat CPU 0 instructions: 147000740 cycles: 172037070 heartbeat IPC: 0.7293 cumulative IPC: 0.6197 (Simulation time: 00 hr 24 min 00 sec)
Heartbeat CPU 0 instructions: 147500742 cycles: 173345691 heartbeat IPC: 0.3821 cumulative IPC: 0.6177 (Simulation time: 00 hr 24 min 08 sec)
Heartbeat CPU 0 instructions: 148000742 cycles: 174696980 heartbeat IPC: 0.37 cumulative IPC: 0.6156 (Simulation time: 00 hr 24 min 17 sec)
Heartbeat CPU 0 instructions: 148500742 cycles: 175468723 heartbeat IPC: 0.6479 cumulative IPC: 0.6157 (Simulation time: 00 hr 24 min 22 sec)
Heartbeat CPU 0 instructions: 149000747 cycles: 176504877 heartbeat IPC: 0.4826 cumulative IPC: 0.6149 (Simulation time: 00 hr 24 min 29 sec)
Heartbeat CPU 0 instructions: 149500747 cycles: 176799880 heartbeat IPC: 1.695 cumulative IPC: 0.6169 (Simulation time: 00 hr 24 min 32 sec)
Heartbeat CPU 0 instructions: 150000753 cycles: 177097323 heartbeat IPC: 1.681 cumulative IPC: 0.6188 (Simulation time: 00 hr 24 min 35 sec)
Heartbeat CPU 0 instructions: 150500755 cycles: 177363679 heartbeat IPC: 1.877 cumulative IPC: 0.6209 (Simulation time: 00 hr 24 min 38 sec)
Heartbeat CPU 0 instructions: 151000758 cycles: 177639008 heartbeat IPC: 1.816 cumulative IPC: 0.6229 (Simulation time: 00 hr 24 min 40 sec)
Heartbeat CPU 0 instructions: 151500758 cycles: 177900071 heartbeat IPC: 1.915 cumulative IPC: 0.625 (Simulation time: 00 hr 24 min 43 sec)
Heartbeat CPU 0 instructions: 152000758 cycles: 178125331 heartbeat IPC: 2.22 cumulative IPC: 0.6272 (Simulation time: 00 hr 24 min 45 sec)
Heartbeat CPU 0 instructions: 152500758 cycles: 178303149 heartbeat IPC: 2.812 cumulative IPC: 0.6296 (Simulation time: 00 hr 24 min 47 sec)
Heartbeat CPU 0 instructions: 153000758 cycles: 179288226 heartbeat IPC: 0.5076 cumulative IPC: 0.6289 (Simulation time: 00 hr 24 min 54 sec)
Heartbeat CPU 0 instructions: 153500758 cycles: 180558388 heartbeat IPC: 0.3937 cumulative IPC: 0.627 (Simulation time: 00 hr 25 min 02 sec)
Heartbeat CPU 0 instructions: 154000758 cycles: 181735336 heartbeat IPC: 0.4248 cumulative IPC: 0.6256 (Simulation time: 00 hr 25 min 10 sec)
Heartbeat CPU 0 instructions: 154500765 cycles: 183128437 heartbeat IPC: 0.3589 cumulative IPC: 0.6234 (Simulation time: 00 hr 25 min 19 sec)
Heartbeat CPU 0 instructions: 155000765 cycles: 184145933 heartbeat IPC: 0.4914 cumulative IPC: 0.6226 (Simulation time: 00 hr 25 min 26 sec)
Heartbeat CPU 0 instructions: 155500766 cycles: 185060608 heartbeat IPC: 0.5466 cumulative IPC: 0.6222 (Simulation time: 00 hr 25 min 32 sec)
Heartbeat CPU 0 instructions: 156000766 cycles: 186319464 heartbeat IPC: 0.3972 cumulative IPC: 0.6205 (Simulation time: 00 hr 25 min 41 sec)
Heartbeat CPU 0 instructions: 156500768 cycles: 187314737 heartbeat IPC: 0.5024 cumulative IPC: 0.6199 (Simulation time: 00 hr 25 min 47 sec)
Heartbeat CPU 0 instructions: 157000769 cycles: 188662155 heartbeat IPC: 0.3711 cumulative IPC: 0.6179 (Simulation time: 00 hr 25 min 56 sec)
Heartbeat CPU 0 instructions: 157500771 cycles: 189316158 heartbeat IPC: 0.7645 cumulative IPC: 0.6185 (Simulation time: 00 hr 26 min 01 sec)
Heartbeat CPU 0 instructions: 158000776 cycles: 189619849 heartbeat IPC: 1.646 cumulative IPC: 0.6203 (Simulation time: 00 hr 26 min 03 sec)
Heartbeat CPU 0 instructions: 158500783 cycles: 189875748 heartbeat IPC: 1.954 cumulative IPC: 0.6222 (Simulation time: 00 hr 26 min 06 sec)
Heartbeat CPU 0 instructions: 159000787 cycles: 190124573 heartbeat IPC: 2.009 cumulative IPC: 0.6242 (Simulation time: 00 hr 26 min 08 sec)
Heartbeat CPU 0 instructions: 159500792 cycles: 190388371 heartbeat IPC: 1.895 cumulative IPC: 0.6261 (Simulation time: 00 hr 26 min 11 sec)
Heartbeat CPU 0 instructions: 160000793 cycles: 190614340 heartbeat IPC: 2.213 cumulative IPC: 0.6282 (Simulation time: 00 hr 26 min 13 sec)
Heartbeat CPU 0 instructions: 160500793 cycles: 190845277 heartbeat IPC: 2.165 cumulative IPC: 0.6302 (Simulation time: 00 hr 26 min 16 sec)
Heartbeat CPU 0 instructions: 161000793 cycles: 191082126 heartbeat IPC: 2.111 cumulative IPC: 0.6322 (Simulation time: 00 hr 26 min 18 sec)
Heartbeat CPU 0 instructions: 161500796 cycles: 191300905 heartbeat IPC: 2.285 cumulative IPC: 0.6342 (Simulation time: 00 hr 26 min 21 sec)
Heartbeat CPU 0 instructions: 162000796 cycles: 191550437 heartbeat IPC: 2.004 cumulative IPC: 0.6362 (Simulation time: 00 hr 26 min 23 sec)
Heartbeat CPU 0 instructions: 162500796 cycles: 191726190 heartbeat IPC: 2.845 cumulative IPC: 0.6384 (Simulation time: 00 hr 26 min 25 sec)
Heartbeat CPU 0 instructions: 163000796 cycles: 191895849 heartbeat IPC: 2.947 cumulative IPC: 0.6406 (Simulation time: 00 hr 26 min 27 sec)
Heartbeat CPU 0 instructions: 163500797 cycles: 192080575 heartbeat IPC: 2.707 cumulative IPC: 0.6428 (Simulation time: 00 hr 26 min 29 sec)
Heartbeat CPU 0 instructions: 164000797 cycles: 193018690 heartbeat IPC: 0.533 cumulative IPC: 0.6422 (Simulation time: 00 hr 26 min 35 sec)
Heartbeat CPU 0 instructions: 164500800 cycles: 194165443 heartbeat IPC: 0.436 cumulative IPC: 0.6409 (Simulation time: 00 hr 26 min 43 sec)
Heartbeat CPU 0 instructions: 165000806 cycles: 195250531 heartbeat IPC: 0.4608 cumulative IPC: 0.6398 (Simulation time: 00 hr 26 min 50 sec)
Heartbeat CPU 0 instructions: 165500807 cycles: 196586942 heartbeat IPC: 0.3741 cumulative IPC: 0.6378 (Simulation time: 00 hr 26 min 58 sec)
Heartbeat CPU 0 instructions: 166000808 cycles: 197491116 heartbeat IPC: 0.553 cumulative IPC: 0.6374 (Simulation time: 00 hr 27 min 04 sec)
Heartbeat CPU 0 instructions: 166500808 cycles: 198440612 heartbeat IPC: 0.5266 cumulative IPC: 0.6368 (Simulation time: 00 hr 27 min 11 sec)
Heartbeat CPU 0 instructions: 167000808 cycles: 199420568 heartbeat IPC: 0.5102 cumulative IPC: 0.6361 (Simulation time: 00 hr 27 min 17 sec)
Heartbeat CPU 0 instructions: 167500812 cycles: 200147192 heartbeat IPC: 0.6881 cumulative IPC: 0.6363 (Simulation time: 00 hr 27 min 22 sec)
Heartbeat CPU 0 instructions: 168000813 cycles: 201032573 heartbeat IPC: 0.5647 cumulative IPC: 0.636 (Simulation time: 00 hr 27 min 28 sec)
Heartbeat CPU 0 instructions: 168500813 cycles: 201992544 heartbeat IPC: 0.5208 cumulative IPC: 0.6354 (Simulation time: 00 hr 27 min 35 sec)
Heartbeat CPU 0 instructions: 169000816 cycles: 202826758 heartbeat IPC: 0.5994 cumulative IPC: 0.6353 (Simulation time: 00 hr 27 min 41 sec)
Heartbeat CPU 0 instructions: 169500816 cycles: 203418668 heartbeat IPC: 0.8447 cumulative IPC: 0.6359 (Simulation time: 00 hr 27 min 45 sec)
Heartbeat CPU 0 instructions: 170000820 cycles: 203767416 heartbeat IPC: 1.434 cumulative IPC: 0.6374 (Simulation time: 00 hr 27 min 47 sec)
Heartbeat CPU 0 instructions: 170500820 cycles: 204601098 heartbeat IPC: 0.5997 cumulative IPC: 0.6372 (Simulation time: 00 hr 27 min 53 sec)
Heartbeat CPU 0 instructions: 171000821 cycles: 205544424 heartbeat IPC: 0.53 cumulative IPC: 0.6367 (Simulation time: 00 hr 27 min 59 sec)
Heartbeat CPU 0 instructions: 171500822 cycles: 205841038 heartbeat IPC: 1.686 cumulative IPC: 0.6383 (Simulation time: 00 hr 28 min 01 sec)
Heartbeat CPU 0 instructions: 172000822 cycles: 207071760 heartbeat IPC: 0.4063 cumulative IPC: 0.6368 (Simulation time: 00 hr 28 min 09 sec)
Heartbeat CPU 0 instructions: 172500822 cycles: 208584964 heartbeat IPC: 0.3304 cumulative IPC: 0.6344 (Simulation time: 00 hr 28 min 18 sec)
Heartbeat CPU 0 instructions: 173000823 cycles: 209464920 heartbeat IPC: 0.5682 cumulative IPC: 0.6341 (Simulation time: 00 hr 28 min 24 sec)
Heartbeat CPU 0 instructions: 173500824 cycles: 210971110 heartbeat IPC: 0.332 cumulative IPC: 0.6318 (Simulation time: 00 hr 28 min 33 sec)
Heartbeat CPU 0 instructions: 174000825 cycles: 212228559 heartbeat IPC: 0.3976 cumulative IPC: 0.6303 (Simulation time: 00 hr 28 min 40 sec)
Heartbeat CPU 0 instructions: 174500825 cycles: 212950081 heartbeat IPC: 0.693 cumulative IPC: 0.6305 (Simulation time: 00 hr 28 min 46 sec)
Heartbeat CPU 0 instructions: 175000825 cycles: 213453391 heartbeat IPC: 0.9934 cumulative IPC: 0.6315 (Simulation time: 00 hr 28 min 49 sec)
Heartbeat CPU 0 instructions: 175500828 cycles: 213888056 heartbeat IPC: 1.15 cumulative IPC: 0.6326 (Simulation time: 00 hr 28 min 53 sec)
Heartbeat CPU 0 instructions: 176000828 cycles: 214890869 heartbeat IPC: 0.4986 cumulative IPC: 0.6319 (Simulation time: 00 hr 28 min 59 sec)
Heartbeat CPU 0 instructions: 176500831 cycles: 216507759 heartbeat IPC: 0.3092 cumulative IPC: 0.6293 (Simulation time: 00 hr 29 min 09 sec)
Heartbeat CPU 0 instructions: 177000836 cycles: 217685609 heartbeat IPC: 0.4245 cumulative IPC: 0.6281 (Simulation time: 00 hr 29 min 16 sec)
Heartbeat CPU 0 instructions: 177500843 cycles: 218578343 heartbeat IPC: 0.5601 cumulative IPC: 0.6278 (Simulation time: 00 hr 29 min 22 sec)
Heartbeat CPU 0 instructions: 178000846 cycles: 218916952 heartbeat IPC: 1.477 cumulative IPC: 0.6292 (Simulation time: 00 hr 29 min 25 sec)
Heartbeat CPU 0 instructions: 178500846 cycles: 219152043 heartbeat IPC: 2.127 cumulative IPC: 0.631 (Simulation time: 00 hr 29 min 27 sec)
Heartbeat CPU 0 instructions: 179000847 cycles: 219427171 heartbeat IPC: 1.817 cumulative IPC: 0.6326 (Simulation time: 00 hr 29 min 30 sec)
Heartbeat CPU 0 instructions: 179500848 cycles: 219674552 heartbeat IPC: 2.021 cumulative IPC: 0.6343 (Simulation time: 00 hr 29 min 32 sec)
Heartbeat CPU 0 instructions: 180000848 cycles: 219849734 heartbeat IPC: 2.854 cumulative IPC: 0.6362 (Simulation time: 00 hr 29 min 34 sec)
Heartbeat CPU 0 instructions: 180500851 cycles: 220912605 heartbeat IPC: 0.4704 cumulative IPC: 0.6353 (Simulation time: 00 hr 29 min 41 sec)
Heartbeat CPU 0 instructions: 181000854 cycles: 222016782 heartbeat IPC: 0.4528 cumulative IPC: 0.6343 (Simulation time: 00 hr 29 min 48 sec)
Heartbeat CPU 0 instructions: 181500857 cycles: 223191640 heartbeat IPC: 0.4256 cumulative IPC: 0.6331 (Simulation time: 00 hr 29 min 55 sec)
Heartbeat CPU 0 instructions: 182000861 cycles: 224236292 heartbeat IPC: 0.4786 cumulative IPC: 0.6324 (Simulation time: 00 hr 30 min 02 sec)
Heartbeat CPU 0 instructions: 182500863 cycles: 225353273 heartbeat IPC: 0.4476 cumulative IPC: 0.6314 (Simulation time: 00 hr 30 min 09 sec)
Heartbeat CPU 0 instructions: 183000863 cycles: 226348831 heartbeat IPC: 0.5022 cumulative IPC: 0.6308 (Simulation time: 00 hr 30 min 16 sec)
Heartbeat CPU 0 instructions: 183500863 cycles: 226868958 heartbeat IPC: 0.9613 cumulative IPC: 0.6316 (Simulation time: 00 hr 30 min 20 sec)
Heartbeat CPU 0 instructions: 184000864 cycles: 227840757 heartbeat IPC: 0.5145 cumulative IPC: 0.6311 (Simulation time: 00 hr 30 min 30 sec)
Heartbeat CPU 0 instructions: 184500864 cycles: 228188052 heartbeat IPC: 1.44 cumulative IPC: 0.6324 (Simulation time: 00 hr 30 min 33 sec)
Heartbeat CPU 0 instructions: 185000869 cycles: 228532552 heartbeat IPC: 1.451 cumulative IPC: 0.6337 (Simulation time: 00 hr 30 min 36 sec)
Heartbeat CPU 0 instructions: 185500871 cycles: 228875903 heartbeat IPC: 1.456 cumulative IPC: 0.635 (Simulation time: 00 hr 30 min 39 sec)
Heartbeat CPU 0 instructions: 186000877 cycles: 230339446 heartbeat IPC: 0.3416 cumulative IPC: 0.633 (Simulation time: 00 hr 30 min 48 sec)
Heartbeat CPU 0 instructions: 186500879 cycles: 232077016 heartbeat IPC: 0.2878 cumulative IPC: 0.6303 (Simulation time: 00 hr 30 min 59 sec)
Heartbeat CPU 0 instructions: 187000883 cycles: 233137432 heartbeat IPC: 0.4715 cumulative IPC: 0.6295 (Simulation time: 00 hr 31 min 06 sec)
Heartbeat CPU 0 instructions: 187500884 cycles: 234124746 heartbeat IPC: 0.5064 cumulative IPC: 0.6289 (Simulation time: 00 hr 31 min 12 sec)
Heartbeat CPU 0 instructions: 188000890 cycles: 235165682 heartbeat IPC: 0.4803 cumulative IPC: 0.6282 (Simulation time: 00 hr 31 min 19 sec)
Heartbeat CPU 0 instructions: 188500897 cycles: 236006504 heartbeat IPC: 0.5947 cumulative IPC: 0.6281 (Simulation time: 00 hr 31 min 25 sec)
Heartbeat CPU 0 instructions: 189000897 cycles: 237466576 heartbeat IPC: 0.3424 cumulative IPC: 0.6262 (Simulation time: 00 hr 31 min 33 sec)
Heartbeat CPU 0 instructions: 189500897 cycles: 238772853 heartbeat IPC: 0.3828 cumulative IPC: 0.6248 (Simulation time: 00 hr 31 min 42 sec)
Heartbeat CPU 0 instructions: 190000897 cycles: 239841853 heartbeat IPC: 0.4677 cumulative IPC: 0.624 (Simulation time: 00 hr 31 min 48 sec)
Heartbeat CPU 0 instructions: 190500897 cycles: 240721470 heartbeat IPC: 0.5684 cumulative IPC: 0.6238 (Simulation time: 00 hr 31 min 54 sec)
Heartbeat CPU 0 instructions: 191000898 cycles: 241363011 heartbeat IPC: 0.7794 cumulative IPC: 0.6243 (Simulation time: 00 hr 31 min 59 sec)
Heartbeat CPU 0 instructions: 191500901 cycles: 242544523 heartbeat IPC: 0.4232 cumulative IPC: 0.6232 (Simulation time: 00 hr 32 min 06 sec)
Heartbeat CPU 0 instructions: 192000903 cycles: 243510947 heartbeat IPC: 0.5174 cumulative IPC: 0.6228 (Simulation time: 00 hr 32 min 13 sec)
Heartbeat CPU 0 instructions: 192500903 cycles: 243818518 heartbeat IPC: 1.626 cumulative IPC: 0.6241 (Simulation time: 00 hr 32 min 15 sec)
Heartbeat CPU 0 instructions: 193000903 cycles: 244490079 heartbeat IPC: 0.7445 cumulative IPC: 0.6245 (Simulation time: 00 hr 32 min 20 sec)
Heartbeat CPU 0 instructions: 193500905 cycles: 245945905 heartbeat IPC: 0.3434 cumulative IPC: 0.6227 (Simulation time: 00 hr 32 min 29 sec)
Heartbeat CPU 0 instructions: 194000907 cycles: 247305670 heartbeat IPC: 0.3677 cumulative IPC: 0.6212 (Simulation time: 00 hr 32 min 38 sec)
Heartbeat CPU 0 instructions: 194500907 cycles: 248136592 heartbeat IPC: 0.6017 cumulative IPC: 0.6211 (Simulation time: 00 hr 32 min 43 sec)
Heartbeat CPU 0 instructions: 195000907 cycles: 248481856 heartbeat IPC: 1.448 cumulative IPC: 0.6224 (Simulation time: 00 hr 32 min 46 sec)
Heartbeat CPU 0 instructions: 195500908 cycles: 249873716 heartbeat IPC: 0.3592 cumulative IPC: 0.6208 (Simulation time: 00 hr 32 min 54 sec)
Heartbeat CPU 0 instructions: 196000909 cycles: 250710237 heartbeat IPC: 0.5977 cumulative IPC: 0.6207 (Simulation time: 00 hr 33 min 00 sec)
Heartbeat CPU 0 instructions: 196500909 cycles: 251766487 heartbeat IPC: 0.4734 cumulative IPC: 0.6201 (Simulation time: 00 hr 33 min 07 sec)
Heartbeat CPU 0 instructions: 197000912 cycles: 252618136 heartbeat IPC: 0.5871 cumulative IPC: 0.6199 (Simulation time: 00 hr 33 min 12 sec)
Heartbeat CPU 0 instructions: 197500917 cycles: 254053363 heartbeat IPC: 0.3484 cumulative IPC: 0.6183 (Simulation time: 00 hr 33 min 21 sec)
Heartbeat CPU 0 instructions: 198000918 cycles: 255118293 heartbeat IPC: 0.4695 cumulative IPC: 0.6176 (Simulation time: 00 hr 33 min 28 sec)
Heartbeat CPU 0 instructions: 198500919 cycles: 256042840 heartbeat IPC: 0.5408 cumulative IPC: 0.6174 (Simulation time: 00 hr 33 min 34 sec)
Heartbeat CPU 0 instructions: 199000924 cycles: 257012052 heartbeat IPC: 0.5159 cumulative IPC: 0.6169 (Simulation time: 00 hr 33 min 40 sec)
Heartbeat CPU 0 instructions: 199500927 cycles: 257851993 heartbeat IPC: 0.5953 cumulative IPC: 0.6169 (Simulation time: 00 hr 33 min 46 sec)
Heartbeat CPU 0 instructions: 200000927 cycles: 258537466 heartbeat IPC: 0.7294 cumulative IPC: 0.6172 (Simulation time: 00 hr 33 min 50 sec)
Heartbeat CPU 0 instructions: 200500934 cycles: 259789054 heartbeat IPC: 0.3995 cumulative IPC: 0.6161 (Simulation time: 00 hr 33 min 58 sec)
Heartbeat CPU 0 instructions: 201000935 cycles: 261131182 heartbeat IPC: 0.3725 cumulative IPC: 0.6147 (Simulation time: 00 hr 34 min 07 sec)
Heartbeat CPU 0 instructions: 201500935 cycles: 261924652 heartbeat IPC: 0.6301 cumulative IPC: 0.6148 (Simulation time: 00 hr 34 min 12 sec)
Heartbeat CPU 0 instructions: 202000938 cycles: 263110549 heartbeat IPC: 0.4216 cumulative IPC: 0.6139 (Simulation time: 00 hr 34 min 20 sec)
Heartbeat CPU 0 instructions: 202500938 cycles: 263807640 heartbeat IPC: 0.7173 cumulative IPC: 0.6142 (Simulation time: 00 hr 34 min 24 sec)
Heartbeat CPU 0 instructions: 203000939 cycles: 264507274 heartbeat IPC: 0.7147 cumulative IPC: 0.6144 (Simulation time: 00 hr 34 min 29 sec)
Heartbeat CPU 0 instructions: 203500941 cycles: 265844573 heartbeat IPC: 0.3739 cumulative IPC: 0.6132 (Simulation time: 00 hr 34 min 38 sec)
Heartbeat CPU 0 instructions: 204000941 cycles: 266759487 heartbeat IPC: 0.5465 cumulative IPC: 0.6129 (Simulation time: 00 hr 34 min 43 sec)
Heartbeat CPU 0 instructions: 204500946 cycles: 267715354 heartbeat IPC: 0.5231 cumulative IPC: 0.6126 (Simulation time: 00 hr 34 min 50 sec)
Heartbeat CPU 0 instructions: 205000948 cycles: 268769177 heartbeat IPC: 0.4745 cumulative IPC: 0.612 (Simulation time: 00 hr 34 min 56 sec)
Heartbeat CPU 0 instructions: 205500948 cycles: 269604554 heartbeat IPC: 0.5985 cumulative IPC: 0.612 (Simulation time: 00 hr 35 min 02 sec)
Heartbeat CPU 0 instructions: 206000953 cycles: 271004444 heartbeat IPC: 0.3572 cumulative IPC: 0.6106 (Simulation time: 00 hr 35 min 10 sec)
Heartbeat CPU 0 instructions: 206500955 cycles: 271887676 heartbeat IPC: 0.5661 cumulative IPC: 0.6104 (Simulation time: 00 hr 35 min 16 sec)
Heartbeat CPU 0 instructions: 207000959 cycles: 272416152 heartbeat IPC: 0.9461 cumulative IPC: 0.6111 (Simulation time: 00 hr 35 min 20 sec)
Heartbeat CPU 0 instructions: 207500965 cycles: 272795216 heartbeat IPC: 1.319 cumulative IPC: 0.6121 (Simulation time: 00 hr 35 min 24 sec)
Heartbeat CPU 0 instructions: 208000968 cycles: 273106541 heartbeat IPC: 1.606 cumulative IPC: 0.6133 (Simulation time: 00 hr 35 min 27 sec)
Heartbeat CPU 0 instructions: 208500975 cycles: 273410371 heartbeat IPC: 1.646 cumulative IPC: 0.6146 (Simulation time: 00 hr 35 min 29 sec)
Heartbeat CPU 0 instructions: 209000980 cycles: 273714563 heartbeat IPC: 1.644 cumulative IPC: 0.6158 (Simulation time: 00 hr 35 min 32 sec)
Heartbeat CPU 0 instructions: 209500982 cycles: 274026171 heartbeat IPC: 1.605 cumulative IPC: 0.617 (Simulation time: 00 hr 35 min 35 sec)
Heartbeat CPU 0 instructions: 210000986 cycles: 275303578 heartbeat IPC: 0.3914 cumulative IPC: 0.6159 (Simulation time: 00 hr 35 min 43 sec)
Heartbeat CPU 0 instructions: 210500989 cycles: 276780003 heartbeat IPC: 0.3387 cumulative IPC: 0.6143 (Simulation time: 00 hr 35 min 52 sec)
Heartbeat CPU 0 instructions: 211000989 cycles: 278200430 heartbeat IPC: 0.352 cumulative IPC: 0.6129 (Simulation time: 00 hr 36 min 01 sec)
Heartbeat CPU 0 instructions: 211500989 cycles: 279289676 heartbeat IPC: 0.459 cumulative IPC: 0.6122 (Simulation time: 00 hr 36 min 08 sec)
Heartbeat CPU 0 instructions: 212000991 cycles: 280502479 heartbeat IPC: 0.4123 cumulative IPC: 0.6113 (Simulation time: 00 hr 36 min 16 sec)
Heartbeat CPU 0 instructions: 212500991 cycles: 281545298 heartbeat IPC: 0.4795 cumulative IPC: 0.6108 (Simulation time: 00 hr 36 min 22 sec)
Heartbeat CPU 0 instructions: 213000991 cycles: 282612665 heartbeat IPC: 0.4684 cumulative IPC: 0.6102 (Simulation time: 00 hr 36 min 29 sec)
Heartbeat CPU 0 instructions: 213500991 cycles: 284113963 heartbeat IPC: 0.333 cumulative IPC: 0.6087 (Simulation time: 00 hr 36 min 38 sec)
Heartbeat CPU 0 instructions: 214000993 cycles: 285301228 heartbeat IPC: 0.4211 cumulative IPC: 0.6079 (Simulation time: 00 hr 36 min 46 sec)
Heartbeat CPU 0 instructions: 214500993 cycles: 286605268 heartbeat IPC: 0.3834 cumulative IPC: 0.6068 (Simulation time: 00 hr 36 min 54 sec)
Heartbeat CPU 0 instructions: 215000993 cycles: 287735233 heartbeat IPC: 0.4425 cumulative IPC: 0.6061 (Simulation time: 00 hr 37 min 01 sec)
Heartbeat CPU 0 instructions: 215500993 cycles: 288786643 heartbeat IPC: 0.4756 cumulative IPC: 0.6056 (Simulation time: 00 hr 37 min 08 sec)
Heartbeat CPU 0 instructions: 216000998 cycles: 289647552 heartbeat IPC: 0.5808 cumulative IPC: 0.6055 (Simulation time: 00 hr 37 min 14 sec)
Heartbeat CPU 0 instructions: 216501000 cycles: 290464112 heartbeat IPC: 0.6123 cumulative IPC: 0.6055 (Simulation time: 00 hr 37 min 19 sec)
Heartbeat CPU 0 instructions: 217001000 cycles: 291166014 heartbeat IPC: 0.7124 cumulative IPC: 0.6058 (Simulation time: 00 hr 37 min 24 sec)
Heartbeat CPU 0 instructions: 217501000 cycles: 291959002 heartbeat IPC: 0.6305 cumulative IPC: 0.6059 (Simulation time: 00 hr 37 min 29 sec)
Heartbeat CPU 0 instructions: 218001000 cycles: 292826050 heartbeat IPC: 0.5767 cumulative IPC: 0.6058 (Simulation time: 00 hr 37 min 35 sec)
Heartbeat CPU 0 instructions: 218501000 cycles: 293864088 heartbeat IPC: 0.4817 cumulative IPC: 0.6053 (Simulation time: 00 hr 37 min 42 sec)
Heartbeat CPU 0 instructions: 219001004 cycles: 294674582 heartbeat IPC: 0.6169 cumulative IPC: 0.6054 (Simulation time: 00 hr 37 min 47 sec)
Heartbeat CPU 0 instructions: 219501004 cycles: 295316419 heartbeat IPC: 0.779 cumulative IPC: 0.6058 (Simulation time: 00 hr 37 min 52 sec)
Heartbeat CPU 0 instructions: 220001005 cycles: 296061279 heartbeat IPC: 0.6713 cumulative IPC: 0.6059 (Simulation time: 00 hr 37 min 57 sec)
Heartbeat CPU 0 instructions: 220501006 cycles: 296810152 heartbeat IPC: 0.6677 cumulative IPC: 0.6061 (Simulation time: 00 hr 38 min 02 sec)
Heartbeat CPU 0 instructions: 221001008 cycles: 297438436 heartbeat IPC: 0.7958 cumulative IPC: 0.6065 (Simulation time: 00 hr 38 min 07 sec)
Heartbeat CPU 0 instructions: 221501012 cycles: 297748934 heartbeat IPC: 1.61 cumulative IPC: 0.6076 (Simulation time: 00 hr 38 min 09 sec)
Heartbeat CPU 0 instructions: 222001018 cycles: 297991834 heartbeat IPC: 2.058 cumulative IPC: 0.6089 (Simulation time: 00 hr 38 min 12 sec)
Heartbeat CPU 0 instructions: 222501018 cycles: 298257378 heartbeat IPC: 1.883 cumulative IPC: 0.6101 (Simulation time: 00 hr 38 min 14 sec)
Heartbeat CPU 0 instructions: 223001019 cycles: 298436961 heartbeat IPC: 2.784 cumulative IPC: 0.6114 (Simulation time: 00 hr 38 min 16 sec)
Heartbeat CPU 0 instructions: 223501020 cycles: 299611006 heartbeat IPC: 0.4259 cumulative IPC: 0.6107 (Simulation time: 00 hr 38 min 23 sec)
Heartbeat CPU 0 instructions: 224001021 cycles: 300829403 heartbeat IPC: 0.4104 cumulative IPC: 0.6098 (Simulation time: 00 hr 38 min 31 sec)
Heartbeat CPU 0 instructions: 224501021 cycles: 301849144 heartbeat IPC: 0.4903 cumulative IPC: 0.6094 (Simulation time: 00 hr 38 min 37 sec)
Heartbeat CPU 0 instructions: 225001021 cycles: 303009761 heartbeat IPC: 0.4308 cumulative IPC: 0.6087 (Simulation time: 00 hr 38 min 45 sec)
Heartbeat CPU 0 instructions: 225501027 cycles: 303525396 heartbeat IPC: 0.9697 cumulative IPC: 0.6093 (Simulation time: 00 hr 38 min 49 sec)
Heartbeat CPU 0 instructions: 226001028 cycles: 303769188 heartbeat IPC: 2.051 cumulative IPC: 0.6105 (Simulation time: 00 hr 38 min 51 sec)
Heartbeat CPU 0 instructions: 226501030 cycles: 304211471 heartbeat IPC: 1.131 cumulative IPC: 0.6113 (Simulation time: 00 hr 38 min 55 sec)
Heartbeat CPU 0 instructions: 227001030 cycles: 305198265 heartbeat IPC: 0.5067 cumulative IPC: 0.611 (Simulation time: 00 hr 39 min 01 sec)
Heartbeat CPU 0 instructions: 227501031 cycles: 306064013 heartbeat IPC: 0.5775 cumulative IPC: 0.6109 (Simulation time: 00 hr 39 min 07 sec)
Heartbeat CPU 0 instructions: 228001036 cycles: 306802224 heartbeat IPC: 0.6773 cumulative IPC: 0.611 (Simulation time: 00 hr 39 min 12 sec)
Heartbeat CPU 0 instructions: 228501042 cycles: 307119784 heartbeat IPC: 1.575 cumulative IPC: 0.6121 (Simulation time: 00 hr 39 min 15 sec)
Heartbeat CPU 0 instructions: 229001045 cycles: 308015341 heartbeat IPC: 0.5583 cumulative IPC: 0.6119 (Simulation time: 00 hr 39 min 21 sec)
Heartbeat CPU 0 instructions: 229501050 cycles: 309076673 heartbeat IPC: 0.4711 cumulative IPC: 0.6114 (Simulation time: 00 hr 39 min 27 sec)
Heartbeat CPU 0 instructions: 230001050 cycles: 310015371 heartbeat IPC: 0.5327 cumulative IPC: 0.6112 (Simulation time: 00 hr 39 min 33 sec)
Heartbeat CPU 0 instructions: 230501051 cycles: 311097373 heartbeat IPC: 0.4621 cumulative IPC: 0.6106 (Simulation time: 00 hr 39 min 41 sec)
Heartbeat CPU 0 instructions: 231001053 cycles: 311604415 heartbeat IPC: 0.9861 cumulative IPC: 0.6113 (Simulation time: 00 hr 39 min 45 sec)
Heartbeat CPU 0 instructions: 231501053 cycles: 311909481 heartbeat IPC: 1.639 cumulative IPC: 0.6123 (Simulation time: 00 hr 39 min 47 sec)
Heartbeat CPU 0 instructions: 232001057 cycles: 312272001 heartbeat IPC: 1.379 cumulative IPC: 0.6133 (Simulation time: 00 hr 39 min 51 sec)
Heartbeat CPU 0 instructions: 232501059 cycles: 312616206 heartbeat IPC: 1.453 cumulative IPC: 0.6142 (Simulation time: 00 hr 39 min 54 sec)
Heartbeat CPU 0 instructions: 233001059 cycles: 312974211 heartbeat IPC: 1.397 cumulative IPC: 0.6152 (Simulation time: 00 hr 39 min 57 sec)
Heartbeat CPU 0 instructions: 233501061 cycles: 314130388 heartbeat IPC: 0.4325 cumulative IPC: 0.6145 (Simulation time: 00 hr 40 min 04 sec)
Heartbeat CPU 0 instructions: 234001061 cycles: 315105784 heartbeat IPC: 0.5126 cumulative IPC: 0.6141 (Simulation time: 00 hr 40 min 11 sec)
Heartbeat CPU 0 instructions: 234501062 cycles: 316242109 heartbeat IPC: 0.44 cumulative IPC: 0.6135 (Simulation time: 00 hr 40 min 18 sec)
Heartbeat CPU 0 instructions: 235001069 cycles: 317210224 heartbeat IPC: 0.5165 cumulative IPC: 0.6132 (Simulation time: 00 hr 40 min 25 sec)
Heartbeat CPU 0 instructions: 235501072 cycles: 317915940 heartbeat IPC: 0.7085 cumulative IPC: 0.6134 (Simulation time: 00 hr 40 min 30 sec)
Heartbeat CPU 0 instructions: 236001072 cycles: 318960506 heartbeat IPC: 0.4787 cumulative IPC: 0.6129 (Simulation time: 00 hr 40 min 36 sec)
Heartbeat CPU 0 instructions: 236501079 cycles: 319736046 heartbeat IPC: 0.6447 cumulative IPC: 0.613 (Simulation time: 00 hr 40 min 41 sec)
Heartbeat CPU 0 instructions: 237001083 cycles: 320038829 heartbeat IPC: 1.651 cumulative IPC: 0.614 (Simulation time: 00 hr 40 min 44 sec)
Heartbeat CPU 0 instructions: 237501083 cycles: 320399856 heartbeat IPC: 1.385 cumulative IPC: 0.615 (Simulation time: 00 hr 40 min 47 sec)
Heartbeat CPU 0 instructions: 238001084 cycles: 321878008 heartbeat IPC: 0.3383 cumulative IPC: 0.6136 (Simulation time: 00 hr 40 min 56 sec)
Heartbeat CPU 0 instructions: 238501084 cycles: 323460719 heartbeat IPC: 0.3159 cumulative IPC: 0.6121 (Simulation time: 00 hr 41 min 05 sec)
Heartbeat CPU 0 instructions: 239001085 cycles: 324277101 heartbeat IPC: 0.6125 cumulative IPC: 0.6121 (Simulation time: 00 hr 41 min 11 sec)
Heartbeat CPU 0 instructions: 239501086 cycles: 325299481 heartbeat IPC: 0.4891 cumulative IPC: 0.6117 (Simulation time: 00 hr 41 min 17 sec)
Heartbeat CPU 0 instructions: 240001091 cycles: 326970419 heartbeat IPC: 0.2992 cumulative IPC: 0.61 (Simulation time: 00 hr 41 min 27 sec)
Heartbeat CPU 0 instructions: 240501095 cycles: 327425782 heartbeat IPC: 1.098 cumulative IPC: 0.6107 (Simulation time: 00 hr 41 min 30 sec)
Heartbeat CPU 0 instructions: 241001099 cycles: 327598880 heartbeat IPC: 2.889 cumulative IPC: 0.612 (Simulation time: 00 hr 41 min 32 sec)
Heartbeat CPU 0 instructions: 241501100 cycles: 327804092 heartbeat IPC: 2.437 cumulative IPC: 0.6132 (Simulation time: 00 hr 41 min 34 sec)
Heartbeat CPU 0 instructions: 242001101 cycles: 327917715 heartbeat IPC: 4.401 cumulative IPC: 0.6146 (Simulation time: 00 hr 41 min 36 sec)
Heartbeat CPU 0 instructions: 242501101 cycles: 328029416 heartbeat IPC: 4.476 cumulative IPC: 0.6159 (Simulation time: 00 hr 41 min 38 sec)
Heartbeat CPU 0 instructions: 243001106 cycles: 328178000 heartbeat IPC: 3.365 cumulative IPC: 0.6172 (Simulation time: 00 hr 41 min 40 sec)
Heartbeat CPU 0 instructions: 243501107 cycles: 328307129 heartbeat IPC: 3.872 cumulative IPC: 0.6186 (Simulation time: 00 hr 41 min 42 sec)
Heartbeat CPU 0 instructions: 244001109 cycles: 328747500 heartbeat IPC: 1.135 cumulative IPC: 0.6193 (Simulation time: 00 hr 41 min 45 sec)
Heartbeat CPU 0 instructions: 244501109 cycles: 330592826 heartbeat IPC: 0.271 cumulative IPC: 0.6173 (Simulation time: 00 hr 41 min 56 sec)
Heartbeat CPU 0 instructions: 245001115 cycles: 331705639 heartbeat IPC: 0.4493 cumulative IPC: 0.6167 (Simulation time: 00 hr 42 min 03 sec)
Heartbeat CPU 0 instructions: 245501117 cycles: 332997005 heartbeat IPC: 0.3872 cumulative IPC: 0.6158 (Simulation time: 00 hr 42 min 11 sec)
Heartbeat CPU 0 instructions: 246001121 cycles: 333464101 heartbeat IPC: 1.07 cumulative IPC: 0.6164 (Simulation time: 00 hr 42 min 15 sec)
Heartbeat CPU 0 instructions: 246501127 cycles: 334567677 heartbeat IPC: 0.4531 cumulative IPC: 0.6159 (Simulation time: 00 hr 42 min 22 sec)
Heartbeat CPU 0 instructions: 247001127 cycles: 334890063 heartbeat IPC: 1.551 cumulative IPC: 0.6168 (Simulation time: 00 hr 42 min 25 sec)
Heartbeat CPU 0 instructions: 247501127 cycles: 335130300 heartbeat IPC: 2.081 cumulative IPC: 0.6179 (Simulation time: 00 hr 42 min 27 sec)
Heartbeat CPU 0 instructions: 248001134 cycles: 335390549 heartbeat IPC: 1.921 cumulative IPC: 0.619 (Simulation time: 00 hr 42 min 29 sec)
Heartbeat CPU 0 instructions: 248501134 cycles: 335649483 heartbeat IPC: 1.931 cumulative IPC: 0.62 (Simulation time: 00 hr 42 min 32 sec)
Heartbeat CPU 0 instructions: 249001139 cycles: 335901350 heartbeat IPC: 1.985 cumulative IPC: 0.6211 (Simulation time: 00 hr 42 min 34 sec)
Heartbeat CPU 0 instructions: 249501144 cycles: 336165867 heartbeat IPC: 1.89 cumulative IPC: 0.6221 (Simulation time: 00 hr 42 min 37 sec)
Simulation finished CPU 0 instructions: 200000000 cycles: 320913764 cumulative IPC: 0.6232 (Simulation time: 00 hr 42 min 39 sec)
Simulation complete CPU 0 instructions: 200000000 cycles: 320913764 cumulative IPC: 0.6232 (Simulation time: 00 hr 42 min 39 sec)

ChampSim completed all CPUs

=== Simulation ===
CPU 0 runs /local-ssd/ben/dpc4-traces/gtraces_v2/sierra.a.3_0002.champsim.gz

Region of Interest Statistics

CPU 0 cumulative IPC: 0.6232 instructions: 200000000 cycles: 320913764
CPU 0 Branch Prediction Accuracy: 86.02% MPKI: 23.34 Average ROB Occupancy at Mispredict: 23.08
Branch type MPKI
BRANCH_DIRECT_JUMP: 2.113
BRANCH_INDIRECT: 0.2222
BRANCH_CONDITIONAL: 17.91
BRANCH_DIRECT_CALL: 1.619
BRANCH_INDIRECT_CALL: 0.3737
BRANCH_RETURN: 1.103

cpu0->cpu0_STLB TOTAL        ACCESS:    3000679 HIT:    2343262 MISS:     657417 MSHR_MERGE:          0
cpu0->cpu0_STLB LOAD         ACCESS:    3000679 HIT:    2343262 MISS:     657417 MSHR_MERGE:          0
cpu0->cpu0_STLB RFO          ACCESS:          0 HIT:          0 MISS:          0 MSHR_MERGE:          0
cpu0->cpu0_STLB PREFETCH     ACCESS:          0 HIT:          0 MISS:          0 MSHR_MERGE:          0
cpu0->cpu0_STLB WRITE        ACCESS:          0 HIT:          0 MISS:          0 MSHR_MERGE:          0
cpu0->cpu0_STLB TRANSLATION  ACCESS:          0 HIT:          0 MISS:          0 MSHR_MERGE:          0
cpu0->cpu0_STLB PREFETCH REQUESTED:          0 ISSUED:          0 USEFUL:          0 USELESS:          0
cpu0->cpu0_STLB AVERAGE MISS LATENCY: 138.7 cycles
cpu0->cpu0_L2C TOTAL        ACCESS:   14254373 HIT:   10182626 MISS:    4071747 MSHR_MERGE:     840447
cpu0->cpu0_L2C LOAD         ACCESS:    2559999 HIT:    1790196 MISS:     769803 MSHR_MERGE:      60194
cpu0->cpu0_L2C RFO          ACCESS:    1077371 HIT:     632854 MISS:     444517 MSHR_MERGE:       3443
cpu0->cpu0_L2C PREFETCH     ACCESS:    8031818 HIT:    5428931 MISS:    2602887 MSHR_MERGE:     776810
cpu0->cpu0_L2C WRITE        ACCESS:    1869629 HIT:    1869622 MISS:          7 MSHR_MERGE:          0
cpu0->cpu0_L2C TRANSLATION  ACCESS:     715556 HIT:     461023 MISS:     254533 MSHR_MERGE:          0
cpu0->cpu0_L2C PREFETCH REQUESTED:    7564771 ISSUED:    6898462 USEFUL:     582658 USELESS:     898748
cpu0->cpu0_L2C AVERAGE MISS LATENCY: 223.8 cycles
cpu0->cpu0_L1I TOTAL        ACCESS:   20904972 HIT:   20441941 MISS:     463031 MSHR_MERGE:      85505
cpu0->cpu0_L1I LOAD         ACCESS:   20904972 HIT:   20441941 MISS:     463031 MSHR_MERGE:      85505
cpu0->cpu0_L1I RFO          ACCESS:          0 HIT:          0 MISS:          0 MSHR_MERGE:          0
cpu0->cpu0_L1I PREFETCH     ACCESS:          0 HIT:          0 MISS:          0 MSHR_MERGE:          0
cpu0->cpu0_L1I WRITE        ACCESS:          0 HIT:          0 MISS:          0 MSHR_MERGE:          0
cpu0->cpu0_L1I TRANSLATION  ACCESS:          0 HIT:          0 MISS:          0 MSHR_MERGE:          0
cpu0->cpu0_L1I PREFETCH REQUESTED:          0 ISSUED:          0 USEFUL:          0 USELESS:          0
cpu0->cpu0_L1I AVERAGE MISS LATENCY: 134.7 cycles
cpu0->cpu0_L1D TOTAL        ACCESS:   62294686 HIT:   54487464 MISS:    7807222 MSHR_MERGE:    2698382
cpu0->cpu0_L1D LOAD         ACCESS:   33787239 HIT:   31037168 MISS:    2750071 MSHR_MERGE:     567558
cpu0->cpu0_L1D RFO          ACCESS:          0 HIT:          0 MISS:          0 MSHR_MERGE:          0
cpu0->cpu0_L1D PREFETCH     ACCESS:    2761979 HIT:    1576679 MISS:    1185300 MSHR_MERGE:      51932
cpu0->cpu0_L1D WRITE        ACCESS:   24043057 HIT:   20891934 MISS:    3151123 MSHR_MERGE:    2073720
cpu0->cpu0_L1D TRANSLATION  ACCESS:    1702411 HIT:     981683 MISS:     720728 MSHR_MERGE:       5172
cpu0->cpu0_L1D PREFETCH REQUESTED:    2956741 ISSUED:    2761979 USEFUL:     462221 USELESS:     671137
cpu0->cpu0_L1D AVERAGE MISS LATENCY: 80.03 cycles
cpu0->cpu0_ITLB TOTAL        ACCESS:   16950016 HIT:   16150517 MISS:     799499 MSHR_MERGE:     375998
cpu0->cpu0_ITLB LOAD         ACCESS:   16950016 HIT:   16150517 MISS:     799499 MSHR_MERGE:     375998
cpu0->cpu0_ITLB RFO          ACCESS:          0 HIT:          0 MISS:          0 MSHR_MERGE:          0
cpu0->cpu0_ITLB PREFETCH     ACCESS:          0 HIT:          0 MISS:          0 MSHR_MERGE:          0
cpu0->cpu0_ITLB WRITE        ACCESS:          0 HIT:          0 MISS:          0 MSHR_MERGE:          0
cpu0->cpu0_ITLB TRANSLATION  ACCESS:          0 HIT:          0 MISS:          0 MSHR_MERGE:          0
cpu0->cpu0_ITLB PREFETCH REQUESTED:          0 ISSUED:          0 USEFUL:          0 USELESS:          0
cpu0->cpu0_ITLB AVERAGE MISS LATENCY: 24.16 cycles
cpu0->cpu0_DTLB TOTAL        ACCESS:   57333018 HIT:   53221794 MISS:    4111224 MSHR_MERGE:    1534046
cpu0->cpu0_DTLB LOAD         ACCESS:   57333018 HIT:   53221794 MISS:    4111224 MSHR_MERGE:    1534046
cpu0->cpu0_DTLB RFO          ACCESS:          0 HIT:          0 MISS:          0 MSHR_MERGE:          0
cpu0->cpu0_DTLB PREFETCH     ACCESS:          0 HIT:          0 MISS:          0 MSHR_MERGE:          0
cpu0->cpu0_DTLB WRITE        ACCESS:          0 HIT:          0 MISS:          0 MSHR_MERGE:          0
cpu0->cpu0_DTLB TRANSLATION  ACCESS:          0 HIT:          0 MISS:          0 MSHR_MERGE:          0
cpu0->cpu0_DTLB PREFETCH REQUESTED:          0 ISSUED:          0 USEFUL:          0 USELESS:          0
cpu0->cpu0_DTLB AVERAGE MISS LATENCY: 37.5 cycles
cpu0->LLC TOTAL        ACCESS:    4974405 HIT:     807858 MISS:    4166547 MSHR_MERGE:     186191
cpu0->LLC LOAD         ACCESS:     709609 HIT:     109300 MISS:     600309 MSHR_MERGE:       2664
cpu0->LLC RFO          ACCESS:     441074 HIT:      35760 MISS:     405314 MSHR_MERGE:        225
cpu0->LLC PREFETCH     ACCESS:    2753518 HIT:     441107 MISS:    2312411 MSHR_MERGE:     183302
cpu0->LLC WRITE        ACCESS:     815671 HIT:     206648 MISS:     609023 MSHR_MERGE:          0
cpu0->LLC TRANSLATION  ACCESS:     254533 HIT:      15043 MISS:     239490 MSHR_MERGE:          0
cpu0->LLC PREFETCH REQUESTED:     956476 ISSUED:     927441 USEFUL:     116030 USELESS:     495547
cpu0->LLC AVERAGE MISS LATENCY: 160 cycles

DRAM Statistics

Channel 0 RQ ROW_BUFFER_HIT:     111857
  ROW_BUFFER_MISS:    3259408
  AVG DBUS CONGESTED CYCLE: 20.73
Channel 0 WQ ROW_BUFFER_HIT:     184306
  ROW_BUFFER_MISS:     523874
  FULL:       4514
Channel 0 REFRESHES ISSUED:      26741
