[VMEM] WARNING: physical memory size is smaller than virtual memory size.

*** ChampSim Multicore Out-of-Order Simulator ***
Warmup Instructions: 50000000
Simulation Instructions: 200000000
Number of CPUs: 1
Page size: 4096
Core 0: /local-ssd/ben/dpc4-traces/gtraces_v2/merced_0002.champsim.gz
 L1D Berti prefetcher
Off-chip DRAM Size: 64 GiB Channels: 1 Width: 64-bit Data Rate: 4807 MT/s
[BTB] WARNING: target of return is a lower address than the corresponding call. This is usually a problem with your trace.
[BTB] WARNING: target of return is a lower address than the corresponding call. This is usually a problem with your trace.
[BTB] WARNING: target of return is a lower address than the corresponding call. This is usually a problem with your trace.
[BTB] WARNING: target of return is a lower address than the corresponding call. This is usually a problem with your trace.
[BTB] WARNING: target of return is a lower address than the corresponding call. This is usually a problem with your trace.
[BTB] WARNING: target of return is a lower address than the corresponding call. This is usually a problem with your trace.
[BTB] WARNING: target of return is a lower address than the corresponding call. This is usually a problem with your trace.
[BTB] WARNING: target of return is a lower address than the corresponding call. This is usually a problem with your trace.
[BTB] WARNING: target of return is a lower address than the corresponding call. This is usually a problem with your trace.
[BTB] WARNING: target of return is a lower address than the corresponding call. This is usually a problem with your trace.
Heartbeat CPU 0 instructions: 500004 cycles: 301809 heartbeat IPC: 1.657 cumulative IPC: 1.657 (Simulation time: 00 hr 00 min 04 sec)
Heartbeat CPU 0 instructions: 1000008 cycles: 501495 heartbeat IPC: 2.504 cumulative IPC: 1.994 (Simulation time: 00 hr 00 min 07 sec)
Heartbeat CPU 0 instructions: 1500011 cycles: 705850 heartbeat IPC: 2.447 cumulative IPC: 2.125 (Simulation time: 00 hr 00 min 11 sec)
Heartbeat CPU 0 instructions: 2000017 cycles: 884065 heartbeat IPC: 2.806 cumulative IPC: 2.262 (Simulation time: 00 hr 00 min 13 sec)
Heartbeat CPU 0 instructions: 2500019 cycles: 1033344 heartbeat IPC: 3.349 cumulative IPC: 2.419 (Simulation time: 00 hr 00 min 16 sec)
Heartbeat CPU 0 instructions: 3000022 cycles: 1154580 heartbeat IPC: 4.124 cumulative IPC: 2.598 (Simulation time: 00 hr 00 min 18 sec)
Heartbeat CPU 0 instructions: 3500024 cycles: 1270243 heartbeat IPC: 4.323 cumulative IPC: 2.755 (Simulation time: 00 hr 00 min 20 sec)
Heartbeat CPU 0 instructions: 4000026 cycles: 1377931 heartbeat IPC: 4.643 cumulative IPC: 2.903 (Simulation time: 00 hr 00 min 22 sec)
Heartbeat CPU 0 instructions: 4500032 cycles: 1478223 heartbeat IPC: 4.986 cumulative IPC: 3.044 (Simulation time: 00 hr 00 min 23 sec)
Heartbeat CPU 0 instructions: 5000036 cycles: 1584981 heartbeat IPC: 4.684 cumulative IPC: 3.155 (Simulation time: 00 hr 00 min 25 sec)
Heartbeat CPU 0 instructions: 5500041 cycles: 1700521 heartbeat IPC: 4.328 cumulative IPC: 3.234 (Simulation time: 00 hr 00 min 27 sec)
Heartbeat CPU 0 instructions: 6000045 cycles: 1809096 heartbeat IPC: 4.605 cumulative IPC: 3.317 (Simulation time: 00 hr 00 min 29 sec)
Heartbeat CPU 0 instructions: 6500047 cycles: 1916006 heartbeat IPC: 4.677 cumulative IPC: 3.392 (Simulation time: 00 hr 00 min 31 sec)
Heartbeat CPU 0 instructions: 7000050 cycles: 2020022 heartbeat IPC: 4.807 cumulative IPC: 3.465 (Simulation time: 00 hr 00 min 32 sec)
Heartbeat CPU 0 instructions: 7500052 cycles: 2122666 heartbeat IPC: 4.871 cumulative IPC: 3.533 (Simulation time: 00 hr 00 min 34 sec)
Heartbeat CPU 0 instructions: 8000052 cycles: 2237629 heartbeat IPC: 4.349 cumulative IPC: 3.575 (Simulation time: 00 hr 00 min 36 sec)
Heartbeat CPU 0 instructions: 8500053 cycles: 2351321 heartbeat IPC: 4.398 cumulative IPC: 3.615 (Simulation time: 00 hr 00 min 38 sec)
Heartbeat CPU 0 instructions: 9000058 cycles: 2496535 heartbeat IPC: 3.443 cumulative IPC: 3.605 (Simulation time: 00 hr 00 min 40 sec)
Heartbeat CPU 0 instructions: 9500060 cycles: 2644803 heartbeat IPC: 3.372 cumulative IPC: 3.592 (Simulation time: 00 hr 00 min 43 sec)
Heartbeat CPU 0 instructions: 10000060 cycles: 2764237 heartbeat IPC: 4.186 cumulative IPC: 3.618 (Simulation time: 00 hr 00 min 45 sec)
Heartbeat CPU 0 instructions: 10500063 cycles: 2875814 heartbeat IPC: 4.481 cumulative IPC: 3.651 (Simulation time: 00 hr 00 min 47 sec)
Heartbeat CPU 0 instructions: 11000065 cycles: 2977973 heartbeat IPC: 4.894 cumulative IPC: 3.694 (Simulation time: 00 hr 00 min 48 sec)
Heartbeat CPU 0 instructions: 11500071 cycles: 3085909 heartbeat IPC: 4.632 cumulative IPC: 3.727 (Simulation time: 00 hr 00 min 50 sec)
Heartbeat CPU 0 instructions: 12000078 cycles: 3196447 heartbeat IPC: 4.523 cumulative IPC: 3.754 (Simulation time: 00 hr 00 min 52 sec)
Heartbeat CPU 0 instructions: 12500085 cycles: 3303368 heartbeat IPC: 4.676 cumulative IPC: 3.784 (Simulation time: 00 hr 00 min 54 sec)
Heartbeat CPU 0 instructions: 13000088 cycles: 3408194 heartbeat IPC: 4.77 cumulative IPC: 3.814 (Simulation time: 00 hr 00 min 56 sec)
Heartbeat CPU 0 instructions: 13500093 cycles: 3511914 heartbeat IPC: 4.821 cumulative IPC: 3.844 (Simulation time: 00 hr 00 min 57 sec)
Heartbeat CPU 0 instructions: 14000095 cycles: 3626735 heartbeat IPC: 4.355 cumulative IPC: 3.86 (Simulation time: 00 hr 00 min 59 sec)
Heartbeat CPU 0 instructions: 14500095 cycles: 3736026 heartbeat IPC: 4.575 cumulative IPC: 3.881 (Simulation time: 00 hr 01 min 01 sec)
Heartbeat CPU 0 instructions: 15000102 cycles: 3840920 heartbeat IPC: 4.767 cumulative IPC: 3.905 (Simulation time: 00 hr 01 min 03 sec)
Heartbeat CPU 0 instructions: 15500103 cycles: 3945611 heartbeat IPC: 4.776 cumulative IPC: 3.928 (Simulation time: 00 hr 01 min 05 sec)
Heartbeat CPU 0 instructions: 16000104 cycles: 4093240 heartbeat IPC: 3.387 cumulative IPC: 3.909 (Simulation time: 00 hr 01 min 07 sec)
Heartbeat CPU 0 instructions: 16500107 cycles: 4254323 heartbeat IPC: 3.104 cumulative IPC: 3.878 (Simulation time: 00 hr 01 min 10 sec)
Heartbeat CPU 0 instructions: 17000114 cycles: 4383932 heartbeat IPC: 3.858 cumulative IPC: 3.878 (Simulation time: 00 hr 01 min 12 sec)
Heartbeat CPU 0 instructions: 17500120 cycles: 4491048 heartbeat IPC: 4.668 cumulative IPC: 3.897 (Simulation time: 00 hr 01 min 13 sec)
Heartbeat CPU 0 instructions: 18000123 cycles: 4597745 heartbeat IPC: 4.686 cumulative IPC: 3.915 (Simulation time: 00 hr 01 min 14 sec)
Heartbeat CPU 0 instructions: 18500125 cycles: 4704725 heartbeat IPC: 4.674 cumulative IPC: 3.932 (Simulation time: 00 hr 01 min 16 sec)
Heartbeat CPU 0 instructions: 19000132 cycles: 4814538 heartbeat IPC: 4.553 cumulative IPC: 3.946 (Simulation time: 00 hr 01 min 17 sec)
Heartbeat CPU 0 instructions: 19500139 cycles: 4940402 heartbeat IPC: 3.973 cumulative IPC: 3.947 (Simulation time: 00 hr 01 min 19 sec)
Heartbeat CPU 0 instructions: 20000145 cycles: 5107393 heartbeat IPC: 2.994 cumulative IPC: 3.916 (Simulation time: 00 hr 01 min 22 sec)
Heartbeat CPU 0 instructions: 20500150 cycles: 5250167 heartbeat IPC: 3.502 cumulative IPC: 3.905 (Simulation time: 00 hr 01 min 24 sec)
Heartbeat CPU 0 instructions: 21000150 cycles: 5368672 heartbeat IPC: 4.219 cumulative IPC: 3.912 (Simulation time: 00 hr 01 min 26 sec)
Heartbeat CPU 0 instructions: 21500155 cycles: 5484666 heartbeat IPC: 4.311 cumulative IPC: 3.92 (Simulation time: 00 hr 01 min 27 sec)
Heartbeat CPU 0 instructions: 22000158 cycles: 5623959 heartbeat IPC: 3.59 cumulative IPC: 3.912 (Simulation time: 00 hr 01 min 29 sec)
Heartbeat CPU 0 instructions: 22500160 cycles: 5769662 heartbeat IPC: 3.432 cumulative IPC: 3.9 (Simulation time: 00 hr 01 min 32 sec)
Heartbeat CPU 0 instructions: 23000166 cycles: 5915383 heartbeat IPC: 3.431 cumulative IPC: 3.888 (Simulation time: 00 hr 01 min 34 sec)
Heartbeat CPU 0 instructions: 23500170 cycles: 6054915 heartbeat IPC: 3.583 cumulative IPC: 3.881 (Simulation time: 00 hr 01 min 36 sec)
Heartbeat CPU 0 instructions: 24000170 cycles: 6212055 heartbeat IPC: 3.182 cumulative IPC: 3.863 (Simulation time: 00 hr 01 min 39 sec)
Heartbeat CPU 0 instructions: 24500176 cycles: 6358422 heartbeat IPC: 3.416 cumulative IPC: 3.853 (Simulation time: 00 hr 01 min 41 sec)
Heartbeat CPU 0 instructions: 25000178 cycles: 6521317 heartbeat IPC: 3.069 cumulative IPC: 3.834 (Simulation time: 00 hr 01 min 44 sec)
Heartbeat CPU 0 instructions: 25500178 cycles: 6637194 heartbeat IPC: 4.315 cumulative IPC: 3.842 (Simulation time: 00 hr 01 min 46 sec)
Heartbeat CPU 0 instructions: 26000178 cycles: 6753991 heartbeat IPC: 4.281 cumulative IPC: 3.85 (Simulation time: 00 hr 01 min 48 sec)
Heartbeat CPU 0 instructions: 26500185 cycles: 6868142 heartbeat IPC: 4.38 cumulative IPC: 3.858 (Simulation time: 00 hr 01 min 50 sec)
Heartbeat CPU 0 instructions: 27000188 cycles: 7002486 heartbeat IPC: 3.722 cumulative IPC: 3.856 (Simulation time: 00 hr 01 min 52 sec)
Heartbeat CPU 0 instructions: 27500195 cycles: 7122759 heartbeat IPC: 4.157 cumulative IPC: 3.861 (Simulation time: 00 hr 01 min 54 sec)
Heartbeat CPU 0 instructions: 28000195 cycles: 7239203 heartbeat IPC: 4.294 cumulative IPC: 3.868 (Simulation time: 00 hr 01 min 56 sec)
Heartbeat CPU 0 instructions: 28500202 cycles: 7362481 heartbeat IPC: 4.056 cumulative IPC: 3.871 (Simulation time: 00 hr 01 min 58 sec)
Heartbeat CPU 0 instructions: 29000203 cycles: 7510350 heartbeat IPC: 3.381 cumulative IPC: 3.861 (Simulation time: 00 hr 02 min 01 sec)
Heartbeat CPU 0 instructions: 29500209 cycles: 7646528 heartbeat IPC: 3.672 cumulative IPC: 3.858 (Simulation time: 00 hr 02 min 03 sec)
Heartbeat CPU 0 instructions: 30000211 cycles: 7772300 heartbeat IPC: 3.975 cumulative IPC: 3.86 (Simulation time: 00 hr 02 min 05 sec)
Heartbeat CPU 0 instructions: 30500216 cycles: 7918482 heartbeat IPC: 3.42 cumulative IPC: 3.852 (Simulation time: 00 hr 02 min 08 sec)
Heartbeat CPU 0 instructions: 31000223 cycles: 8040366 heartbeat IPC: 4.102 cumulative IPC: 3.856 (Simulation time: 00 hr 02 min 10 sec)
Heartbeat CPU 0 instructions: 31500228 cycles: 8228831 heartbeat IPC: 2.653 cumulative IPC: 3.828 (Simulation time: 00 hr 02 min 13 sec)
Heartbeat CPU 0 instructions: 32000233 cycles: 8399706 heartbeat IPC: 2.926 cumulative IPC: 3.81 (Simulation time: 00 hr 02 min 16 sec)
Heartbeat CPU 0 instructions: 32500237 cycles: 8574590 heartbeat IPC: 2.859 cumulative IPC: 3.79 (Simulation time: 00 hr 02 min 19 sec)
Heartbeat CPU 0 instructions: 33000242 cycles: 8783658 heartbeat IPC: 2.392 cumulative IPC: 3.757 (Simulation time: 00 hr 02 min 22 sec)
Heartbeat CPU 0 instructions: 33500245 cycles: 8943107 heartbeat IPC: 3.136 cumulative IPC: 3.746 (Simulation time: 00 hr 02 min 25 sec)
Heartbeat CPU 0 instructions: 34000246 cycles: 9115516 heartbeat IPC: 2.9 cumulative IPC: 3.73 (Simulation time: 00 hr 02 min 28 sec)
Heartbeat CPU 0 instructions: 34500247 cycles: 9279972 heartbeat IPC: 3.04 cumulative IPC: 3.718 (Simulation time: 00 hr 02 min 31 sec)
Heartbeat CPU 0 instructions: 35000252 cycles: 9400329 heartbeat IPC: 4.154 cumulative IPC: 3.723 (Simulation time: 00 hr 02 min 33 sec)
Heartbeat CPU 0 instructions: 35500254 cycles: 9535861 heartbeat IPC: 3.689 cumulative IPC: 3.723 (Simulation time: 00 hr 02 min 35 sec)
Heartbeat CPU 0 instructions: 36000261 cycles: 9664591 heartbeat IPC: 3.884 cumulative IPC: 3.725 (Simulation time: 00 hr 02 min 37 sec)
Heartbeat CPU 0 instructions: 36500265 cycles: 9770033 heartbeat IPC: 4.742 cumulative IPC: 3.736 (Simulation time: 00 hr 02 min 39 sec)
Heartbeat CPU 0 instructions: 37000270 cycles: 9915177 heartbeat IPC: 3.445 cumulative IPC: 3.732 (Simulation time: 00 hr 02 min 41 sec)
Heartbeat CPU 0 instructions: 37500270 cycles: 10071524 heartbeat IPC: 3.198 cumulative IPC: 3.723 (Simulation time: 00 hr 02 min 44 sec)
Heartbeat CPU 0 instructions: 38000271 cycles: 10186459 heartbeat IPC: 4.35 cumulative IPC: 3.73 (Simulation time: 00 hr 02 min 45 sec)
Heartbeat CPU 0 instructions: 38500277 cycles: 10302749 heartbeat IPC: 4.3 cumulative IPC: 3.737 (Simulation time: 00 hr 02 min 47 sec)
Heartbeat CPU 0 instructions: 39000280 cycles: 10496977 heartbeat IPC: 2.574 cumulative IPC: 3.715 (Simulation time: 00 hr 02 min 50 sec)
Heartbeat CPU 0 instructions: 39500287 cycles: 10656101 heartbeat IPC: 3.142 cumulative IPC: 3.707 (Simulation time: 00 hr 02 min 53 sec)
Heartbeat CPU 0 instructions: 40000288 cycles: 10786132 heartbeat IPC: 3.845 cumulative IPC: 3.708 (Simulation time: 00 hr 02 min 55 sec)
Heartbeat CPU 0 instructions: 40500292 cycles: 10927734 heartbeat IPC: 3.531 cumulative IPC: 3.706 (Simulation time: 00 hr 02 min 58 sec)
Heartbeat CPU 0 instructions: 41000292 cycles: 11050043 heartbeat IPC: 4.088 cumulative IPC: 3.71 (Simulation time: 00 hr 03 min 00 sec)
Heartbeat CPU 0 instructions: 41500292 cycles: 11173518 heartbeat IPC: 4.049 cumulative IPC: 3.714 (Simulation time: 00 hr 03 min 02 sec)
Heartbeat CPU 0 instructions: 42000294 cycles: 11341966 heartbeat IPC: 2.968 cumulative IPC: 3.703 (Simulation time: 00 hr 03 min 05 sec)
Heartbeat CPU 0 instructions: 42500301 cycles: 11519837 heartbeat IPC: 2.811 cumulative IPC: 3.689 (Simulation time: 00 hr 03 min 08 sec)
Heartbeat CPU 0 instructions: 43000303 cycles: 11639697 heartbeat IPC: 4.172 cumulative IPC: 3.694 (Simulation time: 00 hr 03 min 10 sec)
Heartbeat CPU 0 instructions: 43500309 cycles: 11771447 heartbeat IPC: 3.795 cumulative IPC: 3.695 (Simulation time: 00 hr 03 min 12 sec)
Heartbeat CPU 0 instructions: 44000312 cycles: 11904813 heartbeat IPC: 3.749 cumulative IPC: 3.696 (Simulation time: 00 hr 03 min 15 sec)
Heartbeat CPU 0 instructions: 44500314 cycles: 12038947 heartbeat IPC: 3.728 cumulative IPC: 3.696 (Simulation time: 00 hr 03 min 17 sec)
Heartbeat CPU 0 instructions: 45000317 cycles: 12147655 heartbeat IPC: 4.6 cumulative IPC: 3.704 (Simulation time: 00 hr 03 min 19 sec)
Heartbeat CPU 0 instructions: 45500319 cycles: 12260456 heartbeat IPC: 4.433 cumulative IPC: 3.711 (Simulation time: 00 hr 03 min 22 sec)
Heartbeat CPU 0 instructions: 46000325 cycles: 12377875 heartbeat IPC: 4.258 cumulative IPC: 3.716 (Simulation time: 00 hr 03 min 24 sec)
Heartbeat CPU 0 instructions: 46500329 cycles: 12517062 heartbeat IPC: 3.592 cumulative IPC: 3.715 (Simulation time: 00 hr 03 min 26 sec)
Heartbeat CPU 0 instructions: 47000336 cycles: 12629663 heartbeat IPC: 4.441 cumulative IPC: 3.721 (Simulation time: 00 hr 03 min 28 sec)
Heartbeat CPU 0 instructions: 47500336 cycles: 12736610 heartbeat IPC: 4.675 cumulative IPC: 3.729 (Simulation time: 00 hr 03 min 29 sec)
Heartbeat CPU 0 instructions: 48000343 cycles: 12880010 heartbeat IPC: 3.487 cumulative IPC: 3.727 (Simulation time: 00 hr 03 min 31 sec)
Heartbeat CPU 0 instructions: 48500343 cycles: 13026168 heartbeat IPC: 3.421 cumulative IPC: 3.723 (Simulation time: 00 hr 03 min 34 sec)
Heartbeat CPU 0 instructions: 49000343 cycles: 13149863 heartbeat IPC: 4.042 cumulative IPC: 3.726 (Simulation time: 00 hr 03 min 36 sec)
Heartbeat CPU 0 instructions: 49500350 cycles: 13331471 heartbeat IPC: 2.753 cumulative IPC: 3.713 (Simulation time: 00 hr 03 min 39 sec)
Warmup finished CPU 0 instructions: 50000004 cycles: 13465145 cumulative IPC: 3.713 (Simulation time: 00 hr 03 min 41 sec)
Warmup complete CPU 0 instructions: 50000004 cycles: 13465145 cumulative IPC: 3.713 (Simulation time: 00 hr 03 min 41 sec)
Heartbeat CPU 0 instructions: 50000353 cycles: 13465268 heartbeat IPC: 3.737 cumulative IPC: 2.837 (Simulation time: 00 hr 03 min 41 sec)
Heartbeat CPU 0 instructions: 50500359 cycles: 13924902 heartbeat IPC: 1.088 cumulative IPC: 1.088 (Simulation time: 00 hr 03 min 45 sec)
Heartbeat CPU 0 instructions: 51000359 cycles: 14375839 heartbeat IPC: 1.109 cumulative IPC: 1.098 (Simulation time: 00 hr 03 min 49 sec)
Heartbeat CPU 0 instructions: 51500360 cycles: 14698108 heartbeat IPC: 1.552 cumulative IPC: 1.217 (Simulation time: 00 hr 03 min 52 sec)
Heartbeat CPU 0 instructions: 52000360 cycles: 15032464 heartbeat IPC: 1.495 cumulative IPC: 1.276 (Simulation time: 00 hr 03 min 55 sec)
Heartbeat CPU 0 instructions: 52500361 cycles: 15716796 heartbeat IPC: 0.7306 cumulative IPC: 1.11 (Simulation time: 00 hr 04 min 00 sec)
Heartbeat CPU 0 instructions: 53000366 cycles: 16742416 heartbeat IPC: 0.4875 cumulative IPC: 0.9155 (Simulation time: 00 hr 04 min 07 sec)
Heartbeat CPU 0 instructions: 53500366 cycles: 17565450 heartbeat IPC: 0.6075 cumulative IPC: 0.8537 (Simulation time: 00 hr 04 min 13 sec)
Heartbeat CPU 0 instructions: 54000368 cycles: 19329628 heartbeat IPC: 0.2834 cumulative IPC: 0.6821 (Simulation time: 00 hr 04 min 25 sec)
Heartbeat CPU 0 instructions: 54500369 cycles: 20227259 heartbeat IPC: 0.557 cumulative IPC: 0.6655 (Simulation time: 00 hr 04 min 32 sec)
Heartbeat CPU 0 instructions: 55000369 cycles: 21651775 heartbeat IPC: 0.351 cumulative IPC: 0.6108 (Simulation time: 00 hr 04 min 41 sec)
Heartbeat CPU 0 instructions: 55500369 cycles: 21962939 heartbeat IPC: 1.607 cumulative IPC: 0.6473 (Simulation time: 00 hr 04 min 44 sec)
Heartbeat CPU 0 instructions: 56000375 cycles: 23319759 heartbeat IPC: 0.3685 cumulative IPC: 0.6089 (Simulation time: 00 hr 04 min 54 sec)
Heartbeat CPU 0 instructions: 56500380 cycles: 24279391 heartbeat IPC: 0.521 cumulative IPC: 0.6011 (Simulation time: 00 hr 05 min 01 sec)
Heartbeat CPU 0 instructions: 57000381 cycles: 25227891 heartbeat IPC: 0.5271 cumulative IPC: 0.5951 (Simulation time: 00 hr 05 min 08 sec)
Heartbeat CPU 0 instructions: 57500382 cycles: 26476885 heartbeat IPC: 0.4003 cumulative IPC: 0.5764 (Simulation time: 00 hr 05 min 17 sec)
Heartbeat CPU 0 instructions: 58000387 cycles: 27047259 heartbeat IPC: 0.8766 cumulative IPC: 0.589 (Simulation time: 00 hr 05 min 21 sec)
Heartbeat CPU 0 instructions: 58500392 cycles: 28334386 heartbeat IPC: 0.3885 cumulative IPC: 0.5717 (Simulation time: 00 hr 05 min 30 sec)
Heartbeat CPU 0 instructions: 59000392 cycles: 28961005 heartbeat IPC: 0.7979 cumulative IPC: 0.5808 (Simulation time: 00 hr 05 min 35 sec)
Heartbeat CPU 0 instructions: 59500393 cycles: 29684992 heartbeat IPC: 0.6906 cumulative IPC: 0.5857 (Simulation time: 00 hr 05 min 41 sec)
Heartbeat CPU 0 instructions: 60000400 cycles: 30667617 heartbeat IPC: 0.5088 cumulative IPC: 0.5813 (Simulation time: 00 hr 05 min 48 sec)
Heartbeat CPU 0 instructions: 60500403 cycles: 31163740 heartbeat IPC: 1.008 cumulative IPC: 0.5933 (Simulation time: 00 hr 05 min 52 sec)
Heartbeat CPU 0 instructions: 61000403 cycles: 31865312 heartbeat IPC: 0.7127 cumulative IPC: 0.5978 (Simulation time: 00 hr 05 min 57 sec)
Heartbeat CPU 0 instructions: 61500409 cycles: 32692207 heartbeat IPC: 0.6047 cumulative IPC: 0.5981 (Simulation time: 00 hr 06 min 03 sec)
Heartbeat CPU 0 instructions: 62000413 cycles: 32989240 heartbeat IPC: 1.683 cumulative IPC: 0.6146 (Simulation time: 00 hr 06 min 06 sec)
Heartbeat CPU 0 instructions: 62500413 cycles: 33430129 heartbeat IPC: 1.134 cumulative IPC: 0.6261 (Simulation time: 00 hr 06 min 09 sec)
Heartbeat CPU 0 instructions: 63000415 cycles: 34100327 heartbeat IPC: 0.7461 cumulative IPC: 0.63 (Simulation time: 00 hr 06 min 15 sec)
Heartbeat CPU 0 instructions: 63500415 cycles: 34878837 heartbeat IPC: 0.6423 cumulative IPC: 0.6305 (Simulation time: 00 hr 06 min 21 sec)
Heartbeat CPU 0 instructions: 64000415 cycles: 36121804 heartbeat IPC: 0.4023 cumulative IPC: 0.6179 (Simulation time: 00 hr 06 min 30 sec)
Heartbeat CPU 0 instructions: 64500417 cycles: 37149684 heartbeat IPC: 0.4864 cumulative IPC: 0.6122 (Simulation time: 00 hr 06 min 37 sec)
Heartbeat CPU 0 instructions: 65000418 cycles: 38250650 heartbeat IPC: 0.4541 cumulative IPC: 0.6052 (Simulation time: 00 hr 06 min 44 sec)
Heartbeat CPU 0 instructions: 65500422 cycles: 39684551 heartbeat IPC: 0.3487 cumulative IPC: 0.5912 (Simulation time: 00 hr 06 min 55 sec)
Heartbeat CPU 0 instructions: 66000422 cycles: 40329137 heartbeat IPC: 0.7757 cumulative IPC: 0.5956 (Simulation time: 00 hr 07 min 00 sec)
Heartbeat CPU 0 instructions: 66500427 cycles: 41285744 heartbeat IPC: 0.5227 cumulative IPC: 0.5931 (Simulation time: 00 hr 07 min 07 sec)
Heartbeat CPU 0 instructions: 67000431 cycles: 42516151 heartbeat IPC: 0.4064 cumulative IPC: 0.5852 (Simulation time: 00 hr 07 min 16 sec)
Heartbeat CPU 0 instructions: 67500433 cycles: 42901759 heartbeat IPC: 1.297 cumulative IPC: 0.5945 (Simulation time: 00 hr 07 min 19 sec)
Heartbeat CPU 0 instructions: 68000433 cycles: 43251230 heartbeat IPC: 1.431 cumulative IPC: 0.6043 (Simulation time: 00 hr 07 min 22 sec)
Heartbeat CPU 0 instructions: 68500434 cycles: 43548269 heartbeat IPC: 1.683 cumulative IPC: 0.615 (Simulation time: 00 hr 07 min 25 sec)
Heartbeat CPU 0 instructions: 69000436 cycles: 43842076 heartbeat IPC: 1.702 cumulative IPC: 0.6255 (Simulation time: 00 hr 07 min 28 sec)
Heartbeat CPU 0 instructions: 69500437 cycles: 44123195 heartbeat IPC: 1.779 cumulative IPC: 0.6361 (Simulation time: 00 hr 07 min 31 sec)
Heartbeat CPU 0 instructions: 70000440 cycles: 44712152 heartbeat IPC: 0.849 cumulative IPC: 0.6401 (Simulation time: 00 hr 07 min 35 sec)
Heartbeat CPU 0 instructions: 70500441 cycles: 46007639 heartbeat IPC: 0.386 cumulative IPC: 0.63 (Simulation time: 00 hr 07 min 44 sec)
Heartbeat CPU 0 instructions: 71000441 cycles: 47023915 heartbeat IPC: 0.492 cumulative IPC: 0.6258 (Simulation time: 00 hr 07 min 51 sec)
Heartbeat CPU 0 instructions: 71500448 cycles: 48091345 heartbeat IPC: 0.4684 cumulative IPC: 0.6209 (Simulation time: 00 hr 07 min 59 sec)
Heartbeat CPU 0 instructions: 72000450 cycles: 48882519 heartbeat IPC: 0.632 cumulative IPC: 0.6212 (Simulation time: 00 hr 08 min 04 sec)
Heartbeat CPU 0 instructions: 72500450 cycles: 49627279 heartbeat IPC: 0.6714 cumulative IPC: 0.6222 (Simulation time: 00 hr 08 min 10 sec)
Heartbeat CPU 0 instructions: 73000450 cycles: 50030036 heartbeat IPC: 1.241 cumulative IPC: 0.629 (Simulation time: 00 hr 08 min 13 sec)
Heartbeat CPU 0 instructions: 73500450 cycles: 50661476 heartbeat IPC: 0.7918 cumulative IPC: 0.6318 (Simulation time: 00 hr 08 min 18 sec)
Heartbeat CPU 0 instructions: 74000451 cycles: 51541535 heartbeat IPC: 0.5681 cumulative IPC: 0.6303 (Simulation time: 00 hr 08 min 25 sec)
Heartbeat CPU 0 instructions: 74500451 cycles: 52036739 heartbeat IPC: 1.01 cumulative IPC: 0.6352 (Simulation time: 00 hr 08 min 29 sec)
Heartbeat CPU 0 instructions: 75000453 cycles: 52880788 heartbeat IPC: 0.5924 cumulative IPC: 0.6343 (Simulation time: 00 hr 08 min 35 sec)
Heartbeat CPU 0 instructions: 75500453 cycles: 54066273 heartbeat IPC: 0.4218 cumulative IPC: 0.6281 (Simulation time: 00 hr 08 min 43 sec)
Heartbeat CPU 0 instructions: 76000454 cycles: 55153348 heartbeat IPC: 0.46 cumulative IPC: 0.6237 (Simulation time: 00 hr 08 min 51 sec)
Heartbeat CPU 0 instructions: 76500455 cycles: 56122345 heartbeat IPC: 0.516 cumulative IPC: 0.6212 (Simulation time: 00 hr 08 min 58 sec)
Heartbeat CPU 0 instructions: 77000456 cycles: 57061145 heartbeat IPC: 0.5326 cumulative IPC: 0.6193 (Simulation time: 00 hr 09 min 05 sec)
Heartbeat CPU 0 instructions: 77500458 cycles: 58037593 heartbeat IPC: 0.5121 cumulative IPC: 0.617 (Simulation time: 00 hr 09 min 12 sec)
Heartbeat CPU 0 instructions: 78000460 cycles: 58643157 heartbeat IPC: 0.8257 cumulative IPC: 0.6198 (Simulation time: 00 hr 09 min 16 sec)
Heartbeat CPU 0 instructions: 78500460 cycles: 59577847 heartbeat IPC: 0.5349 cumulative IPC: 0.6181 (Simulation time: 00 hr 09 min 23 sec)
Heartbeat CPU 0 instructions: 79000462 cycles: 60561015 heartbeat IPC: 0.5086 cumulative IPC: 0.6158 (Simulation time: 00 hr 09 min 30 sec)
Heartbeat CPU 0 instructions: 79500462 cycles: 61211459 heartbeat IPC: 0.7687 cumulative IPC: 0.6179 (Simulation time: 00 hr 09 min 35 sec)
Heartbeat CPU 0 instructions: 80000464 cycles: 61592966 heartbeat IPC: 1.311 cumulative IPC: 0.6233 (Simulation time: 00 hr 09 min 39 sec)
Heartbeat CPU 0 instructions: 80500464 cycles: 62422883 heartbeat IPC: 0.6025 cumulative IPC: 0.623 (Simulation time: 00 hr 09 min 45 sec)
Heartbeat CPU 0 instructions: 81000464 cycles: 62831441 heartbeat IPC: 1.224 cumulative IPC: 0.628 (Simulation time: 00 hr 09 min 48 sec)
Heartbeat CPU 0 instructions: 81500466 cycles: 63482129 heartbeat IPC: 0.7684 cumulative IPC: 0.6298 (Simulation time: 00 hr 09 min 54 sec)
Heartbeat CPU 0 instructions: 82000469 cycles: 63743014 heartbeat IPC: 1.917 cumulative IPC: 0.6365 (Simulation time: 00 hr 09 min 57 sec)
Heartbeat CPU 0 instructions: 82500470 cycles: 63958926 heartbeat IPC: 2.316 cumulative IPC: 0.6437 (Simulation time: 00 hr 09 min 59 sec)
Heartbeat CPU 0 instructions: 83000472 cycles: 64201592 heartbeat IPC: 2.06 cumulative IPC: 0.6504 (Simulation time: 00 hr 10 min 02 sec)
Heartbeat CPU 0 instructions: 83500479 cycles: 65541639 heartbeat IPC: 0.3731 cumulative IPC: 0.6433 (Simulation time: 00 hr 10 min 12 sec)
Heartbeat CPU 0 instructions: 84000482 cycles: 66817763 heartbeat IPC: 0.3918 cumulative IPC: 0.6373 (Simulation time: 00 hr 10 min 21 sec)
Heartbeat CPU 0 instructions: 84500486 cycles: 68485067 heartbeat IPC: 0.2999 cumulative IPC: 0.6271 (Simulation time: 00 hr 10 min 32 sec)
Heartbeat CPU 0 instructions: 85000486 cycles: 69695293 heartbeat IPC: 0.4131 cumulative IPC: 0.6225 (Simulation time: 00 hr 10 min 41 sec)
Heartbeat CPU 0 instructions: 85500487 cycles: 70587386 heartbeat IPC: 0.5605 cumulative IPC: 0.6215 (Simulation time: 00 hr 10 min 48 sec)
Heartbeat CPU 0 instructions: 86000492 cycles: 71428409 heartbeat IPC: 0.5945 cumulative IPC: 0.6211 (Simulation time: 00 hr 10 min 54 sec)
Heartbeat CPU 0 instructions: 86500496 cycles: 72254496 heartbeat IPC: 0.6053 cumulative IPC: 0.6209 (Simulation time: 00 hr 11 min 00 sec)
Heartbeat CPU 0 instructions: 87000496 cycles: 73558615 heartbeat IPC: 0.3834 cumulative IPC: 0.6157 (Simulation time: 00 hr 11 min 09 sec)
Heartbeat CPU 0 instructions: 87500498 cycles: 73920251 heartbeat IPC: 1.383 cumulative IPC: 0.6203 (Simulation time: 00 hr 11 min 12 sec)
Heartbeat CPU 0 instructions: 88000498 cycles: 74213189 heartbeat IPC: 1.707 cumulative IPC: 0.6255 (Simulation time: 00 hr 11 min 15 sec)
Heartbeat CPU 0 instructions: 88500505 cycles: 74893078 heartbeat IPC: 0.7354 cumulative IPC: 0.6268 (Simulation time: 00 hr 11 min 21 sec)
Heartbeat CPU 0 instructions: 89000506 cycles: 75762188 heartbeat IPC: 0.5753 cumulative IPC: 0.626 (Simulation time: 00 hr 11 min 27 sec)
Heartbeat CPU 0 instructions: 89500512 cycles: 75970170 heartbeat IPC: 2.404 cumulative IPC: 0.632 (Simulation time: 00 hr 11 min 29 sec)
Heartbeat CPU 0 instructions: 90000515 cycles: 76508148 heartbeat IPC: 0.9294 cumulative IPC: 0.6345 (Simulation time: 00 hr 11 min 34 sec)
Heartbeat CPU 0 instructions: 90500519 cycles: 76988938 heartbeat IPC: 1.04 cumulative IPC: 0.6376 (Simulation time: 00 hr 11 min 38 sec)
Heartbeat CPU 0 instructions: 91000520 cycles: 77962980 heartbeat IPC: 0.5133 cumulative IPC: 0.6357 (Simulation time: 00 hr 11 min 45 sec)
Heartbeat CPU 0 instructions: 91500524 cycles: 78738912 heartbeat IPC: 0.6444 cumulative IPC: 0.6358 (Simulation time: 00 hr 11 min 50 sec)
Heartbeat CPU 0 instructions: 92000524 cycles: 79519056 heartbeat IPC: 0.6409 cumulative IPC: 0.6359 (Simulation time: 00 hr 11 min 56 sec)
Heartbeat CPU 0 instructions: 92500528 cycles: 80226550 heartbeat IPC: 0.7067 cumulative IPC: 0.6366 (Simulation time: 00 hr 12 min 01 sec)
Heartbeat CPU 0 instructions: 93000535 cycles: 80749221 heartbeat IPC: 0.9566 cumulative IPC: 0.6391 (Simulation time: 00 hr 12 min 06 sec)
Heartbeat CPU 0 instructions: 93500538 cycles: 81061065 heartbeat IPC: 1.603 cumulative IPC: 0.6435 (Simulation time: 00 hr 12 min 09 sec)
Heartbeat CPU 0 instructions: 94000538 cycles: 81372145 heartbeat IPC: 1.607 cumulative IPC: 0.648 (Simulation time: 00 hr 12 min 12 sec)
Heartbeat CPU 0 instructions: 94500541 cycles: 81653472 heartbeat IPC: 1.777 cumulative IPC: 0.6526 (Simulation time: 00 hr 12 min 14 sec)
Heartbeat CPU 0 instructions: 95000547 cycles: 81928553 heartbeat IPC: 1.818 cumulative IPC: 0.6573 (Simulation time: 00 hr 12 min 17 sec)
Heartbeat CPU 0 instructions: 95500551 cycles: 82275118 heartbeat IPC: 1.443 cumulative IPC: 0.6612 (Simulation time: 00 hr 12 min 20 sec)
Heartbeat CPU 0 instructions: 96000551 cycles: 83275556 heartbeat IPC: 0.4998 cumulative IPC: 0.6589 (Simulation time: 00 hr 12 min 27 sec)
Heartbeat CPU 0 instructions: 96500553 cycles: 84761717 heartbeat IPC: 0.3364 cumulative IPC: 0.6522 (Simulation time: 00 hr 12 min 38 sec)
Heartbeat CPU 0 instructions: 97000555 cycles: 85844391 heartbeat IPC: 0.4618 cumulative IPC: 0.6494 (Simulation time: 00 hr 12 min 46 sec)
Heartbeat CPU 0 instructions: 97500562 cycles: 86863834 heartbeat IPC: 0.4905 cumulative IPC: 0.6472 (Simulation time: 00 hr 12 min 53 sec)
Heartbeat CPU 0 instructions: 98000564 cycles: 87963332 heartbeat IPC: 0.4548 cumulative IPC: 0.6443 (Simulation time: 00 hr 13 min 01 sec)
Heartbeat CPU 0 instructions: 98500564 cycles: 88862449 heartbeat IPC: 0.5561 cumulative IPC: 0.6433 (Simulation time: 00 hr 13 min 07 sec)
Heartbeat CPU 0 instructions: 99000565 cycles: 89339364 heartbeat IPC: 1.048 cumulative IPC: 0.6458 (Simulation time: 00 hr 13 min 12 sec)
Heartbeat CPU 0 instructions: 99500566 cycles: 90175243 heartbeat IPC: 0.5982 cumulative IPC: 0.6453 (Simulation time: 00 hr 13 min 18 sec)
Heartbeat CPU 0 instructions: 100000570 cycles: 90964735 heartbeat IPC: 0.6333 cumulative IPC: 0.6452 (Simulation time: 00 hr 13 min 24 sec)
Heartbeat CPU 0 instructions: 100500571 cycles: 92291622 heartbeat IPC: 0.3768 cumulative IPC: 0.6407 (Simulation time: 00 hr 13 min 33 sec)
Heartbeat CPU 0 instructions: 101000574 cycles: 93068215 heartbeat IPC: 0.6438 cumulative IPC: 0.6407 (Simulation time: 00 hr 13 min 38 sec)
Heartbeat CPU 0 instructions: 101500577 cycles: 93875383 heartbeat IPC: 0.6195 cumulative IPC: 0.6405 (Simulation time: 00 hr 13 min 45 sec)
Heartbeat CPU 0 instructions: 102000577 cycles: 94573937 heartbeat IPC: 0.7158 cumulative IPC: 0.6411 (Simulation time: 00 hr 13 min 50 sec)
Heartbeat CPU 0 instructions: 102500581 cycles: 95146410 heartbeat IPC: 0.8734 cumulative IPC: 0.6427 (Simulation time: 00 hr 13 min 54 sec)
Heartbeat CPU 0 instructions: 103000588 cycles: 96239512 heartbeat IPC: 0.4574 cumulative IPC: 0.6403 (Simulation time: 00 hr 14 min 02 sec)
Heartbeat CPU 0 instructions: 103500594 cycles: 97062420 heartbeat IPC: 0.6076 cumulative IPC: 0.64 (Simulation time: 00 hr 14 min 09 sec)
Heartbeat CPU 0 instructions: 104000594 cycles: 98152881 heartbeat IPC: 0.4585 cumulative IPC: 0.6376 (Simulation time: 00 hr 14 min 16 sec)
Heartbeat CPU 0 instructions: 104500595 cycles: 98612842 heartbeat IPC: 1.087 cumulative IPC: 0.6401 (Simulation time: 00 hr 14 min 20 sec)
Heartbeat CPU 0 instructions: 105000597 cycles: 99876074 heartbeat IPC: 0.3958 cumulative IPC: 0.6365 (Simulation time: 00 hr 14 min 29 sec)
Heartbeat CPU 0 instructions: 105500601 cycles: 100964808 heartbeat IPC: 0.4593 cumulative IPC: 0.6343 (Simulation time: 00 hr 14 min 37 sec)
Heartbeat CPU 0 instructions: 106000603 cycles: 101710509 heartbeat IPC: 0.6705 cumulative IPC: 0.6346 (Simulation time: 00 hr 14 min 42 sec)
Heartbeat CPU 0 instructions: 106500603 cycles: 102562975 heartbeat IPC: 0.5865 cumulative IPC: 0.6341 (Simulation time: 00 hr 14 min 49 sec)
Heartbeat CPU 0 instructions: 107000604 cycles: 103095562 heartbeat IPC: 0.9388 cumulative IPC: 0.636 (Simulation time: 00 hr 14 min 53 sec)
Heartbeat CPU 0 instructions: 107500606 cycles: 103560892 heartbeat IPC: 1.075 cumulative IPC: 0.6382 (Simulation time: 00 hr 14 min 57 sec)
Heartbeat CPU 0 instructions: 108000608 cycles: 104525552 heartbeat IPC: 0.5183 cumulative IPC: 0.6369 (Simulation time: 00 hr 15 min 04 sec)
Heartbeat CPU 0 instructions: 108500609 cycles: 105557557 heartbeat IPC: 0.4845 cumulative IPC: 0.6352 (Simulation time: 00 hr 15 min 12 sec)
Heartbeat CPU 0 instructions: 109000610 cycles: 106076867 heartbeat IPC: 0.9628 cumulative IPC: 0.6371 (Simulation time: 00 hr 15 min 16 sec)
Heartbeat CPU 0 instructions: 109500615 cycles: 106292447 heartbeat IPC: 2.319 cumulative IPC: 0.641 (Simulation time: 00 hr 15 min 18 sec)
Heartbeat CPU 0 instructions: 110000618 cycles: 106960240 heartbeat IPC: 0.7487 cumulative IPC: 0.6418 (Simulation time: 00 hr 15 min 23 sec)
Heartbeat CPU 0 instructions: 110500619 cycles: 107421280 heartbeat IPC: 1.085 cumulative IPC: 0.6439 (Simulation time: 00 hr 15 min 27 sec)
Heartbeat CPU 0 instructions: 111000621 cycles: 107911240 heartbeat IPC: 1.02 cumulative IPC: 0.6459 (Simulation time: 00 hr 15 min 31 sec)
Heartbeat CPU 0 instructions: 111500622 cycles: 108408035 heartbeat IPC: 1.006 cumulative IPC: 0.6478 (Simulation time: 00 hr 15 min 35 sec)
Heartbeat CPU 0 instructions: 112000622 cycles: 108899877 heartbeat IPC: 1.017 cumulative IPC: 0.6497 (Simulation time: 00 hr 15 min 39 sec)
Heartbeat CPU 0 instructions: 112500622 cycles: 109538791 heartbeat IPC: 0.7826 cumulative IPC: 0.6505 (Simulation time: 00 hr 15 min 44 sec)
Heartbeat CPU 0 instructions: 113000622 cycles: 109728958 heartbeat IPC: 2.629 cumulative IPC: 0.6545 (Simulation time: 00 hr 15 min 46 sec)
Heartbeat CPU 0 instructions: 113500622 cycles: 110061286 heartbeat IPC: 1.505 cumulative IPC: 0.6574 (Simulation time: 00 hr 15 min 49 sec)
Heartbeat CPU 0 instructions: 114000625 cycles: 111415330 heartbeat IPC: 0.3693 cumulative IPC: 0.6534 (Simulation time: 00 hr 15 min 59 sec)
Heartbeat CPU 0 instructions: 114500625 cycles: 111953052 heartbeat IPC: 0.9298 cumulative IPC: 0.6549 (Simulation time: 00 hr 16 min 03 sec)
Heartbeat CPU 0 instructions: 115000625 cycles: 112409048 heartbeat IPC: 1.097 cumulative IPC: 0.6569 (Simulation time: 00 hr 16 min 07 sec)
Heartbeat CPU 0 instructions: 115500627 cycles: 112840604 heartbeat IPC: 1.159 cumulative IPC: 0.6591 (Simulation time: 00 hr 16 min 11 sec)
Heartbeat CPU 0 instructions: 116000627 cycles: 113769489 heartbeat IPC: 0.5383 cumulative IPC: 0.658 (Simulation time: 00 hr 16 min 18 sec)
Heartbeat CPU 0 instructions: 116500627 cycles: 114795934 heartbeat IPC: 0.4871 cumulative IPC: 0.6563 (Simulation time: 00 hr 16 min 25 sec)
Heartbeat CPU 0 instructions: 117000627 cycles: 116017943 heartbeat IPC: 0.4092 cumulative IPC: 0.6533 (Simulation time: 00 hr 16 min 33 sec)
Heartbeat CPU 0 instructions: 117500628 cycles: 116629267 heartbeat IPC: 0.8179 cumulative IPC: 0.6543 (Simulation time: 00 hr 16 min 38 sec)
Heartbeat CPU 0 instructions: 118000628 cycles: 117645416 heartbeat IPC: 0.4921 cumulative IPC: 0.6527 (Simulation time: 00 hr 16 min 46 sec)
Heartbeat CPU 0 instructions: 118500628 cycles: 118640776 heartbeat IPC: 0.5023 cumulative IPC: 0.6513 (Simulation time: 00 hr 16 min 53 sec)
Heartbeat CPU 0 instructions: 119000628 cycles: 119362130 heartbeat IPC: 0.6931 cumulative IPC: 0.6516 (Simulation time: 00 hr 16 min 59 sec)
Heartbeat CPU 0 instructions: 119500629 cycles: 120257322 heartbeat IPC: 0.5585 cumulative IPC: 0.6508 (Simulation time: 00 hr 17 min 05 sec)
Heartbeat CPU 0 instructions: 120000631 cycles: 121229419 heartbeat IPC: 0.5144 cumulative IPC: 0.6496 (Simulation time: 00 hr 17 min 13 sec)
Heartbeat CPU 0 instructions: 120500631 cycles: 122539954 heartbeat IPC: 0.3815 cumulative IPC: 0.6464 (Simulation time: 00 hr 17 min 22 sec)
Heartbeat CPU 0 instructions: 121000635 cycles: 123735224 heartbeat IPC: 0.4183 cumulative IPC: 0.6439 (Simulation time: 00 hr 17 min 31 sec)
Heartbeat CPU 0 instructions: 121500635 cycles: 124468847 heartbeat IPC: 0.6815 cumulative IPC: 0.6441 (Simulation time: 00 hr 17 min 37 sec)
Heartbeat CPU 0 instructions: 122000635 cycles: 125649342 heartbeat IPC: 0.4236 cumulative IPC: 0.6418 (Simulation time: 00 hr 17 min 45 sec)
Heartbeat CPU 0 instructions: 122500635 cycles: 126053900 heartbeat IPC: 1.236 cumulative IPC: 0.6439 (Simulation time: 00 hr 17 min 49 sec)
Heartbeat CPU 0 instructions: 123000639 cycles: 126517029 heartbeat IPC: 1.08 cumulative IPC: 0.6457 (Simulation time: 00 hr 17 min 53 sec)
Heartbeat CPU 0 instructions: 123500642 cycles: 126863318 heartbeat IPC: 1.444 cumulative IPC: 0.6482 (Simulation time: 00 hr 17 min 56 sec)
Heartbeat CPU 0 instructions: 124000644 cycles: 127674469 heartbeat IPC: 0.6164 cumulative IPC: 0.6479 (Simulation time: 00 hr 18 min 02 sec)
Heartbeat CPU 0 instructions: 124500651 cycles: 128406149 heartbeat IPC: 0.6834 cumulative IPC: 0.6482 (Simulation time: 00 hr 18 min 08 sec)
Heartbeat CPU 0 instructions: 125000656 cycles: 129088447 heartbeat IPC: 0.7328 cumulative IPC: 0.6487 (Simulation time: 00 hr 18 min 13 sec)
Heartbeat CPU 0 instructions: 125500663 cycles: 130014548 heartbeat IPC: 0.5399 cumulative IPC: 0.6478 (Simulation time: 00 hr 18 min 20 sec)
Heartbeat CPU 0 instructions: 126000667 cycles: 131000743 heartbeat IPC: 0.507 cumulative IPC: 0.6466 (Simulation time: 00 hr 18 min 27 sec)
Heartbeat CPU 0 instructions: 126500670 cycles: 131707455 heartbeat IPC: 0.7075 cumulative IPC: 0.647 (Simulation time: 00 hr 18 min 33 sec)
Heartbeat CPU 0 instructions: 127000671 cycles: 132623895 heartbeat IPC: 0.5456 cumulative IPC: 0.6462 (Simulation time: 00 hr 18 min 39 sec)
Heartbeat CPU 0 instructions: 127500674 cycles: 133285515 heartbeat IPC: 0.7557 cumulative IPC: 0.6468 (Simulation time: 00 hr 18 min 44 sec)
Heartbeat CPU 0 instructions: 128000675 cycles: 133609112 heartbeat IPC: 1.545 cumulative IPC: 0.6492 (Simulation time: 00 hr 18 min 47 sec)
Heartbeat CPU 0 instructions: 128500675 cycles: 133965504 heartbeat IPC: 1.403 cumulative IPC: 0.6515 (Simulation time: 00 hr 18 min 50 sec)
Heartbeat CPU 0 instructions: 129000676 cycles: 134335710 heartbeat IPC: 1.351 cumulative IPC: 0.6536 (Simulation time: 00 hr 18 min 52 sec)
Heartbeat CPU 0 instructions: 129500681 cycles: 134673676 heartbeat IPC: 1.479 cumulative IPC: 0.6559 (Simulation time: 00 hr 18 min 55 sec)
Heartbeat CPU 0 instructions: 130000687 cycles: 135046321 heartbeat IPC: 1.342 cumulative IPC: 0.658 (Simulation time: 00 hr 18 min 58 sec)
Heartbeat CPU 0 instructions: 130500687 cycles: 136018556 heartbeat IPC: 0.5143 cumulative IPC: 0.6569 (Simulation time: 00 hr 19 min 05 sec)
Heartbeat CPU 0 instructions: 131000693 cycles: 136636835 heartbeat IPC: 0.8087 cumulative IPC: 0.6576 (Simulation time: 00 hr 19 min 10 sec)
Heartbeat CPU 0 instructions: 131500694 cycles: 137515543 heartbeat IPC: 0.569 cumulative IPC: 0.657 (Simulation time: 00 hr 19 min 16 sec)
Heartbeat CPU 0 instructions: 132000697 cycles: 137967938 heartbeat IPC: 1.105 cumulative IPC: 0.6586 (Simulation time: 00 hr 19 min 20 sec)
Heartbeat CPU 0 instructions: 132500703 cycles: 138394069 heartbeat IPC: 1.173 cumulative IPC: 0.6604 (Simulation time: 00 hr 19 min 24 sec)
Heartbeat CPU 0 instructions: 133000707 cycles: 138773656 heartbeat IPC: 1.317 cumulative IPC: 0.6624 (Simulation time: 00 hr 19 min 27 sec)
Heartbeat CPU 0 instructions: 133500711 cycles: 139054333 heartbeat IPC: 1.781 cumulative IPC: 0.6649 (Simulation time: 00 hr 19 min 29 sec)
Heartbeat CPU 0 instructions: 134000711 cycles: 139280585 heartbeat IPC: 2.21 cumulative IPC: 0.6677 (Simulation time: 00 hr 19 min 32 sec)
Heartbeat CPU 0 instructions: 134500711 cycles: 139439690 heartbeat IPC: 3.143 cumulative IPC: 0.6708 (Simulation time: 00 hr 19 min 34 sec)
Heartbeat CPU 0 instructions: 135000711 cycles: 139598427 heartbeat IPC: 3.15 cumulative IPC: 0.6739 (Simulation time: 00 hr 19 min 36 sec)
Heartbeat CPU 0 instructions: 135500714 cycles: 139961882 heartbeat IPC: 1.376 cumulative IPC: 0.6759 (Simulation time: 00 hr 19 min 40 sec)
Heartbeat CPU 0 instructions: 136000714 cycles: 140390053 heartbeat IPC: 1.168 cumulative IPC: 0.6776 (Simulation time: 00 hr 19 min 43 sec)
Heartbeat CPU 0 instructions: 136500716 cycles: 140810317 heartbeat IPC: 1.19 cumulative IPC: 0.6793 (Simulation time: 00 hr 19 min 47 sec)
Heartbeat CPU 0 instructions: 137000716 cycles: 141107569 heartbeat IPC: 1.682 cumulative IPC: 0.6816 (Simulation time: 00 hr 19 min 50 sec)
Heartbeat CPU 0 instructions: 137500718 cycles: 141461845 heartbeat IPC: 1.411 cumulative IPC: 0.6836 (Simulation time: 00 hr 19 min 53 sec)
Heartbeat CPU 0 instructions: 138000720 cycles: 141805950 heartbeat IPC: 1.453 cumulative IPC: 0.6857 (Simulation time: 00 hr 19 min 56 sec)
Heartbeat CPU 0 instructions: 138500720 cycles: 142961004 heartbeat IPC: 0.4329 cumulative IPC: 0.6834 (Simulation time: 00 hr 20 min 04 sec)
Heartbeat CPU 0 instructions: 139000723 cycles: 144374449 heartbeat IPC: 0.3537 cumulative IPC: 0.6799 (Simulation time: 00 hr 20 min 14 sec)
Heartbeat CPU 0 instructions: 139500724 cycles: 145501531 heartbeat IPC: 0.4436 cumulative IPC: 0.6778 (Simulation time: 00 hr 20 min 22 sec)
Heartbeat CPU 0 instructions: 140000724 cycles: 146612636 heartbeat IPC: 0.45 cumulative IPC: 0.6759 (Simulation time: 00 hr 20 min 30 sec)
Heartbeat CPU 0 instructions: 140500727 cycles: 147394744 heartbeat IPC: 0.6393 cumulative IPC: 0.6757 (Simulation time: 00 hr 20 min 36 sec)
Heartbeat CPU 0 instructions: 141000729 cycles: 148363171 heartbeat IPC: 0.5163 cumulative IPC: 0.6746 (Simulation time: 00 hr 20 min 43 sec)
Heartbeat CPU 0 instructions: 141500732 cycles: 149075699 heartbeat IPC: 0.7017 cumulative IPC: 0.6747 (Simulation time: 00 hr 20 min 48 sec)
Heartbeat CPU 0 instructions: 142000735 cycles: 150316316 heartbeat IPC: 0.403 cumulative IPC: 0.6723 (Simulation time: 00 hr 20 min 56 sec)
Heartbeat CPU 0 instructions: 142500735 cycles: 151998380 heartbeat IPC: 0.2973 cumulative IPC: 0.6677 (Simulation time: 00 hr 21 min 07 sec)
Heartbeat CPU 0 instructions: 143000735 cycles: 152420442 heartbeat IPC: 1.185 cumulative IPC: 0.6693 (Simulation time: 00 hr 21 min 11 sec)
Heartbeat CPU 0 instructions: 143500740 cycles: 152726377 heartbeat IPC: 1.634 cumulative IPC: 0.6714 (Simulation time: 00 hr 21 min 13 sec)
Heartbeat CPU 0 instructions: 144000740 cycles: 153089728 heartbeat IPC: 1.376 cumulative IPC: 0.6732 (Simulation time: 00 hr 21 min 16 sec)
Heartbeat CPU 0 instructions: 144500743 cycles: 153418292 heartbeat IPC: 1.522 cumulative IPC: 0.6752 (Simulation time: 00 hr 21 min 19 sec)
Heartbeat CPU 0 instructions: 145000744 cycles: 154014744 heartbeat IPC: 0.8383 cumulative IPC: 0.6759 (Simulation time: 00 hr 21 min 23 sec)
Heartbeat CPU 0 instructions: 145500746 cycles: 154363035 heartbeat IPC: 1.436 cumulative IPC: 0.6778 (Simulation time: 00 hr 21 min 26 sec)
Heartbeat CPU 0 instructions: 146000747 cycles: 154765991 heartbeat IPC: 1.241 cumulative IPC: 0.6794 (Simulation time: 00 hr 21 min 29 sec)
Heartbeat CPU 0 instructions: 146500748 cycles: 155983656 heartbeat IPC: 0.4106 cumulative IPC: 0.6771 (Simulation time: 00 hr 21 min 37 sec)
Heartbeat CPU 0 instructions: 147000748 cycles: 156384165 heartbeat IPC: 1.248 cumulative IPC: 0.6787 (Simulation time: 00 hr 21 min 41 sec)
Heartbeat CPU 0 instructions: 147500750 cycles: 157244405 heartbeat IPC: 0.5812 cumulative IPC: 0.6781 (Simulation time: 00 hr 21 min 47 sec)
Heartbeat CPU 0 instructions: 148000751 cycles: 158356125 heartbeat IPC: 0.4498 cumulative IPC: 0.6764 (Simulation time: 00 hr 21 min 55 sec)
Heartbeat CPU 0 instructions: 148500756 cycles: 159163897 heartbeat IPC: 0.619 cumulative IPC: 0.6761 (Simulation time: 00 hr 22 min 00 sec)
Heartbeat CPU 0 instructions: 149000756 cycles: 160083788 heartbeat IPC: 0.5435 cumulative IPC: 0.6752 (Simulation time: 00 hr 22 min 07 sec)
Heartbeat CPU 0 instructions: 149500756 cycles: 161134049 heartbeat IPC: 0.4761 cumulative IPC: 0.6738 (Simulation time: 00 hr 22 min 14 sec)
Heartbeat CPU 0 instructions: 150000758 cycles: 161870139 heartbeat IPC: 0.6793 cumulative IPC: 0.6738 (Simulation time: 00 hr 22 min 20 sec)
Heartbeat CPU 0 instructions: 150500759 cycles: 162455393 heartbeat IPC: 0.8543 cumulative IPC: 0.6745 (Simulation time: 00 hr 22 min 24 sec)
Heartbeat CPU 0 instructions: 151000765 cycles: 163381460 heartbeat IPC: 0.5399 cumulative IPC: 0.6737 (Simulation time: 00 hr 22 min 30 sec)
Heartbeat CPU 0 instructions: 151500768 cycles: 164931674 heartbeat IPC: 0.3225 cumulative IPC: 0.6701 (Simulation time: 00 hr 22 min 41 sec)
Heartbeat CPU 0 instructions: 152000773 cycles: 165793995 heartbeat IPC: 0.5798 cumulative IPC: 0.6696 (Simulation time: 00 hr 22 min 47 sec)
Heartbeat CPU 0 instructions: 152500777 cycles: 166548089 heartbeat IPC: 0.6631 cumulative IPC: 0.6696 (Simulation time: 00 hr 22 min 53 sec)
Heartbeat CPU 0 instructions: 153000778 cycles: 167464737 heartbeat IPC: 0.5455 cumulative IPC: 0.6688 (Simulation time: 00 hr 22 min 59 sec)
Heartbeat CPU 0 instructions: 153500783 cycles: 168286028 heartbeat IPC: 0.6088 cumulative IPC: 0.6685 (Simulation time: 00 hr 23 min 06 sec)
Heartbeat CPU 0 instructions: 154000784 cycles: 169216902 heartbeat IPC: 0.5371 cumulative IPC: 0.6677 (Simulation time: 00 hr 23 min 12 sec)
Heartbeat CPU 0 instructions: 154500786 cycles: 169969977 heartbeat IPC: 0.6639 cumulative IPC: 0.6677 (Simulation time: 00 hr 23 min 18 sec)
Heartbeat CPU 0 instructions: 155000786 cycles: 170478466 heartbeat IPC: 0.9833 cumulative IPC: 0.6687 (Simulation time: 00 hr 23 min 22 sec)
Heartbeat CPU 0 instructions: 155500790 cycles: 171082100 heartbeat IPC: 0.8283 cumulative IPC: 0.6693 (Simulation time: 00 hr 23 min 27 sec)
Heartbeat CPU 0 instructions: 156000790 cycles: 171431054 heartbeat IPC: 1.433 cumulative IPC: 0.671 (Simulation time: 00 hr 23 min 30 sec)
Heartbeat CPU 0 instructions: 156500792 cycles: 171972504 heartbeat IPC: 0.9234 cumulative IPC: 0.6719 (Simulation time: 00 hr 23 min 34 sec)
Heartbeat CPU 0 instructions: 157000792 cycles: 172248556 heartbeat IPC: 1.811 cumulative IPC: 0.6739 (Simulation time: 00 hr 23 min 37 sec)
Heartbeat CPU 0 instructions: 157500794 cycles: 172948126 heartbeat IPC: 0.7147 cumulative IPC: 0.6741 (Simulation time: 00 hr 23 min 42 sec)
Heartbeat CPU 0 instructions: 158000795 cycles: 173842889 heartbeat IPC: 0.5588 cumulative IPC: 0.6734 (Simulation time: 00 hr 23 min 48 sec)
Heartbeat CPU 0 instructions: 158500795 cycles: 174668602 heartbeat IPC: 0.6055 cumulative IPC: 0.6731 (Simulation time: 00 hr 23 min 54 sec)
Heartbeat CPU 0 instructions: 159000799 cycles: 175509022 heartbeat IPC: 0.5949 cumulative IPC: 0.6727 (Simulation time: 00 hr 24 min 00 sec)
Heartbeat CPU 0 instructions: 159500802 cycles: 176024577 heartbeat IPC: 0.9698 cumulative IPC: 0.6736 (Simulation time: 00 hr 24 min 04 sec)
Heartbeat CPU 0 instructions: 160000803 cycles: 176449748 heartbeat IPC: 1.176 cumulative IPC: 0.6749 (Simulation time: 00 hr 24 min 08 sec)
Heartbeat CPU 0 instructions: 160500805 cycles: 176909286 heartbeat IPC: 1.088 cumulative IPC: 0.6761 (Simulation time: 00 hr 24 min 12 sec)
Heartbeat CPU 0 instructions: 161000808 cycles: 177303977 heartbeat IPC: 1.267 cumulative IPC: 0.6775 (Simulation time: 00 hr 24 min 15 sec)
Heartbeat CPU 0 instructions: 161500812 cycles: 177754334 heartbeat IPC: 1.11 cumulative IPC: 0.6787 (Simulation time: 00 hr 24 min 19 sec)
Heartbeat CPU 0 instructions: 162000814 cycles: 178115714 heartbeat IPC: 1.384 cumulative IPC: 0.6802 (Simulation time: 00 hr 24 min 22 sec)
Heartbeat CPU 0 instructions: 162500821 cycles: 178520158 heartbeat IPC: 1.236 cumulative IPC: 0.6816 (Simulation time: 00 hr 24 min 25 sec)
Heartbeat CPU 0 instructions: 163000823 cycles: 178867213 heartbeat IPC: 1.441 cumulative IPC: 0.6832 (Simulation time: 00 hr 24 min 28 sec)
Heartbeat CPU 0 instructions: 163500828 cycles: 179364112 heartbeat IPC: 1.006 cumulative IPC: 0.6842 (Simulation time: 00 hr 24 min 32 sec)
Heartbeat CPU 0 instructions: 164000833 cycles: 181017108 heartbeat IPC: 0.3025 cumulative IPC: 0.6804 (Simulation time: 00 hr 24 min 42 sec)
Heartbeat CPU 0 instructions: 164500838 cycles: 182235359 heartbeat IPC: 0.4104 cumulative IPC: 0.6784 (Simulation time: 00 hr 24 min 51 sec)
Heartbeat CPU 0 instructions: 165000845 cycles: 183248463 heartbeat IPC: 0.4935 cumulative IPC: 0.6773 (Simulation time: 00 hr 24 min 57 sec)
Heartbeat CPU 0 instructions: 165500845 cycles: 184106974 heartbeat IPC: 0.5824 cumulative IPC: 0.6769 (Simulation time: 00 hr 25 min 03 sec)
Heartbeat CPU 0 instructions: 166000845 cycles: 185108801 heartbeat IPC: 0.4991 cumulative IPC: 0.6758 (Simulation time: 00 hr 25 min 09 sec)
Heartbeat CPU 0 instructions: 166500850 cycles: 186012159 heartbeat IPC: 0.5535 cumulative IPC: 0.6752 (Simulation time: 00 hr 25 min 15 sec)
Heartbeat CPU 0 instructions: 167000855 cycles: 187875741 heartbeat IPC: 0.2683 cumulative IPC: 0.6708 (Simulation time: 00 hr 25 min 27 sec)
Heartbeat CPU 0 instructions: 167500856 cycles: 188650590 heartbeat IPC: 0.6453 cumulative IPC: 0.6707 (Simulation time: 00 hr 25 min 32 sec)
Heartbeat CPU 0 instructions: 168000859 cycles: 189422951 heartbeat IPC: 0.6474 cumulative IPC: 0.6706 (Simulation time: 00 hr 25 min 37 sec)
Heartbeat CPU 0 instructions: 168500861 cycles: 190086571 heartbeat IPC: 0.7534 cumulative IPC: 0.6709 (Simulation time: 00 hr 25 min 42 sec)
Heartbeat CPU 0 instructions: 169000865 cycles: 191210569 heartbeat IPC: 0.4448 cumulative IPC: 0.6695 (Simulation time: 00 hr 25 min 49 sec)
Heartbeat CPU 0 instructions: 169500866 cycles: 192167202 heartbeat IPC: 0.5227 cumulative IPC: 0.6687 (Simulation time: 00 hr 25 min 56 sec)
Heartbeat CPU 0 instructions: 170000870 cycles: 192883111 heartbeat IPC: 0.6984 cumulative IPC: 0.6688 (Simulation time: 00 hr 26 min 00 sec)
Heartbeat CPU 0 instructions: 170500870 cycles: 193190273 heartbeat IPC: 1.628 cumulative IPC: 0.6705 (Simulation time: 00 hr 26 min 03 sec)
Heartbeat CPU 0 instructions: 171000875 cycles: 193785102 heartbeat IPC: 0.8406 cumulative IPC: 0.671 (Simulation time: 00 hr 26 min 07 sec)
Heartbeat CPU 0 instructions: 171500878 cycles: 194588573 heartbeat IPC: 0.6223 cumulative IPC: 0.6708 (Simulation time: 00 hr 26 min 13 sec)
Heartbeat CPU 0 instructions: 172000878 cycles: 195376242 heartbeat IPC: 0.6348 cumulative IPC: 0.6707 (Simulation time: 00 hr 26 min 18 sec)
Heartbeat CPU 0 instructions: 172500878 cycles: 196616822 heartbeat IPC: 0.403 cumulative IPC: 0.6688 (Simulation time: 00 hr 26 min 26 sec)
Heartbeat CPU 0 instructions: 173000883 cycles: 197121900 heartbeat IPC: 0.99 cumulative IPC: 0.6697 (Simulation time: 00 hr 26 min 30 sec)
Heartbeat CPU 0 instructions: 173500889 cycles: 198305928 heartbeat IPC: 0.4223 cumulative IPC: 0.6681 (Simulation time: 00 hr 26 min 37 sec)
Heartbeat CPU 0 instructions: 174000892 cycles: 199295482 heartbeat IPC: 0.5053 cumulative IPC: 0.6673 (Simulation time: 00 hr 26 min 44 sec)
Heartbeat CPU 0 instructions: 174500894 cycles: 199775795 heartbeat IPC: 1.041 cumulative IPC: 0.6682 (Simulation time: 00 hr 26 min 48 sec)
Heartbeat CPU 0 instructions: 175000895 cycles: 200869297 heartbeat IPC: 0.4572 cumulative IPC: 0.667 (Simulation time: 00 hr 26 min 54 sec)
Heartbeat CPU 0 instructions: 175500895 cycles: 201657821 heartbeat IPC: 0.6341 cumulative IPC: 0.6669 (Simulation time: 00 hr 27 min 00 sec)
Heartbeat CPU 0 instructions: 176000897 cycles: 202032345 heartbeat IPC: 1.335 cumulative IPC: 0.6682 (Simulation time: 00 hr 27 min 03 sec)
Heartbeat CPU 0 instructions: 176500900 cycles: 202522852 heartbeat IPC: 1.019 cumulative IPC: 0.6691 (Simulation time: 00 hr 27 min 07 sec)
Heartbeat CPU 0 instructions: 177000900 cycles: 202842067 heartbeat IPC: 1.566 cumulative IPC: 0.6706 (Simulation time: 00 hr 27 min 09 sec)
Heartbeat CPU 0 instructions: 177500901 cycles: 203477931 heartbeat IPC: 0.7863 cumulative IPC: 0.671 (Simulation time: 00 hr 27 min 15 sec)
Heartbeat CPU 0 instructions: 178000904 cycles: 205032441 heartbeat IPC: 0.3216 cumulative IPC: 0.6682 (Simulation time: 00 hr 27 min 29 sec)
Heartbeat CPU 0 instructions: 178500905 cycles: 205522083 heartbeat IPC: 1.021 cumulative IPC: 0.6691 (Simulation time: 00 hr 27 min 33 sec)
Heartbeat CPU 0 instructions: 179000911 cycles: 205936861 heartbeat IPC: 1.205 cumulative IPC: 0.6702 (Simulation time: 00 hr 27 min 36 sec)
Heartbeat CPU 0 instructions: 179500911 cycles: 206224454 heartbeat IPC: 1.739 cumulative IPC: 0.6718 (Simulation time: 00 hr 27 min 39 sec)
Heartbeat CPU 0 instructions: 180000915 cycles: 207164454 heartbeat IPC: 0.5319 cumulative IPC: 0.6711 (Simulation time: 00 hr 27 min 45 sec)
Heartbeat CPU 0 instructions: 180500915 cycles: 208379923 heartbeat IPC: 0.4114 cumulative IPC: 0.6695 (Simulation time: 00 hr 27 min 53 sec)
Heartbeat CPU 0 instructions: 181000917 cycles: 208712138 heartbeat IPC: 1.505 cumulative IPC: 0.6709 (Simulation time: 00 hr 27 min 56 sec)
Heartbeat CPU 0 instructions: 181500919 cycles: 209544964 heartbeat IPC: 0.6004 cumulative IPC: 0.6706 (Simulation time: 00 hr 28 min 02 sec)
Heartbeat CPU 0 instructions: 182000919 cycles: 210639638 heartbeat IPC: 0.4568 cumulative IPC: 0.6695 (Simulation time: 00 hr 28 min 09 sec)
Heartbeat CPU 0 instructions: 182500925 cycles: 211781426 heartbeat IPC: 0.4379 cumulative IPC: 0.6681 (Simulation time: 00 hr 28 min 15 sec)
Heartbeat CPU 0 instructions: 183000928 cycles: 212547158 heartbeat IPC: 0.653 cumulative IPC: 0.6681 (Simulation time: 00 hr 28 min 20 sec)
Heartbeat CPU 0 instructions: 183500930 cycles: 212887993 heartbeat IPC: 1.467 cumulative IPC: 0.6694 (Simulation time: 00 hr 28 min 23 sec)
Heartbeat CPU 0 instructions: 184000930 cycles: 213237308 heartbeat IPC: 1.431 cumulative IPC: 0.6708 (Simulation time: 00 hr 28 min 26 sec)
Heartbeat CPU 0 instructions: 184500936 cycles: 213534598 heartbeat IPC: 1.682 cumulative IPC: 0.6723 (Simulation time: 00 hr 28 min 28 sec)
Heartbeat CPU 0 instructions: 185000939 cycles: 214112241 heartbeat IPC: 0.8656 cumulative IPC: 0.6728 (Simulation time: 00 hr 28 min 32 sec)
Heartbeat CPU 0 instructions: 185500943 cycles: 214681261 heartbeat IPC: 0.8787 cumulative IPC: 0.6734 (Simulation time: 00 hr 28 min 36 sec)
Heartbeat CPU 0 instructions: 186000946 cycles: 216095950 heartbeat IPC: 0.3534 cumulative IPC: 0.6712 (Simulation time: 00 hr 28 min 45 sec)
Heartbeat CPU 0 instructions: 186500946 cycles: 217088943 heartbeat IPC: 0.5035 cumulative IPC: 0.6704 (Simulation time: 00 hr 28 min 51 sec)
Heartbeat CPU 0 instructions: 187000946 cycles: 217615417 heartbeat IPC: 0.9497 cumulative IPC: 0.6711 (Simulation time: 00 hr 28 min 55 sec)
Heartbeat CPU 0 instructions: 187500951 cycles: 218195745 heartbeat IPC: 0.8616 cumulative IPC: 0.6716 (Simulation time: 00 hr 28 min 59 sec)
Heartbeat CPU 0 instructions: 188000951 cycles: 219087590 heartbeat IPC: 0.5606 cumulative IPC: 0.6711 (Simulation time: 00 hr 29 min 04 sec)
Heartbeat CPU 0 instructions: 188500951 cycles: 219724964 heartbeat IPC: 0.7845 cumulative IPC: 0.6715 (Simulation time: 00 hr 29 min 09 sec)
Heartbeat CPU 0 instructions: 189000956 cycles: 221179041 heartbeat IPC: 0.3439 cumulative IPC: 0.6692 (Simulation time: 00 hr 29 min 17 sec)
Heartbeat CPU 0 instructions: 189500957 cycles: 221587873 heartbeat IPC: 1.223 cumulative IPC: 0.6703 (Simulation time: 00 hr 29 min 21 sec)
Heartbeat CPU 0 instructions: 190000958 cycles: 221977016 heartbeat IPC: 1.285 cumulative IPC: 0.6714 (Simulation time: 00 hr 29 min 24 sec)
Heartbeat CPU 0 instructions: 190500965 cycles: 222693220 heartbeat IPC: 0.6981 cumulative IPC: 0.6715 (Simulation time: 00 hr 29 min 28 sec)
Heartbeat CPU 0 instructions: 191000965 cycles: 223241657 heartbeat IPC: 0.9117 cumulative IPC: 0.6721 (Simulation time: 00 hr 29 min 32 sec)
Heartbeat CPU 0 instructions: 191500969 cycles: 223485084 heartbeat IPC: 2.054 cumulative IPC: 0.6738 (Simulation time: 00 hr 29 min 35 sec)
Heartbeat CPU 0 instructions: 192000970 cycles: 223771076 heartbeat IPC: 1.748 cumulative IPC: 0.6752 (Simulation time: 00 hr 29 min 37 sec)
Heartbeat CPU 0 instructions: 192500970 cycles: 224005904 heartbeat IPC: 2.129 cumulative IPC: 0.6768 (Simulation time: 00 hr 29 min 39 sec)
Heartbeat CPU 0 instructions: 193000972 cycles: 224357360 heartbeat IPC: 1.423 cumulative IPC: 0.6781 (Simulation time: 00 hr 29 min 42 sec)
Heartbeat CPU 0 instructions: 193500972 cycles: 224709153 heartbeat IPC: 1.421 cumulative IPC: 0.6793 (Simulation time: 00 hr 29 min 45 sec)
Heartbeat CPU 0 instructions: 194000972 cycles: 226145664 heartbeat IPC: 0.3481 cumulative IPC: 0.6771 (Simulation time: 00 hr 29 min 54 sec)
Heartbeat CPU 0 instructions: 194500978 cycles: 226992582 heartbeat IPC: 0.5904 cumulative IPC: 0.6767 (Simulation time: 00 hr 30 min 00 sec)
Heartbeat CPU 0 instructions: 195000983 cycles: 227365346 heartbeat IPC: 1.341 cumulative IPC: 0.6779 (Simulation time: 00 hr 30 min 03 sec)
Heartbeat CPU 0 instructions: 195500984 cycles: 227918426 heartbeat IPC: 0.904 cumulative IPC: 0.6785 (Simulation time: 00 hr 30 min 08 sec)
Heartbeat CPU 0 instructions: 196000985 cycles: 229716314 heartbeat IPC: 0.2781 cumulative IPC: 0.6751 (Simulation time: 00 hr 30 min 19 sec)
Heartbeat CPU 0 instructions: 196500986 cycles: 230653568 heartbeat IPC: 0.5335 cumulative IPC: 0.6745 (Simulation time: 00 hr 30 min 25 sec)
Heartbeat CPU 0 instructions: 197000986 cycles: 231181517 heartbeat IPC: 0.9471 cumulative IPC: 0.6752 (Simulation time: 00 hr 30 min 28 sec)
Heartbeat CPU 0 instructions: 197500986 cycles: 232345761 heartbeat IPC: 0.4295 cumulative IPC: 0.6739 (Simulation time: 00 hr 30 min 35 sec)
Heartbeat CPU 0 instructions: 198000991 cycles: 233754563 heartbeat IPC: 0.3549 cumulative IPC: 0.6718 (Simulation time: 00 hr 30 min 44 sec)
Heartbeat CPU 0 instructions: 198500991 cycles: 234544070 heartbeat IPC: 0.6333 cumulative IPC: 0.6717 (Simulation time: 00 hr 30 min 49 sec)
Heartbeat CPU 0 instructions: 199000994 cycles: 235129136 heartbeat IPC: 0.8546 cumulative IPC: 0.6722 (Simulation time: 00 hr 30 min 53 sec)
Heartbeat CPU 0 instructions: 199500994 cycles: 236318457 heartbeat IPC: 0.4204 cumulative IPC: 0.6708 (Simulation time: 00 hr 31 min 01 sec)
Heartbeat CPU 0 instructions: 200000996 cycles: 237403761 heartbeat IPC: 0.4607 cumulative IPC: 0.6698 (Simulation time: 00 hr 31 min 08 sec)
Heartbeat CPU 0 instructions: 200501000 cycles: 238540529 heartbeat IPC: 0.4398 cumulative IPC: 0.6687 (Simulation time: 00 hr 31 min 15 sec)
Heartbeat CPU 0 instructions: 201001002 cycles: 238793738 heartbeat IPC: 1.975 cumulative IPC: 0.6701 (Simulation time: 00 hr 31 min 17 sec)
Heartbeat CPU 0 instructions: 201501005 cycles: 239006530 heartbeat IPC: 2.35 cumulative IPC: 0.6717 (Simulation time: 00 hr 31 min 19 sec)
Heartbeat CPU 0 instructions: 202001011 cycles: 239222618 heartbeat IPC: 2.314 cumulative IPC: 0.6733 (Simulation time: 00 hr 31 min 21 sec)
Heartbeat CPU 0 instructions: 202501011 cycles: 239480741 heartbeat IPC: 1.937 cumulative IPC: 0.6747 (Simulation time: 00 hr 31 min 23 sec)
Heartbeat CPU 0 instructions: 203001012 cycles: 239813268 heartbeat IPC: 1.504 cumulative IPC: 0.676 (Simulation time: 00 hr 31 min 25 sec)
Heartbeat CPU 0 instructions: 203501016 cycles: 240147495 heartbeat IPC: 1.496 cumulative IPC: 0.6772 (Simulation time: 00 hr 31 min 28 sec)
Heartbeat CPU 0 instructions: 204001020 cycles: 240466692 heartbeat IPC: 1.566 cumulative IPC: 0.6784 (Simulation time: 00 hr 31 min 30 sec)
Heartbeat CPU 0 instructions: 204501020 cycles: 240789193 heartbeat IPC: 1.55 cumulative IPC: 0.6797 (Simulation time: 00 hr 31 min 32 sec)
Heartbeat CPU 0 instructions: 205001026 cycles: 241829787 heartbeat IPC: 0.4805 cumulative IPC: 0.6787 (Simulation time: 00 hr 31 min 39 sec)
Heartbeat CPU 0 instructions: 205501028 cycles: 242843425 heartbeat IPC: 0.4933 cumulative IPC: 0.6779 (Simulation time: 00 hr 31 min 45 sec)
Heartbeat CPU 0 instructions: 206001029 cycles: 243359534 heartbeat IPC: 0.9688 cumulative IPC: 0.6786 (Simulation time: 00 hr 31 min 49 sec)
Heartbeat CPU 0 instructions: 206501033 cycles: 243584907 heartbeat IPC: 2.219 cumulative IPC: 0.6801 (Simulation time: 00 hr 31 min 51 sec)
Heartbeat CPU 0 instructions: 207001034 cycles: 243824697 heartbeat IPC: 2.085 cumulative IPC: 0.6815 (Simulation time: 00 hr 31 min 53 sec)
Heartbeat CPU 0 instructions: 207501034 cycles: 244389685 heartbeat IPC: 0.885 cumulative IPC: 0.682 (Simulation time: 00 hr 31 min 57 sec)
Heartbeat CPU 0 instructions: 208001034 cycles: 245447945 heartbeat IPC: 0.4725 cumulative IPC: 0.6811 (Simulation time: 00 hr 32 min 04 sec)
Heartbeat CPU 0 instructions: 208501036 cycles: 245970785 heartbeat IPC: 0.9563 cumulative IPC: 0.6817 (Simulation time: 00 hr 32 min 07 sec)
Heartbeat CPU 0 instructions: 209001036 cycles: 246767516 heartbeat IPC: 0.6276 cumulative IPC: 0.6815 (Simulation time: 00 hr 32 min 12 sec)
Heartbeat CPU 0 instructions: 209501039 cycles: 247549447 heartbeat IPC: 0.6394 cumulative IPC: 0.6814 (Simulation time: 00 hr 32 min 18 sec)
Heartbeat CPU 0 instructions: 210001040 cycles: 248470497 heartbeat IPC: 0.5429 cumulative IPC: 0.6808 (Simulation time: 00 hr 32 min 23 sec)
Heartbeat CPU 0 instructions: 210501040 cycles: 249236885 heartbeat IPC: 0.6524 cumulative IPC: 0.6807 (Simulation time: 00 hr 32 min 28 sec)
Heartbeat CPU 0 instructions: 211001044 cycles: 250326349 heartbeat IPC: 0.4589 cumulative IPC: 0.6797 (Simulation time: 00 hr 32 min 35 sec)
Heartbeat CPU 0 instructions: 211501045 cycles: 251413172 heartbeat IPC: 0.4601 cumulative IPC: 0.6787 (Simulation time: 00 hr 32 min 42 sec)
Heartbeat CPU 0 instructions: 212001048 cycles: 252341700 heartbeat IPC: 0.5385 cumulative IPC: 0.6782 (Simulation time: 00 hr 32 min 48 sec)
Heartbeat CPU 0 instructions: 212501053 cycles: 253170667 heartbeat IPC: 0.6032 cumulative IPC: 0.6779 (Simulation time: 00 hr 32 min 53 sec)
Heartbeat CPU 0 instructions: 213001054 cycles: 253504475 heartbeat IPC: 1.498 cumulative IPC: 0.6791 (Simulation time: 00 hr 32 min 56 sec)
Heartbeat CPU 0 instructions: 213501057 cycles: 254344584 heartbeat IPC: 0.5952 cumulative IPC: 0.6788 (Simulation time: 00 hr 33 min 01 sec)
Heartbeat CPU 0 instructions: 214001058 cycles: 254922132 heartbeat IPC: 0.8657 cumulative IPC: 0.6792 (Simulation time: 00 hr 33 min 05 sec)
Heartbeat CPU 0 instructions: 214501064 cycles: 255863668 heartbeat IPC: 0.5311 cumulative IPC: 0.6786 (Simulation time: 00 hr 33 min 11 sec)
Heartbeat CPU 0 instructions: 215001066 cycles: 256801250 heartbeat IPC: 0.5333 cumulative IPC: 0.6781 (Simulation time: 00 hr 33 min 17 sec)
Heartbeat CPU 0 instructions: 215501070 cycles: 257691627 heartbeat IPC: 0.5616 cumulative IPC: 0.6777 (Simulation time: 00 hr 33 min 23 sec)
Heartbeat CPU 0 instructions: 216001074 cycles: 258152243 heartbeat IPC: 1.086 cumulative IPC: 0.6784 (Simulation time: 00 hr 33 min 27 sec)
Heartbeat CPU 0 instructions: 216501074 cycles: 258550881 heartbeat IPC: 1.254 cumulative IPC: 0.6794 (Simulation time: 00 hr 33 min 30 sec)
Heartbeat CPU 0 instructions: 217001075 cycles: 258997472 heartbeat IPC: 1.12 cumulative IPC: 0.6802 (Simulation time: 00 hr 33 min 33 sec)
Heartbeat CPU 0 instructions: 217501075 cycles: 259496137 heartbeat IPC: 1.003 cumulative IPC: 0.6808 (Simulation time: 00 hr 33 min 37 sec)
Heartbeat CPU 0 instructions: 218001078 cycles: 260599699 heartbeat IPC: 0.4531 cumulative IPC: 0.6798 (Simulation time: 00 hr 33 min 44 sec)
Heartbeat CPU 0 instructions: 218501078 cycles: 261740639 heartbeat IPC: 0.4382 cumulative IPC: 0.6787 (Simulation time: 00 hr 33 min 51 sec)
Heartbeat CPU 0 instructions: 219001079 cycles: 262526628 heartbeat IPC: 0.6361 cumulative IPC: 0.6786 (Simulation time: 00 hr 33 min 56 sec)
Heartbeat CPU 0 instructions: 219501084 cycles: 263212341 heartbeat IPC: 0.7292 cumulative IPC: 0.6787 (Simulation time: 00 hr 34 min 01 sec)
Heartbeat CPU 0 instructions: 220001087 cycles: 263757398 heartbeat IPC: 0.9173 cumulative IPC: 0.6792 (Simulation time: 00 hr 34 min 04 sec)
Heartbeat CPU 0 instructions: 220501088 cycles: 264969192 heartbeat IPC: 0.4126 cumulative IPC: 0.6779 (Simulation time: 00 hr 34 min 12 sec)
Heartbeat CPU 0 instructions: 221001093 cycles: 265758362 heartbeat IPC: 0.6336 cumulative IPC: 0.6778 (Simulation time: 00 hr 34 min 17 sec)
Heartbeat CPU 0 instructions: 221501095 cycles: 266437298 heartbeat IPC: 0.7364 cumulative IPC: 0.6779 (Simulation time: 00 hr 34 min 22 sec)
Heartbeat CPU 0 instructions: 222001098 cycles: 266809277 heartbeat IPC: 1.344 cumulative IPC: 0.6789 (Simulation time: 00 hr 34 min 25 sec)
Heartbeat CPU 0 instructions: 222501098 cycles: 267127608 heartbeat IPC: 1.571 cumulative IPC: 0.68 (Simulation time: 00 hr 34 min 27 sec)
Heartbeat CPU 0 instructions: 223001102 cycles: 267747963 heartbeat IPC: 0.806 cumulative IPC: 0.6803 (Simulation time: 00 hr 34 min 31 sec)
Heartbeat CPU 0 instructions: 223501102 cycles: 268717193 heartbeat IPC: 0.5159 cumulative IPC: 0.6797 (Simulation time: 00 hr 34 min 38 sec)
Heartbeat CPU 0 instructions: 224001103 cycles: 269246903 heartbeat IPC: 0.9439 cumulative IPC: 0.6803 (Simulation time: 00 hr 34 min 42 sec)
Heartbeat CPU 0 instructions: 224501104 cycles: 270026553 heartbeat IPC: 0.6413 cumulative IPC: 0.6802 (Simulation time: 00 hr 34 min 47 sec)
Heartbeat CPU 0 instructions: 225001108 cycles: 270703554 heartbeat IPC: 0.7386 cumulative IPC: 0.6803 (Simulation time: 00 hr 34 min 52 sec)
Heartbeat CPU 0 instructions: 225501112 cycles: 271003668 heartbeat IPC: 1.666 cumulative IPC: 0.6815 (Simulation time: 00 hr 34 min 54 sec)
Heartbeat CPU 0 instructions: 226001115 cycles: 271264486 heartbeat IPC: 1.917 cumulative IPC: 0.6827 (Simulation time: 00 hr 34 min 57 sec)
Heartbeat CPU 0 instructions: 226501119 cycles: 271521706 heartbeat IPC: 1.944 cumulative IPC: 0.684 (Simulation time: 00 hr 34 min 59 sec)
Heartbeat CPU 0 instructions: 227001119 cycles: 271793642 heartbeat IPC: 1.839 cumulative IPC: 0.6852 (Simulation time: 00 hr 35 min 02 sec)
Heartbeat CPU 0 instructions: 227501124 cycles: 272080366 heartbeat IPC: 1.744 cumulative IPC: 0.6864 (Simulation time: 00 hr 35 min 04 sec)
Heartbeat CPU 0 instructions: 228001126 cycles: 272383793 heartbeat IPC: 1.648 cumulative IPC: 0.6875 (Simulation time: 00 hr 35 min 07 sec)
Heartbeat CPU 0 instructions: 228501126 cycles: 272662319 heartbeat IPC: 1.795 cumulative IPC: 0.6887 (Simulation time: 00 hr 35 min 09 sec)
Heartbeat CPU 0 instructions: 229001127 cycles: 272911290 heartbeat IPC: 2.008 cumulative IPC: 0.6899 (Simulation time: 00 hr 35 min 12 sec)
Heartbeat CPU 0 instructions: 229501128 cycles: 273126607 heartbeat IPC: 2.322 cumulative IPC: 0.6913 (Simulation time: 00 hr 35 min 14 sec)
Heartbeat CPU 0 instructions: 230001135 cycles: 273347401 heartbeat IPC: 2.265 cumulative IPC: 0.6926 (Simulation time: 00 hr 35 min 16 sec)
Heartbeat CPU 0 instructions: 230501138 cycles: 274034615 heartbeat IPC: 0.7276 cumulative IPC: 0.6927 (Simulation time: 00 hr 35 min 21 sec)
Heartbeat CPU 0 instructions: 231001144 cycles: 275325581 heartbeat IPC: 0.3873 cumulative IPC: 0.6912 (Simulation time: 00 hr 35 min 28 sec)
Heartbeat CPU 0 instructions: 231501144 cycles: 276599029 heartbeat IPC: 0.3926 cumulative IPC: 0.6898 (Simulation time: 00 hr 35 min 36 sec)
Heartbeat CPU 0 instructions: 232001144 cycles: 276998384 heartbeat IPC: 1.252 cumulative IPC: 0.6906 (Simulation time: 00 hr 35 min 39 sec)
Heartbeat CPU 0 instructions: 232501144 cycles: 277502839 heartbeat IPC: 0.9912 cumulative IPC: 0.6912 (Simulation time: 00 hr 35 min 43 sec)
Heartbeat CPU 0 instructions: 233001148 cycles: 278267615 heartbeat IPC: 0.6538 cumulative IPC: 0.6911 (Simulation time: 00 hr 35 min 48 sec)
Heartbeat CPU 0 instructions: 233501153 cycles: 279589048 heartbeat IPC: 0.3784 cumulative IPC: 0.6895 (Simulation time: 00 hr 35 min 56 sec)
Heartbeat CPU 0 instructions: 234001154 cycles: 280829466 heartbeat IPC: 0.4031 cumulative IPC: 0.6882 (Simulation time: 00 hr 36 min 04 sec)
Heartbeat CPU 0 instructions: 234501155 cycles: 281131853 heartbeat IPC: 1.654 cumulative IPC: 0.6893 (Simulation time: 00 hr 36 min 07 sec)
Heartbeat CPU 0 instructions: 235001155 cycles: 281388744 heartbeat IPC: 1.946 cumulative IPC: 0.6905 (Simulation time: 00 hr 36 min 09 sec)
Heartbeat CPU 0 instructions: 235501156 cycles: 281761295 heartbeat IPC: 1.342 cumulative IPC: 0.6914 (Simulation time: 00 hr 36 min 12 sec)
Heartbeat CPU 0 instructions: 236001156 cycles: 282383459 heartbeat IPC: 0.8036 cumulative IPC: 0.6917 (Simulation time: 00 hr 36 min 17 sec)
Heartbeat CPU 0 instructions: 236501159 cycles: 282860328 heartbeat IPC: 1.049 cumulative IPC: 0.6923 (Simulation time: 00 hr 36 min 20 sec)
Heartbeat CPU 0 instructions: 237001160 cycles: 284074733 heartbeat IPC: 0.4117 cumulative IPC: 0.691 (Simulation time: 00 hr 36 min 28 sec)
Heartbeat CPU 0 instructions: 237501163 cycles: 284280589 heartbeat IPC: 2.429 cumulative IPC: 0.6924 (Simulation time: 00 hr 36 min 30 sec)
Heartbeat CPU 0 instructions: 238001164 cycles: 284924217 heartbeat IPC: 0.7768 cumulative IPC: 0.6926 (Simulation time: 00 hr 36 min 35 sec)
Heartbeat CPU 0 instructions: 238501164 cycles: 285309159 heartbeat IPC: 1.299 cumulative IPC: 0.6934 (Simulation time: 00 hr 36 min 38 sec)
Heartbeat CPU 0 instructions: 239001165 cycles: 286010751 heartbeat IPC: 0.7127 cumulative IPC: 0.6935 (Simulation time: 00 hr 36 min 43 sec)
Heartbeat CPU 0 instructions: 239501166 cycles: 286718027 heartbeat IPC: 0.7069 cumulative IPC: 0.6935 (Simulation time: 00 hr 36 min 47 sec)
Heartbeat CPU 0 instructions: 240001167 cycles: 287166655 heartbeat IPC: 1.115 cumulative IPC: 0.6942 (Simulation time: 00 hr 36 min 51 sec)
Heartbeat CPU 0 instructions: 240501167 cycles: 288392926 heartbeat IPC: 0.4077 cumulative IPC: 0.6929 (Simulation time: 00 hr 36 min 58 sec)
Heartbeat CPU 0 instructions: 241001167 cycles: 288957532 heartbeat IPC: 0.8856 cumulative IPC: 0.6933 (Simulation time: 00 hr 37 min 02 sec)
Heartbeat CPU 0 instructions: 241501171 cycles: 289786040 heartbeat IPC: 0.6035 cumulative IPC: 0.693 (Simulation time: 00 hr 37 min 08 sec)
Heartbeat CPU 0 instructions: 242001171 cycles: 290343273 heartbeat IPC: 0.8973 cumulative IPC: 0.6935 (Simulation time: 00 hr 37 min 12 sec)
Heartbeat CPU 0 instructions: 242501172 cycles: 291683555 heartbeat IPC: 0.3731 cumulative IPC: 0.6919 (Simulation time: 00 hr 37 min 20 sec)
Heartbeat CPU 0 instructions: 243001173 cycles: 292570105 heartbeat IPC: 0.564 cumulative IPC: 0.6915 (Simulation time: 00 hr 37 min 25 sec)
Heartbeat CPU 0 instructions: 243501176 cycles: 293142556 heartbeat IPC: 0.8734 cumulative IPC: 0.6919 (Simulation time: 00 hr 37 min 29 sec)
Heartbeat CPU 0 instructions: 244001176 cycles: 294448272 heartbeat IPC: 0.3829 cumulative IPC: 0.6904 (Simulation time: 00 hr 37 min 37 sec)
Heartbeat CPU 0 instructions: 244501177 cycles: 295264559 heartbeat IPC: 0.6125 cumulative IPC: 0.6902 (Simulation time: 00 hr 37 min 43 sec)
Heartbeat CPU 0 instructions: 245001183 cycles: 296267623 heartbeat IPC: 0.4985 cumulative IPC: 0.6895 (Simulation time: 00 hr 37 min 50 sec)
Heartbeat CPU 0 instructions: 245501183 cycles: 297179338 heartbeat IPC: 0.5484 cumulative IPC: 0.6891 (Simulation time: 00 hr 37 min 55 sec)
Heartbeat CPU 0 instructions: 246001189 cycles: 297493701 heartbeat IPC: 1.591 cumulative IPC: 0.6901 (Simulation time: 00 hr 37 min 58 sec)
Heartbeat CPU 0 instructions: 246501189 cycles: 297971869 heartbeat IPC: 1.046 cumulative IPC: 0.6907 (Simulation time: 00 hr 38 min 02 sec)
Heartbeat CPU 0 instructions: 247001193 cycles: 299154460 heartbeat IPC: 0.4228 cumulative IPC: 0.6896 (Simulation time: 00 hr 38 min 09 sec)
Heartbeat CPU 0 instructions: 247501193 cycles: 299820710 heartbeat IPC: 0.7505 cumulative IPC: 0.6897 (Simulation time: 00 hr 38 min 13 sec)
Heartbeat CPU 0 instructions: 248001193 cycles: 300858038 heartbeat IPC: 0.482 cumulative IPC: 0.689 (Simulation time: 00 hr 38 min 20 sec)
Heartbeat CPU 0 instructions: 248501193 cycles: 302229088 heartbeat IPC: 0.3647 cumulative IPC: 0.6874 (Simulation time: 00 hr 38 min 28 sec)
Heartbeat CPU 0 instructions: 249001197 cycles: 304281391 heartbeat IPC: 0.2436 cumulative IPC: 0.6843 (Simulation time: 00 hr 38 min 40 sec)
Heartbeat CPU 0 instructions: 249501197 cycles: 306859702 heartbeat IPC: 0.1939 cumulative IPC: 0.68 (Simulation time: 00 hr 38 min 57 sec)
Simulation finished CPU 0 instructions: 200000006 cycles: 295604456 cumulative IPC: 0.6766 (Simulation time: 00 hr 39 min 12 sec)
Simulation complete CPU 0 instructions: 200000006 cycles: 295604456 cumulative IPC: 0.6766 (Simulation time: 00 hr 39 min 12 sec)

ChampSim completed all CPUs

=== Simulation ===
CPU 0 runs /local-ssd/ben/dpc4-traces/gtraces_v2/merced_0002.champsim.gz

Region of Interest Statistics

CPU 0 cumulative IPC: 0.6766 instructions: 200000006 cycles: 295604456
CPU 0 Branch Prediction Accuracy: 90.16% MPKI: 17.1 Average ROB Occupancy at Mispredict: 24.69
Branch type MPKI
BRANCH_DIRECT_JUMP: 1.059
BRANCH_INDIRECT: 0.3061
BRANCH_CONDITIONAL: 13.98
BRANCH_DIRECT_CALL: 0.8745
BRANCH_INDIRECT_CALL: 0.2974
BRANCH_RETURN: 0.5892

cpu0->cpu0_STLB TOTAL        ACCESS:    1576651 HIT:    1134907 MISS:     441744 MSHR_MERGE:          0
cpu0->cpu0_STLB LOAD         ACCESS:    1576651 HIT:    1134907 MISS:     441744 MSHR_MERGE:          0
cpu0->cpu0_STLB RFO          ACCESS:          0 HIT:          0 MISS:          0 MSHR_MERGE:          0
cpu0->cpu0_STLB PREFETCH     ACCESS:          0 HIT:          0 MISS:          0 MSHR_MERGE:          0
cpu0->cpu0_STLB WRITE        ACCESS:          0 HIT:          0 MISS:          0 MSHR_MERGE:          0
cpu0->cpu0_STLB TRANSLATION  ACCESS:          0 HIT:          0 MISS:          0 MSHR_MERGE:          0
cpu0->cpu0_STLB PREFETCH REQUESTED:          0 ISSUED:          0 USEFUL:          0 USELESS:          0
cpu0->cpu0_STLB AVERAGE MISS LATENCY: 199.3 cycles
cpu0->cpu0_L2C TOTAL        ACCESS:   13627986 HIT:    8910642 MISS:    4717344 MSHR_MERGE:    1266324
cpu0->cpu0_L2C LOAD         ACCESS:    2014495 HIT:    1268550 MISS:     745945 MSHR_MERGE:      75260
cpu0->cpu0_L2C RFO          ACCESS:     635793 HIT:     232930 MISS:     402863 MSHR_MERGE:       4079
cpu0->cpu0_L2C PREFETCH     ACCESS:    9481442 HIT:    6131377 MISS:    3350065 MSHR_MERGE:    1186985
cpu0->cpu0_L2C WRITE        ACCESS:    1021619 HIT:    1021605 MISS:         14 MSHR_MERGE:          0
cpu0->cpu0_L2C TRANSLATION  ACCESS:     474637 HIT:     256180 MISS:     218457 MSHR_MERGE:          0
cpu0->cpu0_L2C PREFETCH REQUESTED:    8526475 ISSUED:    8166300 USEFUL:     842484 USELESS:     982831
cpu0->cpu0_L2C AVERAGE MISS LATENCY: 231.6 cycles
cpu0->cpu0_L1I TOTAL        ACCESS:   15626242 HIT:   15191155 MISS:     435087 MSHR_MERGE:      87103
cpu0->cpu0_L1I LOAD         ACCESS:   15626242 HIT:   15191155 MISS:     435087 MSHR_MERGE:      87103
cpu0->cpu0_L1I RFO          ACCESS:          0 HIT:          0 MISS:          0 MSHR_MERGE:          0
cpu0->cpu0_L1I PREFETCH     ACCESS:          0 HIT:          0 MISS:          0 MSHR_MERGE:          0
cpu0->cpu0_L1I WRITE        ACCESS:          0 HIT:          0 MISS:          0 MSHR_MERGE:          0
cpu0->cpu0_L1I TRANSLATION  ACCESS:          0 HIT:          0 MISS:          0 MSHR_MERGE:          0
cpu0->cpu0_L1I PREFETCH REQUESTED:          0 ISSUED:          0 USEFUL:          0 USELESS:          0
cpu0->cpu0_L1I AVERAGE MISS LATENCY: 126 cycles
cpu0->cpu0_L1D TOTAL        ACCESS:   52030427 HIT:   45499194 MISS:    6531233 MSHR_MERGE:    2439085
cpu0->cpu0_L1D LOAD         ACCESS:   30737853 HIT:   28458423 MISS:    2279430 MSHR_MERGE:     612894
cpu0->cpu0_L1D RFO          ACCESS:          0 HIT:          0 MISS:          0 MSHR_MERGE:          0
cpu0->cpu0_L1D PREFETCH     ACCESS:    2338875 HIT:     954158 MISS:    1384717 MSHR_MERGE:      69571
cpu0->cpu0_L1D WRITE        ACCESS:   17835745 HIT:   15449359 MISS:    2386386 MSHR_MERGE:    1750557
cpu0->cpu0_L1D TRANSLATION  ACCESS:    1117954 HIT:     637254 MISS:     480700 MSHR_MERGE:       6063
cpu0->cpu0_L1D PREFETCH REQUESTED:    2391827 ISSUED:    2338874 USEFUL:     727399 USELESS:     587847
cpu0->cpu0_L1D AVERAGE MISS LATENCY: 107.5 cycles
cpu0->cpu0_ITLB TOTAL        ACCESS:   12867601 HIT:   12650408 MISS:     217193 MSHR_MERGE:     108822
cpu0->cpu0_ITLB LOAD         ACCESS:   12867601 HIT:   12650408 MISS:     217193 MSHR_MERGE:     108822
cpu0->cpu0_ITLB RFO          ACCESS:          0 HIT:          0 MISS:          0 MSHR_MERGE:          0
cpu0->cpu0_ITLB PREFETCH     ACCESS:          0 HIT:          0 MISS:          0 MSHR_MERGE:          0
cpu0->cpu0_ITLB WRITE        ACCESS:          0 HIT:          0 MISS:          0 MSHR_MERGE:          0
cpu0->cpu0_ITLB TRANSLATION  ACCESS:          0 HIT:          0 MISS:          0 MSHR_MERGE:          0
cpu0->cpu0_ITLB PREFETCH REQUESTED:          0 ISSUED:          0 USEFUL:          0 USELESS:          0
cpu0->cpu0_ITLB AVERAGE MISS LATENCY: 40.09 cycles
cpu0->cpu0_DTLB TOTAL        ACCESS:   48551951 HIT:   46066581 MISS:    2485370 MSHR_MERGE:    1017090
cpu0->cpu0_DTLB LOAD         ACCESS:   48551951 HIT:   46066581 MISS:    2485370 MSHR_MERGE:    1017090
cpu0->cpu0_DTLB RFO          ACCESS:          0 HIT:          0 MISS:          0 MSHR_MERGE:          0
cpu0->cpu0_DTLB PREFETCH     ACCESS:          0 HIT:          0 MISS:          0 MSHR_MERGE:          0
cpu0->cpu0_DTLB WRITE        ACCESS:          0 HIT:          0 MISS:          0 MSHR_MERGE:          0
cpu0->cpu0_DTLB TRANSLATION  ACCESS:          0 HIT:          0 MISS:          0 MSHR_MERGE:          0
cpu0->cpu0_DTLB PREFETCH REQUESTED:          0 ISSUED:          0 USEFUL:          0 USELESS:          0
cpu0->cpu0_DTLB AVERAGE MISS LATENCY: 62.68 cycles
cpu0->LLC TOTAL        ACCESS:    5389204 HIT:     733074 MISS:    4656130 MSHR_MERGE:     274888
cpu0->LLC LOAD         ACCESS:     670685 HIT:      73696 MISS:     596989 MSHR_MERGE:       4330
cpu0->LLC RFO          ACCESS:     398784 HIT:      21229 MISS:     377555 MSHR_MERGE:        337
cpu0->LLC PREFETCH     ACCESS:    3445258 HIT:     505586 MISS:    2939672 MSHR_MERGE:     270221
cpu0->LLC WRITE        ACCESS:     656020 HIT:     123533 MISS:     532487 MSHR_MERGE:          0
cpu0->LLC TRANSLATION  ACCESS:     218457 HIT:       9030 MISS:     209427 MSHR_MERGE:          0
cpu0->LLC PREFETCH REQUESTED:    1365724 ISSUED:    1282181 USEFUL:     287887 USELESS:     668973
cpu0->LLC AVERAGE MISS LATENCY: 165.2 cycles

DRAM Statistics

Channel 0 RQ ROW_BUFFER_HIT:     248972
  ROW_BUFFER_MISS:    3599746
  AVG DBUS CONGESTED CYCLE: 18.11
Channel 0 WQ ROW_BUFFER_HIT:     142835
  ROW_BUFFER_MISS:     460567
  FULL:        335
Channel 0 REFRESHES ISSUED:      24632
