[VMEM] WARNING: physical memory size is smaller than virtual memory size.

*** ChampSim Multicore Out-of-Order Simulator ***
Warmup Instructions: 50000000
Simulation Instructions: 200000000
Number of CPUs: 1
Page size: 4096
Core 0: /local-ssd/ben/dpc4-traces/SPEC17/603.bwaves_s-1740B.champsimtrace.xz
 L1D Berti prefetcher
Off-chip DRAM Size: 64 GiB Channels: 1 Width: 64-bit Data Rate: 4807 MT/s
Heartbeat CPU 0 instructions: 500006 cycles: 106386 heartbeat IPC: 4.7 cumulative IPC: 4.7 (Simulation time: 00 hr 00 min 02 sec)
Heartbeat CPU 0 instructions: 1000008 cycles: 210710 heartbeat IPC: 4.793 cumulative IPC: 4.746 (Simulation time: 00 hr 00 min 04 sec)
Heartbeat CPU 0 instructions: 1500014 cycles: 314837 heartbeat IPC: 4.802 cumulative IPC: 4.764 (Simulation time: 00 hr 00 min 06 sec)
Heartbeat CPU 0 instructions: 2000015 cycles: 419388 heartbeat IPC: 4.782 cumulative IPC: 4.769 (Simulation time: 00 hr 00 min 08 sec)
Heartbeat CPU 0 instructions: 2500018 cycles: 523230 heartbeat IPC: 4.815 cumulative IPC: 4.778 (Simulation time: 00 hr 00 min 10 sec)
Heartbeat CPU 0 instructions: 3000023 cycles: 627181 heartbeat IPC: 4.81 cumulative IPC: 4.783 (Simulation time: 00 hr 00 min 12 sec)
Heartbeat CPU 0 instructions: 3500030 cycles: 731370 heartbeat IPC: 4.799 cumulative IPC: 4.786 (Simulation time: 00 hr 00 min 14 sec)
Heartbeat CPU 0 instructions: 4000031 cycles: 835461 heartbeat IPC: 4.803 cumulative IPC: 4.788 (Simulation time: 00 hr 00 min 16 sec)
Heartbeat CPU 0 instructions: 4500036 cycles: 939432 heartbeat IPC: 4.809 cumulative IPC: 4.79 (Simulation time: 00 hr 00 min 18 sec)
Heartbeat CPU 0 instructions: 5000037 cycles: 1043499 heartbeat IPC: 4.805 cumulative IPC: 4.792 (Simulation time: 00 hr 00 min 20 sec)
Heartbeat CPU 0 instructions: 5500042 cycles: 1147415 heartbeat IPC: 4.812 cumulative IPC: 4.793 (Simulation time: 00 hr 00 min 21 sec)
Heartbeat CPU 0 instructions: 6000044 cycles: 1251508 heartbeat IPC: 4.803 cumulative IPC: 4.794 (Simulation time: 00 hr 00 min 23 sec)
Heartbeat CPU 0 instructions: 6500049 cycles: 1356014 heartbeat IPC: 4.784 cumulative IPC: 4.793 (Simulation time: 00 hr 00 min 25 sec)
Heartbeat CPU 0 instructions: 7000049 cycles: 1460043 heartbeat IPC: 4.806 cumulative IPC: 4.794 (Simulation time: 00 hr 00 min 27 sec)
Heartbeat CPU 0 instructions: 7500050 cycles: 1564249 heartbeat IPC: 4.798 cumulative IPC: 4.795 (Simulation time: 00 hr 00 min 29 sec)
Heartbeat CPU 0 instructions: 8000051 cycles: 1668172 heartbeat IPC: 4.811 cumulative IPC: 4.796 (Simulation time: 00 hr 00 min 31 sec)
Heartbeat CPU 0 instructions: 8500058 cycles: 1772194 heartbeat IPC: 4.807 cumulative IPC: 4.796 (Simulation time: 00 hr 00 min 33 sec)
Heartbeat CPU 0 instructions: 9000058 cycles: 1876022 heartbeat IPC: 4.816 cumulative IPC: 4.797 (Simulation time: 00 hr 00 min 35 sec)
Heartbeat CPU 0 instructions: 9500063 cycles: 1980287 heartbeat IPC: 4.796 cumulative IPC: 4.797 (Simulation time: 00 hr 00 min 37 sec)
Heartbeat CPU 0 instructions: 10000070 cycles: 2084308 heartbeat IPC: 4.807 cumulative IPC: 4.798 (Simulation time: 00 hr 00 min 39 sec)
Heartbeat CPU 0 instructions: 10500070 cycles: 2188440 heartbeat IPC: 4.802 cumulative IPC: 4.798 (Simulation time: 00 hr 00 min 41 sec)
Heartbeat CPU 0 instructions: 11000073 cycles: 2292795 heartbeat IPC: 4.791 cumulative IPC: 4.798 (Simulation time: 00 hr 00 min 42 sec)
Heartbeat CPU 0 instructions: 11500075 cycles: 2397304 heartbeat IPC: 4.784 cumulative IPC: 4.797 (Simulation time: 00 hr 00 min 44 sec)
Heartbeat CPU 0 instructions: 12000080 cycles: 2501524 heartbeat IPC: 4.798 cumulative IPC: 4.797 (Simulation time: 00 hr 00 min 46 sec)
Heartbeat CPU 0 instructions: 12500082 cycles: 2605684 heartbeat IPC: 4.8 cumulative IPC: 4.797 (Simulation time: 00 hr 00 min 48 sec)
Heartbeat CPU 0 instructions: 13000084 cycles: 2709468 heartbeat IPC: 4.818 cumulative IPC: 4.798 (Simulation time: 00 hr 00 min 50 sec)
Heartbeat CPU 0 instructions: 13500087 cycles: 2813708 heartbeat IPC: 4.797 cumulative IPC: 4.798 (Simulation time: 00 hr 00 min 52 sec)
Heartbeat CPU 0 instructions: 14000092 cycles: 2917847 heartbeat IPC: 4.801 cumulative IPC: 4.798 (Simulation time: 00 hr 00 min 54 sec)
Heartbeat CPU 0 instructions: 14500096 cycles: 3021967 heartbeat IPC: 4.802 cumulative IPC: 4.798 (Simulation time: 00 hr 00 min 56 sec)
Heartbeat CPU 0 instructions: 15000100 cycles: 3126053 heartbeat IPC: 4.804 cumulative IPC: 4.798 (Simulation time: 00 hr 00 min 58 sec)
Heartbeat CPU 0 instructions: 15500106 cycles: 3230430 heartbeat IPC: 4.79 cumulative IPC: 4.798 (Simulation time: 00 hr 01 min 00 sec)
Heartbeat CPU 0 instructions: 16000107 cycles: 3334511 heartbeat IPC: 4.804 cumulative IPC: 4.798 (Simulation time: 00 hr 01 min 02 sec)
Heartbeat CPU 0 instructions: 16500111 cycles: 3438602 heartbeat IPC: 4.804 cumulative IPC: 4.798 (Simulation time: 00 hr 01 min 04 sec)
Heartbeat CPU 0 instructions: 17000113 cycles: 3542702 heartbeat IPC: 4.803 cumulative IPC: 4.799 (Simulation time: 00 hr 01 min 05 sec)
Heartbeat CPU 0 instructions: 17500115 cycles: 3646792 heartbeat IPC: 4.804 cumulative IPC: 4.799 (Simulation time: 00 hr 01 min 07 sec)
Heartbeat CPU 0 instructions: 18000121 cycles: 3750723 heartbeat IPC: 4.811 cumulative IPC: 4.799 (Simulation time: 00 hr 01 min 09 sec)
Heartbeat CPU 0 instructions: 18500121 cycles: 3853954 heartbeat IPC: 4.844 cumulative IPC: 4.8 (Simulation time: 00 hr 01 min 11 sec)
Heartbeat CPU 0 instructions: 19000127 cycles: 3957304 heartbeat IPC: 4.838 cumulative IPC: 4.801 (Simulation time: 00 hr 01 min 13 sec)
Heartbeat CPU 0 instructions: 19500128 cycles: 4060569 heartbeat IPC: 4.842 cumulative IPC: 4.802 (Simulation time: 00 hr 01 min 15 sec)
Heartbeat CPU 0 instructions: 20000129 cycles: 4164370 heartbeat IPC: 4.817 cumulative IPC: 4.803 (Simulation time: 00 hr 01 min 17 sec)
Heartbeat CPU 0 instructions: 20500136 cycles: 4267847 heartbeat IPC: 4.832 cumulative IPC: 4.803 (Simulation time: 00 hr 01 min 19 sec)
Heartbeat CPU 0 instructions: 21000143 cycles: 4371314 heartbeat IPC: 4.833 cumulative IPC: 4.804 (Simulation time: 00 hr 01 min 21 sec)
Heartbeat CPU 0 instructions: 21500146 cycles: 4474481 heartbeat IPC: 4.847 cumulative IPC: 4.805 (Simulation time: 00 hr 01 min 23 sec)
Heartbeat CPU 0 instructions: 22000150 cycles: 4577884 heartbeat IPC: 4.835 cumulative IPC: 4.806 (Simulation time: 00 hr 01 min 25 sec)
Heartbeat CPU 0 instructions: 22500153 cycles: 4681221 heartbeat IPC: 4.839 cumulative IPC: 4.806 (Simulation time: 00 hr 01 min 26 sec)
Heartbeat CPU 0 instructions: 23000155 cycles: 4784643 heartbeat IPC: 4.835 cumulative IPC: 4.807 (Simulation time: 00 hr 01 min 28 sec)
Heartbeat CPU 0 instructions: 23500158 cycles: 4888041 heartbeat IPC: 4.836 cumulative IPC: 4.808 (Simulation time: 00 hr 01 min 30 sec)
Heartbeat CPU 0 instructions: 24000158 cycles: 4991343 heartbeat IPC: 4.84 cumulative IPC: 4.808 (Simulation time: 00 hr 01 min 32 sec)
Heartbeat CPU 0 instructions: 24500163 cycles: 5095202 heartbeat IPC: 4.814 cumulative IPC: 4.808 (Simulation time: 00 hr 01 min 34 sec)
Heartbeat CPU 0 instructions: 25000164 cycles: 5198708 heartbeat IPC: 4.831 cumulative IPC: 4.809 (Simulation time: 00 hr 01 min 36 sec)
Heartbeat CPU 0 instructions: 25500164 cycles: 5302129 heartbeat IPC: 4.835 cumulative IPC: 4.809 (Simulation time: 00 hr 01 min 38 sec)
Heartbeat CPU 0 instructions: 26000171 cycles: 5405587 heartbeat IPC: 4.833 cumulative IPC: 4.81 (Simulation time: 00 hr 01 min 40 sec)
Heartbeat CPU 0 instructions: 26500174 cycles: 5508841 heartbeat IPC: 4.842 cumulative IPC: 4.81 (Simulation time: 00 hr 01 min 42 sec)
Heartbeat CPU 0 instructions: 27000178 cycles: 5612225 heartbeat IPC: 4.836 cumulative IPC: 4.811 (Simulation time: 00 hr 01 min 44 sec)
Heartbeat CPU 0 instructions: 27500179 cycles: 5715460 heartbeat IPC: 4.843 cumulative IPC: 4.812 (Simulation time: 00 hr 01 min 45 sec)
Heartbeat CPU 0 instructions: 28000183 cycles: 5818909 heartbeat IPC: 4.833 cumulative IPC: 4.812 (Simulation time: 00 hr 01 min 47 sec)
Heartbeat CPU 0 instructions: 28500190 cycles: 5922348 heartbeat IPC: 4.834 cumulative IPC: 4.812 (Simulation time: 00 hr 01 min 49 sec)
Heartbeat CPU 0 instructions: 29000190 cycles: 6026055 heartbeat IPC: 4.821 cumulative IPC: 4.812 (Simulation time: 00 hr 01 min 51 sec)
Heartbeat CPU 0 instructions: 29500192 cycles: 6129432 heartbeat IPC: 4.837 cumulative IPC: 4.813 (Simulation time: 00 hr 01 min 53 sec)
Heartbeat CPU 0 instructions: 30000193 cycles: 6232595 heartbeat IPC: 4.847 cumulative IPC: 4.813 (Simulation time: 00 hr 01 min 55 sec)
Heartbeat CPU 0 instructions: 30500199 cycles: 6335907 heartbeat IPC: 4.84 cumulative IPC: 4.814 (Simulation time: 00 hr 01 min 57 sec)
Heartbeat CPU 0 instructions: 31000205 cycles: 6439518 heartbeat IPC: 4.826 cumulative IPC: 4.814 (Simulation time: 00 hr 01 min 59 sec)
Heartbeat CPU 0 instructions: 31500208 cycles: 6542729 heartbeat IPC: 4.844 cumulative IPC: 4.815 (Simulation time: 00 hr 02 min 01 sec)
Heartbeat CPU 0 instructions: 32000215 cycles: 6645973 heartbeat IPC: 4.843 cumulative IPC: 4.815 (Simulation time: 00 hr 02 min 03 sec)
Heartbeat CPU 0 instructions: 32500222 cycles: 6749532 heartbeat IPC: 4.828 cumulative IPC: 4.815 (Simulation time: 00 hr 02 min 05 sec)
Heartbeat CPU 0 instructions: 33000229 cycles: 6852923 heartbeat IPC: 4.836 cumulative IPC: 4.815 (Simulation time: 00 hr 02 min 06 sec)
Heartbeat CPU 0 instructions: 33500234 cycles: 6956610 heartbeat IPC: 4.822 cumulative IPC: 4.816 (Simulation time: 00 hr 02 min 08 sec)
Heartbeat CPU 0 instructions: 34000234 cycles: 7059714 heartbeat IPC: 4.849 cumulative IPC: 4.816 (Simulation time: 00 hr 02 min 10 sec)
Heartbeat CPU 0 instructions: 34500241 cycles: 7163096 heartbeat IPC: 4.836 cumulative IPC: 4.816 (Simulation time: 00 hr 02 min 12 sec)
Heartbeat CPU 0 instructions: 35000244 cycles: 7266480 heartbeat IPC: 4.836 cumulative IPC: 4.817 (Simulation time: 00 hr 02 min 14 sec)
Heartbeat CPU 0 instructions: 35500249 cycles: 7369906 heartbeat IPC: 4.834 cumulative IPC: 4.817 (Simulation time: 00 hr 02 min 16 sec)
Heartbeat CPU 0 instructions: 36000250 cycles: 7473280 heartbeat IPC: 4.837 cumulative IPC: 4.817 (Simulation time: 00 hr 02 min 18 sec)
Heartbeat CPU 0 instructions: 36500253 cycles: 7576652 heartbeat IPC: 4.837 cumulative IPC: 4.817 (Simulation time: 00 hr 02 min 20 sec)
Heartbeat CPU 0 instructions: 37000259 cycles: 7679848 heartbeat IPC: 4.845 cumulative IPC: 4.818 (Simulation time: 00 hr 02 min 22 sec)
Heartbeat CPU 0 instructions: 37500264 cycles: 7783216 heartbeat IPC: 4.837 cumulative IPC: 4.818 (Simulation time: 00 hr 02 min 24 sec)
Heartbeat CPU 0 instructions: 38000264 cycles: 7886983 heartbeat IPC: 4.818 cumulative IPC: 4.818 (Simulation time: 00 hr 02 min 25 sec)
Heartbeat CPU 0 instructions: 38500264 cycles: 7990344 heartbeat IPC: 4.837 cumulative IPC: 4.818 (Simulation time: 00 hr 02 min 27 sec)
Heartbeat CPU 0 instructions: 39000267 cycles: 8093640 heartbeat IPC: 4.84 cumulative IPC: 4.819 (Simulation time: 00 hr 02 min 29 sec)
Heartbeat CPU 0 instructions: 39500269 cycles: 8196924 heartbeat IPC: 4.841 cumulative IPC: 4.819 (Simulation time: 00 hr 02 min 31 sec)
Heartbeat CPU 0 instructions: 40000272 cycles: 8300300 heartbeat IPC: 4.837 cumulative IPC: 4.819 (Simulation time: 00 hr 02 min 33 sec)
Heartbeat CPU 0 instructions: 40500278 cycles: 8403586 heartbeat IPC: 4.841 cumulative IPC: 4.819 (Simulation time: 00 hr 02 min 35 sec)
Heartbeat CPU 0 instructions: 41000278 cycles: 8506815 heartbeat IPC: 4.844 cumulative IPC: 4.82 (Simulation time: 00 hr 02 min 37 sec)
Heartbeat CPU 0 instructions: 41500280 cycles: 8610182 heartbeat IPC: 4.837 cumulative IPC: 4.82 (Simulation time: 00 hr 02 min 39 sec)
Heartbeat CPU 0 instructions: 42000285 cycles: 8713477 heartbeat IPC: 4.841 cumulative IPC: 4.82 (Simulation time: 00 hr 02 min 41 sec)
Heartbeat CPU 0 instructions: 42500292 cycles: 8817298 heartbeat IPC: 4.816 cumulative IPC: 4.82 (Simulation time: 00 hr 02 min 43 sec)
Heartbeat CPU 0 instructions: 43000293 cycles: 8920653 heartbeat IPC: 4.838 cumulative IPC: 4.82 (Simulation time: 00 hr 02 min 45 sec)
Heartbeat CPU 0 instructions: 43500297 cycles: 9024032 heartbeat IPC: 4.837 cumulative IPC: 4.82 (Simulation time: 00 hr 02 min 46 sec)
Heartbeat CPU 0 instructions: 44000302 cycles: 9127407 heartbeat IPC: 4.837 cumulative IPC: 4.821 (Simulation time: 00 hr 02 min 48 sec)
Heartbeat CPU 0 instructions: 44500309 cycles: 9230683 heartbeat IPC: 4.841 cumulative IPC: 4.821 (Simulation time: 00 hr 02 min 50 sec)
Heartbeat CPU 0 instructions: 45000316 cycles: 9334055 heartbeat IPC: 4.837 cumulative IPC: 4.821 (Simulation time: 00 hr 02 min 52 sec)
Heartbeat CPU 0 instructions: 45500318 cycles: 9437403 heartbeat IPC: 4.838 cumulative IPC: 4.821 (Simulation time: 00 hr 02 min 54 sec)
Heartbeat CPU 0 instructions: 46000324 cycles: 9541052 heartbeat IPC: 4.824 cumulative IPC: 4.821 (Simulation time: 00 hr 02 min 56 sec)
Heartbeat CPU 0 instructions: 46500327 cycles: 9644207 heartbeat IPC: 4.847 cumulative IPC: 4.822 (Simulation time: 00 hr 02 min 58 sec)
Heartbeat CPU 0 instructions: 47000329 cycles: 9747901 heartbeat IPC: 4.822 cumulative IPC: 4.822 (Simulation time: 00 hr 03 min 00 sec)
Heartbeat CPU 0 instructions: 47500330 cycles: 9851312 heartbeat IPC: 4.835 cumulative IPC: 4.822 (Simulation time: 00 hr 03 min 02 sec)
Heartbeat CPU 0 instructions: 48000335 cycles: 9954659 heartbeat IPC: 4.838 cumulative IPC: 4.822 (Simulation time: 00 hr 03 min 04 sec)
Heartbeat CPU 0 instructions: 48500337 cycles: 10058034 heartbeat IPC: 4.837 cumulative IPC: 4.822 (Simulation time: 00 hr 03 min 06 sec)
Heartbeat CPU 0 instructions: 49000344 cycles: 10161441 heartbeat IPC: 4.835 cumulative IPC: 4.822 (Simulation time: 00 hr 03 min 07 sec)
Heartbeat CPU 0 instructions: 49500350 cycles: 10264648 heartbeat IPC: 4.845 cumulative IPC: 4.822 (Simulation time: 00 hr 03 min 09 sec)
Warmup finished CPU 0 instructions: 50000002 cycles: 10368028 cumulative IPC: 4.823 (Simulation time: 00 hr 03 min 11 sec)
Warmup complete CPU 0 instructions: 50000002 cycles: 10368028 cumulative IPC: 4.823 (Simulation time: 00 hr 03 min 11 sec)
Heartbeat CPU 0 instructions: 50000357 cycles: 10368107 heartbeat IPC: 4.833 cumulative IPC: 4.494 (Simulation time: 00 hr 03 min 11 sec)
Heartbeat CPU 0 instructions: 50500358 cycles: 10570186 heartbeat IPC: 2.474 cumulative IPC: 2.475 (Simulation time: 00 hr 03 min 14 sec)
Heartbeat CPU 0 instructions: 51000359 cycles: 10769881 heartbeat IPC: 2.504 cumulative IPC: 2.489 (Simulation time: 00 hr 03 min 17 sec)
Heartbeat CPU 0 instructions: 51500366 cycles: 10967850 heartbeat IPC: 2.526 cumulative IPC: 2.501 (Simulation time: 00 hr 03 min 20 sec)
Heartbeat CPU 0 instructions: 52000367 cycles: 11167062 heartbeat IPC: 2.51 cumulative IPC: 2.503 (Simulation time: 00 hr 03 min 23 sec)
Heartbeat CPU 0 instructions: 52500367 cycles: 11365637 heartbeat IPC: 2.518 cumulative IPC: 2.506 (Simulation time: 00 hr 03 min 26 sec)
Heartbeat CPU 0 instructions: 53000372 cycles: 11567318 heartbeat IPC: 2.479 cumulative IPC: 2.502 (Simulation time: 00 hr 03 min 29 sec)
Heartbeat CPU 0 instructions: 53500373 cycles: 11768073 heartbeat IPC: 2.491 cumulative IPC: 2.5 (Simulation time: 00 hr 03 min 32 sec)
Heartbeat CPU 0 instructions: 54000380 cycles: 11971748 heartbeat IPC: 2.455 cumulative IPC: 2.494 (Simulation time: 00 hr 03 min 35 sec)
Heartbeat CPU 0 instructions: 54500381 cycles: 12175326 heartbeat IPC: 2.456 cumulative IPC: 2.49 (Simulation time: 00 hr 03 min 38 sec)
Heartbeat CPU 0 instructions: 55000382 cycles: 12375494 heartbeat IPC: 2.498 cumulative IPC: 2.491 (Simulation time: 00 hr 03 min 41 sec)
Heartbeat CPU 0 instructions: 55500386 cycles: 12574047 heartbeat IPC: 2.518 cumulative IPC: 2.493 (Simulation time: 00 hr 03 min 44 sec)
Heartbeat CPU 0 instructions: 56000387 cycles: 12772165 heartbeat IPC: 2.524 cumulative IPC: 2.496 (Simulation time: 00 hr 03 min 47 sec)
Heartbeat CPU 0 instructions: 56500394 cycles: 12972671 heartbeat IPC: 2.494 cumulative IPC: 2.496 (Simulation time: 00 hr 03 min 50 sec)
Heartbeat CPU 0 instructions: 57000394 cycles: 13173315 heartbeat IPC: 2.492 cumulative IPC: 2.495 (Simulation time: 00 hr 03 min 53 sec)
Heartbeat CPU 0 instructions: 57500398 cycles: 13371866 heartbeat IPC: 2.518 cumulative IPC: 2.497 (Simulation time: 00 hr 03 min 56 sec)
Heartbeat CPU 0 instructions: 58000400 cycles: 13572830 heartbeat IPC: 2.488 cumulative IPC: 2.496 (Simulation time: 00 hr 03 min 59 sec)
Heartbeat CPU 0 instructions: 58500401 cycles: 13775217 heartbeat IPC: 2.471 cumulative IPC: 2.495 (Simulation time: 00 hr 04 min 02 sec)
Heartbeat CPU 0 instructions: 59000402 cycles: 13974012 heartbeat IPC: 2.515 cumulative IPC: 2.496 (Simulation time: 00 hr 04 min 05 sec)
Heartbeat CPU 0 instructions: 59500406 cycles: 14174130 heartbeat IPC: 2.499 cumulative IPC: 2.496 (Simulation time: 00 hr 04 min 08 sec)
Heartbeat CPU 0 instructions: 60000407 cycles: 14372617 heartbeat IPC: 2.519 cumulative IPC: 2.497 (Simulation time: 00 hr 04 min 11 sec)
Heartbeat CPU 0 instructions: 60500408 cycles: 14570300 heartbeat IPC: 2.529 cumulative IPC: 2.499 (Simulation time: 00 hr 04 min 14 sec)
Heartbeat CPU 0 instructions: 61000415 cycles: 14773209 heartbeat IPC: 2.464 cumulative IPC: 2.497 (Simulation time: 00 hr 04 min 17 sec)
Heartbeat CPU 0 instructions: 61500415 cycles: 14977124 heartbeat IPC: 2.452 cumulative IPC: 2.495 (Simulation time: 00 hr 04 min 20 sec)
Heartbeat CPU 0 instructions: 62000415 cycles: 15179304 heartbeat IPC: 2.473 cumulative IPC: 2.494 (Simulation time: 00 hr 04 min 23 sec)
Heartbeat CPU 0 instructions: 62500421 cycles: 15380266 heartbeat IPC: 2.488 cumulative IPC: 2.494 (Simulation time: 00 hr 04 min 26 sec)
Heartbeat CPU 0 instructions: 63000421 cycles: 15580951 heartbeat IPC: 2.491 cumulative IPC: 2.494 (Simulation time: 00 hr 04 min 29 sec)
Heartbeat CPU 0 instructions: 63500421 cycles: 15784274 heartbeat IPC: 2.459 cumulative IPC: 2.493 (Simulation time: 00 hr 04 min 32 sec)
Heartbeat CPU 0 instructions: 64000423 cycles: 15984281 heartbeat IPC: 2.5 cumulative IPC: 2.493 (Simulation time: 00 hr 04 min 35 sec)
Heartbeat CPU 0 instructions: 64500427 cycles: 16182686 heartbeat IPC: 2.52 cumulative IPC: 2.494 (Simulation time: 00 hr 04 min 38 sec)
Heartbeat CPU 0 instructions: 65000427 cycles: 16384283 heartbeat IPC: 2.48 cumulative IPC: 2.493 (Simulation time: 00 hr 04 min 41 sec)
Heartbeat CPU 0 instructions: 65500429 cycles: 16582991 heartbeat IPC: 2.516 cumulative IPC: 2.494 (Simulation time: 00 hr 04 min 44 sec)
Heartbeat CPU 0 instructions: 66000433 cycles: 16784291 heartbeat IPC: 2.484 cumulative IPC: 2.494 (Simulation time: 00 hr 04 min 47 sec)
Heartbeat CPU 0 instructions: 66500436 cycles: 16987248 heartbeat IPC: 2.464 cumulative IPC: 2.493 (Simulation time: 00 hr 04 min 50 sec)
Heartbeat CPU 0 instructions: 67000436 cycles: 17185788 heartbeat IPC: 2.518 cumulative IPC: 2.494 (Simulation time: 00 hr 04 min 53 sec)
Heartbeat CPU 0 instructions: 67500439 cycles: 17387146 heartbeat IPC: 2.483 cumulative IPC: 2.493 (Simulation time: 00 hr 04 min 56 sec)
Heartbeat CPU 0 instructions: 68000442 cycles: 17587069 heartbeat IPC: 2.501 cumulative IPC: 2.493 (Simulation time: 00 hr 04 min 59 sec)
Heartbeat CPU 0 instructions: 68500442 cycles: 17788640 heartbeat IPC: 2.481 cumulative IPC: 2.493 (Simulation time: 00 hr 05 min 02 sec)
Heartbeat CPU 0 instructions: 69000442 cycles: 17985458 heartbeat IPC: 2.54 cumulative IPC: 2.494 (Simulation time: 00 hr 05 min 05 sec)
Heartbeat CPU 0 instructions: 69500442 cycles: 18186957 heartbeat IPC: 2.481 cumulative IPC: 2.494 (Simulation time: 00 hr 05 min 08 sec)
Heartbeat CPU 0 instructions: 70000448 cycles: 18388322 heartbeat IPC: 2.483 cumulative IPC: 2.494 (Simulation time: 00 hr 05 min 11 sec)
Heartbeat CPU 0 instructions: 70500448 cycles: 18587629 heartbeat IPC: 2.509 cumulative IPC: 2.494 (Simulation time: 00 hr 05 min 14 sec)
Heartbeat CPU 0 instructions: 71000448 cycles: 18789123 heartbeat IPC: 2.481 cumulative IPC: 2.494 (Simulation time: 00 hr 05 min 17 sec)
Heartbeat CPU 0 instructions: 71500450 cycles: 18991589 heartbeat IPC: 2.47 cumulative IPC: 2.493 (Simulation time: 00 hr 05 min 20 sec)
Heartbeat CPU 0 instructions: 72000450 cycles: 19193062 heartbeat IPC: 2.482 cumulative IPC: 2.493 (Simulation time: 00 hr 05 min 23 sec)
Heartbeat CPU 0 instructions: 72500451 cycles: 19393734 heartbeat IPC: 2.492 cumulative IPC: 2.493 (Simulation time: 00 hr 05 min 26 sec)
Heartbeat CPU 0 instructions: 73000452 cycles: 19593095 heartbeat IPC: 2.508 cumulative IPC: 2.493 (Simulation time: 00 hr 05 min 29 sec)
Heartbeat CPU 0 instructions: 73500453 cycles: 19793180 heartbeat IPC: 2.499 cumulative IPC: 2.493 (Simulation time: 00 hr 05 min 32 sec)
Heartbeat CPU 0 instructions: 74000455 cycles: 19991383 heartbeat IPC: 2.523 cumulative IPC: 2.494 (Simulation time: 00 hr 05 min 35 sec)
Heartbeat CPU 0 instructions: 74500456 cycles: 20190436 heartbeat IPC: 2.512 cumulative IPC: 2.494 (Simulation time: 00 hr 05 min 38 sec)
Heartbeat CPU 0 instructions: 75000461 cycles: 20388016 heartbeat IPC: 2.531 cumulative IPC: 2.495 (Simulation time: 00 hr 05 min 41 sec)
Heartbeat CPU 0 instructions: 75500461 cycles: 20592009 heartbeat IPC: 2.451 cumulative IPC: 2.494 (Simulation time: 00 hr 05 min 44 sec)
Heartbeat CPU 0 instructions: 76000467 cycles: 20796720 heartbeat IPC: 2.442 cumulative IPC: 2.493 (Simulation time: 00 hr 05 min 47 sec)
Heartbeat CPU 0 instructions: 76500469 cycles: 20999577 heartbeat IPC: 2.465 cumulative IPC: 2.493 (Simulation time: 00 hr 05 min 50 sec)
Heartbeat CPU 0 instructions: 77000470 cycles: 21199114 heartbeat IPC: 2.506 cumulative IPC: 2.493 (Simulation time: 00 hr 05 min 53 sec)
Heartbeat CPU 0 instructions: 77500475 cycles: 21400133 heartbeat IPC: 2.487 cumulative IPC: 2.493 (Simulation time: 00 hr 05 min 56 sec)
Heartbeat CPU 0 instructions: 78000475 cycles: 21598131 heartbeat IPC: 2.525 cumulative IPC: 2.493 (Simulation time: 00 hr 05 min 59 sec)
Heartbeat CPU 0 instructions: 78500481 cycles: 21796240 heartbeat IPC: 2.524 cumulative IPC: 2.494 (Simulation time: 00 hr 06 min 02 sec)
Heartbeat CPU 0 instructions: 79000481 cycles: 21995067 heartbeat IPC: 2.515 cumulative IPC: 2.494 (Simulation time: 00 hr 06 min 05 sec)
Heartbeat CPU 0 instructions: 79500482 cycles: 22197150 heartbeat IPC: 2.474 cumulative IPC: 2.494 (Simulation time: 00 hr 06 min 08 sec)
Heartbeat CPU 0 instructions: 80000487 cycles: 22397001 heartbeat IPC: 2.502 cumulative IPC: 2.494 (Simulation time: 00 hr 06 min 11 sec)
Heartbeat CPU 0 instructions: 80500487 cycles: 22597522 heartbeat IPC: 2.494 cumulative IPC: 2.494 (Simulation time: 00 hr 06 min 14 sec)
Heartbeat CPU 0 instructions: 81000487 cycles: 22797931 heartbeat IPC: 2.495 cumulative IPC: 2.494 (Simulation time: 00 hr 06 min 17 sec)
Heartbeat CPU 0 instructions: 81500487 cycles: 22996636 heartbeat IPC: 2.516 cumulative IPC: 2.494 (Simulation time: 00 hr 06 min 20 sec)
Heartbeat CPU 0 instructions: 82000493 cycles: 23200711 heartbeat IPC: 2.45 cumulative IPC: 2.494 (Simulation time: 00 hr 06 min 23 sec)
Heartbeat CPU 0 instructions: 82500493 cycles: 23400380 heartbeat IPC: 2.504 cumulative IPC: 2.494 (Simulation time: 00 hr 06 min 26 sec)
Heartbeat CPU 0 instructions: 83000493 cycles: 23601909 heartbeat IPC: 2.481 cumulative IPC: 2.494 (Simulation time: 00 hr 06 min 29 sec)
Heartbeat CPU 0 instructions: 83500493 cycles: 23801671 heartbeat IPC: 2.503 cumulative IPC: 2.494 (Simulation time: 00 hr 06 min 32 sec)
Heartbeat CPU 0 instructions: 84000493 cycles: 24001198 heartbeat IPC: 2.506 cumulative IPC: 2.494 (Simulation time: 00 hr 06 min 35 sec)
Heartbeat CPU 0 instructions: 84500499 cycles: 24201729 heartbeat IPC: 2.493 cumulative IPC: 2.494 (Simulation time: 00 hr 06 min 38 sec)
Heartbeat CPU 0 instructions: 85000499 cycles: 24404710 heartbeat IPC: 2.463 cumulative IPC: 2.494 (Simulation time: 00 hr 06 min 41 sec)
Heartbeat CPU 0 instructions: 85500499 cycles: 24604700 heartbeat IPC: 2.5 cumulative IPC: 2.494 (Simulation time: 00 hr 06 min 44 sec)
Heartbeat CPU 0 instructions: 86000501 cycles: 24804443 heartbeat IPC: 2.503 cumulative IPC: 2.494 (Simulation time: 00 hr 06 min 47 sec)
Heartbeat CPU 0 instructions: 86500505 cycles: 25004361 heartbeat IPC: 2.501 cumulative IPC: 2.494 (Simulation time: 00 hr 06 min 50 sec)
Heartbeat CPU 0 instructions: 87000505 cycles: 25202724 heartbeat IPC: 2.521 cumulative IPC: 2.494 (Simulation time: 00 hr 06 min 53 sec)
Heartbeat CPU 0 instructions: 87500507 cycles: 25404648 heartbeat IPC: 2.476 cumulative IPC: 2.494 (Simulation time: 00 hr 06 min 56 sec)
Heartbeat CPU 0 instructions: 88000511 cycles: 25605982 heartbeat IPC: 2.483 cumulative IPC: 2.494 (Simulation time: 00 hr 06 min 59 sec)
Heartbeat CPU 0 instructions: 88500514 cycles: 25809809 heartbeat IPC: 2.453 cumulative IPC: 2.493 (Simulation time: 00 hr 07 min 02 sec)
Heartbeat CPU 0 instructions: 89000514 cycles: 26011067 heartbeat IPC: 2.484 cumulative IPC: 2.493 (Simulation time: 00 hr 07 min 05 sec)
Heartbeat CPU 0 instructions: 89500517 cycles: 26215654 heartbeat IPC: 2.444 cumulative IPC: 2.493 (Simulation time: 00 hr 07 min 08 sec)
Heartbeat CPU 0 instructions: 90000520 cycles: 26416548 heartbeat IPC: 2.489 cumulative IPC: 2.492 (Simulation time: 00 hr 07 min 11 sec)
Heartbeat CPU 0 instructions: 90500520 cycles: 26617098 heartbeat IPC: 2.493 cumulative IPC: 2.492 (Simulation time: 00 hr 07 min 14 sec)
Heartbeat CPU 0 instructions: 91000520 cycles: 26818917 heartbeat IPC: 2.477 cumulative IPC: 2.492 (Simulation time: 00 hr 07 min 17 sec)
Heartbeat CPU 0 instructions: 91500520 cycles: 27018309 heartbeat IPC: 2.508 cumulative IPC: 2.492 (Simulation time: 00 hr 07 min 20 sec)
Heartbeat CPU 0 instructions: 92000526 cycles: 27215412 heartbeat IPC: 2.537 cumulative IPC: 2.493 (Simulation time: 00 hr 07 min 23 sec)
Heartbeat CPU 0 instructions: 92500526 cycles: 27417318 heartbeat IPC: 2.476 cumulative IPC: 2.493 (Simulation time: 00 hr 07 min 26 sec)
Heartbeat CPU 0 instructions: 93000526 cycles: 27620436 heartbeat IPC: 2.462 cumulative IPC: 2.492 (Simulation time: 00 hr 07 min 29 sec)
Heartbeat CPU 0 instructions: 93500528 cycles: 27820198 heartbeat IPC: 2.503 cumulative IPC: 2.493 (Simulation time: 00 hr 07 min 32 sec)
Heartbeat CPU 0 instructions: 94000532 cycles: 28020181 heartbeat IPC: 2.5 cumulative IPC: 2.493 (Simulation time: 00 hr 07 min 35 sec)
Heartbeat CPU 0 instructions: 94500532 cycles: 28222891 heartbeat IPC: 2.467 cumulative IPC: 2.492 (Simulation time: 00 hr 07 min 38 sec)
Heartbeat CPU 0 instructions: 95000534 cycles: 28425340 heartbeat IPC: 2.47 cumulative IPC: 2.492 (Simulation time: 00 hr 07 min 41 sec)
Heartbeat CPU 0 instructions: 95500538 cycles: 28626257 heartbeat IPC: 2.489 cumulative IPC: 2.492 (Simulation time: 00 hr 07 min 44 sec)
Heartbeat CPU 0 instructions: 96000541 cycles: 28821189 heartbeat IPC: 2.565 cumulative IPC: 2.493 (Simulation time: 00 hr 07 min 47 sec)
Heartbeat CPU 0 instructions: 96500541 cycles: 29023052 heartbeat IPC: 2.477 cumulative IPC: 2.493 (Simulation time: 00 hr 07 min 50 sec)
Heartbeat CPU 0 instructions: 97000544 cycles: 29223746 heartbeat IPC: 2.491 cumulative IPC: 2.493 (Simulation time: 00 hr 07 min 53 sec)
Heartbeat CPU 0 instructions: 97500547 cycles: 29425048 heartbeat IPC: 2.484 cumulative IPC: 2.493 (Simulation time: 00 hr 07 min 56 sec)
Heartbeat CPU 0 instructions: 98000547 cycles: 29623267 heartbeat IPC: 2.522 cumulative IPC: 2.493 (Simulation time: 00 hr 07 min 59 sec)
Heartbeat CPU 0 instructions: 98500547 cycles: 29822154 heartbeat IPC: 2.514 cumulative IPC: 2.493 (Simulation time: 00 hr 08 min 02 sec)
Heartbeat CPU 0 instructions: 99000547 cycles: 30021186 heartbeat IPC: 2.512 cumulative IPC: 2.493 (Simulation time: 00 hr 08 min 05 sec)
Heartbeat CPU 0 instructions: 99500547 cycles: 30224847 heartbeat IPC: 2.455 cumulative IPC: 2.493 (Simulation time: 00 hr 08 min 08 sec)
Heartbeat CPU 0 instructions: 100000552 cycles: 30424495 heartbeat IPC: 2.504 cumulative IPC: 2.493 (Simulation time: 00 hr 08 min 11 sec)
Heartbeat CPU 0 instructions: 100500559 cycles: 30622839 heartbeat IPC: 2.521 cumulative IPC: 2.493 (Simulation time: 00 hr 08 min 14 sec)
Heartbeat CPU 0 instructions: 101000561 cycles: 30823470 heartbeat IPC: 2.492 cumulative IPC: 2.493 (Simulation time: 00 hr 08 min 17 sec)
Heartbeat CPU 0 instructions: 101500568 cycles: 31023139 heartbeat IPC: 2.504 cumulative IPC: 2.493 (Simulation time: 00 hr 08 min 20 sec)
Heartbeat CPU 0 instructions: 102000569 cycles: 31221420 heartbeat IPC: 2.522 cumulative IPC: 2.494 (Simulation time: 00 hr 08 min 23 sec)
Heartbeat CPU 0 instructions: 102500570 cycles: 31420711 heartbeat IPC: 2.509 cumulative IPC: 2.494 (Simulation time: 00 hr 08 min 26 sec)
Heartbeat CPU 0 instructions: 103000573 cycles: 31620983 heartbeat IPC: 2.497 cumulative IPC: 2.494 (Simulation time: 00 hr 08 min 29 sec)
Heartbeat CPU 0 instructions: 103500574 cycles: 31821996 heartbeat IPC: 2.487 cumulative IPC: 2.494 (Simulation time: 00 hr 08 min 32 sec)
Heartbeat CPU 0 instructions: 104000574 cycles: 32024182 heartbeat IPC: 2.473 cumulative IPC: 2.494 (Simulation time: 00 hr 08 min 35 sec)
Heartbeat CPU 0 instructions: 104500574 cycles: 32224150 heartbeat IPC: 2.5 cumulative IPC: 2.494 (Simulation time: 00 hr 08 min 38 sec)
Heartbeat CPU 0 instructions: 105000580 cycles: 32421616 heartbeat IPC: 2.532 cumulative IPC: 2.494 (Simulation time: 00 hr 08 min 41 sec)
Heartbeat CPU 0 instructions: 105500587 cycles: 32620036 heartbeat IPC: 2.52 cumulative IPC: 2.494 (Simulation time: 00 hr 08 min 44 sec)
Heartbeat CPU 0 instructions: 106000588 cycles: 32822003 heartbeat IPC: 2.476 cumulative IPC: 2.494 (Simulation time: 00 hr 08 min 47 sec)
Heartbeat CPU 0 instructions: 106500588 cycles: 33021519 heartbeat IPC: 2.506 cumulative IPC: 2.494 (Simulation time: 00 hr 08 min 50 sec)
Heartbeat CPU 0 instructions: 107000588 cycles: 33227309 heartbeat IPC: 2.43 cumulative IPC: 2.494 (Simulation time: 00 hr 08 min 53 sec)
Heartbeat CPU 0 instructions: 107500594 cycles: 33425587 heartbeat IPC: 2.522 cumulative IPC: 2.494 (Simulation time: 00 hr 08 min 56 sec)
Heartbeat CPU 0 instructions: 108000601 cycles: 33627822 heartbeat IPC: 2.472 cumulative IPC: 2.494 (Simulation time: 00 hr 08 min 59 sec)
Heartbeat CPU 0 instructions: 108500602 cycles: 33826836 heartbeat IPC: 2.512 cumulative IPC: 2.494 (Simulation time: 00 hr 09 min 02 sec)
Heartbeat CPU 0 instructions: 109000603 cycles: 34024935 heartbeat IPC: 2.524 cumulative IPC: 2.494 (Simulation time: 00 hr 09 min 05 sec)
Heartbeat CPU 0 instructions: 109500610 cycles: 34224149 heartbeat IPC: 2.51 cumulative IPC: 2.494 (Simulation time: 00 hr 09 min 08 sec)
Heartbeat CPU 0 instructions: 110000616 cycles: 34425036 heartbeat IPC: 2.489 cumulative IPC: 2.494 (Simulation time: 00 hr 09 min 11 sec)
Heartbeat CPU 0 instructions: 110500623 cycles: 34626058 heartbeat IPC: 2.487 cumulative IPC: 2.494 (Simulation time: 00 hr 09 min 14 sec)
Heartbeat CPU 0 instructions: 111000624 cycles: 34824503 heartbeat IPC: 2.52 cumulative IPC: 2.494 (Simulation time: 00 hr 09 min 17 sec)
Heartbeat CPU 0 instructions: 111500625 cycles: 35023442 heartbeat IPC: 2.513 cumulative IPC: 2.494 (Simulation time: 00 hr 09 min 20 sec)
Heartbeat CPU 0 instructions: 112000629 cycles: 35226363 heartbeat IPC: 2.464 cumulative IPC: 2.494 (Simulation time: 00 hr 09 min 23 sec)
Heartbeat CPU 0 instructions: 112500630 cycles: 35425221 heartbeat IPC: 2.514 cumulative IPC: 2.494 (Simulation time: 00 hr 09 min 26 sec)
Heartbeat CPU 0 instructions: 113000637 cycles: 35625280 heartbeat IPC: 2.499 cumulative IPC: 2.494 (Simulation time: 00 hr 09 min 29 sec)
Heartbeat CPU 0 instructions: 113500638 cycles: 35824171 heartbeat IPC: 2.514 cumulative IPC: 2.495 (Simulation time: 00 hr 09 min 32 sec)
Heartbeat CPU 0 instructions: 114000641 cycles: 36024023 heartbeat IPC: 2.502 cumulative IPC: 2.495 (Simulation time: 00 hr 09 min 35 sec)
Heartbeat CPU 0 instructions: 114500643 cycles: 36222423 heartbeat IPC: 2.52 cumulative IPC: 2.495 (Simulation time: 00 hr 09 min 38 sec)
Heartbeat CPU 0 instructions: 115000644 cycles: 36424577 heartbeat IPC: 2.473 cumulative IPC: 2.495 (Simulation time: 00 hr 09 min 41 sec)
Heartbeat CPU 0 instructions: 115500645 cycles: 36624930 heartbeat IPC: 2.496 cumulative IPC: 2.495 (Simulation time: 00 hr 09 min 44 sec)
Heartbeat CPU 0 instructions: 116000652 cycles: 36825690 heartbeat IPC: 2.491 cumulative IPC: 2.495 (Simulation time: 00 hr 09 min 47 sec)
Heartbeat CPU 0 instructions: 116500658 cycles: 37025493 heartbeat IPC: 2.502 cumulative IPC: 2.495 (Simulation time: 00 hr 09 min 50 sec)
Heartbeat CPU 0 instructions: 117000665 cycles: 37222756 heartbeat IPC: 2.535 cumulative IPC: 2.495 (Simulation time: 00 hr 09 min 53 sec)
Heartbeat CPU 0 instructions: 117500666 cycles: 37423958 heartbeat IPC: 2.485 cumulative IPC: 2.495 (Simulation time: 00 hr 09 min 56 sec)
Heartbeat CPU 0 instructions: 118000666 cycles: 37625759 heartbeat IPC: 2.478 cumulative IPC: 2.495 (Simulation time: 00 hr 09 min 59 sec)
Heartbeat CPU 0 instructions: 118500666 cycles: 37828762 heartbeat IPC: 2.463 cumulative IPC: 2.494 (Simulation time: 00 hr 10 min 02 sec)
Heartbeat CPU 0 instructions: 119000672 cycles: 38034066 heartbeat IPC: 2.435 cumulative IPC: 2.494 (Simulation time: 00 hr 10 min 05 sec)
Heartbeat CPU 0 instructions: 119500672 cycles: 38234818 heartbeat IPC: 2.491 cumulative IPC: 2.494 (Simulation time: 00 hr 10 min 08 sec)
Heartbeat CPU 0 instructions: 120000672 cycles: 38438979 heartbeat IPC: 2.449 cumulative IPC: 2.494 (Simulation time: 00 hr 10 min 11 sec)
Heartbeat CPU 0 instructions: 120500672 cycles: 38638877 heartbeat IPC: 2.501 cumulative IPC: 2.494 (Simulation time: 00 hr 10 min 14 sec)
Heartbeat CPU 0 instructions: 121000674 cycles: 38839679 heartbeat IPC: 2.49 cumulative IPC: 2.494 (Simulation time: 00 hr 10 min 18 sec)
Heartbeat CPU 0 instructions: 121500678 cycles: 39037792 heartbeat IPC: 2.524 cumulative IPC: 2.494 (Simulation time: 00 hr 10 min 20 sec)
Heartbeat CPU 0 instructions: 122000678 cycles: 39241023 heartbeat IPC: 2.46 cumulative IPC: 2.494 (Simulation time: 00 hr 10 min 24 sec)
Heartbeat CPU 0 instructions: 122500680 cycles: 39442166 heartbeat IPC: 2.486 cumulative IPC: 2.494 (Simulation time: 00 hr 10 min 27 sec)
Heartbeat CPU 0 instructions: 123000684 cycles: 39639082 heartbeat IPC: 2.539 cumulative IPC: 2.494 (Simulation time: 00 hr 10 min 29 sec)
Heartbeat CPU 0 instructions: 123500687 cycles: 39839064 heartbeat IPC: 2.5 cumulative IPC: 2.494 (Simulation time: 00 hr 10 min 32 sec)
Heartbeat CPU 0 instructions: 124000689 cycles: 40037519 heartbeat IPC: 2.519 cumulative IPC: 2.494 (Simulation time: 00 hr 10 min 35 sec)
Heartbeat CPU 0 instructions: 124500690 cycles: 40236016 heartbeat IPC: 2.519 cumulative IPC: 2.494 (Simulation time: 00 hr 10 min 38 sec)
Heartbeat CPU 0 instructions: 125000693 cycles: 40437858 heartbeat IPC: 2.477 cumulative IPC: 2.494 (Simulation time: 00 hr 10 min 41 sec)
Heartbeat CPU 0 instructions: 125500693 cycles: 40638015 heartbeat IPC: 2.498 cumulative IPC: 2.494 (Simulation time: 00 hr 10 min 44 sec)
Heartbeat CPU 0 instructions: 126000693 cycles: 40838516 heartbeat IPC: 2.494 cumulative IPC: 2.494 (Simulation time: 00 hr 10 min 48 sec)
Heartbeat CPU 0 instructions: 126500699 cycles: 41040432 heartbeat IPC: 2.476 cumulative IPC: 2.494 (Simulation time: 00 hr 10 min 51 sec)
Heartbeat CPU 0 instructions: 127000699 cycles: 41242632 heartbeat IPC: 2.473 cumulative IPC: 2.494 (Simulation time: 00 hr 10 min 54 sec)
Heartbeat CPU 0 instructions: 127500699 cycles: 41443689 heartbeat IPC: 2.487 cumulative IPC: 2.494 (Simulation time: 00 hr 10 min 57 sec)
Heartbeat CPU 0 instructions: 128000699 cycles: 41645187 heartbeat IPC: 2.481 cumulative IPC: 2.494 (Simulation time: 00 hr 11 min 00 sec)
Heartbeat CPU 0 instructions: 128500701 cycles: 41846160 heartbeat IPC: 2.488 cumulative IPC: 2.494 (Simulation time: 00 hr 11 min 03 sec)
Heartbeat CPU 0 instructions: 129000705 cycles: 42045008 heartbeat IPC: 2.515 cumulative IPC: 2.494 (Simulation time: 00 hr 11 min 06 sec)
Heartbeat CPU 0 instructions: 129500705 cycles: 42247286 heartbeat IPC: 2.472 cumulative IPC: 2.494 (Simulation time: 00 hr 11 min 09 sec)
Heartbeat CPU 0 instructions: 130000707 cycles: 42447329 heartbeat IPC: 2.499 cumulative IPC: 2.494 (Simulation time: 00 hr 11 min 12 sec)
Heartbeat CPU 0 instructions: 130500711 cycles: 42648254 heartbeat IPC: 2.489 cumulative IPC: 2.494 (Simulation time: 00 hr 11 min 15 sec)
Heartbeat CPU 0 instructions: 131000712 cycles: 42849858 heartbeat IPC: 2.48 cumulative IPC: 2.494 (Simulation time: 00 hr 11 min 18 sec)
Heartbeat CPU 0 instructions: 131500713 cycles: 43050537 heartbeat IPC: 2.492 cumulative IPC: 2.494 (Simulation time: 00 hr 11 min 21 sec)
Heartbeat CPU 0 instructions: 132000717 cycles: 43248013 heartbeat IPC: 2.532 cumulative IPC: 2.494 (Simulation time: 00 hr 11 min 24 sec)
Heartbeat CPU 0 instructions: 132500718 cycles: 43449319 heartbeat IPC: 2.484 cumulative IPC: 2.494 (Simulation time: 00 hr 11 min 27 sec)
Heartbeat CPU 0 instructions: 133000720 cycles: 43648609 heartbeat IPC: 2.509 cumulative IPC: 2.494 (Simulation time: 00 hr 11 min 30 sec)
Heartbeat CPU 0 instructions: 133500721 cycles: 43851289 heartbeat IPC: 2.467 cumulative IPC: 2.494 (Simulation time: 00 hr 11 min 33 sec)
Heartbeat CPU 0 instructions: 134000726 cycles: 44051857 heartbeat IPC: 2.493 cumulative IPC: 2.494 (Simulation time: 00 hr 11 min 36 sec)
Heartbeat CPU 0 instructions: 134500726 cycles: 44254055 heartbeat IPC: 2.473 cumulative IPC: 2.494 (Simulation time: 00 hr 11 min 39 sec)
Heartbeat CPU 0 instructions: 135000732 cycles: 44455156 heartbeat IPC: 2.486 cumulative IPC: 2.494 (Simulation time: 00 hr 11 min 42 sec)
Heartbeat CPU 0 instructions: 135500734 cycles: 44653409 heartbeat IPC: 2.522 cumulative IPC: 2.494 (Simulation time: 00 hr 11 min 45 sec)
Heartbeat CPU 0 instructions: 136000735 cycles: 44852561 heartbeat IPC: 2.511 cumulative IPC: 2.494 (Simulation time: 00 hr 11 min 48 sec)
Heartbeat CPU 0 instructions: 136500736 cycles: 45052293 heartbeat IPC: 2.503 cumulative IPC: 2.494 (Simulation time: 00 hr 11 min 51 sec)
Heartbeat CPU 0 instructions: 137000738 cycles: 45256930 heartbeat IPC: 2.443 cumulative IPC: 2.494 (Simulation time: 00 hr 11 min 54 sec)
Heartbeat CPU 0 instructions: 137500739 cycles: 45454779 heartbeat IPC: 2.527 cumulative IPC: 2.494 (Simulation time: 00 hr 11 min 57 sec)
Heartbeat CPU 0 instructions: 138000746 cycles: 45655795 heartbeat IPC: 2.487 cumulative IPC: 2.494 (Simulation time: 00 hr 12 min 00 sec)
Heartbeat CPU 0 instructions: 138500752 cycles: 45858384 heartbeat IPC: 2.468 cumulative IPC: 2.494 (Simulation time: 00 hr 12 min 03 sec)
Heartbeat CPU 0 instructions: 139000752 cycles: 46059285 heartbeat IPC: 2.489 cumulative IPC: 2.494 (Simulation time: 00 hr 12 min 06 sec)
Heartbeat CPU 0 instructions: 139500752 cycles: 46260811 heartbeat IPC: 2.481 cumulative IPC: 2.494 (Simulation time: 00 hr 12 min 09 sec)
Heartbeat CPU 0 instructions: 140000752 cycles: 46459919 heartbeat IPC: 2.511 cumulative IPC: 2.494 (Simulation time: 00 hr 12 min 12 sec)
Heartbeat CPU 0 instructions: 140500752 cycles: 46660383 heartbeat IPC: 2.494 cumulative IPC: 2.494 (Simulation time: 00 hr 12 min 15 sec)
Heartbeat CPU 0 instructions: 141000758 cycles: 46861805 heartbeat IPC: 2.482 cumulative IPC: 2.494 (Simulation time: 00 hr 12 min 18 sec)
Heartbeat CPU 0 instructions: 141500759 cycles: 47059892 heartbeat IPC: 2.524 cumulative IPC: 2.494 (Simulation time: 00 hr 12 min 21 sec)
Heartbeat CPU 0 instructions: 142000766 cycles: 47260308 heartbeat IPC: 2.495 cumulative IPC: 2.494 (Simulation time: 00 hr 12 min 24 sec)
Heartbeat CPU 0 instructions: 142500766 cycles: 47459609 heartbeat IPC: 2.509 cumulative IPC: 2.494 (Simulation time: 00 hr 12 min 27 sec)
Heartbeat CPU 0 instructions: 143000766 cycles: 47659766 heartbeat IPC: 2.498 cumulative IPC: 2.494 (Simulation time: 00 hr 12 min 30 sec)
Heartbeat CPU 0 instructions: 143500772 cycles: 47860758 heartbeat IPC: 2.488 cumulative IPC: 2.494 (Simulation time: 00 hr 12 min 33 sec)
Heartbeat CPU 0 instructions: 144000772 cycles: 48062920 heartbeat IPC: 2.473 cumulative IPC: 2.494 (Simulation time: 00 hr 12 min 36 sec)
Heartbeat CPU 0 instructions: 144500772 cycles: 48263630 heartbeat IPC: 2.491 cumulative IPC: 2.494 (Simulation time: 00 hr 12 min 39 sec)
Heartbeat CPU 0 instructions: 145000772 cycles: 48463892 heartbeat IPC: 2.497 cumulative IPC: 2.494 (Simulation time: 00 hr 12 min 42 sec)
Heartbeat CPU 0 instructions: 145500774 cycles: 48662649 heartbeat IPC: 2.516 cumulative IPC: 2.494 (Simulation time: 00 hr 12 min 45 sec)
Heartbeat CPU 0 instructions: 146000778 cycles: 48866094 heartbeat IPC: 2.458 cumulative IPC: 2.494 (Simulation time: 00 hr 12 min 48 sec)
Heartbeat CPU 0 instructions: 146500778 cycles: 49065184 heartbeat IPC: 2.511 cumulative IPC: 2.494 (Simulation time: 00 hr 12 min 51 sec)
Heartbeat CPU 0 instructions: 147000780 cycles: 49266408 heartbeat IPC: 2.485 cumulative IPC: 2.494 (Simulation time: 00 hr 12 min 54 sec)
Heartbeat CPU 0 instructions: 147500784 cycles: 49466715 heartbeat IPC: 2.496 cumulative IPC: 2.494 (Simulation time: 00 hr 12 min 57 sec)
Heartbeat CPU 0 instructions: 148000787 cycles: 49668011 heartbeat IPC: 2.484 cumulative IPC: 2.494 (Simulation time: 00 hr 13 min 00 sec)
Heartbeat CPU 0 instructions: 148500789 cycles: 49869340 heartbeat IPC: 2.484 cumulative IPC: 2.494 (Simulation time: 00 hr 13 min 03 sec)
Heartbeat CPU 0 instructions: 149000790 cycles: 50071608 heartbeat IPC: 2.472 cumulative IPC: 2.493 (Simulation time: 00 hr 13 min 06 sec)
Heartbeat CPU 0 instructions: 149500793 cycles: 50272446 heartbeat IPC: 2.49 cumulative IPC: 2.493 (Simulation time: 00 hr 13 min 09 sec)
Heartbeat CPU 0 instructions: 150000793 cycles: 50472552 heartbeat IPC: 2.499 cumulative IPC: 2.494 (Simulation time: 00 hr 13 min 12 sec)
Heartbeat CPU 0 instructions: 150500793 cycles: 50672588 heartbeat IPC: 2.5 cumulative IPC: 2.494 (Simulation time: 00 hr 13 min 15 sec)
Heartbeat CPU 0 instructions: 151000799 cycles: 50874023 heartbeat IPC: 2.482 cumulative IPC: 2.493 (Simulation time: 00 hr 13 min 18 sec)
Heartbeat CPU 0 instructions: 151500799 cycles: 51074250 heartbeat IPC: 2.497 cumulative IPC: 2.493 (Simulation time: 00 hr 13 min 21 sec)
Heartbeat CPU 0 instructions: 152000799 cycles: 51276378 heartbeat IPC: 2.474 cumulative IPC: 2.493 (Simulation time: 00 hr 13 min 24 sec)
Heartbeat CPU 0 instructions: 152500799 cycles: 51475272 heartbeat IPC: 2.514 cumulative IPC: 2.493 (Simulation time: 00 hr 13 min 27 sec)
Heartbeat CPU 0 instructions: 153000801 cycles: 51675713 heartbeat IPC: 2.495 cumulative IPC: 2.494 (Simulation time: 00 hr 13 min 30 sec)
Heartbeat CPU 0 instructions: 153500805 cycles: 51876261 heartbeat IPC: 2.493 cumulative IPC: 2.494 (Simulation time: 00 hr 13 min 33 sec)
Heartbeat CPU 0 instructions: 154000806 cycles: 52080065 heartbeat IPC: 2.453 cumulative IPC: 2.493 (Simulation time: 00 hr 13 min 36 sec)
Heartbeat CPU 0 instructions: 154500806 cycles: 52277153 heartbeat IPC: 2.537 cumulative IPC: 2.494 (Simulation time: 00 hr 13 min 39 sec)
Heartbeat CPU 0 instructions: 155000806 cycles: 52477769 heartbeat IPC: 2.492 cumulative IPC: 2.494 (Simulation time: 00 hr 13 min 42 sec)
Heartbeat CPU 0 instructions: 155500807 cycles: 52680551 heartbeat IPC: 2.466 cumulative IPC: 2.493 (Simulation time: 00 hr 13 min 45 sec)
Heartbeat CPU 0 instructions: 156000812 cycles: 52879724 heartbeat IPC: 2.51 cumulative IPC: 2.493 (Simulation time: 00 hr 13 min 48 sec)
Heartbeat CPU 0 instructions: 156500812 cycles: 53083288 heartbeat IPC: 2.456 cumulative IPC: 2.493 (Simulation time: 00 hr 13 min 51 sec)
Heartbeat CPU 0 instructions: 157000812 cycles: 53286751 heartbeat IPC: 2.457 cumulative IPC: 2.493 (Simulation time: 00 hr 13 min 54 sec)
Heartbeat CPU 0 instructions: 157500814 cycles: 53486313 heartbeat IPC: 2.505 cumulative IPC: 2.493 (Simulation time: 00 hr 13 min 57 sec)
Heartbeat CPU 0 instructions: 158000819 cycles: 53689614 heartbeat IPC: 2.459 cumulative IPC: 2.493 (Simulation time: 00 hr 14 min 00 sec)
Heartbeat CPU 0 instructions: 158500826 cycles: 53890735 heartbeat IPC: 2.486 cumulative IPC: 2.493 (Simulation time: 00 hr 14 min 03 sec)
Heartbeat CPU 0 instructions: 159000826 cycles: 54088859 heartbeat IPC: 2.524 cumulative IPC: 2.493 (Simulation time: 00 hr 14 min 06 sec)
Heartbeat CPU 0 instructions: 159500828 cycles: 54289686 heartbeat IPC: 2.49 cumulative IPC: 2.493 (Simulation time: 00 hr 14 min 09 sec)
Heartbeat CPU 0 instructions: 160000829 cycles: 54489565 heartbeat IPC: 2.502 cumulative IPC: 2.493 (Simulation time: 00 hr 14 min 12 sec)
Heartbeat CPU 0 instructions: 160500833 cycles: 54689619 heartbeat IPC: 2.499 cumulative IPC: 2.493 (Simulation time: 00 hr 14 min 15 sec)
Heartbeat CPU 0 instructions: 161000834 cycles: 54888219 heartbeat IPC: 2.518 cumulative IPC: 2.493 (Simulation time: 00 hr 14 min 18 sec)
Heartbeat CPU 0 instructions: 161500839 cycles: 55090907 heartbeat IPC: 2.467 cumulative IPC: 2.493 (Simulation time: 00 hr 14 min 21 sec)
Heartbeat CPU 0 instructions: 162000841 cycles: 55292986 heartbeat IPC: 2.474 cumulative IPC: 2.493 (Simulation time: 00 hr 14 min 24 sec)
Heartbeat CPU 0 instructions: 162500847 cycles: 55494897 heartbeat IPC: 2.476 cumulative IPC: 2.493 (Simulation time: 00 hr 14 min 27 sec)
Heartbeat CPU 0 instructions: 163000847 cycles: 55693572 heartbeat IPC: 2.517 cumulative IPC: 2.493 (Simulation time: 00 hr 14 min 30 sec)
Heartbeat CPU 0 instructions: 163500847 cycles: 55891916 heartbeat IPC: 2.521 cumulative IPC: 2.493 (Simulation time: 00 hr 14 min 33 sec)
Heartbeat CPU 0 instructions: 164000849 cycles: 56090323 heartbeat IPC: 2.52 cumulative IPC: 2.493 (Simulation time: 00 hr 14 min 36 sec)
Heartbeat CPU 0 instructions: 164500855 cycles: 56292773 heartbeat IPC: 2.47 cumulative IPC: 2.493 (Simulation time: 00 hr 14 min 39 sec)
Heartbeat CPU 0 instructions: 165000861 cycles: 56493134 heartbeat IPC: 2.496 cumulative IPC: 2.493 (Simulation time: 00 hr 14 min 42 sec)
Heartbeat CPU 0 instructions: 165500861 cycles: 56692692 heartbeat IPC: 2.506 cumulative IPC: 2.493 (Simulation time: 00 hr 14 min 45 sec)
Heartbeat CPU 0 instructions: 166000861 cycles: 56894688 heartbeat IPC: 2.475 cumulative IPC: 2.493 (Simulation time: 00 hr 14 min 48 sec)
Heartbeat CPU 0 instructions: 166500867 cycles: 57093788 heartbeat IPC: 2.511 cumulative IPC: 2.493 (Simulation time: 00 hr 14 min 51 sec)
Heartbeat CPU 0 instructions: 167000874 cycles: 57297092 heartbeat IPC: 2.459 cumulative IPC: 2.493 (Simulation time: 00 hr 14 min 54 sec)
Heartbeat CPU 0 instructions: 167500875 cycles: 57495839 heartbeat IPC: 2.516 cumulative IPC: 2.493 (Simulation time: 00 hr 14 min 57 sec)
Heartbeat CPU 0 instructions: 168000875 cycles: 57693452 heartbeat IPC: 2.53 cumulative IPC: 2.493 (Simulation time: 00 hr 15 min 00 sec)
Heartbeat CPU 0 instructions: 168500875 cycles: 57894283 heartbeat IPC: 2.49 cumulative IPC: 2.493 (Simulation time: 00 hr 15 min 03 sec)
Heartbeat CPU 0 instructions: 169000881 cycles: 58093775 heartbeat IPC: 2.506 cumulative IPC: 2.493 (Simulation time: 00 hr 15 min 06 sec)
Heartbeat CPU 0 instructions: 169500888 cycles: 58295497 heartbeat IPC: 2.479 cumulative IPC: 2.493 (Simulation time: 00 hr 15 min 09 sec)
Heartbeat CPU 0 instructions: 170000889 cycles: 58498808 heartbeat IPC: 2.459 cumulative IPC: 2.493 (Simulation time: 00 hr 15 min 12 sec)
Heartbeat CPU 0 instructions: 170500890 cycles: 58699039 heartbeat IPC: 2.497 cumulative IPC: 2.493 (Simulation time: 00 hr 15 min 15 sec)
Heartbeat CPU 0 instructions: 171000897 cycles: 58897450 heartbeat IPC: 2.52 cumulative IPC: 2.493 (Simulation time: 00 hr 15 min 18 sec)
Heartbeat CPU 0 instructions: 171500903 cycles: 59096552 heartbeat IPC: 2.511 cumulative IPC: 2.493 (Simulation time: 00 hr 15 min 21 sec)
Heartbeat CPU 0 instructions: 172000904 cycles: 59297988 heartbeat IPC: 2.482 cumulative IPC: 2.493 (Simulation time: 00 hr 15 min 24 sec)
Heartbeat CPU 0 instructions: 172500908 cycles: 59498261 heartbeat IPC: 2.497 cumulative IPC: 2.493 (Simulation time: 00 hr 15 min 27 sec)
Heartbeat CPU 0 instructions: 173000908 cycles: 59697162 heartbeat IPC: 2.514 cumulative IPC: 2.493 (Simulation time: 00 hr 15 min 30 sec)
Heartbeat CPU 0 instructions: 173500909 cycles: 59898086 heartbeat IPC: 2.489 cumulative IPC: 2.493 (Simulation time: 00 hr 15 min 33 sec)
Heartbeat CPU 0 instructions: 174000909 cycles: 60096642 heartbeat IPC: 2.518 cumulative IPC: 2.494 (Simulation time: 00 hr 15 min 36 sec)
Heartbeat CPU 0 instructions: 174500909 cycles: 60301107 heartbeat IPC: 2.445 cumulative IPC: 2.493 (Simulation time: 00 hr 15 min 39 sec)
Heartbeat CPU 0 instructions: 175000909 cycles: 60502790 heartbeat IPC: 2.479 cumulative IPC: 2.493 (Simulation time: 00 hr 15 min 42 sec)
Heartbeat CPU 0 instructions: 175500915 cycles: 60702525 heartbeat IPC: 2.503 cumulative IPC: 2.493 (Simulation time: 00 hr 15 min 45 sec)
Heartbeat CPU 0 instructions: 176000915 cycles: 60902872 heartbeat IPC: 2.496 cumulative IPC: 2.493 (Simulation time: 00 hr 15 min 48 sec)
Heartbeat CPU 0 instructions: 176500915 cycles: 61100791 heartbeat IPC: 2.526 cumulative IPC: 2.493 (Simulation time: 00 hr 15 min 51 sec)
Heartbeat CPU 0 instructions: 177000915 cycles: 61303076 heartbeat IPC: 2.472 cumulative IPC: 2.493 (Simulation time: 00 hr 15 min 54 sec)
Heartbeat CPU 0 instructions: 177500917 cycles: 61502400 heartbeat IPC: 2.508 cumulative IPC: 2.493 (Simulation time: 00 hr 15 min 57 sec)
Heartbeat CPU 0 instructions: 178000921 cycles: 61702965 heartbeat IPC: 2.493 cumulative IPC: 2.493 (Simulation time: 00 hr 16 min 00 sec)
Heartbeat CPU 0 instructions: 178500921 cycles: 61901692 heartbeat IPC: 2.516 cumulative IPC: 2.494 (Simulation time: 00 hr 16 min 03 sec)
Heartbeat CPU 0 instructions: 179000923 cycles: 62101093 heartbeat IPC: 2.508 cumulative IPC: 2.494 (Simulation time: 00 hr 16 min 06 sec)
Heartbeat CPU 0 instructions: 179500927 cycles: 62302409 heartbeat IPC: 2.484 cumulative IPC: 2.494 (Simulation time: 00 hr 16 min 09 sec)
Heartbeat CPU 0 instructions: 180000930 cycles: 62505123 heartbeat IPC: 2.467 cumulative IPC: 2.493 (Simulation time: 00 hr 16 min 12 sec)
Heartbeat CPU 0 instructions: 180500932 cycles: 62706387 heartbeat IPC: 2.484 cumulative IPC: 2.493 (Simulation time: 00 hr 16 min 16 sec)
Heartbeat CPU 0 instructions: 181000933 cycles: 62905525 heartbeat IPC: 2.511 cumulative IPC: 2.493 (Simulation time: 00 hr 16 min 18 sec)
Heartbeat CPU 0 instructions: 181500936 cycles: 63106595 heartbeat IPC: 2.487 cumulative IPC: 2.493 (Simulation time: 00 hr 16 min 22 sec)
Heartbeat CPU 0 instructions: 182000936 cycles: 63311909 heartbeat IPC: 2.435 cumulative IPC: 2.493 (Simulation time: 00 hr 16 min 25 sec)
Heartbeat CPU 0 instructions: 182500936 cycles: 63510097 heartbeat IPC: 2.523 cumulative IPC: 2.493 (Simulation time: 00 hr 16 min 28 sec)
Heartbeat CPU 0 instructions: 183000942 cycles: 63709359 heartbeat IPC: 2.509 cumulative IPC: 2.493 (Simulation time: 00 hr 16 min 31 sec)
Heartbeat CPU 0 instructions: 183500942 cycles: 63911024 heartbeat IPC: 2.479 cumulative IPC: 2.493 (Simulation time: 00 hr 16 min 34 sec)
Heartbeat CPU 0 instructions: 184000942 cycles: 64109342 heartbeat IPC: 2.521 cumulative IPC: 2.493 (Simulation time: 00 hr 16 min 37 sec)
Heartbeat CPU 0 instructions: 184500942 cycles: 64305983 heartbeat IPC: 2.543 cumulative IPC: 2.494 (Simulation time: 00 hr 16 min 39 sec)
Heartbeat CPU 0 instructions: 185000944 cycles: 64506943 heartbeat IPC: 2.488 cumulative IPC: 2.494 (Simulation time: 00 hr 16 min 42 sec)
Heartbeat CPU 0 instructions: 185500948 cycles: 64705827 heartbeat IPC: 2.514 cumulative IPC: 2.494 (Simulation time: 00 hr 16 min 45 sec)
Heartbeat CPU 0 instructions: 186000948 cycles: 64904664 heartbeat IPC: 2.515 cumulative IPC: 2.494 (Simulation time: 00 hr 16 min 48 sec)
Heartbeat CPU 0 instructions: 186500950 cycles: 65105632 heartbeat IPC: 2.488 cumulative IPC: 2.494 (Simulation time: 00 hr 16 min 51 sec)
Heartbeat CPU 0 instructions: 187000954 cycles: 65307220 heartbeat IPC: 2.48 cumulative IPC: 2.494 (Simulation time: 00 hr 16 min 54 sec)
Heartbeat CPU 0 instructions: 187500956 cycles: 65505013 heartbeat IPC: 2.528 cumulative IPC: 2.494 (Simulation time: 00 hr 16 min 57 sec)
Heartbeat CPU 0 instructions: 188000956 cycles: 65703620 heartbeat IPC: 2.518 cumulative IPC: 2.494 (Simulation time: 00 hr 17 min 00 sec)
Heartbeat CPU 0 instructions: 188500960 cycles: 65905244 heartbeat IPC: 2.48 cumulative IPC: 2.494 (Simulation time: 00 hr 17 min 03 sec)
Heartbeat CPU 0 instructions: 189000963 cycles: 66103953 heartbeat IPC: 2.516 cumulative IPC: 2.494 (Simulation time: 00 hr 17 min 06 sec)
Heartbeat CPU 0 instructions: 189500963 cycles: 66303878 heartbeat IPC: 2.501 cumulative IPC: 2.494 (Simulation time: 00 hr 17 min 09 sec)
Heartbeat CPU 0 instructions: 190000968 cycles: 66503180 heartbeat IPC: 2.509 cumulative IPC: 2.494 (Simulation time: 00 hr 17 min 12 sec)
Heartbeat CPU 0 instructions: 190500969 cycles: 66704762 heartbeat IPC: 2.48 cumulative IPC: 2.494 (Simulation time: 00 hr 17 min 15 sec)
Heartbeat CPU 0 instructions: 191000975 cycles: 66904452 heartbeat IPC: 2.504 cumulative IPC: 2.494 (Simulation time: 00 hr 17 min 18 sec)
Heartbeat CPU 0 instructions: 191500975 cycles: 67102967 heartbeat IPC: 2.519 cumulative IPC: 2.494 (Simulation time: 00 hr 17 min 21 sec)
Heartbeat CPU 0 instructions: 192000975 cycles: 67303704 heartbeat IPC: 2.491 cumulative IPC: 2.494 (Simulation time: 00 hr 17 min 24 sec)
Heartbeat CPU 0 instructions: 192500978 cycles: 67501136 heartbeat IPC: 2.533 cumulative IPC: 2.494 (Simulation time: 00 hr 17 min 27 sec)
Heartbeat CPU 0 instructions: 193000980 cycles: 67703843 heartbeat IPC: 2.467 cumulative IPC: 2.494 (Simulation time: 00 hr 17 min 30 sec)
Heartbeat CPU 0 instructions: 193500981 cycles: 67902794 heartbeat IPC: 2.513 cumulative IPC: 2.494 (Simulation time: 00 hr 17 min 33 sec)
Heartbeat CPU 0 instructions: 194000982 cycles: 68102992 heartbeat IPC: 2.498 cumulative IPC: 2.494 (Simulation time: 00 hr 17 min 36 sec)
Heartbeat CPU 0 instructions: 194500989 cycles: 68301343 heartbeat IPC: 2.521 cumulative IPC: 2.494 (Simulation time: 00 hr 17 min 39 sec)
Heartbeat CPU 0 instructions: 195000995 cycles: 68501011 heartbeat IPC: 2.504 cumulative IPC: 2.494 (Simulation time: 00 hr 17 min 42 sec)
Heartbeat CPU 0 instructions: 195500996 cycles: 68702326 heartbeat IPC: 2.484 cumulative IPC: 2.494 (Simulation time: 00 hr 17 min 45 sec)
Heartbeat CPU 0 instructions: 196001003 cycles: 68906764 heartbeat IPC: 2.446 cumulative IPC: 2.494 (Simulation time: 00 hr 17 min 48 sec)
Heartbeat CPU 0 instructions: 196501004 cycles: 69107212 heartbeat IPC: 2.494 cumulative IPC: 2.494 (Simulation time: 00 hr 17 min 51 sec)
Heartbeat CPU 0 instructions: 197001011 cycles: 69310241 heartbeat IPC: 2.463 cumulative IPC: 2.494 (Simulation time: 00 hr 17 min 54 sec)
Heartbeat CPU 0 instructions: 197501017 cycles: 69508407 heartbeat IPC: 2.523 cumulative IPC: 2.494 (Simulation time: 00 hr 17 min 57 sec)
Heartbeat CPU 0 instructions: 198001018 cycles: 69711431 heartbeat IPC: 2.463 cumulative IPC: 2.494 (Simulation time: 00 hr 18 min 00 sec)
Heartbeat CPU 0 instructions: 198501025 cycles: 69909646 heartbeat IPC: 2.523 cumulative IPC: 2.494 (Simulation time: 00 hr 18 min 03 sec)
Heartbeat CPU 0 instructions: 199001026 cycles: 70105829 heartbeat IPC: 2.549 cumulative IPC: 2.494 (Simulation time: 00 hr 18 min 06 sec)
Heartbeat CPU 0 instructions: 199501033 cycles: 70307453 heartbeat IPC: 2.48 cumulative IPC: 2.494 (Simulation time: 00 hr 18 min 09 sec)
Heartbeat CPU 0 instructions: 200001039 cycles: 70507960 heartbeat IPC: 2.494 cumulative IPC: 2.494 (Simulation time: 00 hr 18 min 12 sec)
Heartbeat CPU 0 instructions: 200501040 cycles: 70709900 heartbeat IPC: 2.476 cumulative IPC: 2.494 (Simulation time: 00 hr 18 min 15 sec)
Heartbeat CPU 0 instructions: 201001047 cycles: 70907084 heartbeat IPC: 2.536 cumulative IPC: 2.494 (Simulation time: 00 hr 18 min 18 sec)
Heartbeat CPU 0 instructions: 201501048 cycles: 71107702 heartbeat IPC: 2.492 cumulative IPC: 2.494 (Simulation time: 00 hr 18 min 21 sec)
Heartbeat CPU 0 instructions: 202001055 cycles: 71309773 heartbeat IPC: 2.474 cumulative IPC: 2.494 (Simulation time: 00 hr 18 min 24 sec)
Heartbeat CPU 0 instructions: 202501061 cycles: 71508763 heartbeat IPC: 2.513 cumulative IPC: 2.494 (Simulation time: 00 hr 18 min 27 sec)
Heartbeat CPU 0 instructions: 203001062 cycles: 71706622 heartbeat IPC: 2.527 cumulative IPC: 2.494 (Simulation time: 00 hr 18 min 30 sec)
Heartbeat CPU 0 instructions: 203501069 cycles: 71907121 heartbeat IPC: 2.494 cumulative IPC: 2.494 (Simulation time: 00 hr 18 min 33 sec)
Heartbeat CPU 0 instructions: 204001070 cycles: 72105520 heartbeat IPC: 2.52 cumulative IPC: 2.494 (Simulation time: 00 hr 18 min 36 sec)
Heartbeat CPU 0 instructions: 204501077 cycles: 72303718 heartbeat IPC: 2.523 cumulative IPC: 2.495 (Simulation time: 00 hr 18 min 39 sec)
Heartbeat CPU 0 instructions: 205001083 cycles: 72502666 heartbeat IPC: 2.513 cumulative IPC: 2.495 (Simulation time: 00 hr 18 min 42 sec)
Heartbeat CPU 0 instructions: 205501084 cycles: 72702081 heartbeat IPC: 2.507 cumulative IPC: 2.495 (Simulation time: 00 hr 18 min 45 sec)
Heartbeat CPU 0 instructions: 206001091 cycles: 72900610 heartbeat IPC: 2.519 cumulative IPC: 2.495 (Simulation time: 00 hr 18 min 48 sec)
Heartbeat CPU 0 instructions: 206501092 cycles: 73104200 heartbeat IPC: 2.456 cumulative IPC: 2.495 (Simulation time: 00 hr 18 min 51 sec)
Heartbeat CPU 0 instructions: 207001099 cycles: 73303103 heartbeat IPC: 2.514 cumulative IPC: 2.495 (Simulation time: 00 hr 18 min 54 sec)
Heartbeat CPU 0 instructions: 207501104 cycles: 73501289 heartbeat IPC: 2.523 cumulative IPC: 2.495 (Simulation time: 00 hr 18 min 57 sec)
Heartbeat CPU 0 instructions: 208001105 cycles: 73698449 heartbeat IPC: 2.536 cumulative IPC: 2.495 (Simulation time: 00 hr 19 min 00 sec)
Heartbeat CPU 0 instructions: 208501105 cycles: 73901640 heartbeat IPC: 2.461 cumulative IPC: 2.495 (Simulation time: 00 hr 19 min 03 sec)
Heartbeat CPU 0 instructions: 209001105 cycles: 74098546 heartbeat IPC: 2.539 cumulative IPC: 2.495 (Simulation time: 00 hr 19 min 06 sec)
Heartbeat CPU 0 instructions: 209501105 cycles: 74294318 heartbeat IPC: 2.554 cumulative IPC: 2.495 (Simulation time: 00 hr 19 min 09 sec)
Heartbeat CPU 0 instructions: 210001111 cycles: 74493388 heartbeat IPC: 2.512 cumulative IPC: 2.495 (Simulation time: 00 hr 19 min 12 sec)
Heartbeat CPU 0 instructions: 210501111 cycles: 74693833 heartbeat IPC: 2.494 cumulative IPC: 2.495 (Simulation time: 00 hr 19 min 15 sec)
Heartbeat CPU 0 instructions: 211001111 cycles: 74894079 heartbeat IPC: 2.497 cumulative IPC: 2.495 (Simulation time: 00 hr 19 min 18 sec)
Heartbeat CPU 0 instructions: 211501113 cycles: 75091248 heartbeat IPC: 2.536 cumulative IPC: 2.495 (Simulation time: 00 hr 19 min 21 sec)
Heartbeat CPU 0 instructions: 212001117 cycles: 75289642 heartbeat IPC: 2.52 cumulative IPC: 2.495 (Simulation time: 00 hr 19 min 24 sec)
Heartbeat CPU 0 instructions: 212501117 cycles: 75489606 heartbeat IPC: 2.5 cumulative IPC: 2.495 (Simulation time: 00 hr 19 min 27 sec)
Heartbeat CPU 0 instructions: 213001119 cycles: 75690930 heartbeat IPC: 2.484 cumulative IPC: 2.495 (Simulation time: 00 hr 19 min 30 sec)
Heartbeat CPU 0 instructions: 213501123 cycles: 75888896 heartbeat IPC: 2.526 cumulative IPC: 2.495 (Simulation time: 00 hr 19 min 33 sec)
Heartbeat CPU 0 instructions: 214001126 cycles: 76086826 heartbeat IPC: 2.526 cumulative IPC: 2.495 (Simulation time: 00 hr 19 min 36 sec)
Heartbeat CPU 0 instructions: 214501126 cycles: 76287472 heartbeat IPC: 2.492 cumulative IPC: 2.495 (Simulation time: 00 hr 19 min 39 sec)
Heartbeat CPU 0 instructions: 215001129 cycles: 76485969 heartbeat IPC: 2.519 cumulative IPC: 2.496 (Simulation time: 00 hr 19 min 42 sec)
Heartbeat CPU 0 instructions: 215501132 cycles: 76684518 heartbeat IPC: 2.518 cumulative IPC: 2.496 (Simulation time: 00 hr 19 min 45 sec)
Heartbeat CPU 0 instructions: 216001132 cycles: 76884881 heartbeat IPC: 2.495 cumulative IPC: 2.496 (Simulation time: 00 hr 19 min 48 sec)
Heartbeat CPU 0 instructions: 216501132 cycles: 77084063 heartbeat IPC: 2.51 cumulative IPC: 2.496 (Simulation time: 00 hr 19 min 51 sec)
Heartbeat CPU 0 instructions: 217001132 cycles: 77282040 heartbeat IPC: 2.526 cumulative IPC: 2.496 (Simulation time: 00 hr 19 min 54 sec)
Heartbeat CPU 0 instructions: 217501138 cycles: 77479528 heartbeat IPC: 2.532 cumulative IPC: 2.496 (Simulation time: 00 hr 19 min 57 sec)
Heartbeat CPU 0 instructions: 218001138 cycles: 77676687 heartbeat IPC: 2.536 cumulative IPC: 2.496 (Simulation time: 00 hr 20 min 00 sec)
Heartbeat CPU 0 instructions: 218501138 cycles: 77876260 heartbeat IPC: 2.505 cumulative IPC: 2.496 (Simulation time: 00 hr 20 min 02 sec)
Heartbeat CPU 0 instructions: 219001140 cycles: 78075004 heartbeat IPC: 2.516 cumulative IPC: 2.496 (Simulation time: 00 hr 20 min 05 sec)
Heartbeat CPU 0 instructions: 219501141 cycles: 78272556 heartbeat IPC: 2.531 cumulative IPC: 2.496 (Simulation time: 00 hr 20 min 08 sec)
Heartbeat CPU 0 instructions: 220001141 cycles: 78472481 heartbeat IPC: 2.501 cumulative IPC: 2.496 (Simulation time: 00 hr 20 min 11 sec)
Heartbeat CPU 0 instructions: 220501142 cycles: 78671176 heartbeat IPC: 2.516 cumulative IPC: 2.496 (Simulation time: 00 hr 20 min 14 sec)
Heartbeat CPU 0 instructions: 221001145 cycles: 78869398 heartbeat IPC: 2.522 cumulative IPC: 2.496 (Simulation time: 00 hr 20 min 17 sec)
Heartbeat CPU 0 instructions: 221501145 cycles: 79067994 heartbeat IPC: 2.518 cumulative IPC: 2.496 (Simulation time: 00 hr 20 min 20 sec)
Heartbeat CPU 0 instructions: 222001146 cycles: 79264657 heartbeat IPC: 2.542 cumulative IPC: 2.497 (Simulation time: 00 hr 20 min 23 sec)
Heartbeat CPU 0 instructions: 222501151 cycles: 79462989 heartbeat IPC: 2.521 cumulative IPC: 2.497 (Simulation time: 00 hr 20 min 26 sec)
Heartbeat CPU 0 instructions: 223001151 cycles: 79662839 heartbeat IPC: 2.502 cumulative IPC: 2.497 (Simulation time: 00 hr 20 min 29 sec)
Heartbeat CPU 0 instructions: 223501151 cycles: 79862538 heartbeat IPC: 2.504 cumulative IPC: 2.497 (Simulation time: 00 hr 20 min 32 sec)
Heartbeat CPU 0 instructions: 224001151 cycles: 80065036 heartbeat IPC: 2.469 cumulative IPC: 2.497 (Simulation time: 00 hr 20 min 35 sec)
Heartbeat CPU 0 instructions: 224501154 cycles: 80261522 heartbeat IPC: 2.545 cumulative IPC: 2.497 (Simulation time: 00 hr 20 min 38 sec)
Heartbeat CPU 0 instructions: 225001157 cycles: 80462291 heartbeat IPC: 2.49 cumulative IPC: 2.497 (Simulation time: 00 hr 20 min 41 sec)
Heartbeat CPU 0 instructions: 225501157 cycles: 80665853 heartbeat IPC: 2.456 cumulative IPC: 2.497 (Simulation time: 00 hr 20 min 44 sec)
Heartbeat CPU 0 instructions: 226001159 cycles: 80863120 heartbeat IPC: 2.535 cumulative IPC: 2.497 (Simulation time: 00 hr 20 min 47 sec)
Heartbeat CPU 0 instructions: 226501163 cycles: 81065677 heartbeat IPC: 2.468 cumulative IPC: 2.497 (Simulation time: 00 hr 20 min 50 sec)
Heartbeat CPU 0 instructions: 227001169 cycles: 81265432 heartbeat IPC: 2.503 cumulative IPC: 2.497 (Simulation time: 00 hr 20 min 53 sec)
Heartbeat CPU 0 instructions: 227501170 cycles: 81466085 heartbeat IPC: 2.492 cumulative IPC: 2.497 (Simulation time: 00 hr 20 min 56 sec)
Heartbeat CPU 0 instructions: 228001177 cycles: 81667080 heartbeat IPC: 2.488 cumulative IPC: 2.497 (Simulation time: 00 hr 20 min 58 sec)
Heartbeat CPU 0 instructions: 228501178 cycles: 81866720 heartbeat IPC: 2.505 cumulative IPC: 2.497 (Simulation time: 00 hr 21 min 01 sec)
Heartbeat CPU 0 instructions: 229001185 cycles: 82066482 heartbeat IPC: 2.503 cumulative IPC: 2.497 (Simulation time: 00 hr 21 min 04 sec)
Heartbeat CPU 0 instructions: 229501191 cycles: 82267321 heartbeat IPC: 2.49 cumulative IPC: 2.497 (Simulation time: 00 hr 21 min 07 sec)
Heartbeat CPU 0 instructions: 230001192 cycles: 82464141 heartbeat IPC: 2.54 cumulative IPC: 2.497 (Simulation time: 00 hr 21 min 10 sec)
Heartbeat CPU 0 instructions: 230501199 cycles: 82660840 heartbeat IPC: 2.542 cumulative IPC: 2.497 (Simulation time: 00 hr 21 min 13 sec)
Heartbeat CPU 0 instructions: 231001199 cycles: 82859477 heartbeat IPC: 2.517 cumulative IPC: 2.497 (Simulation time: 00 hr 21 min 16 sec)
Heartbeat CPU 0 instructions: 231501199 cycles: 83059252 heartbeat IPC: 2.503 cumulative IPC: 2.497 (Simulation time: 00 hr 21 min 19 sec)
Heartbeat CPU 0 instructions: 232001205 cycles: 83256625 heartbeat IPC: 2.533 cumulative IPC: 2.497 (Simulation time: 00 hr 21 min 22 sec)
Heartbeat CPU 0 instructions: 232501206 cycles: 83457188 heartbeat IPC: 2.493 cumulative IPC: 2.497 (Simulation time: 00 hr 21 min 25 sec)
Heartbeat CPU 0 instructions: 233001213 cycles: 83656354 heartbeat IPC: 2.511 cumulative IPC: 2.497 (Simulation time: 00 hr 21 min 28 sec)
Heartbeat CPU 0 instructions: 233501213 cycles: 83855412 heartbeat IPC: 2.512 cumulative IPC: 2.497 (Simulation time: 00 hr 21 min 31 sec)
Heartbeat CPU 0 instructions: 234001213 cycles: 84056906 heartbeat IPC: 2.481 cumulative IPC: 2.497 (Simulation time: 00 hr 21 min 34 sec)
Heartbeat CPU 0 instructions: 234501219 cycles: 84255422 heartbeat IPC: 2.519 cumulative IPC: 2.497 (Simulation time: 00 hr 21 min 37 sec)
Heartbeat CPU 0 instructions: 235001220 cycles: 84451192 heartbeat IPC: 2.554 cumulative IPC: 2.497 (Simulation time: 00 hr 21 min 39 sec)
Heartbeat CPU 0 instructions: 235501227 cycles: 84649347 heartbeat IPC: 2.523 cumulative IPC: 2.497 (Simulation time: 00 hr 21 min 42 sec)
Heartbeat CPU 0 instructions: 236001227 cycles: 84850783 heartbeat IPC: 2.482 cumulative IPC: 2.497 (Simulation time: 00 hr 21 min 45 sec)
Heartbeat CPU 0 instructions: 236501227 cycles: 85051728 heartbeat IPC: 2.488 cumulative IPC: 2.497 (Simulation time: 00 hr 21 min 48 sec)
Heartbeat CPU 0 instructions: 237001233 cycles: 85249404 heartbeat IPC: 2.529 cumulative IPC: 2.497 (Simulation time: 00 hr 21 min 51 sec)
Heartbeat CPU 0 instructions: 237501234 cycles: 85447928 heartbeat IPC: 2.519 cumulative IPC: 2.497 (Simulation time: 00 hr 21 min 54 sec)
Heartbeat CPU 0 instructions: 238001241 cycles: 85648784 heartbeat IPC: 2.489 cumulative IPC: 2.497 (Simulation time: 00 hr 21 min 57 sec)
Heartbeat CPU 0 instructions: 238501241 cycles: 85849149 heartbeat IPC: 2.495 cumulative IPC: 2.497 (Simulation time: 00 hr 22 min 00 sec)
Heartbeat CPU 0 instructions: 239001243 cycles: 86048320 heartbeat IPC: 2.51 cumulative IPC: 2.497 (Simulation time: 00 hr 22 min 03 sec)
Heartbeat CPU 0 instructions: 239501247 cycles: 86247568 heartbeat IPC: 2.509 cumulative IPC: 2.497 (Simulation time: 00 hr 22 min 06 sec)
Heartbeat CPU 0 instructions: 240001248 cycles: 86450403 heartbeat IPC: 2.465 cumulative IPC: 2.497 (Simulation time: 00 hr 22 min 09 sec)
Heartbeat CPU 0 instructions: 240501249 cycles: 86648348 heartbeat IPC: 2.526 cumulative IPC: 2.497 (Simulation time: 00 hr 22 min 11 sec)
Heartbeat CPU 0 instructions: 241001253 cycles: 86848091 heartbeat IPC: 2.503 cumulative IPC: 2.497 (Simulation time: 00 hr 22 min 14 sec)
Heartbeat CPU 0 instructions: 241501256 cycles: 87048825 heartbeat IPC: 2.491 cumulative IPC: 2.497 (Simulation time: 00 hr 22 min 17 sec)
Heartbeat CPU 0 instructions: 242001258 cycles: 87248373 heartbeat IPC: 2.506 cumulative IPC: 2.497 (Simulation time: 00 hr 22 min 20 sec)
Heartbeat CPU 0 instructions: 242501259 cycles: 87448058 heartbeat IPC: 2.504 cumulative IPC: 2.497 (Simulation time: 00 hr 22 min 23 sec)
Heartbeat CPU 0 instructions: 243001262 cycles: 87647175 heartbeat IPC: 2.511 cumulative IPC: 2.497 (Simulation time: 00 hr 22 min 26 sec)
Heartbeat CPU 0 instructions: 243501262 cycles: 87843871 heartbeat IPC: 2.542 cumulative IPC: 2.498 (Simulation time: 00 hr 22 min 29 sec)
Heartbeat CPU 0 instructions: 244001262 cycles: 88040949 heartbeat IPC: 2.537 cumulative IPC: 2.498 (Simulation time: 00 hr 22 min 32 sec)
Heartbeat CPU 0 instructions: 244501268 cycles: 88245094 heartbeat IPC: 2.449 cumulative IPC: 2.498 (Simulation time: 00 hr 22 min 35 sec)
Heartbeat CPU 0 instructions: 245001268 cycles: 88444473 heartbeat IPC: 2.508 cumulative IPC: 2.498 (Simulation time: 00 hr 22 min 38 sec)
Heartbeat CPU 0 instructions: 245501270 cycles: 88641946 heartbeat IPC: 2.532 cumulative IPC: 2.498 (Simulation time: 00 hr 22 min 40 sec)
Heartbeat CPU 0 instructions: 246001274 cycles: 88841551 heartbeat IPC: 2.505 cumulative IPC: 2.498 (Simulation time: 00 hr 22 min 43 sec)
Heartbeat CPU 0 instructions: 246501277 cycles: 89042914 heartbeat IPC: 2.483 cumulative IPC: 2.498 (Simulation time: 00 hr 22 min 46 sec)
Heartbeat CPU 0 instructions: 247001279 cycles: 89241958 heartbeat IPC: 2.512 cumulative IPC: 2.498 (Simulation time: 00 hr 22 min 49 sec)
Heartbeat CPU 0 instructions: 247501280 cycles: 89440620 heartbeat IPC: 2.517 cumulative IPC: 2.498 (Simulation time: 00 hr 22 min 52 sec)
Heartbeat CPU 0 instructions: 248001283 cycles: 89640142 heartbeat IPC: 2.506 cumulative IPC: 2.498 (Simulation time: 00 hr 22 min 55 sec)
Heartbeat CPU 0 instructions: 248501283 cycles: 89840558 heartbeat IPC: 2.495 cumulative IPC: 2.498 (Simulation time: 00 hr 22 min 58 sec)
Heartbeat CPU 0 instructions: 249001283 cycles: 90039310 heartbeat IPC: 2.516 cumulative IPC: 2.498 (Simulation time: 00 hr 23 min 01 sec)
Heartbeat CPU 0 instructions: 249501289 cycles: 90237483 heartbeat IPC: 2.523 cumulative IPC: 2.498 (Simulation time: 00 hr 23 min 03 sec)
Simulation finished CPU 0 instructions: 200000005 cycles: 80069417 cumulative IPC: 2.498 (Simulation time: 00 hr 23 min 06 sec)
Simulation complete CPU 0 instructions: 200000005 cycles: 80069417 cumulative IPC: 2.498 (Simulation time: 00 hr 23 min 06 sec)

ChampSim completed all CPUs

=== Simulation ===
CPU 0 runs /local-ssd/ben/dpc4-traces/SPEC17/603.bwaves_s-1740B.champsimtrace.xz

Region of Interest Statistics

CPU 0 cumulative IPC: 2.498 instructions: 200000005 cycles: 80069417
CPU 0 Branch Prediction Accuracy: 81.23% MPKI: 4.685 Average ROB Occupancy at Mispredict: 258.6
Branch type MPKI
BRANCH_DIRECT_JUMP: 0
BRANCH_INDIRECT: 0
BRANCH_CONDITIONAL: 4.685
BRANCH_DIRECT_CALL: 0
BRANCH_INDIRECT_CALL: 0
BRANCH_RETURN: 0

cpu0->cpu0_STLB TOTAL        ACCESS:     297159 HIT:     237763 MISS:      59396 MSHR_MERGE:          0
cpu0->cpu0_STLB LOAD         ACCESS:     297159 HIT:     237763 MISS:      59396 MSHR_MERGE:          0
cpu0->cpu0_STLB RFO          ACCESS:          0 HIT:          0 MISS:          0 MSHR_MERGE:          0
cpu0->cpu0_STLB PREFETCH     ACCESS:          0 HIT:          0 MISS:          0 MSHR_MERGE:          0
cpu0->cpu0_STLB WRITE        ACCESS:          0 HIT:          0 MISS:          0 MSHR_MERGE:          0
cpu0->cpu0_STLB TRANSLATION  ACCESS:          0 HIT:          0 MISS:          0 MSHR_MERGE:          0
cpu0->cpu0_STLB PREFETCH REQUESTED:          0 ISSUED:          0 USEFUL:          0 USELESS:          0
cpu0->cpu0_STLB AVERAGE MISS LATENCY: 245.9 cycles
cpu0->cpu0_L2C TOTAL        ACCESS:   16006153 HIT:   11281596 MISS:    4724557 MSHR_MERGE:     916109
cpu0->cpu0_L2C LOAD         ACCESS:    1234888 HIT:    1065702 MISS:     169186 MSHR_MERGE:      50704
cpu0->cpu0_L2C RFO          ACCESS:      97449 HIT:          0 MISS:      97449 MSHR_MERGE:          0
cpu0->cpu0_L2C PREFETCH     ACCESS:   14555952 HIT:   10105582 MISS:    4450370 MSHR_MERGE:     865405
cpu0->cpu0_L2C WRITE        ACCESS:      98900 HIT:      98900 MISS:          0 MSHR_MERGE:          0
cpu0->cpu0_L2C TRANSLATION  ACCESS:      18964 HIT:      11412 MISS:       7552 MSHR_MERGE:          0
cpu0->cpu0_L2C PREFETCH REQUESTED:   18293940 ISSUED:   11888792 USEFUL:    3305170 USELESS:     115371
cpu0->cpu0_L2C AVERAGE MISS LATENCY: 319.3 cycles
cpu0->cpu0_L1I TOTAL        ACCESS:   17943609 HIT:   17943609 MISS:          0 MSHR_MERGE:          0
cpu0->cpu0_L1I LOAD         ACCESS:   17943609 HIT:   17943609 MISS:          0 MSHR_MERGE:          0
cpu0->cpu0_L1I RFO          ACCESS:          0 HIT:          0 MISS:          0 MSHR_MERGE:          0
cpu0->cpu0_L1I PREFETCH     ACCESS:          0 HIT:          0 MISS:          0 MSHR_MERGE:          0
cpu0->cpu0_L1I WRITE        ACCESS:          0 HIT:          0 MISS:          0 MSHR_MERGE:          0
cpu0->cpu0_L1I TRANSLATION  ACCESS:          0 HIT:          0 MISS:          0 MSHR_MERGE:          0
cpu0->cpu0_L1I PREFETCH REQUESTED:          0 ISSUED:          0 USEFUL:          0 USELESS:          0
cpu0->cpu0_L1I AVERAGE MISS LATENCY: - cycles
cpu0->cpu0_L1D TOTAL        ACCESS:   62158328 HIT:   57403902 MISS:    4754426 MSHR_MERGE:     735978
cpu0->cpu0_L1D LOAD         ACCESS:   47813983 HIT:   46498760 MISS:    1315223 MSHR_MERGE:      80335
cpu0->cpu0_L1D RFO          ACCESS:          0 HIT:          0 MISS:          0 MSHR_MERGE:          0
cpu0->cpu0_L1D PREFETCH     ACCESS:    2958614 HIT:     256453 MISS:    2702161 MSHR_MERGE:      35014
cpu0->cpu0_L1D WRITE        ACCESS:   11266825 HIT:   10548747 MISS:     718078 MSHR_MERGE:     620629
cpu0->cpu0_L1D TRANSLATION  ACCESS:     118906 HIT:      99942 MISS:      18964 MSHR_MERGE:          0
cpu0->cpu0_L1D PREFETCH REQUESTED:    3893525 ISSUED:    2958606 USEFUL:    2665986 USELESS:       1150
cpu0->cpu0_L1D AVERAGE MISS LATENCY: 76.85 cycles
cpu0->cpu0_ITLB TOTAL        ACCESS:   10924435 HIT:   10924435 MISS:          0 MSHR_MERGE:          0
cpu0->cpu0_ITLB LOAD         ACCESS:   10924435 HIT:   10924435 MISS:          0 MSHR_MERGE:          0
cpu0->cpu0_ITLB RFO          ACCESS:          0 HIT:          0 MISS:          0 MSHR_MERGE:          0
cpu0->cpu0_ITLB PREFETCH     ACCESS:          0 HIT:          0 MISS:          0 MSHR_MERGE:          0
cpu0->cpu0_ITLB WRITE        ACCESS:          0 HIT:          0 MISS:          0 MSHR_MERGE:          0
cpu0->cpu0_ITLB TRANSLATION  ACCESS:          0 HIT:          0 MISS:          0 MSHR_MERGE:          0
cpu0->cpu0_ITLB PREFETCH REQUESTED:          0 ISSUED:          0 USEFUL:          0 USELESS:          0
cpu0->cpu0_ITLB AVERAGE MISS LATENCY: - cycles
cpu0->cpu0_DTLB TOTAL        ACCESS:   59408866 HIT:   59023843 MISS:     385023 MSHR_MERGE:      87864
cpu0->cpu0_DTLB LOAD         ACCESS:   59408866 HIT:   59023843 MISS:     385023 MSHR_MERGE:      87864
cpu0->cpu0_DTLB RFO          ACCESS:          0 HIT:          0 MISS:          0 MSHR_MERGE:          0
cpu0->cpu0_DTLB PREFETCH     ACCESS:          0 HIT:          0 MISS:          0 MSHR_MERGE:          0
cpu0->cpu0_DTLB WRITE        ACCESS:          0 HIT:          0 MISS:          0 MSHR_MERGE:          0
cpu0->cpu0_DTLB TRANSLATION  ACCESS:          0 HIT:          0 MISS:          0 MSHR_MERGE:          0
cpu0->cpu0_DTLB PREFETCH REQUESTED:          0 ISSUED:          0 USEFUL:          0 USELESS:          0
cpu0->cpu0_DTLB AVERAGE MISS LATENCY: 54.36 cycles
cpu0->LLC TOTAL        ACCESS:    7493015 HIT:    3109254 MISS:    4383761 MSHR_MERGE:     461629
cpu0->LLC LOAD         ACCESS:     118482 HIT:      28430 MISS:      90052 MSHR_MERGE:       3963
cpu0->LLC RFO          ACCESS:      97449 HIT:          0 MISS:      97449 MSHR_MERGE:          0
cpu0->LLC PREFETCH     ACCESS:    7171973 HIT:    3071026 MISS:    4100947 MSHR_MERGE:     457666
cpu0->LLC WRITE        ACCESS:      97559 HIT:       9798 MISS:      87761 MSHR_MERGE:          0
cpu0->LLC TRANSLATION  ACCESS:       7552 HIT:          0 MISS:       7552 MSHR_MERGE:          0
cpu0->LLC PREFETCH REQUESTED:   18104488 ISSUED:    3587008 USEFUL:    2994178 USELESS:     260747
cpu0->LLC AVERAGE MISS LATENCY: 235.4 cycles

DRAM Statistics

Channel 0 RQ ROW_BUFFER_HIT:      13512
  ROW_BUFFER_MISS:    3820858
  AVG DBUS CONGESTED CYCLE: 4.665
Channel 0 WQ ROW_BUFFER_HIT:      18833
  ROW_BUFFER_MISS:      78888
  FULL:          0
Channel 0 REFRESHES ISSUED:       6672
