[VMEM] WARNING: physical memory size is smaller than virtual memory size.

*** ChampSim Multicore Out-of-Order Simulator ***
Warmup Instructions: 50000000
Simulation Instructions: 200000000
Number of CPUs: 1
Page size: 4096
Core 0: /local-ssd/ben/dpc4-traces/SPEC17/620.omnetpp_s-874B.champsimtrace.xz
 L1D Berti prefetcher
Off-chip DRAM Size: 64 GiB Channels: 1 Width: 64-bit Data Rate: 4807 MT/s
Heartbeat CPU 0 instructions: 500001 cycles: 216709 heartbeat IPC: 2.307 cumulative IPC: 2.307 (Simulation time: 00 hr 00 min 04 sec)
Heartbeat CPU 0 instructions: 1000003 cycles: 408683 heartbeat IPC: 2.605 cumulative IPC: 2.447 (Simulation time: 00 hr 00 min 07 sec)
Heartbeat CPU 0 instructions: 1500005 cycles: 588747 heartbeat IPC: 2.777 cumulative IPC: 2.548 (Simulation time: 00 hr 00 min 11 sec)
Heartbeat CPU 0 instructions: 2000008 cycles: 744584 heartbeat IPC: 3.208 cumulative IPC: 2.686 (Simulation time: 00 hr 00 min 13 sec)
Heartbeat CPU 0 instructions: 2500010 cycles: 915858 heartbeat IPC: 2.919 cumulative IPC: 2.73 (Simulation time: 00 hr 00 min 17 sec)
Heartbeat CPU 0 instructions: 3000010 cycles: 1084012 heartbeat IPC: 2.973 cumulative IPC: 2.768 (Simulation time: 00 hr 00 min 20 sec)
Heartbeat CPU 0 instructions: 3500013 cycles: 1260015 heartbeat IPC: 2.841 cumulative IPC: 2.778 (Simulation time: 00 hr 00 min 23 sec)
Heartbeat CPU 0 instructions: 4000018 cycles: 1434107 heartbeat IPC: 2.872 cumulative IPC: 2.789 (Simulation time: 00 hr 00 min 26 sec)
Heartbeat CPU 0 instructions: 4500018 cycles: 1602899 heartbeat IPC: 2.962 cumulative IPC: 2.807 (Simulation time: 00 hr 00 min 29 sec)
Heartbeat CPU 0 instructions: 5000019 cycles: 1763924 heartbeat IPC: 3.105 cumulative IPC: 2.835 (Simulation time: 00 hr 00 min 32 sec)
Heartbeat CPU 0 instructions: 5500025 cycles: 1931221 heartbeat IPC: 2.989 cumulative IPC: 2.848 (Simulation time: 00 hr 00 min 35 sec)
Heartbeat CPU 0 instructions: 6000028 cycles: 2096650 heartbeat IPC: 3.022 cumulative IPC: 2.862 (Simulation time: 00 hr 00 min 38 sec)
Heartbeat CPU 0 instructions: 6500030 cycles: 2273631 heartbeat IPC: 2.825 cumulative IPC: 2.859 (Simulation time: 00 hr 00 min 41 sec)
Heartbeat CPU 0 instructions: 7000032 cycles: 2443527 heartbeat IPC: 2.943 cumulative IPC: 2.865 (Simulation time: 00 hr 00 min 44 sec)
Heartbeat CPU 0 instructions: 7500035 cycles: 2595672 heartbeat IPC: 3.286 cumulative IPC: 2.889 (Simulation time: 00 hr 00 min 47 sec)
Heartbeat CPU 0 instructions: 8000039 cycles: 2750155 heartbeat IPC: 3.237 cumulative IPC: 2.909 (Simulation time: 00 hr 00 min 50 sec)
Heartbeat CPU 0 instructions: 8500045 cycles: 2904382 heartbeat IPC: 3.242 cumulative IPC: 2.927 (Simulation time: 00 hr 00 min 53 sec)
Heartbeat CPU 0 instructions: 9000045 cycles: 3076988 heartbeat IPC: 2.897 cumulative IPC: 2.925 (Simulation time: 00 hr 00 min 56 sec)
Heartbeat CPU 0 instructions: 9500049 cycles: 3227176 heartbeat IPC: 3.329 cumulative IPC: 2.944 (Simulation time: 00 hr 00 min 59 sec)
Heartbeat CPU 0 instructions: 10000054 cycles: 3390637 heartbeat IPC: 3.059 cumulative IPC: 2.949 (Simulation time: 00 hr 01 min 02 sec)
Heartbeat CPU 0 instructions: 10500060 cycles: 3544179 heartbeat IPC: 3.256 cumulative IPC: 2.963 (Simulation time: 00 hr 01 min 05 sec)
Heartbeat CPU 0 instructions: 11000061 cycles: 3701064 heartbeat IPC: 3.187 cumulative IPC: 2.972 (Simulation time: 00 hr 01 min 08 sec)
Heartbeat CPU 0 instructions: 11500068 cycles: 3855197 heartbeat IPC: 3.244 cumulative IPC: 2.983 (Simulation time: 00 hr 01 min 11 sec)
Heartbeat CPU 0 instructions: 12000074 cycles: 4018543 heartbeat IPC: 3.061 cumulative IPC: 2.986 (Simulation time: 00 hr 01 min 14 sec)
Heartbeat CPU 0 instructions: 12500076 cycles: 4167736 heartbeat IPC: 3.351 cumulative IPC: 2.999 (Simulation time: 00 hr 01 min 16 sec)
Heartbeat CPU 0 instructions: 13000081 cycles: 4332027 heartbeat IPC: 3.043 cumulative IPC: 3.001 (Simulation time: 00 hr 01 min 20 sec)
Heartbeat CPU 0 instructions: 13500085 cycles: 4490931 heartbeat IPC: 3.147 cumulative IPC: 3.006 (Simulation time: 00 hr 01 min 22 sec)
Heartbeat CPU 0 instructions: 14000091 cycles: 4661640 heartbeat IPC: 2.929 cumulative IPC: 3.003 (Simulation time: 00 hr 01 min 26 sec)
Heartbeat CPU 0 instructions: 14500094 cycles: 4818704 heartbeat IPC: 3.183 cumulative IPC: 3.009 (Simulation time: 00 hr 01 min 29 sec)
Heartbeat CPU 0 instructions: 15000098 cycles: 4966206 heartbeat IPC: 3.39 cumulative IPC: 3.02 (Simulation time: 00 hr 01 min 31 sec)
Heartbeat CPU 0 instructions: 15500099 cycles: 5132946 heartbeat IPC: 2.999 cumulative IPC: 3.02 (Simulation time: 00 hr 01 min 34 sec)
Heartbeat CPU 0 instructions: 16000106 cycles: 5268465 heartbeat IPC: 3.69 cumulative IPC: 3.037 (Simulation time: 00 hr 01 min 37 sec)
Heartbeat CPU 0 instructions: 16500109 cycles: 5419359 heartbeat IPC: 3.314 cumulative IPC: 3.045 (Simulation time: 00 hr 01 min 40 sec)
Heartbeat CPU 0 instructions: 17000113 cycles: 5574346 heartbeat IPC: 3.226 cumulative IPC: 3.05 (Simulation time: 00 hr 01 min 43 sec)
Heartbeat CPU 0 instructions: 17500116 cycles: 5735012 heartbeat IPC: 3.112 cumulative IPC: 3.051 (Simulation time: 00 hr 01 min 46 sec)
Heartbeat CPU 0 instructions: 18000119 cycles: 5884716 heartbeat IPC: 3.34 cumulative IPC: 3.059 (Simulation time: 00 hr 01 min 49 sec)
Heartbeat CPU 0 instructions: 18500123 cycles: 6051475 heartbeat IPC: 2.998 cumulative IPC: 3.057 (Simulation time: 00 hr 01 min 52 sec)
Heartbeat CPU 0 instructions: 19000130 cycles: 6188122 heartbeat IPC: 3.659 cumulative IPC: 3.07 (Simulation time: 00 hr 01 min 54 sec)
Heartbeat CPU 0 instructions: 19500137 cycles: 6349375 heartbeat IPC: 3.101 cumulative IPC: 3.071 (Simulation time: 00 hr 01 min 58 sec)
Heartbeat CPU 0 instructions: 20000143 cycles: 6504715 heartbeat IPC: 3.219 cumulative IPC: 3.075 (Simulation time: 00 hr 02 min 01 sec)
Heartbeat CPU 0 instructions: 20500144 cycles: 6646874 heartbeat IPC: 3.517 cumulative IPC: 3.084 (Simulation time: 00 hr 02 min 03 sec)
Heartbeat CPU 0 instructions: 21000145 cycles: 6802418 heartbeat IPC: 3.215 cumulative IPC: 3.087 (Simulation time: 00 hr 02 min 06 sec)
Heartbeat CPU 0 instructions: 21500152 cycles: 6961376 heartbeat IPC: 3.146 cumulative IPC: 3.088 (Simulation time: 00 hr 02 min 09 sec)
Heartbeat CPU 0 instructions: 22000153 cycles: 7097581 heartbeat IPC: 3.671 cumulative IPC: 3.1 (Simulation time: 00 hr 02 min 12 sec)
Heartbeat CPU 0 instructions: 22500154 cycles: 7260380 heartbeat IPC: 3.071 cumulative IPC: 3.099 (Simulation time: 00 hr 02 min 15 sec)
Heartbeat CPU 0 instructions: 23000160 cycles: 7409357 heartbeat IPC: 3.356 cumulative IPC: 3.104 (Simulation time: 00 hr 02 min 18 sec)
Heartbeat CPU 0 instructions: 23500160 cycles: 7543486 heartbeat IPC: 3.728 cumulative IPC: 3.115 (Simulation time: 00 hr 02 min 20 sec)
Heartbeat CPU 0 instructions: 24000167 cycles: 7701083 heartbeat IPC: 3.173 cumulative IPC: 3.116 (Simulation time: 00 hr 02 min 23 sec)
Heartbeat CPU 0 instructions: 24500170 cycles: 7841877 heartbeat IPC: 3.551 cumulative IPC: 3.124 (Simulation time: 00 hr 02 min 26 sec)
Heartbeat CPU 0 instructions: 25000176 cycles: 7982416 heartbeat IPC: 3.558 cumulative IPC: 3.132 (Simulation time: 00 hr 02 min 29 sec)
Heartbeat CPU 0 instructions: 25500180 cycles: 8149478 heartbeat IPC: 2.993 cumulative IPC: 3.129 (Simulation time: 00 hr 02 min 32 sec)
Heartbeat CPU 0 instructions: 26000180 cycles: 8292781 heartbeat IPC: 3.489 cumulative IPC: 3.135 (Simulation time: 00 hr 02 min 35 sec)
Heartbeat CPU 0 instructions: 26500180 cycles: 8436730 heartbeat IPC: 3.473 cumulative IPC: 3.141 (Simulation time: 00 hr 02 min 37 sec)
Heartbeat CPU 0 instructions: 27000184 cycles: 8572013 heartbeat IPC: 3.696 cumulative IPC: 3.15 (Simulation time: 00 hr 02 min 40 sec)
Heartbeat CPU 0 instructions: 27500184 cycles: 8734307 heartbeat IPC: 3.081 cumulative IPC: 3.149 (Simulation time: 00 hr 02 min 43 sec)
Heartbeat CPU 0 instructions: 28000184 cycles: 8879707 heartbeat IPC: 3.439 cumulative IPC: 3.153 (Simulation time: 00 hr 02 min 46 sec)
Heartbeat CPU 0 instructions: 28500189 cycles: 9020973 heartbeat IPC: 3.539 cumulative IPC: 3.159 (Simulation time: 00 hr 02 min 49 sec)
Heartbeat CPU 0 instructions: 29000196 cycles: 9175264 heartbeat IPC: 3.241 cumulative IPC: 3.161 (Simulation time: 00 hr 02 min 52 sec)
Heartbeat CPU 0 instructions: 29500196 cycles: 9332811 heartbeat IPC: 3.174 cumulative IPC: 3.161 (Simulation time: 00 hr 02 min 55 sec)
Heartbeat CPU 0 instructions: 30000198 cycles: 9480286 heartbeat IPC: 3.39 cumulative IPC: 3.164 (Simulation time: 00 hr 02 min 58 sec)
Heartbeat CPU 0 instructions: 30500200 cycles: 9617911 heartbeat IPC: 3.633 cumulative IPC: 3.171 (Simulation time: 00 hr 03 min 00 sec)
Heartbeat CPU 0 instructions: 31000205 cycles: 9767476 heartbeat IPC: 3.343 cumulative IPC: 3.174 (Simulation time: 00 hr 03 min 03 sec)
Heartbeat CPU 0 instructions: 31500207 cycles: 9924388 heartbeat IPC: 3.187 cumulative IPC: 3.174 (Simulation time: 00 hr 03 min 06 sec)
Heartbeat CPU 0 instructions: 32000214 cycles: 10063404 heartbeat IPC: 3.597 cumulative IPC: 3.18 (Simulation time: 00 hr 03 min 09 sec)
Heartbeat CPU 0 instructions: 32500221 cycles: 10196811 heartbeat IPC: 3.748 cumulative IPC: 3.187 (Simulation time: 00 hr 03 min 11 sec)
Heartbeat CPU 0 instructions: 33000223 cycles: 10341263 heartbeat IPC: 3.461 cumulative IPC: 3.191 (Simulation time: 00 hr 03 min 14 sec)
Heartbeat CPU 0 instructions: 33500225 cycles: 10482715 heartbeat IPC: 3.535 cumulative IPC: 3.196 (Simulation time: 00 hr 03 min 17 sec)
Heartbeat CPU 0 instructions: 34000230 cycles: 10623401 heartbeat IPC: 3.554 cumulative IPC: 3.201 (Simulation time: 00 hr 03 min 20 sec)
Heartbeat CPU 0 instructions: 34500235 cycles: 10770027 heartbeat IPC: 3.41 cumulative IPC: 3.203 (Simulation time: 00 hr 03 min 23 sec)
Heartbeat CPU 0 instructions: 35000236 cycles: 10919631 heartbeat IPC: 3.342 cumulative IPC: 3.205 (Simulation time: 00 hr 03 min 26 sec)
Heartbeat CPU 0 instructions: 35500238 cycles: 11060995 heartbeat IPC: 3.537 cumulative IPC: 3.209 (Simulation time: 00 hr 03 min 28 sec)
Heartbeat CPU 0 instructions: 36000238 cycles: 11206774 heartbeat IPC: 3.43 cumulative IPC: 3.212 (Simulation time: 00 hr 03 min 31 sec)
Heartbeat CPU 0 instructions: 36500238 cycles: 11357111 heartbeat IPC: 3.326 cumulative IPC: 3.214 (Simulation time: 00 hr 03 min 34 sec)
Heartbeat CPU 0 instructions: 37000243 cycles: 11505081 heartbeat IPC: 3.379 cumulative IPC: 3.216 (Simulation time: 00 hr 03 min 37 sec)
Heartbeat CPU 0 instructions: 37500247 cycles: 11658972 heartbeat IPC: 3.249 cumulative IPC: 3.216 (Simulation time: 00 hr 03 min 40 sec)
Heartbeat CPU 0 instructions: 38000250 cycles: 11849929 heartbeat IPC: 2.618 cumulative IPC: 3.207 (Simulation time: 00 hr 03 min 43 sec)
Heartbeat CPU 0 instructions: 38500253 cycles: 12012486 heartbeat IPC: 3.076 cumulative IPC: 3.205 (Simulation time: 00 hr 03 min 47 sec)
Heartbeat CPU 0 instructions: 39000259 cycles: 12168721 heartbeat IPC: 3.2 cumulative IPC: 3.205 (Simulation time: 00 hr 03 min 50 sec)
Heartbeat CPU 0 instructions: 39500266 cycles: 12282796 heartbeat IPC: 4.383 cumulative IPC: 3.216 (Simulation time: 00 hr 03 min 52 sec)
Heartbeat CPU 0 instructions: 40000270 cycles: 12441159 heartbeat IPC: 3.157 cumulative IPC: 3.215 (Simulation time: 00 hr 03 min 55 sec)
Heartbeat CPU 0 instructions: 40500275 cycles: 12584591 heartbeat IPC: 3.486 cumulative IPC: 3.218 (Simulation time: 00 hr 03 min 58 sec)
Heartbeat CPU 0 instructions: 41000276 cycles: 12715083 heartbeat IPC: 3.832 cumulative IPC: 3.225 (Simulation time: 00 hr 04 min 00 sec)
Heartbeat CPU 0 instructions: 41500279 cycles: 12848840 heartbeat IPC: 3.738 cumulative IPC: 3.23 (Simulation time: 00 hr 04 min 03 sec)
Heartbeat CPU 0 instructions: 42000284 cycles: 13006359 heartbeat IPC: 3.174 cumulative IPC: 3.229 (Simulation time: 00 hr 04 min 06 sec)
Heartbeat CPU 0 instructions: 42500286 cycles: 13144742 heartbeat IPC: 3.613 cumulative IPC: 3.233 (Simulation time: 00 hr 04 min 09 sec)
Heartbeat CPU 0 instructions: 43000291 cycles: 13297110 heartbeat IPC: 3.282 cumulative IPC: 3.234 (Simulation time: 00 hr 04 min 12 sec)
Heartbeat CPU 0 instructions: 43500291 cycles: 13431719 heartbeat IPC: 3.714 cumulative IPC: 3.239 (Simulation time: 00 hr 04 min 14 sec)
Heartbeat CPU 0 instructions: 44000295 cycles: 13573297 heartbeat IPC: 3.532 cumulative IPC: 3.242 (Simulation time: 00 hr 04 min 17 sec)
Heartbeat CPU 0 instructions: 44500297 cycles: 13703432 heartbeat IPC: 3.842 cumulative IPC: 3.247 (Simulation time: 00 hr 04 min 20 sec)
Heartbeat CPU 0 instructions: 45000300 cycles: 13852658 heartbeat IPC: 3.351 cumulative IPC: 3.248 (Simulation time: 00 hr 04 min 23 sec)
Heartbeat CPU 0 instructions: 45500303 cycles: 13991361 heartbeat IPC: 3.605 cumulative IPC: 3.252 (Simulation time: 00 hr 04 min 26 sec)
Heartbeat CPU 0 instructions: 46000306 cycles: 14120690 heartbeat IPC: 3.866 cumulative IPC: 3.258 (Simulation time: 00 hr 04 min 28 sec)
Heartbeat CPU 0 instructions: 46500311 cycles: 14268251 heartbeat IPC: 3.388 cumulative IPC: 3.259 (Simulation time: 00 hr 04 min 31 sec)
Heartbeat CPU 0 instructions: 47000313 cycles: 14417369 heartbeat IPC: 3.353 cumulative IPC: 3.26 (Simulation time: 00 hr 04 min 34 sec)
Heartbeat CPU 0 instructions: 47500319 cycles: 14564396 heartbeat IPC: 3.401 cumulative IPC: 3.261 (Simulation time: 00 hr 04 min 37 sec)
Heartbeat CPU 0 instructions: 48000323 cycles: 14714041 heartbeat IPC: 3.341 cumulative IPC: 3.262 (Simulation time: 00 hr 04 min 40 sec)
Heartbeat CPU 0 instructions: 48500328 cycles: 14841657 heartbeat IPC: 3.918 cumulative IPC: 3.268 (Simulation time: 00 hr 04 min 43 sec)
Heartbeat CPU 0 instructions: 49000329 cycles: 14984568 heartbeat IPC: 3.499 cumulative IPC: 3.27 (Simulation time: 00 hr 04 min 45 sec)
Heartbeat CPU 0 instructions: 49500334 cycles: 15123841 heartbeat IPC: 3.59 cumulative IPC: 3.273 (Simulation time: 00 hr 04 min 48 sec)
Warmup finished CPU 0 instructions: 50000007 cycles: 15259661 cumulative IPC: 3.277 (Simulation time: 00 hr 04 min 51 sec)
Warmup complete CPU 0 instructions: 50000007 cycles: 15259661 cumulative IPC: 3.277 (Simulation time: 00 hr 04 min 51 sec)
Heartbeat CPU 0 instructions: 50000335 cycles: 15259702 heartbeat IPC: 3.68 cumulative IPC: 8 (Simulation time: 00 hr 04 min 51 sec)
Heartbeat CPU 0 instructions: 50500335 cycles: 16127623 heartbeat IPC: 0.5761 cumulative IPC: 0.5764 (Simulation time: 00 hr 04 min 58 sec)
Heartbeat CPU 0 instructions: 51000335 cycles: 16932223 heartbeat IPC: 0.6214 cumulative IPC: 0.5981 (Simulation time: 00 hr 05 min 05 sec)
Heartbeat CPU 0 instructions: 51500341 cycles: 18123616 heartbeat IPC: 0.4197 cumulative IPC: 0.5239 (Simulation time: 00 hr 05 min 14 sec)
Heartbeat CPU 0 instructions: 52000345 cycles: 19149492 heartbeat IPC: 0.4874 cumulative IPC: 0.5142 (Simulation time: 00 hr 05 min 23 sec)
Heartbeat CPU 0 instructions: 52500351 cycles: 20476763 heartbeat IPC: 0.3767 cumulative IPC: 0.4793 (Simulation time: 00 hr 05 min 33 sec)
Heartbeat CPU 0 instructions: 53000352 cycles: 21234203 heartbeat IPC: 0.6601 cumulative IPC: 0.5022 (Simulation time: 00 hr 05 min 39 sec)
Heartbeat CPU 0 instructions: 53500354 cycles: 22213273 heartbeat IPC: 0.5107 cumulative IPC: 0.5034 (Simulation time: 00 hr 05 min 47 sec)
Heartbeat CPU 0 instructions: 54000360 cycles: 22905403 heartbeat IPC: 0.7224 cumulative IPC: 0.5232 (Simulation time: 00 hr 05 min 53 sec)
Heartbeat CPU 0 instructions: 54500361 cycles: 23736415 heartbeat IPC: 0.6017 cumulative IPC: 0.5309 (Simulation time: 00 hr 05 min 59 sec)
Heartbeat CPU 0 instructions: 55000361 cycles: 24701382 heartbeat IPC: 0.5182 cumulative IPC: 0.5296 (Simulation time: 00 hr 06 min 07 sec)
Heartbeat CPU 0 instructions: 55500363 cycles: 25613397 heartbeat IPC: 0.5482 cumulative IPC: 0.5312 (Simulation time: 00 hr 06 min 15 sec)
Heartbeat CPU 0 instructions: 56000369 cycles: 26508410 heartbeat IPC: 0.5587 cumulative IPC: 0.5334 (Simulation time: 00 hr 06 min 22 sec)
Heartbeat CPU 0 instructions: 56500374 cycles: 27454759 heartbeat IPC: 0.5284 cumulative IPC: 0.533 (Simulation time: 00 hr 06 min 29 sec)
Heartbeat CPU 0 instructions: 57000374 cycles: 28407408 heartbeat IPC: 0.5249 cumulative IPC: 0.5324 (Simulation time: 00 hr 06 min 37 sec)
Heartbeat CPU 0 instructions: 57500375 cycles: 29324854 heartbeat IPC: 0.545 cumulative IPC: 0.5333 (Simulation time: 00 hr 06 min 44 sec)
Heartbeat CPU 0 instructions: 58000376 cycles: 30215269 heartbeat IPC: 0.5615 cumulative IPC: 0.5349 (Simulation time: 00 hr 06 min 52 sec)
Heartbeat CPU 0 instructions: 58500381 cycles: 31201075 heartbeat IPC: 0.5072 cumulative IPC: 0.5332 (Simulation time: 00 hr 06 min 59 sec)
Heartbeat CPU 0 instructions: 59000381 cycles: 32154048 heartbeat IPC: 0.5247 cumulative IPC: 0.5327 (Simulation time: 00 hr 07 min 07 sec)
Heartbeat CPU 0 instructions: 59500381 cycles: 33120643 heartbeat IPC: 0.5173 cumulative IPC: 0.5319 (Simulation time: 00 hr 07 min 15 sec)
Heartbeat CPU 0 instructions: 60000381 cycles: 33865800 heartbeat IPC: 0.671 cumulative IPC: 0.5375 (Simulation time: 00 hr 07 min 21 sec)
Heartbeat CPU 0 instructions: 60500386 cycles: 34878816 heartbeat IPC: 0.4936 cumulative IPC: 0.5352 (Simulation time: 00 hr 07 min 29 sec)
Heartbeat CPU 0 instructions: 61000392 cycles: 35719624 heartbeat IPC: 0.5947 cumulative IPC: 0.5377 (Simulation time: 00 hr 07 min 36 sec)
Heartbeat CPU 0 instructions: 61500399 cycles: 36619458 heartbeat IPC: 0.5557 cumulative IPC: 0.5384 (Simulation time: 00 hr 07 min 43 sec)
Heartbeat CPU 0 instructions: 62000399 cycles: 37612210 heartbeat IPC: 0.5037 cumulative IPC: 0.5369 (Simulation time: 00 hr 07 min 51 sec)
Heartbeat CPU 0 instructions: 62500401 cycles: 38561426 heartbeat IPC: 0.5268 cumulative IPC: 0.5365 (Simulation time: 00 hr 07 min 59 sec)
Heartbeat CPU 0 instructions: 63000401 cycles: 39417443 heartbeat IPC: 0.5841 cumulative IPC: 0.5381 (Simulation time: 00 hr 08 min 05 sec)
Heartbeat CPU 0 instructions: 63500401 cycles: 40241819 heartbeat IPC: 0.6065 cumulative IPC: 0.5404 (Simulation time: 00 hr 08 min 12 sec)
Heartbeat CPU 0 instructions: 64000401 cycles: 41182174 heartbeat IPC: 0.5317 cumulative IPC: 0.5401 (Simulation time: 00 hr 08 min 19 sec)
Heartbeat CPU 0 instructions: 64500406 cycles: 42010815 heartbeat IPC: 0.6034 cumulative IPC: 0.542 (Simulation time: 00 hr 08 min 26 sec)
Heartbeat CPU 0 instructions: 65000406 cycles: 43049094 heartbeat IPC: 0.4816 cumulative IPC: 0.5398 (Simulation time: 00 hr 08 min 35 sec)
Heartbeat CPU 0 instructions: 65500413 cycles: 43902766 heartbeat IPC: 0.5857 cumulative IPC: 0.5412 (Simulation time: 00 hr 08 min 41 sec)
Heartbeat CPU 0 instructions: 66000418 cycles: 44751644 heartbeat IPC: 0.589 cumulative IPC: 0.5425 (Simulation time: 00 hr 08 min 48 sec)
Heartbeat CPU 0 instructions: 66500425 cycles: 45746720 heartbeat IPC: 0.5025 cumulative IPC: 0.5412 (Simulation time: 00 hr 08 min 56 sec)
Heartbeat CPU 0 instructions: 67000431 cycles: 46702386 heartbeat IPC: 0.5232 cumulative IPC: 0.5407 (Simulation time: 00 hr 09 min 04 sec)
Heartbeat CPU 0 instructions: 67500431 cycles: 47562656 heartbeat IPC: 0.5812 cumulative IPC: 0.5418 (Simulation time: 00 hr 09 min 11 sec)
Heartbeat CPU 0 instructions: 68000431 cycles: 48275019 heartbeat IPC: 0.7019 cumulative IPC: 0.5452 (Simulation time: 00 hr 09 min 17 sec)
Heartbeat CPU 0 instructions: 68500434 cycles: 49277233 heartbeat IPC: 0.4989 cumulative IPC: 0.5438 (Simulation time: 00 hr 09 min 25 sec)
Heartbeat CPU 0 instructions: 69000434 cycles: 50228920 heartbeat IPC: 0.5254 cumulative IPC: 0.5433 (Simulation time: 00 hr 09 min 33 sec)
Heartbeat CPU 0 instructions: 69500440 cycles: 50963473 heartbeat IPC: 0.6807 cumulative IPC: 0.5462 (Simulation time: 00 hr 09 min 39 sec)
Heartbeat CPU 0 instructions: 70000441 cycles: 51863998 heartbeat IPC: 0.5552 cumulative IPC: 0.5464 (Simulation time: 00 hr 09 min 46 sec)
Heartbeat CPU 0 instructions: 70500444 cycles: 52767120 heartbeat IPC: 0.5536 cumulative IPC: 0.5466 (Simulation time: 00 hr 09 min 54 sec)
Heartbeat CPU 0 instructions: 71000446 cycles: 53554891 heartbeat IPC: 0.6347 cumulative IPC: 0.5484 (Simulation time: 00 hr 10 min 00 sec)
Heartbeat CPU 0 instructions: 71500449 cycles: 54443161 heartbeat IPC: 0.5629 cumulative IPC: 0.5487 (Simulation time: 00 hr 10 min 08 sec)
Heartbeat CPU 0 instructions: 72000453 cycles: 55359673 heartbeat IPC: 0.5456 cumulative IPC: 0.5486 (Simulation time: 00 hr 10 min 15 sec)
Heartbeat CPU 0 instructions: 72500454 cycles: 56247869 heartbeat IPC: 0.5629 cumulative IPC: 0.5489 (Simulation time: 00 hr 10 min 22 sec)
Heartbeat CPU 0 instructions: 73000457 cycles: 57236247 heartbeat IPC: 0.5059 cumulative IPC: 0.5479 (Simulation time: 00 hr 10 min 30 sec)
Heartbeat CPU 0 instructions: 73500460 cycles: 58224583 heartbeat IPC: 0.5059 cumulative IPC: 0.547 (Simulation time: 00 hr 10 min 38 sec)
Heartbeat CPU 0 instructions: 74000465 cycles: 59171054 heartbeat IPC: 0.5283 cumulative IPC: 0.5466 (Simulation time: 00 hr 10 min 46 sec)
Heartbeat CPU 0 instructions: 74500472 cycles: 59985064 heartbeat IPC: 0.6143 cumulative IPC: 0.5478 (Simulation time: 00 hr 10 min 52 sec)
Heartbeat CPU 0 instructions: 75000472 cycles: 60931164 heartbeat IPC: 0.5285 cumulative IPC: 0.5474 (Simulation time: 00 hr 11 min 00 sec)
Heartbeat CPU 0 instructions: 75500479 cycles: 61964688 heartbeat IPC: 0.4838 cumulative IPC: 0.546 (Simulation time: 00 hr 11 min 08 sec)
Heartbeat CPU 0 instructions: 76000483 cycles: 62816601 heartbeat IPC: 0.5869 cumulative IPC: 0.5467 (Simulation time: 00 hr 11 min 15 sec)
Heartbeat CPU 0 instructions: 76500486 cycles: 63630659 heartbeat IPC: 0.6142 cumulative IPC: 0.5479 (Simulation time: 00 hr 11 min 22 sec)
Heartbeat CPU 0 instructions: 77000486 cycles: 64666151 heartbeat IPC: 0.4829 cumulative IPC: 0.5465 (Simulation time: 00 hr 11 min 30 sec)
Heartbeat CPU 0 instructions: 77500493 cycles: 65610809 heartbeat IPC: 0.5293 cumulative IPC: 0.5462 (Simulation time: 00 hr 11 min 37 sec)
Heartbeat CPU 0 instructions: 78000497 cycles: 66361323 heartbeat IPC: 0.6662 cumulative IPC: 0.5479 (Simulation time: 00 hr 11 min 44 sec)
Heartbeat CPU 0 instructions: 78500499 cycles: 67351678 heartbeat IPC: 0.5049 cumulative IPC: 0.5471 (Simulation time: 00 hr 11 min 51 sec)
Heartbeat CPU 0 instructions: 79000499 cycles: 68215479 heartbeat IPC: 0.5788 cumulative IPC: 0.5476 (Simulation time: 00 hr 11 min 59 sec)
Heartbeat CPU 0 instructions: 79500505 cycles: 69213225 heartbeat IPC: 0.5011 cumulative IPC: 0.5468 (Simulation time: 00 hr 12 min 07 sec)
Heartbeat CPU 0 instructions: 80000507 cycles: 70078050 heartbeat IPC: 0.5782 cumulative IPC: 0.5473 (Simulation time: 00 hr 12 min 14 sec)
Heartbeat CPU 0 instructions: 80500508 cycles: 70935760 heartbeat IPC: 0.5829 cumulative IPC: 0.5478 (Simulation time: 00 hr 12 min 21 sec)
Heartbeat CPU 0 instructions: 81000510 cycles: 71815313 heartbeat IPC: 0.5685 cumulative IPC: 0.5481 (Simulation time: 00 hr 12 min 28 sec)
Heartbeat CPU 0 instructions: 81500511 cycles: 72735805 heartbeat IPC: 0.5432 cumulative IPC: 0.5481 (Simulation time: 00 hr 12 min 35 sec)
Heartbeat CPU 0 instructions: 82000517 cycles: 73636190 heartbeat IPC: 0.5553 cumulative IPC: 0.5482 (Simulation time: 00 hr 12 min 43 sec)
Heartbeat CPU 0 instructions: 82500517 cycles: 74613702 heartbeat IPC: 0.5115 cumulative IPC: 0.5476 (Simulation time: 00 hr 12 min 51 sec)
Heartbeat CPU 0 instructions: 83000517 cycles: 75440587 heartbeat IPC: 0.6047 cumulative IPC: 0.5484 (Simulation time: 00 hr 12 min 58 sec)
Heartbeat CPU 0 instructions: 83500518 cycles: 76526663 heartbeat IPC: 0.4604 cumulative IPC: 0.5468 (Simulation time: 00 hr 13 min 06 sec)
Heartbeat CPU 0 instructions: 84000518 cycles: 77376784 heartbeat IPC: 0.5882 cumulative IPC: 0.5474 (Simulation time: 00 hr 13 min 13 sec)
Heartbeat CPU 0 instructions: 84500523 cycles: 78289005 heartbeat IPC: 0.5481 cumulative IPC: 0.5474 (Simulation time: 00 hr 13 min 20 sec)
Heartbeat CPU 0 instructions: 85000530 cycles: 79091383 heartbeat IPC: 0.6232 cumulative IPC: 0.5483 (Simulation time: 00 hr 13 min 27 sec)
Heartbeat CPU 0 instructions: 85500532 cycles: 80084143 heartbeat IPC: 0.5036 cumulative IPC: 0.5476 (Simulation time: 00 hr 13 min 35 sec)
Heartbeat CPU 0 instructions: 86000532 cycles: 80864307 heartbeat IPC: 0.6409 cumulative IPC: 0.5487 (Simulation time: 00 hr 13 min 42 sec)
Heartbeat CPU 0 instructions: 86500533 cycles: 81550869 heartbeat IPC: 0.7283 cumulative IPC: 0.5506 (Simulation time: 00 hr 13 min 47 sec)
Heartbeat CPU 0 instructions: 87000538 cycles: 82428444 heartbeat IPC: 0.5698 cumulative IPC: 0.5509 (Simulation time: 00 hr 13 min 54 sec)
Heartbeat CPU 0 instructions: 87500544 cycles: 83157291 heartbeat IPC: 0.686 cumulative IPC: 0.5523 (Simulation time: 00 hr 14 min 00 sec)
Heartbeat CPU 0 instructions: 88000544 cycles: 84091825 heartbeat IPC: 0.535 cumulative IPC: 0.5521 (Simulation time: 00 hr 14 min 07 sec)
Heartbeat CPU 0 instructions: 88500549 cycles: 84791103 heartbeat IPC: 0.715 cumulative IPC: 0.5537 (Simulation time: 00 hr 14 min 13 sec)
Heartbeat CPU 0 instructions: 89000551 cycles: 85631847 heartbeat IPC: 0.5947 cumulative IPC: 0.5542 (Simulation time: 00 hr 14 min 20 sec)
Heartbeat CPU 0 instructions: 89500557 cycles: 86608102 heartbeat IPC: 0.5122 cumulative IPC: 0.5536 (Simulation time: 00 hr 14 min 28 sec)
Heartbeat CPU 0 instructions: 90000562 cycles: 87715035 heartbeat IPC: 0.4517 cumulative IPC: 0.5521 (Simulation time: 00 hr 14 min 36 sec)
Heartbeat CPU 0 instructions: 90500566 cycles: 88597968 heartbeat IPC: 0.5663 cumulative IPC: 0.5522 (Simulation time: 00 hr 14 min 43 sec)
Heartbeat CPU 0 instructions: 91000568 cycles: 89378429 heartbeat IPC: 0.6406 cumulative IPC: 0.5532 (Simulation time: 00 hr 14 min 50 sec)
Heartbeat CPU 0 instructions: 91500569 cycles: 90356871 heartbeat IPC: 0.511 cumulative IPC: 0.5526 (Simulation time: 00 hr 14 min 58 sec)
Heartbeat CPU 0 instructions: 92000575 cycles: 91347521 heartbeat IPC: 0.5047 cumulative IPC: 0.552 (Simulation time: 00 hr 15 min 05 sec)
Heartbeat CPU 0 instructions: 92500581 cycles: 92313345 heartbeat IPC: 0.5177 cumulative IPC: 0.5516 (Simulation time: 00 hr 15 min 13 sec)
Heartbeat CPU 0 instructions: 93000581 cycles: 93228627 heartbeat IPC: 0.5463 cumulative IPC: 0.5515 (Simulation time: 00 hr 15 min 20 sec)
Heartbeat CPU 0 instructions: 93500581 cycles: 94167013 heartbeat IPC: 0.5328 cumulative IPC: 0.5513 (Simulation time: 00 hr 15 min 28 sec)
Heartbeat CPU 0 instructions: 94000581 cycles: 95198715 heartbeat IPC: 0.4846 cumulative IPC: 0.5504 (Simulation time: 00 hr 15 min 36 sec)
Heartbeat CPU 0 instructions: 94500587 cycles: 95976422 heartbeat IPC: 0.6429 cumulative IPC: 0.5513 (Simulation time: 00 hr 15 min 43 sec)
Heartbeat CPU 0 instructions: 95000587 cycles: 96880949 heartbeat IPC: 0.5528 cumulative IPC: 0.5513 (Simulation time: 00 hr 15 min 50 sec)
Heartbeat CPU 0 instructions: 95500594 cycles: 97864363 heartbeat IPC: 0.5084 cumulative IPC: 0.5508 (Simulation time: 00 hr 15 min 58 sec)
Heartbeat CPU 0 instructions: 96000595 cycles: 98662459 heartbeat IPC: 0.6265 cumulative IPC: 0.5515 (Simulation time: 00 hr 16 min 04 sec)
Heartbeat CPU 0 instructions: 96500597 cycles: 99721591 heartbeat IPC: 0.4721 cumulative IPC: 0.5506 (Simulation time: 00 hr 16 min 13 sec)
Heartbeat CPU 0 instructions: 97000597 cycles: 100696854 heartbeat IPC: 0.5127 cumulative IPC: 0.5501 (Simulation time: 00 hr 16 min 21 sec)
Heartbeat CPU 0 instructions: 97500597 cycles: 101639324 heartbeat IPC: 0.5305 cumulative IPC: 0.5499 (Simulation time: 00 hr 16 min 28 sec)
Heartbeat CPU 0 instructions: 98000602 cycles: 102547994 heartbeat IPC: 0.5503 cumulative IPC: 0.5499 (Simulation time: 00 hr 16 min 35 sec)
Heartbeat CPU 0 instructions: 98500609 cycles: 103522241 heartbeat IPC: 0.5132 cumulative IPC: 0.5495 (Simulation time: 00 hr 16 min 43 sec)
Heartbeat CPU 0 instructions: 99000613 cycles: 104517023 heartbeat IPC: 0.5026 cumulative IPC: 0.549 (Simulation time: 00 hr 16 min 51 sec)
Heartbeat CPU 0 instructions: 99500614 cycles: 105417771 heartbeat IPC: 0.5551 cumulative IPC: 0.549 (Simulation time: 00 hr 16 min 58 sec)
Heartbeat CPU 0 instructions: 100000614 cycles: 106280850 heartbeat IPC: 0.5793 cumulative IPC: 0.5493 (Simulation time: 00 hr 17 min 05 sec)
Heartbeat CPU 0 instructions: 100500618 cycles: 107148434 heartbeat IPC: 0.5763 cumulative IPC: 0.5496 (Simulation time: 00 hr 17 min 12 sec)
Heartbeat CPU 0 instructions: 101000621 cycles: 108108648 heartbeat IPC: 0.5207 cumulative IPC: 0.5493 (Simulation time: 00 hr 17 min 20 sec)
Heartbeat CPU 0 instructions: 101500626 cycles: 109108996 heartbeat IPC: 0.4998 cumulative IPC: 0.5488 (Simulation time: 00 hr 17 min 28 sec)
Heartbeat CPU 0 instructions: 102000628 cycles: 110064424 heartbeat IPC: 0.5233 cumulative IPC: 0.5485 (Simulation time: 00 hr 17 min 35 sec)
Heartbeat CPU 0 instructions: 102500628 cycles: 110831425 heartbeat IPC: 0.6519 cumulative IPC: 0.5493 (Simulation time: 00 hr 17 min 42 sec)
Heartbeat CPU 0 instructions: 103000631 cycles: 111738583 heartbeat IPC: 0.5512 cumulative IPC: 0.5493 (Simulation time: 00 hr 17 min 49 sec)
Heartbeat CPU 0 instructions: 103500636 cycles: 112693788 heartbeat IPC: 0.5235 cumulative IPC: 0.5491 (Simulation time: 00 hr 17 min 56 sec)
Heartbeat CPU 0 instructions: 104000637 cycles: 113662437 heartbeat IPC: 0.5162 cumulative IPC: 0.5488 (Simulation time: 00 hr 18 min 04 sec)
Heartbeat CPU 0 instructions: 104500639 cycles: 114589719 heartbeat IPC: 0.5392 cumulative IPC: 0.5487 (Simulation time: 00 hr 18 min 12 sec)
Heartbeat CPU 0 instructions: 105000640 cycles: 115310432 heartbeat IPC: 0.6938 cumulative IPC: 0.5497 (Simulation time: 00 hr 18 min 18 sec)
Heartbeat CPU 0 instructions: 105500647 cycles: 116350243 heartbeat IPC: 0.4809 cumulative IPC: 0.549 (Simulation time: 00 hr 18 min 26 sec)
Heartbeat CPU 0 instructions: 106000647 cycles: 117325136 heartbeat IPC: 0.5129 cumulative IPC: 0.5487 (Simulation time: 00 hr 18 min 34 sec)
Heartbeat CPU 0 instructions: 106500650 cycles: 118571772 heartbeat IPC: 0.4011 cumulative IPC: 0.5469 (Simulation time: 00 hr 18 min 45 sec)
Heartbeat CPU 0 instructions: 107000650 cycles: 119476496 heartbeat IPC: 0.5527 cumulative IPC: 0.5469 (Simulation time: 00 hr 18 min 52 sec)
Heartbeat CPU 0 instructions: 107500652 cycles: 120423320 heartbeat IPC: 0.5281 cumulative IPC: 0.5468 (Simulation time: 00 hr 18 min 59 sec)
Heartbeat CPU 0 instructions: 108000659 cycles: 121164883 heartbeat IPC: 0.6743 cumulative IPC: 0.5477 (Simulation time: 00 hr 19 min 05 sec)
Heartbeat CPU 0 instructions: 108500659 cycles: 121720379 heartbeat IPC: 0.9001 cumulative IPC: 0.5495 (Simulation time: 00 hr 19 min 10 sec)
Heartbeat CPU 0 instructions: 109000659 cycles: 122736347 heartbeat IPC: 0.4921 cumulative IPC: 0.549 (Simulation time: 00 hr 19 min 18 sec)
Heartbeat CPU 0 instructions: 109500659 cycles: 123535412 heartbeat IPC: 0.6257 cumulative IPC: 0.5495 (Simulation time: 00 hr 19 min 25 sec)
Heartbeat CPU 0 instructions: 110000663 cycles: 124431929 heartbeat IPC: 0.5577 cumulative IPC: 0.5496 (Simulation time: 00 hr 19 min 32 sec)
Heartbeat CPU 0 instructions: 110500667 cycles: 125446217 heartbeat IPC: 0.493 cumulative IPC: 0.5491 (Simulation time: 00 hr 19 min 40 sec)
Heartbeat CPU 0 instructions: 111000670 cycles: 126399897 heartbeat IPC: 0.5243 cumulative IPC: 0.5489 (Simulation time: 00 hr 19 min 47 sec)
Heartbeat CPU 0 instructions: 111500673 cycles: 127245829 heartbeat IPC: 0.5911 cumulative IPC: 0.5492 (Simulation time: 00 hr 19 min 54 sec)
Heartbeat CPU 0 instructions: 112000678 cycles: 128153094 heartbeat IPC: 0.5511 cumulative IPC: 0.5492 (Simulation time: 00 hr 20 min 01 sec)
Heartbeat CPU 0 instructions: 112500681 cycles: 129237490 heartbeat IPC: 0.4611 cumulative IPC: 0.5484 (Simulation time: 00 hr 20 min 09 sec)
Heartbeat CPU 0 instructions: 113000685 cycles: 130130873 heartbeat IPC: 0.5597 cumulative IPC: 0.5484 (Simulation time: 00 hr 20 min 17 sec)
Heartbeat CPU 0 instructions: 113500689 cycles: 130998577 heartbeat IPC: 0.5762 cumulative IPC: 0.5487 (Simulation time: 00 hr 20 min 23 sec)
Heartbeat CPU 0 instructions: 114000691 cycles: 131973719 heartbeat IPC: 0.5127 cumulative IPC: 0.5484 (Simulation time: 00 hr 20 min 31 sec)
Heartbeat CPU 0 instructions: 114500695 cycles: 132604021 heartbeat IPC: 0.7933 cumulative IPC: 0.5497 (Simulation time: 00 hr 20 min 36 sec)
Heartbeat CPU 0 instructions: 115000695 cycles: 133586487 heartbeat IPC: 0.5089 cumulative IPC: 0.5493 (Simulation time: 00 hr 20 min 44 sec)
Heartbeat CPU 0 instructions: 115500701 cycles: 134414870 heartbeat IPC: 0.6036 cumulative IPC: 0.5497 (Simulation time: 00 hr 20 min 51 sec)
Heartbeat CPU 0 instructions: 116000706 cycles: 135317267 heartbeat IPC: 0.5541 cumulative IPC: 0.5497 (Simulation time: 00 hr 20 min 58 sec)
Heartbeat CPU 0 instructions: 116500713 cycles: 136240204 heartbeat IPC: 0.5418 cumulative IPC: 0.5497 (Simulation time: 00 hr 21 min 05 sec)
Heartbeat CPU 0 instructions: 117000717 cycles: 137213466 heartbeat IPC: 0.5137 cumulative IPC: 0.5494 (Simulation time: 00 hr 21 min 13 sec)
Heartbeat CPU 0 instructions: 117500717 cycles: 138018636 heartbeat IPC: 0.621 cumulative IPC: 0.5499 (Simulation time: 00 hr 21 min 20 sec)
Heartbeat CPU 0 instructions: 118000717 cycles: 138983543 heartbeat IPC: 0.5182 cumulative IPC: 0.5496 (Simulation time: 00 hr 21 min 27 sec)
Heartbeat CPU 0 instructions: 118500719 cycles: 139904267 heartbeat IPC: 0.5431 cumulative IPC: 0.5496 (Simulation time: 00 hr 21 min 34 sec)
Heartbeat CPU 0 instructions: 119000723 cycles: 140761186 heartbeat IPC: 0.5835 cumulative IPC: 0.5498 (Simulation time: 00 hr 21 min 41 sec)
Heartbeat CPU 0 instructions: 119500726 cycles: 141674841 heartbeat IPC: 0.5473 cumulative IPC: 0.5498 (Simulation time: 00 hr 21 min 48 sec)
Heartbeat CPU 0 instructions: 120000731 cycles: 142560670 heartbeat IPC: 0.5644 cumulative IPC: 0.5499 (Simulation time: 00 hr 21 min 55 sec)
Heartbeat CPU 0 instructions: 120500731 cycles: 143424808 heartbeat IPC: 0.5786 cumulative IPC: 0.5501 (Simulation time: 00 hr 22 min 02 sec)
Heartbeat CPU 0 instructions: 121000735 cycles: 144315125 heartbeat IPC: 0.5616 cumulative IPC: 0.5502 (Simulation time: 00 hr 22 min 09 sec)
Heartbeat CPU 0 instructions: 121500741 cycles: 145298164 heartbeat IPC: 0.5086 cumulative IPC: 0.5498 (Simulation time: 00 hr 22 min 16 sec)
Heartbeat CPU 0 instructions: 122000746 cycles: 146267187 heartbeat IPC: 0.516 cumulative IPC: 0.5496 (Simulation time: 00 hr 22 min 24 sec)
Heartbeat CPU 0 instructions: 122500748 cycles: 147141910 heartbeat IPC: 0.5716 cumulative IPC: 0.5497 (Simulation time: 00 hr 22 min 31 sec)
Heartbeat CPU 0 instructions: 123000750 cycles: 147946774 heartbeat IPC: 0.6212 cumulative IPC: 0.5502 (Simulation time: 00 hr 22 min 37 sec)
Heartbeat CPU 0 instructions: 123500757 cycles: 148927172 heartbeat IPC: 0.51 cumulative IPC: 0.5499 (Simulation time: 00 hr 22 min 44 sec)
Heartbeat CPU 0 instructions: 124000759 cycles: 149993511 heartbeat IPC: 0.4689 cumulative IPC: 0.5492 (Simulation time: 00 hr 22 min 53 sec)
Heartbeat CPU 0 instructions: 124500760 cycles: 150812997 heartbeat IPC: 0.6101 cumulative IPC: 0.5496 (Simulation time: 00 hr 22 min 59 sec)
Heartbeat CPU 0 instructions: 125000764 cycles: 151750637 heartbeat IPC: 0.5333 cumulative IPC: 0.5495 (Simulation time: 00 hr 23 min 06 sec)
Heartbeat CPU 0 instructions: 125500765 cycles: 152623783 heartbeat IPC: 0.5726 cumulative IPC: 0.5496 (Simulation time: 00 hr 23 min 13 sec)
Heartbeat CPU 0 instructions: 126000769 cycles: 153528840 heartbeat IPC: 0.5525 cumulative IPC: 0.5497 (Simulation time: 00 hr 23 min 19 sec)
Heartbeat CPU 0 instructions: 126500771 cycles: 154334506 heartbeat IPC: 0.6206 cumulative IPC: 0.5501 (Simulation time: 00 hr 23 min 26 sec)
Heartbeat CPU 0 instructions: 127000771 cycles: 155300165 heartbeat IPC: 0.5178 cumulative IPC: 0.5498 (Simulation time: 00 hr 23 min 33 sec)
Heartbeat CPU 0 instructions: 127500771 cycles: 156212227 heartbeat IPC: 0.5482 cumulative IPC: 0.5498 (Simulation time: 00 hr 23 min 40 sec)
Heartbeat CPU 0 instructions: 128000776 cycles: 157047210 heartbeat IPC: 0.5988 cumulative IPC: 0.5501 (Simulation time: 00 hr 23 min 46 sec)
Heartbeat CPU 0 instructions: 128500777 cycles: 158012147 heartbeat IPC: 0.5182 cumulative IPC: 0.5499 (Simulation time: 00 hr 23 min 54 sec)
Heartbeat CPU 0 instructions: 129000779 cycles: 158998445 heartbeat IPC: 0.5069 cumulative IPC: 0.5496 (Simulation time: 00 hr 24 min 01 sec)
Heartbeat CPU 0 instructions: 129500780 cycles: 159992619 heartbeat IPC: 0.5029 cumulative IPC: 0.5493 (Simulation time: 00 hr 24 min 09 sec)
Heartbeat CPU 0 instructions: 130000785 cycles: 160921006 heartbeat IPC: 0.5386 cumulative IPC: 0.5492 (Simulation time: 00 hr 24 min 16 sec)
Heartbeat CPU 0 instructions: 130500785 cycles: 161766795 heartbeat IPC: 0.5912 cumulative IPC: 0.5495 (Simulation time: 00 hr 24 min 22 sec)
Heartbeat CPU 0 instructions: 131000785 cycles: 162559713 heartbeat IPC: 0.6306 cumulative IPC: 0.5499 (Simulation time: 00 hr 24 min 28 sec)
Heartbeat CPU 0 instructions: 131500792 cycles: 163528343 heartbeat IPC: 0.5162 cumulative IPC: 0.5497 (Simulation time: 00 hr 24 min 35 sec)
Heartbeat CPU 0 instructions: 132000795 cycles: 164499265 heartbeat IPC: 0.515 cumulative IPC: 0.5495 (Simulation time: 00 hr 24 min 43 sec)
Heartbeat CPU 0 instructions: 132500798 cycles: 165438151 heartbeat IPC: 0.5325 cumulative IPC: 0.5494 (Simulation time: 00 hr 24 min 50 sec)
Heartbeat CPU 0 instructions: 133000803 cycles: 166369447 heartbeat IPC: 0.5369 cumulative IPC: 0.5493 (Simulation time: 00 hr 24 min 57 sec)
Heartbeat CPU 0 instructions: 133500803 cycles: 167165552 heartbeat IPC: 0.6281 cumulative IPC: 0.5497 (Simulation time: 00 hr 25 min 03 sec)
Heartbeat CPU 0 instructions: 134000803 cycles: 168128100 heartbeat IPC: 0.5195 cumulative IPC: 0.5495 (Simulation time: 00 hr 25 min 10 sec)
Heartbeat CPU 0 instructions: 134500803 cycles: 168934368 heartbeat IPC: 0.6201 cumulative IPC: 0.5499 (Simulation time: 00 hr 25 min 17 sec)
Heartbeat CPU 0 instructions: 135000803 cycles: 169981035 heartbeat IPC: 0.4777 cumulative IPC: 0.5494 (Simulation time: 00 hr 25 min 25 sec)
Heartbeat CPU 0 instructions: 135500805 cycles: 170749503 heartbeat IPC: 0.6506 cumulative IPC: 0.5499 (Simulation time: 00 hr 25 min 31 sec)
Heartbeat CPU 0 instructions: 136000806 cycles: 171765744 heartbeat IPC: 0.492 cumulative IPC: 0.5495 (Simulation time: 00 hr 25 min 38 sec)
Heartbeat CPU 0 instructions: 136500806 cycles: 172582785 heartbeat IPC: 0.612 cumulative IPC: 0.5498 (Simulation time: 00 hr 25 min 44 sec)
Heartbeat CPU 0 instructions: 137000808 cycles: 173466961 heartbeat IPC: 0.5655 cumulative IPC: 0.5499 (Simulation time: 00 hr 25 min 51 sec)
Heartbeat CPU 0 instructions: 137500809 cycles: 174453293 heartbeat IPC: 0.5069 cumulative IPC: 0.5497 (Simulation time: 00 hr 25 min 58 sec)
Heartbeat CPU 0 instructions: 138000811 cycles: 175208324 heartbeat IPC: 0.6622 cumulative IPC: 0.5502 (Simulation time: 00 hr 26 min 04 sec)
Heartbeat CPU 0 instructions: 138500817 cycles: 176271014 heartbeat IPC: 0.4705 cumulative IPC: 0.5497 (Simulation time: 00 hr 26 min 11 sec)
Heartbeat CPU 0 instructions: 139000819 cycles: 177309671 heartbeat IPC: 0.4814 cumulative IPC: 0.5492 (Simulation time: 00 hr 26 min 19 sec)
Heartbeat CPU 0 instructions: 139500819 cycles: 178169060 heartbeat IPC: 0.5818 cumulative IPC: 0.5494 (Simulation time: 00 hr 26 min 25 sec)
Heartbeat CPU 0 instructions: 140000824 cycles: 178828143 heartbeat IPC: 0.7586 cumulative IPC: 0.5502 (Simulation time: 00 hr 26 min 30 sec)
Heartbeat CPU 0 instructions: 140500824 cycles: 179639840 heartbeat IPC: 0.616 cumulative IPC: 0.5506 (Simulation time: 00 hr 26 min 36 sec)
Heartbeat CPU 0 instructions: 141000824 cycles: 180669700 heartbeat IPC: 0.4855 cumulative IPC: 0.5502 (Simulation time: 00 hr 26 min 43 sec)
Heartbeat CPU 0 instructions: 141500824 cycles: 181277942 heartbeat IPC: 0.822 cumulative IPC: 0.5511 (Simulation time: 00 hr 26 min 48 sec)
Heartbeat CPU 0 instructions: 142000828 cycles: 182317660 heartbeat IPC: 0.4809 cumulative IPC: 0.5507 (Simulation time: 00 hr 26 min 55 sec)
Heartbeat CPU 0 instructions: 142500829 cycles: 183218253 heartbeat IPC: 0.5552 cumulative IPC: 0.5507 (Simulation time: 00 hr 27 min 02 sec)
Heartbeat CPU 0 instructions: 143000832 cycles: 184167752 heartbeat IPC: 0.5266 cumulative IPC: 0.5506 (Simulation time: 00 hr 27 min 09 sec)
Heartbeat CPU 0 instructions: 143500836 cycles: 184977365 heartbeat IPC: 0.6176 cumulative IPC: 0.5509 (Simulation time: 00 hr 27 min 15 sec)
Heartbeat CPU 0 instructions: 144000837 cycles: 185955254 heartbeat IPC: 0.5113 cumulative IPC: 0.5507 (Simulation time: 00 hr 27 min 22 sec)
Heartbeat CPU 0 instructions: 144500837 cycles: 186898443 heartbeat IPC: 0.5301 cumulative IPC: 0.5506 (Simulation time: 00 hr 27 min 29 sec)
Heartbeat CPU 0 instructions: 145000841 cycles: 187735805 heartbeat IPC: 0.5971 cumulative IPC: 0.5508 (Simulation time: 00 hr 27 min 35 sec)
Heartbeat CPU 0 instructions: 145500841 cycles: 188757166 heartbeat IPC: 0.4895 cumulative IPC: 0.5504 (Simulation time: 00 hr 27 min 42 sec)
Heartbeat CPU 0 instructions: 146000841 cycles: 189603106 heartbeat IPC: 0.5911 cumulative IPC: 0.5506 (Simulation time: 00 hr 27 min 48 sec)
Heartbeat CPU 0 instructions: 146500844 cycles: 190532358 heartbeat IPC: 0.5381 cumulative IPC: 0.5506 (Simulation time: 00 hr 27 min 55 sec)
Heartbeat CPU 0 instructions: 147000847 cycles: 191441261 heartbeat IPC: 0.5501 cumulative IPC: 0.5506 (Simulation time: 00 hr 28 min 01 sec)
Heartbeat CPU 0 instructions: 147500853 cycles: 192441851 heartbeat IPC: 0.4997 cumulative IPC: 0.5503 (Simulation time: 00 hr 28 min 08 sec)
Heartbeat CPU 0 instructions: 148000854 cycles: 193301376 heartbeat IPC: 0.5817 cumulative IPC: 0.5504 (Simulation time: 00 hr 28 min 14 sec)
Heartbeat CPU 0 instructions: 148500854 cycles: 194167087 heartbeat IPC: 0.5776 cumulative IPC: 0.5506 (Simulation time: 00 hr 28 min 20 sec)
Heartbeat CPU 0 instructions: 149000857 cycles: 195159266 heartbeat IPC: 0.5039 cumulative IPC: 0.5503 (Simulation time: 00 hr 28 min 27 sec)
Heartbeat CPU 0 instructions: 149500859 cycles: 195996130 heartbeat IPC: 0.5975 cumulative IPC: 0.5505 (Simulation time: 00 hr 28 min 33 sec)
Heartbeat CPU 0 instructions: 150000864 cycles: 196894775 heartbeat IPC: 0.5564 cumulative IPC: 0.5506 (Simulation time: 00 hr 28 min 40 sec)
Heartbeat CPU 0 instructions: 150500864 cycles: 197822392 heartbeat IPC: 0.539 cumulative IPC: 0.5505 (Simulation time: 00 hr 28 min 46 sec)
Heartbeat CPU 0 instructions: 151000870 cycles: 198839079 heartbeat IPC: 0.4918 cumulative IPC: 0.5502 (Simulation time: 00 hr 28 min 54 sec)
Heartbeat CPU 0 instructions: 151500870 cycles: 199724935 heartbeat IPC: 0.5644 cumulative IPC: 0.5502 (Simulation time: 00 hr 29 min 00 sec)
Heartbeat CPU 0 instructions: 152000874 cycles: 200608530 heartbeat IPC: 0.5659 cumulative IPC: 0.5503 (Simulation time: 00 hr 29 min 06 sec)
Heartbeat CPU 0 instructions: 152500877 cycles: 201638425 heartbeat IPC: 0.4855 cumulative IPC: 0.55 (Simulation time: 00 hr 29 min 13 sec)
Heartbeat CPU 0 instructions: 153000880 cycles: 202428840 heartbeat IPC: 0.6326 cumulative IPC: 0.5503 (Simulation time: 00 hr 29 min 19 sec)
Heartbeat CPU 0 instructions: 153500887 cycles: 203354252 heartbeat IPC: 0.5403 cumulative IPC: 0.5503 (Simulation time: 00 hr 29 min 26 sec)
Heartbeat CPU 0 instructions: 154000889 cycles: 204164790 heartbeat IPC: 0.6169 cumulative IPC: 0.5505 (Simulation time: 00 hr 29 min 32 sec)
Heartbeat CPU 0 instructions: 154500890 cycles: 205159452 heartbeat IPC: 0.5027 cumulative IPC: 0.5503 (Simulation time: 00 hr 29 min 38 sec)
Heartbeat CPU 0 instructions: 155000896 cycles: 206187760 heartbeat IPC: 0.4862 cumulative IPC: 0.5499 (Simulation time: 00 hr 29 min 46 sec)
Heartbeat CPU 0 instructions: 155500898 cycles: 207175324 heartbeat IPC: 0.5063 cumulative IPC: 0.5497 (Simulation time: 00 hr 29 min 53 sec)
Heartbeat CPU 0 instructions: 156000905 cycles: 208063678 heartbeat IPC: 0.5628 cumulative IPC: 0.5498 (Simulation time: 00 hr 29 min 59 sec)
Heartbeat CPU 0 instructions: 156500911 cycles: 208880219 heartbeat IPC: 0.6123 cumulative IPC: 0.55 (Simulation time: 00 hr 30 min 05 sec)
Heartbeat CPU 0 instructions: 157000913 cycles: 209753482 heartbeat IPC: 0.5726 cumulative IPC: 0.5502 (Simulation time: 00 hr 30 min 11 sec)
Heartbeat CPU 0 instructions: 157500917 cycles: 210790615 heartbeat IPC: 0.4821 cumulative IPC: 0.5498 (Simulation time: 00 hr 30 min 18 sec)
Heartbeat CPU 0 instructions: 158000924 cycles: 211615005 heartbeat IPC: 0.6065 cumulative IPC: 0.55 (Simulation time: 00 hr 30 min 25 sec)
Heartbeat CPU 0 instructions: 158500924 cycles: 212204526 heartbeat IPC: 0.8481 cumulative IPC: 0.5509 (Simulation time: 00 hr 30 min 29 sec)
Heartbeat CPU 0 instructions: 159000925 cycles: 213104153 heartbeat IPC: 0.5558 cumulative IPC: 0.5509 (Simulation time: 00 hr 30 min 36 sec)
Heartbeat CPU 0 instructions: 159500928 cycles: 214071107 heartbeat IPC: 0.5171 cumulative IPC: 0.5508 (Simulation time: 00 hr 30 min 42 sec)
Heartbeat CPU 0 instructions: 160000928 cycles: 215047649 heartbeat IPC: 0.512 cumulative IPC: 0.5506 (Simulation time: 00 hr 30 min 50 sec)
Heartbeat CPU 0 instructions: 160500928 cycles: 216348913 heartbeat IPC: 0.3842 cumulative IPC: 0.5495 (Simulation time: 00 hr 30 min 59 sec)
Heartbeat CPU 0 instructions: 161000934 cycles: 217075284 heartbeat IPC: 0.6884 cumulative IPC: 0.55 (Simulation time: 00 hr 31 min 04 sec)
Heartbeat CPU 0 instructions: 161500936 cycles: 217932122 heartbeat IPC: 0.5835 cumulative IPC: 0.5502 (Simulation time: 00 hr 31 min 11 sec)
Heartbeat CPU 0 instructions: 162000938 cycles: 218430794 heartbeat IPC: 1.003 cumulative IPC: 0.5513 (Simulation time: 00 hr 31 min 15 sec)
Heartbeat CPU 0 instructions: 162500938 cycles: 219319794 heartbeat IPC: 0.5624 cumulative IPC: 0.5513 (Simulation time: 00 hr 31 min 21 sec)
Heartbeat CPU 0 instructions: 163000941 cycles: 220283095 heartbeat IPC: 0.5191 cumulative IPC: 0.5512 (Simulation time: 00 hr 31 min 28 sec)
Heartbeat CPU 0 instructions: 163500947 cycles: 221084440 heartbeat IPC: 0.624 cumulative IPC: 0.5514 (Simulation time: 00 hr 31 min 34 sec)
Heartbeat CPU 0 instructions: 164000948 cycles: 222015988 heartbeat IPC: 0.5367 cumulative IPC: 0.5514 (Simulation time: 00 hr 31 min 40 sec)
Heartbeat CPU 0 instructions: 164500949 cycles: 222979703 heartbeat IPC: 0.5188 cumulative IPC: 0.5512 (Simulation time: 00 hr 31 min 47 sec)
Heartbeat CPU 0 instructions: 165000949 cycles: 223844277 heartbeat IPC: 0.5783 cumulative IPC: 0.5513 (Simulation time: 00 hr 31 min 53 sec)
Heartbeat CPU 0 instructions: 165500950 cycles: 224750537 heartbeat IPC: 0.5517 cumulative IPC: 0.5513 (Simulation time: 00 hr 31 min 59 sec)
Heartbeat CPU 0 instructions: 166000955 cycles: 225745367 heartbeat IPC: 0.5026 cumulative IPC: 0.5511 (Simulation time: 00 hr 32 min 06 sec)
Heartbeat CPU 0 instructions: 166500955 cycles: 226622961 heartbeat IPC: 0.5697 cumulative IPC: 0.5512 (Simulation time: 00 hr 32 min 12 sec)
Heartbeat CPU 0 instructions: 167000956 cycles: 227517996 heartbeat IPC: 0.5586 cumulative IPC: 0.5512 (Simulation time: 00 hr 32 min 19 sec)
Heartbeat CPU 0 instructions: 167500961 cycles: 228439789 heartbeat IPC: 0.5424 cumulative IPC: 0.5512 (Simulation time: 00 hr 32 min 26 sec)
Heartbeat CPU 0 instructions: 168000961 cycles: 229290463 heartbeat IPC: 0.5878 cumulative IPC: 0.5513 (Simulation time: 00 hr 32 min 32 sec)
Heartbeat CPU 0 instructions: 168500961 cycles: 230269420 heartbeat IPC: 0.5107 cumulative IPC: 0.5511 (Simulation time: 00 hr 32 min 39 sec)
Heartbeat CPU 0 instructions: 169000967 cycles: 231216708 heartbeat IPC: 0.5278 cumulative IPC: 0.551 (Simulation time: 00 hr 32 min 45 sec)
Heartbeat CPU 0 instructions: 169500969 cycles: 232041025 heartbeat IPC: 0.6066 cumulative IPC: 0.5513 (Simulation time: 00 hr 32 min 51 sec)
Heartbeat CPU 0 instructions: 170000974 cycles: 232804646 heartbeat IPC: 0.6548 cumulative IPC: 0.5516 (Simulation time: 00 hr 32 min 57 sec)
Heartbeat CPU 0 instructions: 170500975 cycles: 233690359 heartbeat IPC: 0.5645 cumulative IPC: 0.5517 (Simulation time: 00 hr 33 min 03 sec)
Heartbeat CPU 0 instructions: 171000975 cycles: 234638150 heartbeat IPC: 0.5275 cumulative IPC: 0.5516 (Simulation time: 00 hr 33 min 10 sec)
Heartbeat CPU 0 instructions: 171500977 cycles: 235536670 heartbeat IPC: 0.5565 cumulative IPC: 0.5516 (Simulation time: 00 hr 33 min 17 sec)
Heartbeat CPU 0 instructions: 172000977 cycles: 236434478 heartbeat IPC: 0.5569 cumulative IPC: 0.5516 (Simulation time: 00 hr 33 min 23 sec)
Heartbeat CPU 0 instructions: 172500982 cycles: 237381916 heartbeat IPC: 0.5277 cumulative IPC: 0.5515 (Simulation time: 00 hr 33 min 30 sec)
Heartbeat CPU 0 instructions: 173000986 cycles: 238137342 heartbeat IPC: 0.6619 cumulative IPC: 0.5519 (Simulation time: 00 hr 33 min 35 sec)
Heartbeat CPU 0 instructions: 173500989 cycles: 239074469 heartbeat IPC: 0.5335 cumulative IPC: 0.5518 (Simulation time: 00 hr 33 min 42 sec)
Heartbeat CPU 0 instructions: 174000992 cycles: 240022665 heartbeat IPC: 0.5273 cumulative IPC: 0.5517 (Simulation time: 00 hr 33 min 48 sec)
Heartbeat CPU 0 instructions: 174500992 cycles: 240816889 heartbeat IPC: 0.6295 cumulative IPC: 0.552 (Simulation time: 00 hr 33 min 54 sec)
Heartbeat CPU 0 instructions: 175000997 cycles: 241826811 heartbeat IPC: 0.4951 cumulative IPC: 0.5517 (Simulation time: 00 hr 34 min 01 sec)
Heartbeat CPU 0 instructions: 175501000 cycles: 242654040 heartbeat IPC: 0.6044 cumulative IPC: 0.5519 (Simulation time: 00 hr 34 min 07 sec)
Heartbeat CPU 0 instructions: 176001003 cycles: 243669944 heartbeat IPC: 0.4922 cumulative IPC: 0.5516 (Simulation time: 00 hr 34 min 15 sec)
Heartbeat CPU 0 instructions: 176501003 cycles: 244596220 heartbeat IPC: 0.5398 cumulative IPC: 0.5516 (Simulation time: 00 hr 34 min 21 sec)
Heartbeat CPU 0 instructions: 177001005 cycles: 245418653 heartbeat IPC: 0.608 cumulative IPC: 0.5518 (Simulation time: 00 hr 34 min 27 sec)
Heartbeat CPU 0 instructions: 177501009 cycles: 246269240 heartbeat IPC: 0.5878 cumulative IPC: 0.5519 (Simulation time: 00 hr 34 min 33 sec)
Heartbeat CPU 0 instructions: 178001014 cycles: 247023948 heartbeat IPC: 0.6625 cumulative IPC: 0.5523 (Simulation time: 00 hr 34 min 39 sec)
Heartbeat CPU 0 instructions: 178501019 cycles: 248104319 heartbeat IPC: 0.4628 cumulative IPC: 0.5519 (Simulation time: 00 hr 34 min 47 sec)
Heartbeat CPU 0 instructions: 179001020 cycles: 249022895 heartbeat IPC: 0.5443 cumulative IPC: 0.5518 (Simulation time: 00 hr 34 min 54 sec)
Heartbeat CPU 0 instructions: 179501025 cycles: 249896806 heartbeat IPC: 0.5721 cumulative IPC: 0.5519 (Simulation time: 00 hr 35 min 00 sec)
Heartbeat CPU 0 instructions: 180001027 cycles: 250708781 heartbeat IPC: 0.6158 cumulative IPC: 0.5521 (Simulation time: 00 hr 35 min 06 sec)
Heartbeat CPU 0 instructions: 180501028 cycles: 251557529 heartbeat IPC: 0.5891 cumulative IPC: 0.5523 (Simulation time: 00 hr 35 min 12 sec)
Heartbeat CPU 0 instructions: 181001034 cycles: 252631814 heartbeat IPC: 0.4654 cumulative IPC: 0.5519 (Simulation time: 00 hr 35 min 20 sec)
Heartbeat CPU 0 instructions: 181501041 cycles: 253471299 heartbeat IPC: 0.5956 cumulative IPC: 0.552 (Simulation time: 00 hr 35 min 26 sec)
Heartbeat CPU 0 instructions: 182001041 cycles: 254366076 heartbeat IPC: 0.5588 cumulative IPC: 0.5521 (Simulation time: 00 hr 35 min 32 sec)
Heartbeat CPU 0 instructions: 182501047 cycles: 255146011 heartbeat IPC: 0.6411 cumulative IPC: 0.5523 (Simulation time: 00 hr 35 min 38 sec)
Heartbeat CPU 0 instructions: 183001048 cycles: 256039968 heartbeat IPC: 0.5593 cumulative IPC: 0.5524 (Simulation time: 00 hr 35 min 44 sec)
Heartbeat CPU 0 instructions: 183501055 cycles: 256916595 heartbeat IPC: 0.5704 cumulative IPC: 0.5524 (Simulation time: 00 hr 35 min 50 sec)
Heartbeat CPU 0 instructions: 184001057 cycles: 257857740 heartbeat IPC: 0.5313 cumulative IPC: 0.5524 (Simulation time: 00 hr 35 min 57 sec)
Heartbeat CPU 0 instructions: 184501059 cycles: 258810113 heartbeat IPC: 0.525 cumulative IPC: 0.5523 (Simulation time: 00 hr 36 min 03 sec)
Heartbeat CPU 0 instructions: 185001060 cycles: 259711319 heartbeat IPC: 0.5548 cumulative IPC: 0.5523 (Simulation time: 00 hr 36 min 09 sec)
Heartbeat CPU 0 instructions: 185501060 cycles: 260750319 heartbeat IPC: 0.4812 cumulative IPC: 0.552 (Simulation time: 00 hr 36 min 17 sec)
Heartbeat CPU 0 instructions: 186001063 cycles: 261662724 heartbeat IPC: 0.548 cumulative IPC: 0.5519 (Simulation time: 00 hr 36 min 23 sec)
Heartbeat CPU 0 instructions: 186501063 cycles: 262572333 heartbeat IPC: 0.5497 cumulative IPC: 0.5519 (Simulation time: 00 hr 36 min 30 sec)
Heartbeat CPU 0 instructions: 187001067 cycles: 263416230 heartbeat IPC: 0.5925 cumulative IPC: 0.5521 (Simulation time: 00 hr 36 min 36 sec)
Heartbeat CPU 0 instructions: 187501074 cycles: 264241430 heartbeat IPC: 0.6059 cumulative IPC: 0.5523 (Simulation time: 00 hr 36 min 42 sec)
Heartbeat CPU 0 instructions: 188001078 cycles: 265175319 heartbeat IPC: 0.5354 cumulative IPC: 0.5522 (Simulation time: 00 hr 36 min 48 sec)
Heartbeat CPU 0 instructions: 188501081 cycles: 265925035 heartbeat IPC: 0.6669 cumulative IPC: 0.5525 (Simulation time: 00 hr 36 min 54 sec)
Heartbeat CPU 0 instructions: 189001081 cycles: 267008141 heartbeat IPC: 0.4616 cumulative IPC: 0.5521 (Simulation time: 00 hr 37 min 01 sec)
Heartbeat CPU 0 instructions: 189501082 cycles: 267836830 heartbeat IPC: 0.6034 cumulative IPC: 0.5523 (Simulation time: 00 hr 37 min 07 sec)
Heartbeat CPU 0 instructions: 190001085 cycles: 268677964 heartbeat IPC: 0.5944 cumulative IPC: 0.5525 (Simulation time: 00 hr 37 min 13 sec)
Heartbeat CPU 0 instructions: 190501090 cycles: 269547209 heartbeat IPC: 0.5752 cumulative IPC: 0.5525 (Simulation time: 00 hr 37 min 19 sec)
Heartbeat CPU 0 instructions: 191001091 cycles: 270410231 heartbeat IPC: 0.5794 cumulative IPC: 0.5526 (Simulation time: 00 hr 37 min 26 sec)
Heartbeat CPU 0 instructions: 191501097 cycles: 271365371 heartbeat IPC: 0.5235 cumulative IPC: 0.5525 (Simulation time: 00 hr 37 min 32 sec)
Heartbeat CPU 0 instructions: 192001098 cycles: 272231125 heartbeat IPC: 0.5775 cumulative IPC: 0.5526 (Simulation time: 00 hr 37 min 38 sec)
Heartbeat CPU 0 instructions: 192501098 cycles: 273094708 heartbeat IPC: 0.579 cumulative IPC: 0.5527 (Simulation time: 00 hr 37 min 45 sec)
Heartbeat CPU 0 instructions: 193001099 cycles: 274053424 heartbeat IPC: 0.5215 cumulative IPC: 0.5526 (Simulation time: 00 hr 37 min 51 sec)
Heartbeat CPU 0 instructions: 193501102 cycles: 274951914 heartbeat IPC: 0.5565 cumulative IPC: 0.5526 (Simulation time: 00 hr 37 min 58 sec)
Heartbeat CPU 0 instructions: 194001102 cycles: 275756653 heartbeat IPC: 0.6213 cumulative IPC: 0.5528 (Simulation time: 00 hr 38 min 04 sec)
Heartbeat CPU 0 instructions: 194501106 cycles: 276602211 heartbeat IPC: 0.5913 cumulative IPC: 0.5529 (Simulation time: 00 hr 38 min 10 sec)
Heartbeat CPU 0 instructions: 195001110 cycles: 277596044 heartbeat IPC: 0.5031 cumulative IPC: 0.5527 (Simulation time: 00 hr 38 min 17 sec)
Heartbeat CPU 0 instructions: 195501117 cycles: 278681413 heartbeat IPC: 0.4607 cumulative IPC: 0.5524 (Simulation time: 00 hr 38 min 24 sec)
Heartbeat CPU 0 instructions: 196001117 cycles: 279494083 heartbeat IPC: 0.6153 cumulative IPC: 0.5525 (Simulation time: 00 hr 38 min 30 sec)
Heartbeat CPU 0 instructions: 196501121 cycles: 280189779 heartbeat IPC: 0.7187 cumulative IPC: 0.553 (Simulation time: 00 hr 38 min 35 sec)
Heartbeat CPU 0 instructions: 197001128 cycles: 281112037 heartbeat IPC: 0.5422 cumulative IPC: 0.5529 (Simulation time: 00 hr 38 min 42 sec)
Heartbeat CPU 0 instructions: 197501133 cycles: 281984071 heartbeat IPC: 0.5734 cumulative IPC: 0.553 (Simulation time: 00 hr 38 min 48 sec)
Heartbeat CPU 0 instructions: 198001135 cycles: 283008814 heartbeat IPC: 0.4879 cumulative IPC: 0.5528 (Simulation time: 00 hr 38 min 55 sec)
Heartbeat CPU 0 instructions: 198501138 cycles: 283813178 heartbeat IPC: 0.6216 cumulative IPC: 0.553 (Simulation time: 00 hr 39 min 01 sec)
Heartbeat CPU 0 instructions: 199001143 cycles: 284775371 heartbeat IPC: 0.5197 cumulative IPC: 0.5528 (Simulation time: 00 hr 39 min 08 sec)
Heartbeat CPU 0 instructions: 199501148 cycles: 285706945 heartbeat IPC: 0.5367 cumulative IPC: 0.5528 (Simulation time: 00 hr 39 min 14 sec)
Heartbeat CPU 0 instructions: 200001155 cycles: 286539659 heartbeat IPC: 0.6005 cumulative IPC: 0.5529 (Simulation time: 00 hr 39 min 20 sec)
Heartbeat CPU 0 instructions: 200501155 cycles: 287433578 heartbeat IPC: 0.5593 cumulative IPC: 0.553 (Simulation time: 00 hr 39 min 27 sec)
Heartbeat CPU 0 instructions: 201001156 cycles: 288370042 heartbeat IPC: 0.5339 cumulative IPC: 0.5529 (Simulation time: 00 hr 39 min 33 sec)
Heartbeat CPU 0 instructions: 201501163 cycles: 289273971 heartbeat IPC: 0.5531 cumulative IPC: 0.5529 (Simulation time: 00 hr 39 min 40 sec)
Heartbeat CPU 0 instructions: 202001170 cycles: 290060495 heartbeat IPC: 0.6357 cumulative IPC: 0.5531 (Simulation time: 00 hr 39 min 45 sec)
Heartbeat CPU 0 instructions: 202501177 cycles: 290923932 heartbeat IPC: 0.5791 cumulative IPC: 0.5532 (Simulation time: 00 hr 39 min 52 sec)
Heartbeat CPU 0 instructions: 203001181 cycles: 291864477 heartbeat IPC: 0.5316 cumulative IPC: 0.5531 (Simulation time: 00 hr 39 min 58 sec)
Heartbeat CPU 0 instructions: 203501181 cycles: 292834275 heartbeat IPC: 0.5156 cumulative IPC: 0.553 (Simulation time: 00 hr 40 min 05 sec)
Heartbeat CPU 0 instructions: 204001184 cycles: 293742851 heartbeat IPC: 0.5503 cumulative IPC: 0.553 (Simulation time: 00 hr 40 min 12 sec)
Heartbeat CPU 0 instructions: 204501185 cycles: 294501057 heartbeat IPC: 0.6595 cumulative IPC: 0.5533 (Simulation time: 00 hr 40 min 17 sec)
Heartbeat CPU 0 instructions: 205001191 cycles: 295418503 heartbeat IPC: 0.545 cumulative IPC: 0.5533 (Simulation time: 00 hr 40 min 24 sec)
Heartbeat CPU 0 instructions: 205501195 cycles: 296291228 heartbeat IPC: 0.5729 cumulative IPC: 0.5533 (Simulation time: 00 hr 40 min 30 sec)
Heartbeat CPU 0 instructions: 206001198 cycles: 297154183 heartbeat IPC: 0.5794 cumulative IPC: 0.5534 (Simulation time: 00 hr 40 min 36 sec)
Heartbeat CPU 0 instructions: 206501202 cycles: 298221763 heartbeat IPC: 0.4684 cumulative IPC: 0.5531 (Simulation time: 00 hr 40 min 44 sec)
Heartbeat CPU 0 instructions: 207001205 cycles: 299141999 heartbeat IPC: 0.5433 cumulative IPC: 0.5531 (Simulation time: 00 hr 40 min 50 sec)
Heartbeat CPU 0 instructions: 207501211 cycles: 299947642 heartbeat IPC: 0.6206 cumulative IPC: 0.5532 (Simulation time: 00 hr 40 min 56 sec)
Heartbeat CPU 0 instructions: 208001214 cycles: 300986098 heartbeat IPC: 0.4815 cumulative IPC: 0.553 (Simulation time: 00 hr 41 min 03 sec)
Heartbeat CPU 0 instructions: 208501221 cycles: 301800953 heartbeat IPC: 0.6136 cumulative IPC: 0.5532 (Simulation time: 00 hr 41 min 09 sec)
Heartbeat CPU 0 instructions: 209001224 cycles: 302597760 heartbeat IPC: 0.6275 cumulative IPC: 0.5534 (Simulation time: 00 hr 41 min 15 sec)
Heartbeat CPU 0 instructions: 209501229 cycles: 303558502 heartbeat IPC: 0.5204 cumulative IPC: 0.5532 (Simulation time: 00 hr 41 min 22 sec)
Heartbeat CPU 0 instructions: 210001231 cycles: 304401081 heartbeat IPC: 0.5934 cumulative IPC: 0.5534 (Simulation time: 00 hr 41 min 28 sec)
Heartbeat CPU 0 instructions: 210501231 cycles: 305452305 heartbeat IPC: 0.4756 cumulative IPC: 0.5531 (Simulation time: 00 hr 41 min 35 sec)
Heartbeat CPU 0 instructions: 211001231 cycles: 306345575 heartbeat IPC: 0.5597 cumulative IPC: 0.5531 (Simulation time: 00 hr 41 min 42 sec)
Heartbeat CPU 0 instructions: 211501233 cycles: 307275800 heartbeat IPC: 0.5375 cumulative IPC: 0.5531 (Simulation time: 00 hr 41 min 48 sec)
Heartbeat CPU 0 instructions: 212001237 cycles: 308178776 heartbeat IPC: 0.5537 cumulative IPC: 0.5531 (Simulation time: 00 hr 41 min 55 sec)
Heartbeat CPU 0 instructions: 212501237 cycles: 308996482 heartbeat IPC: 0.6115 cumulative IPC: 0.5532 (Simulation time: 00 hr 42 min 01 sec)
Heartbeat CPU 0 instructions: 213001240 cycles: 309887219 heartbeat IPC: 0.5613 cumulative IPC: 0.5532 (Simulation time: 00 hr 42 min 07 sec)
Heartbeat CPU 0 instructions: 213501245 cycles: 310859214 heartbeat IPC: 0.5144 cumulative IPC: 0.5531 (Simulation time: 00 hr 42 min 14 sec)
Heartbeat CPU 0 instructions: 214001245 cycles: 311670046 heartbeat IPC: 0.6167 cumulative IPC: 0.5533 (Simulation time: 00 hr 42 min 20 sec)
Heartbeat CPU 0 instructions: 214501245 cycles: 312509440 heartbeat IPC: 0.5957 cumulative IPC: 0.5534 (Simulation time: 00 hr 42 min 26 sec)
Heartbeat CPU 0 instructions: 215001246 cycles: 313377552 heartbeat IPC: 0.576 cumulative IPC: 0.5535 (Simulation time: 00 hr 42 min 32 sec)
Heartbeat CPU 0 instructions: 215501247 cycles: 314319076 heartbeat IPC: 0.5311 cumulative IPC: 0.5534 (Simulation time: 00 hr 42 min 39 sec)
Heartbeat CPU 0 instructions: 216001248 cycles: 315316228 heartbeat IPC: 0.5014 cumulative IPC: 0.5532 (Simulation time: 00 hr 42 min 46 sec)
Heartbeat CPU 0 instructions: 216501250 cycles: 316714230 heartbeat IPC: 0.3577 cumulative IPC: 0.5523 (Simulation time: 00 hr 42 min 56 sec)
Heartbeat CPU 0 instructions: 217001255 cycles: 317413700 heartbeat IPC: 0.7148 cumulative IPC: 0.5527 (Simulation time: 00 hr 43 min 01 sec)
Heartbeat CPU 0 instructions: 217501255 cycles: 318219257 heartbeat IPC: 0.6207 cumulative IPC: 0.5529 (Simulation time: 00 hr 43 min 07 sec)
Heartbeat CPU 0 instructions: 218001261 cycles: 318644802 heartbeat IPC: 1.175 cumulative IPC: 0.5538 (Simulation time: 00 hr 43 min 11 sec)
Heartbeat CPU 0 instructions: 218501261 cycles: 319625736 heartbeat IPC: 0.5097 cumulative IPC: 0.5536 (Simulation time: 00 hr 43 min 18 sec)
Heartbeat CPU 0 instructions: 219001263 cycles: 320507620 heartbeat IPC: 0.567 cumulative IPC: 0.5537 (Simulation time: 00 hr 43 min 24 sec)
Heartbeat CPU 0 instructions: 219501264 cycles: 321367807 heartbeat IPC: 0.5813 cumulative IPC: 0.5537 (Simulation time: 00 hr 43 min 30 sec)
Heartbeat CPU 0 instructions: 220001265 cycles: 322363745 heartbeat IPC: 0.502 cumulative IPC: 0.5536 (Simulation time: 00 hr 43 min 37 sec)
Heartbeat CPU 0 instructions: 220501266 cycles: 323209734 heartbeat IPC: 0.591 cumulative IPC: 0.5537 (Simulation time: 00 hr 43 min 43 sec)
Heartbeat CPU 0 instructions: 221001273 cycles: 324136789 heartbeat IPC: 0.5393 cumulative IPC: 0.5536 (Simulation time: 00 hr 43 min 50 sec)
Heartbeat CPU 0 instructions: 221501274 cycles: 325027443 heartbeat IPC: 0.5614 cumulative IPC: 0.5536 (Simulation time: 00 hr 43 min 56 sec)
Heartbeat CPU 0 instructions: 222001275 cycles: 325685595 heartbeat IPC: 0.7597 cumulative IPC: 0.5541 (Simulation time: 00 hr 44 min 01 sec)
Heartbeat CPU 0 instructions: 222501278 cycles: 326701642 heartbeat IPC: 0.4921 cumulative IPC: 0.5539 (Simulation time: 00 hr 44 min 08 sec)
Heartbeat CPU 0 instructions: 223001284 cycles: 327517508 heartbeat IPC: 0.6129 cumulative IPC: 0.554 (Simulation time: 00 hr 44 min 14 sec)
Heartbeat CPU 0 instructions: 223501289 cycles: 328342600 heartbeat IPC: 0.606 cumulative IPC: 0.5542 (Simulation time: 00 hr 44 min 20 sec)
Heartbeat CPU 0 instructions: 224001290 cycles: 329300942 heartbeat IPC: 0.5217 cumulative IPC: 0.5541 (Simulation time: 00 hr 44 min 27 sec)
Heartbeat CPU 0 instructions: 224501293 cycles: 330169237 heartbeat IPC: 0.5758 cumulative IPC: 0.5541 (Simulation time: 00 hr 44 min 34 sec)
Heartbeat CPU 0 instructions: 225001300 cycles: 331177785 heartbeat IPC: 0.4958 cumulative IPC: 0.5539 (Simulation time: 00 hr 44 min 41 sec)
Heartbeat CPU 0 instructions: 225501300 cycles: 331950286 heartbeat IPC: 0.6472 cumulative IPC: 0.5542 (Simulation time: 00 hr 44 min 47 sec)
Heartbeat CPU 0 instructions: 226001306 cycles: 332856826 heartbeat IPC: 0.5516 cumulative IPC: 0.5542 (Simulation time: 00 hr 44 min 53 sec)
Heartbeat CPU 0 instructions: 226501307 cycles: 333754010 heartbeat IPC: 0.5573 cumulative IPC: 0.5542 (Simulation time: 00 hr 44 min 59 sec)
Heartbeat CPU 0 instructions: 227001307 cycles: 334674415 heartbeat IPC: 0.5432 cumulative IPC: 0.5541 (Simulation time: 00 hr 45 min 06 sec)
Heartbeat CPU 0 instructions: 227501313 cycles: 335569594 heartbeat IPC: 0.5586 cumulative IPC: 0.5542 (Simulation time: 00 hr 45 min 12 sec)
Heartbeat CPU 0 instructions: 228001313 cycles: 336522429 heartbeat IPC: 0.5247 cumulative IPC: 0.5541 (Simulation time: 00 hr 45 min 19 sec)
Heartbeat CPU 0 instructions: 228501315 cycles: 337468320 heartbeat IPC: 0.5286 cumulative IPC: 0.554 (Simulation time: 00 hr 45 min 25 sec)
Heartbeat CPU 0 instructions: 229001315 cycles: 338364830 heartbeat IPC: 0.5577 cumulative IPC: 0.554 (Simulation time: 00 hr 45 min 32 sec)
Heartbeat CPU 0 instructions: 229501317 cycles: 339239112 heartbeat IPC: 0.5719 cumulative IPC: 0.5541 (Simulation time: 00 hr 45 min 38 sec)
Heartbeat CPU 0 instructions: 230001318 cycles: 340177415 heartbeat IPC: 0.5329 cumulative IPC: 0.554 (Simulation time: 00 hr 45 min 45 sec)
Heartbeat CPU 0 instructions: 230501323 cycles: 341058438 heartbeat IPC: 0.5675 cumulative IPC: 0.554 (Simulation time: 00 hr 45 min 51 sec)
Heartbeat CPU 0 instructions: 231001329 cycles: 342043566 heartbeat IPC: 0.5076 cumulative IPC: 0.5539 (Simulation time: 00 hr 45 min 58 sec)
Heartbeat CPU 0 instructions: 231501329 cycles: 342843893 heartbeat IPC: 0.6247 cumulative IPC: 0.5541 (Simulation time: 00 hr 46 min 04 sec)
Heartbeat CPU 0 instructions: 232001332 cycles: 343823586 heartbeat IPC: 0.5104 cumulative IPC: 0.5539 (Simulation time: 00 hr 46 min 11 sec)
Heartbeat CPU 0 instructions: 232501332 cycles: 344716432 heartbeat IPC: 0.56 cumulative IPC: 0.5539 (Simulation time: 00 hr 46 min 18 sec)
Heartbeat CPU 0 instructions: 233001335 cycles: 345644608 heartbeat IPC: 0.5387 cumulative IPC: 0.5539 (Simulation time: 00 hr 46 min 24 sec)
Heartbeat CPU 0 instructions: 233501341 cycles: 346417849 heartbeat IPC: 0.6466 cumulative IPC: 0.5541 (Simulation time: 00 hr 46 min 30 sec)
Heartbeat CPU 0 instructions: 234001344 cycles: 347501694 heartbeat IPC: 0.4613 cumulative IPC: 0.5538 (Simulation time: 00 hr 46 min 37 sec)
Heartbeat CPU 0 instructions: 234501346 cycles: 348338922 heartbeat IPC: 0.5972 cumulative IPC: 0.5539 (Simulation time: 00 hr 46 min 43 sec)
Heartbeat CPU 0 instructions: 235001353 cycles: 349221939 heartbeat IPC: 0.5662 cumulative IPC: 0.554 (Simulation time: 00 hr 46 min 50 sec)
Heartbeat CPU 0 instructions: 235501360 cycles: 350186656 heartbeat IPC: 0.5183 cumulative IPC: 0.5539 (Simulation time: 00 hr 46 min 57 sec)
Heartbeat CPU 0 instructions: 236001362 cycles: 351160850 heartbeat IPC: 0.5132 cumulative IPC: 0.5537 (Simulation time: 00 hr 47 min 04 sec)
Heartbeat CPU 0 instructions: 236501362 cycles: 351984328 heartbeat IPC: 0.6072 cumulative IPC: 0.5539 (Simulation time: 00 hr 47 min 10 sec)
Heartbeat CPU 0 instructions: 237001363 cycles: 352890853 heartbeat IPC: 0.5516 cumulative IPC: 0.5539 (Simulation time: 00 hr 47 min 16 sec)
Heartbeat CPU 0 instructions: 237501368 cycles: 353803823 heartbeat IPC: 0.5477 cumulative IPC: 0.5538 (Simulation time: 00 hr 47 min 23 sec)
Heartbeat CPU 0 instructions: 238001369 cycles: 354763359 heartbeat IPC: 0.5211 cumulative IPC: 0.5538 (Simulation time: 00 hr 47 min 29 sec)
Heartbeat CPU 0 instructions: 238501373 cycles: 355534875 heartbeat IPC: 0.6481 cumulative IPC: 0.554 (Simulation time: 00 hr 47 min 35 sec)
Heartbeat CPU 0 instructions: 239001373 cycles: 356467894 heartbeat IPC: 0.5359 cumulative IPC: 0.5539 (Simulation time: 00 hr 47 min 42 sec)
Heartbeat CPU 0 instructions: 239501373 cycles: 357355935 heartbeat IPC: 0.563 cumulative IPC: 0.5539 (Simulation time: 00 hr 47 min 48 sec)
Heartbeat CPU 0 instructions: 240001373 cycles: 358221344 heartbeat IPC: 0.5778 cumulative IPC: 0.554 (Simulation time: 00 hr 47 min 54 sec)
Heartbeat CPU 0 instructions: 240501373 cycles: 359178520 heartbeat IPC: 0.5224 cumulative IPC: 0.5539 (Simulation time: 00 hr 48 min 01 sec)
Heartbeat CPU 0 instructions: 241001375 cycles: 360081544 heartbeat IPC: 0.5537 cumulative IPC: 0.5539 (Simulation time: 00 hr 48 min 07 sec)
Heartbeat CPU 0 instructions: 241501375 cycles: 360961675 heartbeat IPC: 0.5681 cumulative IPC: 0.5539 (Simulation time: 00 hr 48 min 14 sec)
Heartbeat CPU 0 instructions: 242001375 cycles: 361926162 heartbeat IPC: 0.5184 cumulative IPC: 0.5539 (Simulation time: 00 hr 48 min 21 sec)
Heartbeat CPU 0 instructions: 242501382 cycles: 362724902 heartbeat IPC: 0.626 cumulative IPC: 0.554 (Simulation time: 00 hr 48 min 26 sec)
Heartbeat CPU 0 instructions: 243001384 cycles: 363642116 heartbeat IPC: 0.5451 cumulative IPC: 0.554 (Simulation time: 00 hr 48 min 33 sec)
Heartbeat CPU 0 instructions: 243501389 cycles: 364432801 heartbeat IPC: 0.6324 cumulative IPC: 0.5542 (Simulation time: 00 hr 48 min 39 sec)
Heartbeat CPU 0 instructions: 244001392 cycles: 365410236 heartbeat IPC: 0.5115 cumulative IPC: 0.5541 (Simulation time: 00 hr 48 min 46 sec)
Heartbeat CPU 0 instructions: 244501392 cycles: 366267522 heartbeat IPC: 0.5832 cumulative IPC: 0.5541 (Simulation time: 00 hr 48 min 52 sec)
Heartbeat CPU 0 instructions: 245001392 cycles: 367310669 heartbeat IPC: 0.4793 cumulative IPC: 0.5539 (Simulation time: 00 hr 48 min 59 sec)
Heartbeat CPU 0 instructions: 245501393 cycles: 368096004 heartbeat IPC: 0.6367 cumulative IPC: 0.5541 (Simulation time: 00 hr 49 min 05 sec)
Heartbeat CPU 0 instructions: 246001393 cycles: 368944126 heartbeat IPC: 0.5895 cumulative IPC: 0.5542 (Simulation time: 00 hr 49 min 11 sec)
Heartbeat CPU 0 instructions: 246501395 cycles: 369906629 heartbeat IPC: 0.5195 cumulative IPC: 0.5541 (Simulation time: 00 hr 49 min 18 sec)
Heartbeat CPU 0 instructions: 247001396 cycles: 370777069 heartbeat IPC: 0.5744 cumulative IPC: 0.5541 (Simulation time: 00 hr 49 min 24 sec)
Heartbeat CPU 0 instructions: 247501396 cycles: 371562057 heartbeat IPC: 0.637 cumulative IPC: 0.5543 (Simulation time: 00 hr 49 min 30 sec)
Heartbeat CPU 0 instructions: 248001401 cycles: 372596925 heartbeat IPC: 0.4832 cumulative IPC: 0.5541 (Simulation time: 00 hr 49 min 37 sec)
Heartbeat CPU 0 instructions: 248501408 cycles: 373319978 heartbeat IPC: 0.6915 cumulative IPC: 0.5544 (Simulation time: 00 hr 49 min 43 sec)
Heartbeat CPU 0 instructions: 249001413 cycles: 374281823 heartbeat IPC: 0.5198 cumulative IPC: 0.5543 (Simulation time: 00 hr 49 min 49 sec)
Heartbeat CPU 0 instructions: 249501417 cycles: 375081031 heartbeat IPC: 0.6256 cumulative IPC: 0.5544 (Simulation time: 00 hr 49 min 55 sec)
Simulation finished CPU 0 instructions: 200000007 cycles: 360838534 cumulative IPC: 0.5543 (Simulation time: 00 hr 50 min 02 sec)
Simulation complete CPU 0 instructions: 200000007 cycles: 360838534 cumulative IPC: 0.5543 (Simulation time: 00 hr 50 min 02 sec)

ChampSim completed all CPUs

=== Simulation ===
CPU 0 runs /local-ssd/ben/dpc4-traces/SPEC17/620.omnetpp_s-874B.champsimtrace.xz

Region of Interest Statistics

CPU 0 cumulative IPC: 0.5543 instructions: 200000007 cycles: 360838534
CPU 0 Branch Prediction Accuracy: 94.91% MPKI: 10.59 Average ROB Occupancy at Mispredict: 74.29
Branch type MPKI
BRANCH_DIRECT_JUMP: 0.9232
BRANCH_INDIRECT: 0.1267
BRANCH_CONDITIONAL: 8.407
BRANCH_DIRECT_CALL: 0.000125
BRANCH_INDIRECT_CALL: 0.7329
BRANCH_RETURN: 0.3971

cpu0->cpu0_STLB TOTAL        ACCESS:    4016316 HIT:    3151051 MISS:     865265 MSHR_MERGE:          0
cpu0->cpu0_STLB LOAD         ACCESS:    4016316 HIT:    3151051 MISS:     865265 MSHR_MERGE:          0
cpu0->cpu0_STLB RFO          ACCESS:          0 HIT:          0 MISS:          0 MSHR_MERGE:          0
cpu0->cpu0_STLB PREFETCH     ACCESS:          0 HIT:          0 MISS:          0 MSHR_MERGE:          0
cpu0->cpu0_STLB WRITE        ACCESS:          0 HIT:          0 MISS:          0 MSHR_MERGE:          0
cpu0->cpu0_STLB TRANSLATION  ACCESS:          0 HIT:          0 MISS:          0 MSHR_MERGE:          0
cpu0->cpu0_STLB PREFETCH REQUESTED:          0 ISSUED:          0 USEFUL:          0 USELESS:          0
cpu0->cpu0_STLB AVERAGE MISS LATENCY: 90.44 cycles
cpu0->cpu0_L2C TOTAL        ACCESS:   13475000 HIT:    8396375 MISS:    5078625 MSHR_MERGE:     777900
cpu0->cpu0_L2C LOAD         ACCESS:    2922162 HIT:    1757959 MISS:    1164203 MSHR_MERGE:      26530
cpu0->cpu0_L2C RFO          ACCESS:     465144 HIT:     316240 MISS:     148904 MSHR_MERGE:       9430
cpu0->cpu0_L2C PREFETCH     ACCESS:    7433510 HIT:    3918927 MISS:    3514583 MSHR_MERGE:     741940
cpu0->cpu0_L2C WRITE        ACCESS:    1899813 HIT:    1899408 MISS:        405 MSHR_MERGE:          0
cpu0->cpu0_L2C TRANSLATION  ACCESS:     754371 HIT:     503841 MISS:     250530 MSHR_MERGE:          0
cpu0->cpu0_L2C PREFETCH REQUESTED:    5938793 ISSUED:    5917373 USEFUL:     732292 USELESS:    1317730
cpu0->cpu0_L2C AVERAGE MISS LATENCY: 199 cycles
cpu0->cpu0_L1I TOTAL        ACCESS:    6026761 HIT:    6026698 MISS:         63 MSHR_MERGE:          1
cpu0->cpu0_L1I LOAD         ACCESS:    6026761 HIT:    6026698 MISS:         63 MSHR_MERGE:          1
cpu0->cpu0_L1I RFO          ACCESS:          0 HIT:          0 MISS:          0 MSHR_MERGE:          0
cpu0->cpu0_L1I PREFETCH     ACCESS:          0 HIT:          0 MISS:          0 MSHR_MERGE:          0
cpu0->cpu0_L1I WRITE        ACCESS:          0 HIT:          0 MISS:          0 MSHR_MERGE:          0
cpu0->cpu0_L1I TRANSLATION  ACCESS:          0 HIT:          0 MISS:          0 MSHR_MERGE:          0
cpu0->cpu0_L1I PREFETCH REQUESTED:          0 ISSUED:          0 USEFUL:          0 USELESS:          0
cpu0->cpu0_L1I AVERAGE MISS LATENCY: 194 cycles
cpu0->cpu0_L1D TOTAL        ACCESS:   79962692 HIT:   72931662 MISS:    7031030 MSHR_MERGE:    1373239
cpu0->cpu0_L1D LOAD         ACCESS:   38692253 HIT:   35090271 MISS:    3601982 MSHR_MERGE:     679873
cpu0->cpu0_L1D RFO          ACCESS:          0 HIT:          0 MISS:          0 MSHR_MERGE:          0
cpu0->cpu0_L1D PREFETCH     ACCESS:    4134096 HIT:    2561253 MISS:    1572843 MSHR_MERGE:      56704
cpu0->cpu0_L1D WRITE        ACCESS:   35080722 HIT:   33980440 MISS:    1100282 MSHR_MERGE:     635110
cpu0->cpu0_L1D TRANSLATION  ACCESS:    2055621 HIT:    1299698 MISS:     755923 MSHR_MERGE:       1552
cpu0->cpu0_L1D PREFETCH REQUESTED:    4160194 ISSUED:    4134088 USEFUL:     486379 USELESS:    1029714
cpu0->cpu0_L1D AVERAGE MISS LATENCY: 83.61 cycles
cpu0->cpu0_ITLB TOTAL        ACCESS:    5325170 HIT:    5230822 MISS:      94348 MSHR_MERGE:      44952
cpu0->cpu0_ITLB LOAD         ACCESS:    5325170 HIT:    5230822 MISS:      94348 MSHR_MERGE:      44952
cpu0->cpu0_ITLB RFO          ACCESS:          0 HIT:          0 MISS:          0 MSHR_MERGE:          0
cpu0->cpu0_ITLB PREFETCH     ACCESS:          0 HIT:          0 MISS:          0 MSHR_MERGE:          0
cpu0->cpu0_ITLB WRITE        ACCESS:          0 HIT:          0 MISS:          0 MSHR_MERGE:          0
cpu0->cpu0_ITLB TRANSLATION  ACCESS:          0 HIT:          0 MISS:          0 MSHR_MERGE:          0
cpu0->cpu0_ITLB PREFETCH REQUESTED:          0 ISSUED:          0 USEFUL:          0 USELESS:          0
cpu0->cpu0_ITLB AVERAGE MISS LATENCY: 10.59 cycles
cpu0->cpu0_DTLB TOTAL        ACCESS:   72738445 HIT:   68074836 MISS:    4663609 MSHR_MERGE:     696689
cpu0->cpu0_DTLB LOAD         ACCESS:   72738445 HIT:   68074836 MISS:    4663609 MSHR_MERGE:     696689
cpu0->cpu0_DTLB RFO          ACCESS:          0 HIT:          0 MISS:          0 MSHR_MERGE:          0
cpu0->cpu0_DTLB PREFETCH     ACCESS:          0 HIT:          0 MISS:          0 MSHR_MERGE:          0
cpu0->cpu0_DTLB WRITE        ACCESS:          0 HIT:          0 MISS:          0 MSHR_MERGE:          0
cpu0->cpu0_DTLB TRANSLATION  ACCESS:          0 HIT:          0 MISS:          0 MSHR_MERGE:          0
cpu0->cpu0_DTLB PREFETCH REQUESTED:          0 ISSUED:          0 USEFUL:          0 USELESS:          0
cpu0->cpu0_DTLB AVERAGE MISS LATENCY: 24.88 cycles
cpu0->LLC TOTAL        ACCESS:    8683230 HIT:    1921181 MISS:    6762049 MSHR_MERGE:     874526
cpu0->LLC LOAD         ACCESS:    1137673 HIT:     267002 MISS:     870671 MSHR_MERGE:      12029
cpu0->LLC RFO          ACCESS:     139474 HIT:      40281 MISS:      99193 MSHR_MERGE:       3934
cpu0->LLC PREFETCH     ACCESS:    6176452 HIT:    1186099 MISS:    4990353 MSHR_MERGE:     858563
cpu0->LLC WRITE        ACCESS:     979101 HIT:     417034 MISS:     562067 MSHR_MERGE:          0
cpu0->LLC TRANSLATION  ACCESS:     250530 HIT:      10765 MISS:     239765 MSHR_MERGE:          0
cpu0->LLC PREFETCH REQUESTED:    3404245 ISSUED:    3403809 USEFUL:     755997 USELESS:    1428333
cpu0->LLC AVERAGE MISS LATENCY: 158.8 cycles

DRAM Statistics

Channel 0 RQ ROW_BUFFER_HIT:     116277
  ROW_BUFFER_MISS:    5209070
  AVG DBUS CONGESTED CYCLE: 19.26
Channel 0 WQ ROW_BUFFER_HIT:     224168
  ROW_BUFFER_MISS:     590758
  FULL:          0
Channel 0 REFRESHES ISSUED:      30068
