[VMEM] WARNING: physical memory size is smaller than virtual memory size.

*** ChampSim Multicore Out-of-Order Simulator ***
Warmup Instructions: 50000000
Simulation Instructions: 200000000
Number of CPUs: 1
Page size: 4096
Core 0: /local-ssd/ben/dpc4-traces/ai-ml/llama2.c-stories110M.2.champsimtrace.gz
 L1D Berti prefetcher
Off-chip DRAM Size: 64 GiB Channels: 1 Width: 64-bit Data Rate: 4807 MT/s
Heartbeat CPU 0 instructions: 500007 cycles: 128209 heartbeat IPC: 3.9 cumulative IPC: 3.9 (Simulation time: 00 hr 00 min 02 sec)
Heartbeat CPU 0 instructions: 1000012 cycles: 254818 heartbeat IPC: 3.949 cumulative IPC: 3.924 (Simulation time: 00 hr 00 min 04 sec)
Heartbeat CPU 0 instructions: 1500018 cycles: 381223 heartbeat IPC: 3.956 cumulative IPC: 3.935 (Simulation time: 00 hr 00 min 06 sec)
Heartbeat CPU 0 instructions: 2000025 cycles: 507613 heartbeat IPC: 3.956 cumulative IPC: 3.94 (Simulation time: 00 hr 00 min 08 sec)
Heartbeat CPU 0 instructions: 2500027 cycles: 634084 heartbeat IPC: 3.953 cumulative IPC: 3.943 (Simulation time: 00 hr 00 min 10 sec)
Heartbeat CPU 0 instructions: 3000030 cycles: 760758 heartbeat IPC: 3.947 cumulative IPC: 3.943 (Simulation time: 00 hr 00 min 12 sec)
Heartbeat CPU 0 instructions: 3500033 cycles: 887236 heartbeat IPC: 3.953 cumulative IPC: 3.945 (Simulation time: 00 hr 00 min 14 sec)
Heartbeat CPU 0 instructions: 4000035 cycles: 1013922 heartbeat IPC: 3.947 cumulative IPC: 3.945 (Simulation time: 00 hr 00 min 16 sec)
Heartbeat CPU 0 instructions: 4500038 cycles: 1140612 heartbeat IPC: 3.947 cumulative IPC: 3.945 (Simulation time: 00 hr 00 min 18 sec)
Heartbeat CPU 0 instructions: 5000042 cycles: 1268080 heartbeat IPC: 3.923 cumulative IPC: 3.943 (Simulation time: 00 hr 00 min 20 sec)
Heartbeat CPU 0 instructions: 5500042 cycles: 1394380 heartbeat IPC: 3.959 cumulative IPC: 3.944 (Simulation time: 00 hr 00 min 22 sec)
Heartbeat CPU 0 instructions: 6000048 cycles: 1521294 heartbeat IPC: 3.94 cumulative IPC: 3.944 (Simulation time: 00 hr 00 min 24 sec)
Heartbeat CPU 0 instructions: 6500053 cycles: 1647689 heartbeat IPC: 3.956 cumulative IPC: 3.945 (Simulation time: 00 hr 00 min 27 sec)
Heartbeat CPU 0 instructions: 7000053 cycles: 1774437 heartbeat IPC: 3.945 cumulative IPC: 3.945 (Simulation time: 00 hr 00 min 29 sec)
Heartbeat CPU 0 instructions: 7500054 cycles: 1900416 heartbeat IPC: 3.969 cumulative IPC: 3.947 (Simulation time: 00 hr 00 min 31 sec)
Heartbeat CPU 0 instructions: 8000058 cycles: 2025515 heartbeat IPC: 3.997 cumulative IPC: 3.95 (Simulation time: 00 hr 00 min 33 sec)
Heartbeat CPU 0 instructions: 8500058 cycles: 2152014 heartbeat IPC: 3.953 cumulative IPC: 3.95 (Simulation time: 00 hr 00 min 35 sec)
Heartbeat CPU 0 instructions: 9000062 cycles: 2278320 heartbeat IPC: 3.959 cumulative IPC: 3.95 (Simulation time: 00 hr 00 min 37 sec)
Heartbeat CPU 0 instructions: 9500062 cycles: 2405329 heartbeat IPC: 3.937 cumulative IPC: 3.95 (Simulation time: 00 hr 00 min 39 sec)
Heartbeat CPU 0 instructions: 10000067 cycles: 2531942 heartbeat IPC: 3.949 cumulative IPC: 3.95 (Simulation time: 00 hr 00 min 41 sec)
Heartbeat CPU 0 instructions: 10500072 cycles: 2658345 heartbeat IPC: 3.956 cumulative IPC: 3.95 (Simulation time: 00 hr 00 min 43 sec)
Heartbeat CPU 0 instructions: 11000074 cycles: 2784750 heartbeat IPC: 3.956 cumulative IPC: 3.95 (Simulation time: 00 hr 00 min 45 sec)
Heartbeat CPU 0 instructions: 11500079 cycles: 2911150 heartbeat IPC: 3.956 cumulative IPC: 3.95 (Simulation time: 00 hr 00 min 47 sec)
Heartbeat CPU 0 instructions: 12000083 cycles: 3037745 heartbeat IPC: 3.95 cumulative IPC: 3.95 (Simulation time: 00 hr 00 min 49 sec)
Heartbeat CPU 0 instructions: 12500083 cycles: 3164147 heartbeat IPC: 3.956 cumulative IPC: 3.951 (Simulation time: 00 hr 00 min 51 sec)
Heartbeat CPU 0 instructions: 13000089 cycles: 3290757 heartbeat IPC: 3.949 cumulative IPC: 3.95 (Simulation time: 00 hr 00 min 53 sec)
Heartbeat CPU 0 instructions: 13500094 cycles: 3417368 heartbeat IPC: 3.949 cumulative IPC: 3.95 (Simulation time: 00 hr 00 min 56 sec)
Heartbeat CPU 0 instructions: 14000099 cycles: 3543771 heartbeat IPC: 3.956 cumulative IPC: 3.951 (Simulation time: 00 hr 00 min 58 sec)
Heartbeat CPU 0 instructions: 14500105 cycles: 3670381 heartbeat IPC: 3.949 cumulative IPC: 3.951 (Simulation time: 00 hr 01 min 00 sec)
Heartbeat CPU 0 instructions: 15000109 cycles: 3794969 heartbeat IPC: 4.013 cumulative IPC: 3.953 (Simulation time: 00 hr 01 min 02 sec)
Heartbeat CPU 0 instructions: 15500116 cycles: 3921648 heartbeat IPC: 3.947 cumulative IPC: 3.952 (Simulation time: 00 hr 01 min 04 sec)
Heartbeat CPU 0 instructions: 16000123 cycles: 4048136 heartbeat IPC: 3.953 cumulative IPC: 3.952 (Simulation time: 00 hr 01 min 06 sec)
Heartbeat CPU 0 instructions: 16500125 cycles: 4175024 heartbeat IPC: 3.94 cumulative IPC: 3.952 (Simulation time: 00 hr 01 min 08 sec)
Heartbeat CPU 0 instructions: 17000128 cycles: 4301501 heartbeat IPC: 3.953 cumulative IPC: 3.952 (Simulation time: 00 hr 01 min 10 sec)
Heartbeat CPU 0 instructions: 17500133 cycles: 4427969 heartbeat IPC: 3.954 cumulative IPC: 3.952 (Simulation time: 00 hr 01 min 12 sec)
Heartbeat CPU 0 instructions: 18000137 cycles: 4554268 heartbeat IPC: 3.959 cumulative IPC: 3.952 (Simulation time: 00 hr 01 min 14 sec)
Heartbeat CPU 0 instructions: 18500138 cycles: 4680910 heartbeat IPC: 3.948 cumulative IPC: 3.952 (Simulation time: 00 hr 01 min 17 sec)
Heartbeat CPU 0 instructions: 19000143 cycles: 4807311 heartbeat IPC: 3.956 cumulative IPC: 3.952 (Simulation time: 00 hr 01 min 19 sec)
Heartbeat CPU 0 instructions: 19500148 cycles: 4933508 heartbeat IPC: 3.962 cumulative IPC: 3.953 (Simulation time: 00 hr 01 min 21 sec)
Heartbeat CPU 0 instructions: 20000148 cycles: 5059838 heartbeat IPC: 3.958 cumulative IPC: 3.953 (Simulation time: 00 hr 01 min 23 sec)
Heartbeat CPU 0 instructions: 20500153 cycles: 5186243 heartbeat IPC: 3.956 cumulative IPC: 3.953 (Simulation time: 00 hr 01 min 25 sec)
Heartbeat CPU 0 instructions: 21000153 cycles: 5309832 heartbeat IPC: 4.046 cumulative IPC: 3.955 (Simulation time: 00 hr 01 min 27 sec)
Heartbeat CPU 0 instructions: 21500157 cycles: 5436135 heartbeat IPC: 3.959 cumulative IPC: 3.955 (Simulation time: 00 hr 01 min 29 sec)
Heartbeat CPU 0 instructions: 22000159 cycles: 5562378 heartbeat IPC: 3.961 cumulative IPC: 3.955 (Simulation time: 00 hr 01 min 31 sec)
Heartbeat CPU 0 instructions: 22500165 cycles: 5688993 heartbeat IPC: 3.949 cumulative IPC: 3.955 (Simulation time: 00 hr 01 min 33 sec)
Heartbeat CPU 0 instructions: 23000170 cycles: 5815396 heartbeat IPC: 3.956 cumulative IPC: 3.955 (Simulation time: 00 hr 01 min 35 sec)
Heartbeat CPU 0 instructions: 23500175 cycles: 5942003 heartbeat IPC: 3.949 cumulative IPC: 3.955 (Simulation time: 00 hr 01 min 38 sec)
Heartbeat CPU 0 instructions: 24000181 cycles: 6068414 heartbeat IPC: 3.955 cumulative IPC: 3.955 (Simulation time: 00 hr 01 min 40 sec)
Heartbeat CPU 0 instructions: 24500185 cycles: 6195025 heartbeat IPC: 3.949 cumulative IPC: 3.955 (Simulation time: 00 hr 01 min 42 sec)
Heartbeat CPU 0 instructions: 25000186 cycles: 6321221 heartbeat IPC: 3.962 cumulative IPC: 3.955 (Simulation time: 00 hr 01 min 44 sec)
Heartbeat CPU 0 instructions: 25500188 cycles: 6447819 heartbeat IPC: 3.95 cumulative IPC: 3.955 (Simulation time: 00 hr 01 min 46 sec)
Heartbeat CPU 0 instructions: 26000189 cycles: 6574217 heartbeat IPC: 3.956 cumulative IPC: 3.955 (Simulation time: 00 hr 01 min 48 sec)
Heartbeat CPU 0 instructions: 26500189 cycles: 6700821 heartbeat IPC: 3.949 cumulative IPC: 3.955 (Simulation time: 00 hr 01 min 50 sec)
Heartbeat CPU 0 instructions: 27000194 cycles: 6827226 heartbeat IPC: 3.956 cumulative IPC: 3.955 (Simulation time: 00 hr 01 min 52 sec)
Heartbeat CPU 0 instructions: 27500196 cycles: 6952013 heartbeat IPC: 4.007 cumulative IPC: 3.956 (Simulation time: 00 hr 01 min 55 sec)
Heartbeat CPU 0 instructions: 28000202 cycles: 7078502 heartbeat IPC: 3.953 cumulative IPC: 3.956 (Simulation time: 00 hr 01 min 57 sec)
Heartbeat CPU 0 instructions: 28500205 cycles: 7205390 heartbeat IPC: 3.941 cumulative IPC: 3.955 (Simulation time: 00 hr 01 min 59 sec)
Heartbeat CPU 0 instructions: 29000207 cycles: 7332065 heartbeat IPC: 3.947 cumulative IPC: 3.955 (Simulation time: 00 hr 02 min 01 sec)
Heartbeat CPU 0 instructions: 29500210 cycles: 7458542 heartbeat IPC: 3.953 cumulative IPC: 3.955 (Simulation time: 00 hr 02 min 03 sec)
Heartbeat CPU 0 instructions: 30000212 cycles: 7585215 heartbeat IPC: 3.947 cumulative IPC: 3.955 (Simulation time: 00 hr 02 min 05 sec)
Heartbeat CPU 0 instructions: 30500216 cycles: 7711319 heartbeat IPC: 3.965 cumulative IPC: 3.955 (Simulation time: 00 hr 02 min 07 sec)
Heartbeat CPU 0 instructions: 31000216 cycles: 7837819 heartbeat IPC: 3.953 cumulative IPC: 3.955 (Simulation time: 00 hr 02 min 09 sec)
Heartbeat CPU 0 instructions: 31500217 cycles: 7964309 heartbeat IPC: 3.953 cumulative IPC: 3.955 (Simulation time: 00 hr 02 min 12 sec)
Heartbeat CPU 0 instructions: 32000222 cycles: 8090504 heartbeat IPC: 3.962 cumulative IPC: 3.955 (Simulation time: 00 hr 02 min 14 sec)
Heartbeat CPU 0 instructions: 32500229 cycles: 8216827 heartbeat IPC: 3.958 cumulative IPC: 3.955 (Simulation time: 00 hr 02 min 16 sec)
Heartbeat CPU 0 instructions: 33000235 cycles: 8343232 heartbeat IPC: 3.956 cumulative IPC: 3.955 (Simulation time: 00 hr 02 min 18 sec)
Heartbeat CPU 0 instructions: 33500240 cycles: 8466673 heartbeat IPC: 4.051 cumulative IPC: 3.957 (Simulation time: 00 hr 02 min 20 sec)
Heartbeat CPU 0 instructions: 34000240 cycles: 8593178 heartbeat IPC: 3.952 cumulative IPC: 3.957 (Simulation time: 00 hr 02 min 22 sec)
Heartbeat CPU 0 instructions: 34500241 cycles: 8719199 heartbeat IPC: 3.968 cumulative IPC: 3.957 (Simulation time: 00 hr 02 min 24 sec)
Heartbeat CPU 0 instructions: 35000246 cycles: 8845603 heartbeat IPC: 3.956 cumulative IPC: 3.957 (Simulation time: 00 hr 02 min 26 sec)
Heartbeat CPU 0 instructions: 35500252 cycles: 8972216 heartbeat IPC: 3.949 cumulative IPC: 3.957 (Simulation time: 00 hr 02 min 28 sec)
Heartbeat CPU 0 instructions: 36000257 cycles: 9098828 heartbeat IPC: 3.949 cumulative IPC: 3.957 (Simulation time: 00 hr 02 min 31 sec)
Heartbeat CPU 0 instructions: 36500262 cycles: 9225237 heartbeat IPC: 3.955 cumulative IPC: 3.957 (Simulation time: 00 hr 02 min 33 sec)
Heartbeat CPU 0 instructions: 37000268 cycles: 9351845 heartbeat IPC: 3.949 cumulative IPC: 3.956 (Simulation time: 00 hr 02 min 35 sec)
Heartbeat CPU 0 instructions: 37500272 cycles: 9478252 heartbeat IPC: 3.956 cumulative IPC: 3.956 (Simulation time: 00 hr 02 min 37 sec)
Heartbeat CPU 0 instructions: 38000277 cycles: 9604860 heartbeat IPC: 3.949 cumulative IPC: 3.956 (Simulation time: 00 hr 02 min 39 sec)
Heartbeat CPU 0 instructions: 38500283 cycles: 9731270 heartbeat IPC: 3.955 cumulative IPC: 3.956 (Simulation time: 00 hr 02 min 41 sec)
Heartbeat CPU 0 instructions: 39000288 cycles: 9857665 heartbeat IPC: 3.956 cumulative IPC: 3.956 (Simulation time: 00 hr 02 min 43 sec)
Heartbeat CPU 0 instructions: 39500293 cycles: 9984060 heartbeat IPC: 3.956 cumulative IPC: 3.956 (Simulation time: 00 hr 02 min 46 sec)
Heartbeat CPU 0 instructions: 40000297 cycles: 10109241 heartbeat IPC: 3.994 cumulative IPC: 3.957 (Simulation time: 00 hr 02 min 48 sec)
Heartbeat CPU 0 instructions: 40500300 cycles: 10235528 heartbeat IPC: 3.959 cumulative IPC: 3.957 (Simulation time: 00 hr 02 min 50 sec)
Heartbeat CPU 0 instructions: 41000303 cycles: 10362202 heartbeat IPC: 3.947 cumulative IPC: 3.957 (Simulation time: 00 hr 02 min 52 sec)
Heartbeat CPU 0 instructions: 41500305 cycles: 10488677 heartbeat IPC: 3.953 cumulative IPC: 3.957 (Simulation time: 00 hr 02 min 54 sec)
Heartbeat CPU 0 instructions: 42000308 cycles: 10615352 heartbeat IPC: 3.947 cumulative IPC: 3.957 (Simulation time: 00 hr 02 min 56 sec)
Heartbeat CPU 0 instructions: 42500310 cycles: 10741822 heartbeat IPC: 3.954 cumulative IPC: 3.957 (Simulation time: 00 hr 02 min 58 sec)
Heartbeat CPU 0 instructions: 43000315 cycles: 10868358 heartbeat IPC: 3.951 cumulative IPC: 3.956 (Simulation time: 00 hr 03 min 00 sec)
Heartbeat CPU 0 instructions: 43500319 cycles: 10994870 heartbeat IPC: 3.952 cumulative IPC: 3.956 (Simulation time: 00 hr 03 min 03 sec)
Heartbeat CPU 0 instructions: 44000322 cycles: 11121317 heartbeat IPC: 3.954 cumulative IPC: 3.956 (Simulation time: 00 hr 03 min 05 sec)
Heartbeat CPU 0 instructions: 44500328 cycles: 11247511 heartbeat IPC: 3.962 cumulative IPC: 3.956 (Simulation time: 00 hr 03 min 07 sec)
Heartbeat CPU 0 instructions: 45000335 cycles: 11373845 heartbeat IPC: 3.958 cumulative IPC: 3.956 (Simulation time: 00 hr 03 min 09 sec)
Heartbeat CPU 0 instructions: 45500340 cycles: 11500245 heartbeat IPC: 3.956 cumulative IPC: 3.956 (Simulation time: 00 hr 03 min 11 sec)
Heartbeat CPU 0 instructions: 46000347 cycles: 11623735 heartbeat IPC: 4.049 cumulative IPC: 3.957 (Simulation time: 00 hr 03 min 13 sec)
Heartbeat CPU 0 instructions: 46500351 cycles: 11750232 heartbeat IPC: 3.953 cumulative IPC: 3.957 (Simulation time: 00 hr 03 min 15 sec)
Heartbeat CPU 0 instructions: 47000355 cycles: 11876532 heartbeat IPC: 3.959 cumulative IPC: 3.957 (Simulation time: 00 hr 03 min 17 sec)
Heartbeat CPU 0 instructions: 47500360 cycles: 12002646 heartbeat IPC: 3.965 cumulative IPC: 3.957 (Simulation time: 00 hr 03 min 19 sec)
Heartbeat CPU 0 instructions: 48000365 cycles: 12129257 heartbeat IPC: 3.949 cumulative IPC: 3.957 (Simulation time: 00 hr 03 min 22 sec)
Heartbeat CPU 0 instructions: 48500371 cycles: 12255664 heartbeat IPC: 3.956 cumulative IPC: 3.957 (Simulation time: 00 hr 03 min 24 sec)
Heartbeat CPU 0 instructions: 49000376 cycles: 12382277 heartbeat IPC: 3.949 cumulative IPC: 3.957 (Simulation time: 00 hr 03 min 26 sec)
Heartbeat CPU 0 instructions: 49500381 cycles: 12508683 heartbeat IPC: 3.956 cumulative IPC: 3.957 (Simulation time: 00 hr 03 min 28 sec)
Warmup finished CPU 0 instructions: 50000002 cycles: 12635247 cumulative IPC: 3.957 (Simulation time: 00 hr 03 min 30 sec)
Warmup complete CPU 0 instructions: 50000002 cycles: 12635247 cumulative IPC: 3.957 (Simulation time: 00 hr 03 min 30 sec)
Heartbeat CPU 0 instructions: 50000386 cycles: 12635299 heartbeat IPC: 3.949 cumulative IPC: 7.385 (Simulation time: 00 hr 03 min 30 sec)
Heartbeat CPU 0 instructions: 50500392 cycles: 12898162 heartbeat IPC: 1.902 cumulative IPC: 1.903 (Simulation time: 00 hr 03 min 34 sec)
Heartbeat CPU 0 instructions: 51000392 cycles: 13161304 heartbeat IPC: 1.9 cumulative IPC: 1.902 (Simulation time: 00 hr 03 min 37 sec)
Heartbeat CPU 0 instructions: 51500392 cycles: 13423684 heartbeat IPC: 1.906 cumulative IPC: 1.903 (Simulation time: 00 hr 03 min 41 sec)
Heartbeat CPU 0 instructions: 52000392 cycles: 13685802 heartbeat IPC: 1.908 cumulative IPC: 1.904 (Simulation time: 00 hr 03 min 44 sec)
Heartbeat CPU 0 instructions: 52500395 cycles: 13947573 heartbeat IPC: 1.91 cumulative IPC: 1.905 (Simulation time: 00 hr 03 min 48 sec)
Heartbeat CPU 0 instructions: 53000399 cycles: 14231807 heartbeat IPC: 1.759 cumulative IPC: 1.879 (Simulation time: 00 hr 03 min 52 sec)
Heartbeat CPU 0 instructions: 53500401 cycles: 14499171 heartbeat IPC: 1.87 cumulative IPC: 1.878 (Simulation time: 00 hr 03 min 55 sec)
Heartbeat CPU 0 instructions: 54000404 cycles: 14765083 heartbeat IPC: 1.88 cumulative IPC: 1.878 (Simulation time: 00 hr 03 min 59 sec)
Heartbeat CPU 0 instructions: 54500409 cycles: 15031681 heartbeat IPC: 1.876 cumulative IPC: 1.878 (Simulation time: 00 hr 04 min 03 sec)
Heartbeat CPU 0 instructions: 55000415 cycles: 15298334 heartbeat IPC: 1.875 cumulative IPC: 1.878 (Simulation time: 00 hr 04 min 06 sec)
Heartbeat CPU 0 instructions: 55500421 cycles: 15570890 heartbeat IPC: 1.835 cumulative IPC: 1.874 (Simulation time: 00 hr 04 min 10 sec)
Heartbeat CPU 0 instructions: 56000421 cycles: 15837483 heartbeat IPC: 1.876 cumulative IPC: 1.874 (Simulation time: 00 hr 04 min 14 sec)
Heartbeat CPU 0 instructions: 56500421 cycles: 16102441 heartbeat IPC: 1.887 cumulative IPC: 1.875 (Simulation time: 00 hr 04 min 17 sec)
Heartbeat CPU 0 instructions: 57000426 cycles: 16373010 heartbeat IPC: 1.848 cumulative IPC: 1.873 (Simulation time: 00 hr 04 min 21 sec)
Heartbeat CPU 0 instructions: 57500426 cycles: 16638884 heartbeat IPC: 1.881 cumulative IPC: 1.873 (Simulation time: 00 hr 04 min 24 sec)
Heartbeat CPU 0 instructions: 58000430 cycles: 16908249 heartbeat IPC: 1.856 cumulative IPC: 1.872 (Simulation time: 00 hr 04 min 28 sec)
Heartbeat CPU 0 instructions: 58500430 cycles: 17175305 heartbeat IPC: 1.872 cumulative IPC: 1.872 (Simulation time: 00 hr 04 min 31 sec)
Heartbeat CPU 0 instructions: 59000431 cycles: 17458943 heartbeat IPC: 1.763 cumulative IPC: 1.866 (Simulation time: 00 hr 04 min 35 sec)
Heartbeat CPU 0 instructions: 59500432 cycles: 17723603 heartbeat IPC: 1.889 cumulative IPC: 1.867 (Simulation time: 00 hr 04 min 38 sec)
Heartbeat CPU 0 instructions: 60000437 cycles: 17997463 heartbeat IPC: 1.826 cumulative IPC: 1.865 (Simulation time: 00 hr 04 min 42 sec)
Heartbeat CPU 0 instructions: 60500437 cycles: 18264197 heartbeat IPC: 1.875 cumulative IPC: 1.865 (Simulation time: 00 hr 04 min 45 sec)
Heartbeat CPU 0 instructions: 61000440 cycles: 18531382 heartbeat IPC: 1.871 cumulative IPC: 1.866 (Simulation time: 00 hr 04 min 49 sec)
Heartbeat CPU 0 instructions: 61500441 cycles: 18798900 heartbeat IPC: 1.869 cumulative IPC: 1.866 (Simulation time: 00 hr 04 min 52 sec)
Heartbeat CPU 0 instructions: 62000441 cycles: 19065463 heartbeat IPC: 1.876 cumulative IPC: 1.866 (Simulation time: 00 hr 04 min 56 sec)
Heartbeat CPU 0 instructions: 62500441 cycles: 19331459 heartbeat IPC: 1.88 cumulative IPC: 1.867 (Simulation time: 00 hr 04 min 59 sec)
Heartbeat CPU 0 instructions: 63000447 cycles: 19602366 heartbeat IPC: 1.846 cumulative IPC: 1.866 (Simulation time: 00 hr 05 min 03 sec)
Heartbeat CPU 0 instructions: 63500447 cycles: 19868620 heartbeat IPC: 1.878 cumulative IPC: 1.866 (Simulation time: 00 hr 05 min 06 sec)
Heartbeat CPU 0 instructions: 64000447 cycles: 20134462 heartbeat IPC: 1.881 cumulative IPC: 1.867 (Simulation time: 00 hr 05 min 10 sec)
Heartbeat CPU 0 instructions: 64500447 cycles: 20400823 heartbeat IPC: 1.877 cumulative IPC: 1.867 (Simulation time: 00 hr 05 min 13 sec)
Heartbeat CPU 0 instructions: 65000453 cycles: 20666649 heartbeat IPC: 1.881 cumulative IPC: 1.868 (Simulation time: 00 hr 05 min 17 sec)
Heartbeat CPU 0 instructions: 65500459 cycles: 20953063 heartbeat IPC: 1.746 cumulative IPC: 1.864 (Simulation time: 00 hr 05 min 21 sec)
Heartbeat CPU 0 instructions: 66000461 cycles: 21221625 heartbeat IPC: 1.862 cumulative IPC: 1.863 (Simulation time: 00 hr 05 min 24 sec)
Heartbeat CPU 0 instructions: 66500467 cycles: 21489102 heartbeat IPC: 1.869 cumulative IPC: 1.864 (Simulation time: 00 hr 05 min 28 sec)
Heartbeat CPU 0 instructions: 67000469 cycles: 21759732 heartbeat IPC: 1.848 cumulative IPC: 1.863 (Simulation time: 00 hr 05 min 32 sec)
Heartbeat CPU 0 instructions: 67500475 cycles: 22028357 heartbeat IPC: 1.861 cumulative IPC: 1.863 (Simulation time: 00 hr 05 min 35 sec)
Heartbeat CPU 0 instructions: 68000477 cycles: 22296763 heartbeat IPC: 1.863 cumulative IPC: 1.863 (Simulation time: 00 hr 05 min 39 sec)
Heartbeat CPU 0 instructions: 68500478 cycles: 22567759 heartbeat IPC: 1.845 cumulative IPC: 1.863 (Simulation time: 00 hr 05 min 43 sec)
Heartbeat CPU 0 instructions: 69000478 cycles: 22836046 heartbeat IPC: 1.864 cumulative IPC: 1.863 (Simulation time: 00 hr 05 min 46 sec)
Heartbeat CPU 0 instructions: 69500480 cycles: 23107131 heartbeat IPC: 1.844 cumulative IPC: 1.862 (Simulation time: 00 hr 05 min 50 sec)
Heartbeat CPU 0 instructions: 70000481 cycles: 23373845 heartbeat IPC: 1.875 cumulative IPC: 1.862 (Simulation time: 00 hr 05 min 53 sec)
Heartbeat CPU 0 instructions: 70500485 cycles: 23643745 heartbeat IPC: 1.853 cumulative IPC: 1.862 (Simulation time: 00 hr 05 min 57 sec)
Heartbeat CPU 0 instructions: 71000485 cycles: 23910277 heartbeat IPC: 1.876 cumulative IPC: 1.863 (Simulation time: 00 hr 06 min 00 sec)
Heartbeat CPU 0 instructions: 71500488 cycles: 24192906 heartbeat IPC: 1.769 cumulative IPC: 1.86 (Simulation time: 00 hr 06 min 04 sec)
Heartbeat CPU 0 instructions: 72000488 cycles: 24459118 heartbeat IPC: 1.878 cumulative IPC: 1.861 (Simulation time: 00 hr 06 min 07 sec)
Heartbeat CPU 0 instructions: 72500492 cycles: 24730007 heartbeat IPC: 1.846 cumulative IPC: 1.86 (Simulation time: 00 hr 06 min 11 sec)
Heartbeat CPU 0 instructions: 73000492 cycles: 24996989 heartbeat IPC: 1.873 cumulative IPC: 1.861 (Simulation time: 00 hr 06 min 14 sec)
Heartbeat CPU 0 instructions: 73500496 cycles: 25265225 heartbeat IPC: 1.864 cumulative IPC: 1.861 (Simulation time: 00 hr 06 min 18 sec)
Heartbeat CPU 0 instructions: 74000496 cycles: 25530961 heartbeat IPC: 1.882 cumulative IPC: 1.861 (Simulation time: 00 hr 06 min 21 sec)
Heartbeat CPU 0 instructions: 74500496 cycles: 25796398 heartbeat IPC: 1.884 cumulative IPC: 1.862 (Simulation time: 00 hr 06 min 25 sec)
Heartbeat CPU 0 instructions: 75000496 cycles: 26063148 heartbeat IPC: 1.874 cumulative IPC: 1.862 (Simulation time: 00 hr 06 min 28 sec)
Heartbeat CPU 0 instructions: 75500498 cycles: 26334429 heartbeat IPC: 1.843 cumulative IPC: 1.861 (Simulation time: 00 hr 06 min 32 sec)
Heartbeat CPU 0 instructions: 76000502 cycles: 26600699 heartbeat IPC: 1.878 cumulative IPC: 1.862 (Simulation time: 00 hr 06 min 35 sec)
Heartbeat CPU 0 instructions: 76500502 cycles: 26865736 heartbeat IPC: 1.887 cumulative IPC: 1.862 (Simulation time: 00 hr 06 min 39 sec)
Heartbeat CPU 0 instructions: 77000502 cycles: 27131822 heartbeat IPC: 1.879 cumulative IPC: 1.863 (Simulation time: 00 hr 06 min 43 sec)
Heartbeat CPU 0 instructions: 77500502 cycles: 27397305 heartbeat IPC: 1.883 cumulative IPC: 1.863 (Simulation time: 00 hr 06 min 46 sec)
Heartbeat CPU 0 instructions: 78000506 cycles: 27663991 heartbeat IPC: 1.875 cumulative IPC: 1.863 (Simulation time: 00 hr 06 min 50 sec)
Heartbeat CPU 0 instructions: 78500507 cycles: 27952039 heartbeat IPC: 1.736 cumulative IPC: 1.861 (Simulation time: 00 hr 06 min 54 sec)
Heartbeat CPU 0 instructions: 79000513 cycles: 28221474 heartbeat IPC: 1.856 cumulative IPC: 1.861 (Simulation time: 00 hr 06 min 57 sec)
Heartbeat CPU 0 instructions: 79500515 cycles: 28491039 heartbeat IPC: 1.855 cumulative IPC: 1.861 (Simulation time: 00 hr 07 min 01 sec)
Heartbeat CPU 0 instructions: 80000521 cycles: 28759740 heartbeat IPC: 1.861 cumulative IPC: 1.861 (Simulation time: 00 hr 07 min 05 sec)
Heartbeat CPU 0 instructions: 80500523 cycles: 29029345 heartbeat IPC: 1.855 cumulative IPC: 1.86 (Simulation time: 00 hr 07 min 08 sec)
Heartbeat CPU 0 instructions: 81000525 cycles: 29303948 heartbeat IPC: 1.821 cumulative IPC: 1.86 (Simulation time: 00 hr 07 min 12 sec)
Heartbeat CPU 0 instructions: 81500526 cycles: 29571242 heartbeat IPC: 1.871 cumulative IPC: 1.86 (Simulation time: 00 hr 07 min 16 sec)
Heartbeat CPU 0 instructions: 82000526 cycles: 29838903 heartbeat IPC: 1.868 cumulative IPC: 1.86 (Simulation time: 00 hr 07 min 19 sec)
Heartbeat CPU 0 instructions: 82500526 cycles: 30105735 heartbeat IPC: 1.874 cumulative IPC: 1.86 (Simulation time: 00 hr 07 min 23 sec)
Heartbeat CPU 0 instructions: 83000526 cycles: 30371489 heartbeat IPC: 1.881 cumulative IPC: 1.861 (Simulation time: 00 hr 07 min 26 sec)
Heartbeat CPU 0 instructions: 83500531 cycles: 30639320 heartbeat IPC: 1.867 cumulative IPC: 1.861 (Simulation time: 00 hr 07 min 30 sec)
Heartbeat CPU 0 instructions: 84000531 cycles: 30905941 heartbeat IPC: 1.875 cumulative IPC: 1.861 (Simulation time: 00 hr 07 min 33 sec)
Heartbeat CPU 0 instructions: 84500531 cycles: 31172967 heartbeat IPC: 1.872 cumulative IPC: 1.861 (Simulation time: 00 hr 07 min 37 sec)
Heartbeat CPU 0 instructions: 85000531 cycles: 31439896 heartbeat IPC: 1.873 cumulative IPC: 1.861 (Simulation time: 00 hr 07 min 40 sec)
Heartbeat CPU 0 instructions: 85500536 cycles: 31705527 heartbeat IPC: 1.882 cumulative IPC: 1.862 (Simulation time: 00 hr 07 min 44 sec)
Heartbeat CPU 0 instructions: 86000536 cycles: 31973061 heartbeat IPC: 1.869 cumulative IPC: 1.862 (Simulation time: 00 hr 07 min 47 sec)
Heartbeat CPU 0 instructions: 86500536 cycles: 32238559 heartbeat IPC: 1.883 cumulative IPC: 1.862 (Simulation time: 00 hr 07 min 50 sec)
Heartbeat CPU 0 instructions: 87000536 cycles: 32504671 heartbeat IPC: 1.879 cumulative IPC: 1.862 (Simulation time: 00 hr 07 min 54 sec)
Heartbeat CPU 0 instructions: 87500541 cycles: 32771430 heartbeat IPC: 1.874 cumulative IPC: 1.862 (Simulation time: 00 hr 07 min 57 sec)
Heartbeat CPU 0 instructions: 88000541 cycles: 33037767 heartbeat IPC: 1.877 cumulative IPC: 1.863 (Simulation time: 00 hr 08 min 01 sec)
Heartbeat CPU 0 instructions: 88500541 cycles: 33304346 heartbeat IPC: 1.876 cumulative IPC: 1.863 (Simulation time: 00 hr 08 min 04 sec)
Heartbeat CPU 0 instructions: 89000541 cycles: 33571381 heartbeat IPC: 1.872 cumulative IPC: 1.863 (Simulation time: 00 hr 08 min 08 sec)
Heartbeat CPU 0 instructions: 89500543 cycles: 33836960 heartbeat IPC: 1.883 cumulative IPC: 1.863 (Simulation time: 00 hr 08 min 11 sec)
Heartbeat CPU 0 instructions: 90000546 cycles: 34104329 heartbeat IPC: 1.87 cumulative IPC: 1.863 (Simulation time: 00 hr 08 min 15 sec)
Heartbeat CPU 0 instructions: 90500546 cycles: 34370170 heartbeat IPC: 1.881 cumulative IPC: 1.863 (Simulation time: 00 hr 08 min 18 sec)
Heartbeat CPU 0 instructions: 91000546 cycles: 34637613 heartbeat IPC: 1.87 cumulative IPC: 1.863 (Simulation time: 00 hr 08 min 22 sec)
Heartbeat CPU 0 instructions: 91500546 cycles: 34903918 heartbeat IPC: 1.878 cumulative IPC: 1.864 (Simulation time: 00 hr 08 min 25 sec)
Heartbeat CPU 0 instructions: 92000551 cycles: 35170972 heartbeat IPC: 1.872 cumulative IPC: 1.864 (Simulation time: 00 hr 08 min 29 sec)
Heartbeat CPU 0 instructions: 92500551 cycles: 35437063 heartbeat IPC: 1.879 cumulative IPC: 1.864 (Simulation time: 00 hr 08 min 32 sec)
Heartbeat CPU 0 instructions: 93000551 cycles: 35706053 heartbeat IPC: 1.859 cumulative IPC: 1.864 (Simulation time: 00 hr 08 min 36 sec)
Heartbeat CPU 0 instructions: 93500551 cycles: 35972641 heartbeat IPC: 1.876 cumulative IPC: 1.864 (Simulation time: 00 hr 08 min 39 sec)
Heartbeat CPU 0 instructions: 94000556 cycles: 36239759 heartbeat IPC: 1.872 cumulative IPC: 1.864 (Simulation time: 00 hr 08 min 43 sec)
Heartbeat CPU 0 instructions: 94500556 cycles: 36507650 heartbeat IPC: 1.866 cumulative IPC: 1.864 (Simulation time: 00 hr 08 min 46 sec)
Heartbeat CPU 0 instructions: 95000556 cycles: 36773421 heartbeat IPC: 1.881 cumulative IPC: 1.864 (Simulation time: 00 hr 08 min 50 sec)
Heartbeat CPU 0 instructions: 95500556 cycles: 37040032 heartbeat IPC: 1.875 cumulative IPC: 1.864 (Simulation time: 00 hr 08 min 53 sec)
Heartbeat CPU 0 instructions: 96000561 cycles: 37307063 heartbeat IPC: 1.872 cumulative IPC: 1.864 (Simulation time: 00 hr 08 min 57 sec)
Heartbeat CPU 0 instructions: 96500561 cycles: 37574210 heartbeat IPC: 1.872 cumulative IPC: 1.865 (Simulation time: 00 hr 09 min 00 sec)
Heartbeat CPU 0 instructions: 97000561 cycles: 37840856 heartbeat IPC: 1.875 cumulative IPC: 1.865 (Simulation time: 00 hr 09 min 04 sec)
Heartbeat CPU 0 instructions: 97500561 cycles: 38108061 heartbeat IPC: 1.871 cumulative IPC: 1.865 (Simulation time: 00 hr 09 min 07 sec)
Heartbeat CPU 0 instructions: 98000565 cycles: 38374393 heartbeat IPC: 1.877 cumulative IPC: 1.865 (Simulation time: 00 hr 09 min 11 sec)
Heartbeat CPU 0 instructions: 98500566 cycles: 38640875 heartbeat IPC: 1.876 cumulative IPC: 1.865 (Simulation time: 00 hr 09 min 14 sec)
Heartbeat CPU 0 instructions: 99000566 cycles: 38907843 heartbeat IPC: 1.873 cumulative IPC: 1.865 (Simulation time: 00 hr 09 min 18 sec)
Heartbeat CPU 0 instructions: 99500566 cycles: 39173887 heartbeat IPC: 1.879 cumulative IPC: 1.865 (Simulation time: 00 hr 09 min 21 sec)
Heartbeat CPU 0 instructions: 100000566 cycles: 39440423 heartbeat IPC: 1.876 cumulative IPC: 1.865 (Simulation time: 00 hr 09 min 25 sec)
Heartbeat CPU 0 instructions: 100500571 cycles: 39706999 heartbeat IPC: 1.876 cumulative IPC: 1.865 (Simulation time: 00 hr 09 min 28 sec)
Heartbeat CPU 0 instructions: 101000571 cycles: 39972925 heartbeat IPC: 1.88 cumulative IPC: 1.866 (Simulation time: 00 hr 09 min 32 sec)
Heartbeat CPU 0 instructions: 101500571 cycles: 40241065 heartbeat IPC: 1.865 cumulative IPC: 1.866 (Simulation time: 00 hr 09 min 35 sec)
Heartbeat CPU 0 instructions: 102000571 cycles: 40508255 heartbeat IPC: 1.871 cumulative IPC: 1.866 (Simulation time: 00 hr 09 min 39 sec)
Heartbeat CPU 0 instructions: 102500576 cycles: 40774588 heartbeat IPC: 1.877 cumulative IPC: 1.866 (Simulation time: 00 hr 09 min 42 sec)
Heartbeat CPU 0 instructions: 103000576 cycles: 41040804 heartbeat IPC: 1.878 cumulative IPC: 1.866 (Simulation time: 00 hr 09 min 46 sec)
Heartbeat CPU 0 instructions: 103500576 cycles: 41306491 heartbeat IPC: 1.882 cumulative IPC: 1.866 (Simulation time: 00 hr 09 min 49 sec)
Heartbeat CPU 0 instructions: 104000576 cycles: 41574392 heartbeat IPC: 1.866 cumulative IPC: 1.866 (Simulation time: 00 hr 09 min 53 sec)
Heartbeat CPU 0 instructions: 104500577 cycles: 41839678 heartbeat IPC: 1.885 cumulative IPC: 1.866 (Simulation time: 00 hr 09 min 56 sec)
Heartbeat CPU 0 instructions: 105000581 cycles: 42106827 heartbeat IPC: 1.872 cumulative IPC: 1.866 (Simulation time: 00 hr 10 min 00 sec)
Heartbeat CPU 0 instructions: 105500581 cycles: 42372221 heartbeat IPC: 1.884 cumulative IPC: 1.866 (Simulation time: 00 hr 10 min 03 sec)
Heartbeat CPU 0 instructions: 106000581 cycles: 42640029 heartbeat IPC: 1.867 cumulative IPC: 1.866 (Simulation time: 00 hr 10 min 07 sec)
Heartbeat CPU 0 instructions: 106500587 cycles: 42906809 heartbeat IPC: 1.874 cumulative IPC: 1.866 (Simulation time: 00 hr 10 min 10 sec)
Heartbeat CPU 0 instructions: 107000590 cycles: 43173552 heartbeat IPC: 1.874 cumulative IPC: 1.867 (Simulation time: 00 hr 10 min 14 sec)
Heartbeat CPU 0 instructions: 107500593 cycles: 43439531 heartbeat IPC: 1.88 cumulative IPC: 1.867 (Simulation time: 00 hr 10 min 17 sec)
Heartbeat CPU 0 instructions: 108000593 cycles: 43706244 heartbeat IPC: 1.875 cumulative IPC: 1.867 (Simulation time: 00 hr 10 min 21 sec)
Heartbeat CPU 0 instructions: 108500596 cycles: 43973657 heartbeat IPC: 1.87 cumulative IPC: 1.867 (Simulation time: 00 hr 10 min 24 sec)
Heartbeat CPU 0 instructions: 109000598 cycles: 44240580 heartbeat IPC: 1.873 cumulative IPC: 1.867 (Simulation time: 00 hr 10 min 28 sec)
Heartbeat CPU 0 instructions: 109500598 cycles: 44506592 heartbeat IPC: 1.88 cumulative IPC: 1.867 (Simulation time: 00 hr 10 min 31 sec)
Heartbeat CPU 0 instructions: 110000598 cycles: 44772978 heartbeat IPC: 1.877 cumulative IPC: 1.867 (Simulation time: 00 hr 10 min 35 sec)
Heartbeat CPU 0 instructions: 110500598 cycles: 45038884 heartbeat IPC: 1.88 cumulative IPC: 1.867 (Simulation time: 00 hr 10 min 38 sec)
Heartbeat CPU 0 instructions: 111000600 cycles: 45305565 heartbeat IPC: 1.875 cumulative IPC: 1.867 (Simulation time: 00 hr 10 min 42 sec)
Heartbeat CPU 0 instructions: 111500603 cycles: 45572836 heartbeat IPC: 1.871 cumulative IPC: 1.867 (Simulation time: 00 hr 10 min 45 sec)
Heartbeat CPU 0 instructions: 112000603 cycles: 45838041 heartbeat IPC: 1.885 cumulative IPC: 1.867 (Simulation time: 00 hr 10 min 49 sec)
Heartbeat CPU 0 instructions: 112500603 cycles: 46105225 heartbeat IPC: 1.871 cumulative IPC: 1.867 (Simulation time: 00 hr 10 min 52 sec)
Heartbeat CPU 0 instructions: 113000608 cycles: 46373064 heartbeat IPC: 1.867 cumulative IPC: 1.867 (Simulation time: 00 hr 10 min 56 sec)
Heartbeat CPU 0 instructions: 113500608 cycles: 46638043 heartbeat IPC: 1.887 cumulative IPC: 1.868 (Simulation time: 00 hr 10 min 59 sec)
Heartbeat CPU 0 instructions: 114000608 cycles: 46903236 heartbeat IPC: 1.885 cumulative IPC: 1.868 (Simulation time: 00 hr 11 min 03 sec)
Heartbeat CPU 0 instructions: 114500608 cycles: 47170807 heartbeat IPC: 1.869 cumulative IPC: 1.868 (Simulation time: 00 hr 11 min 06 sec)
Heartbeat CPU 0 instructions: 115000608 cycles: 47436448 heartbeat IPC: 1.882 cumulative IPC: 1.868 (Simulation time: 00 hr 11 min 10 sec)
Heartbeat CPU 0 instructions: 115500613 cycles: 47704751 heartbeat IPC: 1.864 cumulative IPC: 1.868 (Simulation time: 00 hr 11 min 13 sec)
Heartbeat CPU 0 instructions: 116000613 cycles: 47972505 heartbeat IPC: 1.867 cumulative IPC: 1.868 (Simulation time: 00 hr 11 min 17 sec)
Heartbeat CPU 0 instructions: 116500613 cycles: 48238200 heartbeat IPC: 1.882 cumulative IPC: 1.868 (Simulation time: 00 hr 11 min 20 sec)
Heartbeat CPU 0 instructions: 117000613 cycles: 48506057 heartbeat IPC: 1.867 cumulative IPC: 1.868 (Simulation time: 00 hr 11 min 24 sec)
Heartbeat CPU 0 instructions: 117500618 cycles: 48773051 heartbeat IPC: 1.873 cumulative IPC: 1.868 (Simulation time: 00 hr 11 min 27 sec)
Heartbeat CPU 0 instructions: 118000618 cycles: 49039232 heartbeat IPC: 1.878 cumulative IPC: 1.868 (Simulation time: 00 hr 11 min 31 sec)
Heartbeat CPU 0 instructions: 118500618 cycles: 49305300 heartbeat IPC: 1.879 cumulative IPC: 1.868 (Simulation time: 00 hr 11 min 34 sec)
Heartbeat CPU 0 instructions: 119000618 cycles: 49572305 heartbeat IPC: 1.873 cumulative IPC: 1.868 (Simulation time: 00 hr 11 min 38 sec)
Heartbeat CPU 0 instructions: 119500623 cycles: 49839216 heartbeat IPC: 1.873 cumulative IPC: 1.868 (Simulation time: 00 hr 11 min 41 sec)
Heartbeat CPU 0 instructions: 120000623 cycles: 50108307 heartbeat IPC: 1.858 cumulative IPC: 1.868 (Simulation time: 00 hr 11 min 45 sec)
Heartbeat CPU 0 instructions: 120500623 cycles: 50374771 heartbeat IPC: 1.876 cumulative IPC: 1.868 (Simulation time: 00 hr 11 min 48 sec)
Heartbeat CPU 0 instructions: 121000623 cycles: 50642348 heartbeat IPC: 1.869 cumulative IPC: 1.868 (Simulation time: 00 hr 11 min 52 sec)
Heartbeat CPU 0 instructions: 121500630 cycles: 50909662 heartbeat IPC: 1.87 cumulative IPC: 1.868 (Simulation time: 00 hr 11 min 55 sec)
Heartbeat CPU 0 instructions: 122000635 cycles: 51177748 heartbeat IPC: 1.865 cumulative IPC: 1.868 (Simulation time: 00 hr 11 min 59 sec)
Heartbeat CPU 0 instructions: 122500635 cycles: 51444823 heartbeat IPC: 1.872 cumulative IPC: 1.868 (Simulation time: 00 hr 12 min 02 sec)
Heartbeat CPU 0 instructions: 123000635 cycles: 51711305 heartbeat IPC: 1.876 cumulative IPC: 1.868 (Simulation time: 00 hr 12 min 06 sec)
Heartbeat CPU 0 instructions: 123500639 cycles: 51979423 heartbeat IPC: 1.865 cumulative IPC: 1.868 (Simulation time: 00 hr 12 min 09 sec)
Heartbeat CPU 0 instructions: 124000640 cycles: 52246155 heartbeat IPC: 1.875 cumulative IPC: 1.868 (Simulation time: 00 hr 12 min 13 sec)
Heartbeat CPU 0 instructions: 124500640 cycles: 52513117 heartbeat IPC: 1.873 cumulative IPC: 1.868 (Simulation time: 00 hr 12 min 16 sec)
Heartbeat CPU 0 instructions: 125000642 cycles: 52814744 heartbeat IPC: 1.658 cumulative IPC: 1.867 (Simulation time: 00 hr 12 min 20 sec)
Heartbeat CPU 0 instructions: 125500642 cycles: 53085667 heartbeat IPC: 1.846 cumulative IPC: 1.866 (Simulation time: 00 hr 12 min 24 sec)
Heartbeat CPU 0 instructions: 126000642 cycles: 53359147 heartbeat IPC: 1.828 cumulative IPC: 1.866 (Simulation time: 00 hr 12 min 27 sec)
Heartbeat CPU 0 instructions: 126500647 cycles: 53625907 heartbeat IPC: 1.874 cumulative IPC: 1.866 (Simulation time: 00 hr 12 min 31 sec)
Heartbeat CPU 0 instructions: 127000651 cycles: 53899551 heartbeat IPC: 1.827 cumulative IPC: 1.866 (Simulation time: 00 hr 12 min 34 sec)
Heartbeat CPU 0 instructions: 127500651 cycles: 54168141 heartbeat IPC: 1.862 cumulative IPC: 1.866 (Simulation time: 00 hr 12 min 38 sec)
Heartbeat CPU 0 instructions: 128000656 cycles: 54458892 heartbeat IPC: 1.72 cumulative IPC: 1.865 (Simulation time: 00 hr 12 min 42 sec)
Heartbeat CPU 0 instructions: 128500656 cycles: 54730178 heartbeat IPC: 1.843 cumulative IPC: 1.865 (Simulation time: 00 hr 12 min 45 sec)
Heartbeat CPU 0 instructions: 129000659 cycles: 55002821 heartbeat IPC: 1.834 cumulative IPC: 1.865 (Simulation time: 00 hr 12 min 49 sec)
Heartbeat CPU 0 instructions: 129500659 cycles: 55271315 heartbeat IPC: 1.862 cumulative IPC: 1.865 (Simulation time: 00 hr 12 min 52 sec)
Heartbeat CPU 0 instructions: 130000659 cycles: 55541093 heartbeat IPC: 1.853 cumulative IPC: 1.865 (Simulation time: 00 hr 12 min 56 sec)
Heartbeat CPU 0 instructions: 130500663 cycles: 55810572 heartbeat IPC: 1.855 cumulative IPC: 1.865 (Simulation time: 00 hr 12 min 59 sec)
Heartbeat CPU 0 instructions: 131000663 cycles: 56080817 heartbeat IPC: 1.85 cumulative IPC: 1.864 (Simulation time: 00 hr 13 min 03 sec)
Heartbeat CPU 0 instructions: 131500663 cycles: 56350536 heartbeat IPC: 1.854 cumulative IPC: 1.864 (Simulation time: 00 hr 13 min 06 sec)
Heartbeat CPU 0 instructions: 132000665 cycles: 56624448 heartbeat IPC: 1.825 cumulative IPC: 1.864 (Simulation time: 00 hr 13 min 10 sec)
Heartbeat CPU 0 instructions: 132500672 cycles: 56897115 heartbeat IPC: 1.834 cumulative IPC: 1.864 (Simulation time: 00 hr 13 min 13 sec)
Heartbeat CPU 0 instructions: 133000676 cycles: 57165903 heartbeat IPC: 1.86 cumulative IPC: 1.864 (Simulation time: 00 hr 13 min 17 sec)
Heartbeat CPU 0 instructions: 133500676 cycles: 57435821 heartbeat IPC: 1.852 cumulative IPC: 1.864 (Simulation time: 00 hr 13 min 21 sec)
Heartbeat CPU 0 instructions: 134000676 cycles: 57705298 heartbeat IPC: 1.855 cumulative IPC: 1.864 (Simulation time: 00 hr 13 min 24 sec)
Heartbeat CPU 0 instructions: 134500680 cycles: 57993564 heartbeat IPC: 1.735 cumulative IPC: 1.863 (Simulation time: 00 hr 13 min 28 sec)
Heartbeat CPU 0 instructions: 135000682 cycles: 58263732 heartbeat IPC: 1.851 cumulative IPC: 1.863 (Simulation time: 00 hr 13 min 32 sec)
Heartbeat CPU 0 instructions: 135500688 cycles: 58536256 heartbeat IPC: 1.835 cumulative IPC: 1.863 (Simulation time: 00 hr 13 min 35 sec)
Heartbeat CPU 0 instructions: 136000690 cycles: 58808623 heartbeat IPC: 1.836 cumulative IPC: 1.863 (Simulation time: 00 hr 13 min 39 sec)
Heartbeat CPU 0 instructions: 136500693 cycles: 59081981 heartbeat IPC: 1.829 cumulative IPC: 1.862 (Simulation time: 00 hr 13 min 43 sec)
Heartbeat CPU 0 instructions: 137000697 cycles: 59354590 heartbeat IPC: 1.834 cumulative IPC: 1.862 (Simulation time: 00 hr 13 min 47 sec)
Heartbeat CPU 0 instructions: 137500702 cycles: 59629892 heartbeat IPC: 1.816 cumulative IPC: 1.862 (Simulation time: 00 hr 13 min 50 sec)
Heartbeat CPU 0 instructions: 138000703 cycles: 59900764 heartbeat IPC: 1.846 cumulative IPC: 1.862 (Simulation time: 00 hr 13 min 54 sec)
Heartbeat CPU 0 instructions: 138500706 cycles: 60174397 heartbeat IPC: 1.827 cumulative IPC: 1.862 (Simulation time: 00 hr 13 min 58 sec)
Heartbeat CPU 0 instructions: 139000710 cycles: 60442020 heartbeat IPC: 1.868 cumulative IPC: 1.862 (Simulation time: 00 hr 14 min 01 sec)
Heartbeat CPU 0 instructions: 139500714 cycles: 60715962 heartbeat IPC: 1.825 cumulative IPC: 1.861 (Simulation time: 00 hr 14 min 05 sec)
Heartbeat CPU 0 instructions: 140000714 cycles: 60985280 heartbeat IPC: 1.857 cumulative IPC: 1.861 (Simulation time: 00 hr 14 min 08 sec)
Heartbeat CPU 0 instructions: 140500716 cycles: 61271143 heartbeat IPC: 1.749 cumulative IPC: 1.861 (Simulation time: 00 hr 14 min 12 sec)
Heartbeat CPU 0 instructions: 141000717 cycles: 61541648 heartbeat IPC: 1.848 cumulative IPC: 1.861 (Simulation time: 00 hr 14 min 15 sec)
Heartbeat CPU 0 instructions: 141500719 cycles: 61810494 heartbeat IPC: 1.86 cumulative IPC: 1.861 (Simulation time: 00 hr 14 min 19 sec)
Heartbeat CPU 0 instructions: 142000719 cycles: 62083740 heartbeat IPC: 1.83 cumulative IPC: 1.861 (Simulation time: 00 hr 14 min 22 sec)
Heartbeat CPU 0 instructions: 142500722 cycles: 62353901 heartbeat IPC: 1.851 cumulative IPC: 1.86 (Simulation time: 00 hr 14 min 26 sec)
Heartbeat CPU 0 instructions: 143000724 cycles: 62623065 heartbeat IPC: 1.858 cumulative IPC: 1.86 (Simulation time: 00 hr 14 min 29 sec)
Heartbeat CPU 0 instructions: 143500725 cycles: 62893153 heartbeat IPC: 1.851 cumulative IPC: 1.86 (Simulation time: 00 hr 14 min 33 sec)
Heartbeat CPU 0 instructions: 144000726 cycles: 63162845 heartbeat IPC: 1.854 cumulative IPC: 1.86 (Simulation time: 00 hr 14 min 37 sec)
Heartbeat CPU 0 instructions: 144500728 cycles: 63436294 heartbeat IPC: 1.829 cumulative IPC: 1.86 (Simulation time: 00 hr 14 min 40 sec)
Heartbeat CPU 0 instructions: 145000728 cycles: 63706685 heartbeat IPC: 1.849 cumulative IPC: 1.86 (Simulation time: 00 hr 14 min 44 sec)
Heartbeat CPU 0 instructions: 145500732 cycles: 63974678 heartbeat IPC: 1.866 cumulative IPC: 1.86 (Simulation time: 00 hr 14 min 47 sec)
Heartbeat CPU 0 instructions: 146000732 cycles: 64244982 heartbeat IPC: 1.85 cumulative IPC: 1.86 (Simulation time: 00 hr 14 min 51 sec)
Heartbeat CPU 0 instructions: 146500732 cycles: 64514216 heartbeat IPC: 1.857 cumulative IPC: 1.86 (Simulation time: 00 hr 14 min 55 sec)
Heartbeat CPU 0 instructions: 147000732 cycles: 64784296 heartbeat IPC: 1.851 cumulative IPC: 1.86 (Simulation time: 00 hr 14 min 58 sec)
Heartbeat CPU 0 instructions: 147500733 cycles: 65074597 heartbeat IPC: 1.722 cumulative IPC: 1.859 (Simulation time: 00 hr 15 min 02 sec)
Heartbeat CPU 0 instructions: 148000739 cycles: 65346926 heartbeat IPC: 1.836 cumulative IPC: 1.859 (Simulation time: 00 hr 15 min 06 sec)
Heartbeat CPU 0 instructions: 148500745 cycles: 65617849 heartbeat IPC: 1.846 cumulative IPC: 1.859 (Simulation time: 00 hr 15 min 09 sec)
Heartbeat CPU 0 instructions: 149000747 cycles: 65891081 heartbeat IPC: 1.83 cumulative IPC: 1.859 (Simulation time: 00 hr 15 min 13 sec)
Heartbeat CPU 0 instructions: 149500753 cycles: 66163630 heartbeat IPC: 1.835 cumulative IPC: 1.859 (Simulation time: 00 hr 15 min 17 sec)
Heartbeat CPU 0 instructions: 150000756 cycles: 66441286 heartbeat IPC: 1.801 cumulative IPC: 1.859 (Simulation time: 00 hr 15 min 21 sec)
Heartbeat CPU 0 instructions: 150500756 cycles: 66711787 heartbeat IPC: 1.848 cumulative IPC: 1.858 (Simulation time: 00 hr 15 min 24 sec)
Heartbeat CPU 0 instructions: 151000762 cycles: 66984164 heartbeat IPC: 1.836 cumulative IPC: 1.858 (Simulation time: 00 hr 15 min 28 sec)
Heartbeat CPU 0 instructions: 151500764 cycles: 67253647 heartbeat IPC: 1.855 cumulative IPC: 1.858 (Simulation time: 00 hr 15 min 32 sec)
Heartbeat CPU 0 instructions: 152000766 cycles: 67523843 heartbeat IPC: 1.851 cumulative IPC: 1.858 (Simulation time: 00 hr 15 min 35 sec)
Heartbeat CPU 0 instructions: 152500770 cycles: 67800242 heartbeat IPC: 1.809 cumulative IPC: 1.858 (Simulation time: 00 hr 15 min 39 sec)
Heartbeat CPU 0 instructions: 153000770 cycles: 68068499 heartbeat IPC: 1.864 cumulative IPC: 1.858 (Simulation time: 00 hr 15 min 42 sec)
Heartbeat CPU 0 instructions: 153500770 cycles: 68359702 heartbeat IPC: 1.717 cumulative IPC: 1.857 (Simulation time: 00 hr 15 min 46 sec)
Heartbeat CPU 0 instructions: 154000770 cycles: 68627432 heartbeat IPC: 1.868 cumulative IPC: 1.857 (Simulation time: 00 hr 15 min 49 sec)
Heartbeat CPU 0 instructions: 154500771 cycles: 68902562 heartbeat IPC: 1.817 cumulative IPC: 1.857 (Simulation time: 00 hr 15 min 53 sec)
Heartbeat CPU 0 instructions: 155000771 cycles: 69172212 heartbeat IPC: 1.854 cumulative IPC: 1.857 (Simulation time: 00 hr 15 min 57 sec)
Heartbeat CPU 0 instructions: 155500771 cycles: 69441865 heartbeat IPC: 1.854 cumulative IPC: 1.857 (Simulation time: 00 hr 16 min 00 sec)
Heartbeat CPU 0 instructions: 156000775 cycles: 69710931 heartbeat IPC: 1.858 cumulative IPC: 1.857 (Simulation time: 00 hr 16 min 04 sec)
Heartbeat CPU 0 instructions: 156500775 cycles: 69980394 heartbeat IPC: 1.856 cumulative IPC: 1.857 (Simulation time: 00 hr 16 min 07 sec)
Heartbeat CPU 0 instructions: 157000777 cycles: 70251259 heartbeat IPC: 1.846 cumulative IPC: 1.857 (Simulation time: 00 hr 16 min 11 sec)
Heartbeat CPU 0 instructions: 157500777 cycles: 70523161 heartbeat IPC: 1.839 cumulative IPC: 1.857 (Simulation time: 00 hr 16 min 14 sec)
Heartbeat CPU 0 instructions: 158000781 cycles: 70794652 heartbeat IPC: 1.842 cumulative IPC: 1.857 (Simulation time: 00 hr 16 min 18 sec)
Heartbeat CPU 0 instructions: 158500781 cycles: 71063572 heartbeat IPC: 1.859 cumulative IPC: 1.857 (Simulation time: 00 hr 16 min 22 sec)
Heartbeat CPU 0 instructions: 159000781 cycles: 71334547 heartbeat IPC: 1.845 cumulative IPC: 1.857 (Simulation time: 00 hr 16 min 25 sec)
Heartbeat CPU 0 instructions: 159500781 cycles: 71603462 heartbeat IPC: 1.859 cumulative IPC: 1.857 (Simulation time: 00 hr 16 min 29 sec)
Heartbeat CPU 0 instructions: 160000781 cycles: 71893065 heartbeat IPC: 1.727 cumulative IPC: 1.856 (Simulation time: 00 hr 16 min 33 sec)
Heartbeat CPU 0 instructions: 160500783 cycles: 72163746 heartbeat IPC: 1.847 cumulative IPC: 1.856 (Simulation time: 00 hr 16 min 36 sec)
Heartbeat CPU 0 instructions: 161000789 cycles: 72436188 heartbeat IPC: 1.835 cumulative IPC: 1.856 (Simulation time: 00 hr 16 min 40 sec)
Heartbeat CPU 0 instructions: 161500791 cycles: 72709312 heartbeat IPC: 1.831 cumulative IPC: 1.856 (Simulation time: 00 hr 16 min 44 sec)
Heartbeat CPU 0 instructions: 162000797 cycles: 72983028 heartbeat IPC: 1.827 cumulative IPC: 1.856 (Simulation time: 00 hr 16 min 48 sec)
Heartbeat CPU 0 instructions: 162500803 cycles: 73257795 heartbeat IPC: 1.82 cumulative IPC: 1.856 (Simulation time: 00 hr 16 min 52 sec)
Heartbeat CPU 0 instructions: 163000803 cycles: 73532555 heartbeat IPC: 1.82 cumulative IPC: 1.856 (Simulation time: 00 hr 16 min 55 sec)
Heartbeat CPU 0 instructions: 163500803 cycles: 73801506 heartbeat IPC: 1.859 cumulative IPC: 1.856 (Simulation time: 00 hr 16 min 59 sec)
Heartbeat CPU 0 instructions: 164000804 cycles: 74074394 heartbeat IPC: 1.832 cumulative IPC: 1.856 (Simulation time: 00 hr 17 min 02 sec)
Heartbeat CPU 0 instructions: 164500808 cycles: 74343353 heartbeat IPC: 1.859 cumulative IPC: 1.856 (Simulation time: 00 hr 17 min 06 sec)
Heartbeat CPU 0 instructions: 165000812 cycles: 74616852 heartbeat IPC: 1.828 cumulative IPC: 1.855 (Simulation time: 00 hr 17 min 10 sec)
Heartbeat CPU 0 instructions: 165500812 cycles: 74884977 heartbeat IPC: 1.865 cumulative IPC: 1.855 (Simulation time: 00 hr 17 min 13 sec)
Heartbeat CPU 0 instructions: 166000817 cycles: 75172165 heartbeat IPC: 1.741 cumulative IPC: 1.855 (Simulation time: 00 hr 17 min 17 sec)
Heartbeat CPU 0 instructions: 166500817 cycles: 75442717 heartbeat IPC: 1.848 cumulative IPC: 1.855 (Simulation time: 00 hr 17 min 20 sec)
Heartbeat CPU 0 instructions: 167000820 cycles: 75717247 heartbeat IPC: 1.821 cumulative IPC: 1.855 (Simulation time: 00 hr 17 min 24 sec)
Heartbeat CPU 0 instructions: 167500820 cycles: 75986409 heartbeat IPC: 1.858 cumulative IPC: 1.855 (Simulation time: 00 hr 17 min 27 sec)
Heartbeat CPU 0 instructions: 168000820 cycles: 76256844 heartbeat IPC: 1.849 cumulative IPC: 1.855 (Simulation time: 00 hr 17 min 31 sec)
Heartbeat CPU 0 instructions: 168500824 cycles: 76526072 heartbeat IPC: 1.857 cumulative IPC: 1.855 (Simulation time: 00 hr 17 min 35 sec)
Heartbeat CPU 0 instructions: 169000824 cycles: 76795998 heartbeat IPC: 1.852 cumulative IPC: 1.855 (Simulation time: 00 hr 17 min 38 sec)
Heartbeat CPU 0 instructions: 169500824 cycles: 77065402 heartbeat IPC: 1.856 cumulative IPC: 1.855 (Simulation time: 00 hr 17 min 42 sec)
Heartbeat CPU 0 instructions: 170000826 cycles: 77338455 heartbeat IPC: 1.831 cumulative IPC: 1.855 (Simulation time: 00 hr 17 min 45 sec)
Heartbeat CPU 0 instructions: 170500829 cycles: 77610859 heartbeat IPC: 1.836 cumulative IPC: 1.855 (Simulation time: 00 hr 17 min 49 sec)
Heartbeat CPU 0 instructions: 171000830 cycles: 77878918 heartbeat IPC: 1.865 cumulative IPC: 1.855 (Simulation time: 00 hr 17 min 53 sec)
Heartbeat CPU 0 instructions: 171500830 cycles: 78148766 heartbeat IPC: 1.853 cumulative IPC: 1.855 (Simulation time: 00 hr 17 min 56 sec)
Heartbeat CPU 0 instructions: 172000830 cycles: 78418487 heartbeat IPC: 1.854 cumulative IPC: 1.855 (Simulation time: 00 hr 18 min 00 sec)
Heartbeat CPU 0 instructions: 172500831 cycles: 78701744 heartbeat IPC: 1.765 cumulative IPC: 1.854 (Simulation time: 00 hr 18 min 04 sec)
Heartbeat CPU 0 instructions: 173000831 cycles: 78976930 heartbeat IPC: 1.817 cumulative IPC: 1.854 (Simulation time: 00 hr 18 min 07 sec)
Heartbeat CPU 0 instructions: 173500833 cycles: 79248589 heartbeat IPC: 1.841 cumulative IPC: 1.854 (Simulation time: 00 hr 18 min 11 sec)
Heartbeat CPU 0 instructions: 174000839 cycles: 79521115 heartbeat IPC: 1.835 cumulative IPC: 1.854 (Simulation time: 00 hr 18 min 15 sec)
Heartbeat CPU 0 instructions: 174500841 cycles: 79792918 heartbeat IPC: 1.84 cumulative IPC: 1.854 (Simulation time: 00 hr 18 min 19 sec)
Heartbeat CPU 0 instructions: 175000847 cycles: 80064723 heartbeat IPC: 1.84 cumulative IPC: 1.854 (Simulation time: 00 hr 18 min 23 sec)
Heartbeat CPU 0 instructions: 175500848 cycles: 80340551 heartbeat IPC: 1.813 cumulative IPC: 1.854 (Simulation time: 00 hr 18 min 26 sec)
Heartbeat CPU 0 instructions: 176000850 cycles: 80611391 heartbeat IPC: 1.846 cumulative IPC: 1.854 (Simulation time: 00 hr 18 min 30 sec)
Heartbeat CPU 0 instructions: 176500853 cycles: 80881961 heartbeat IPC: 1.848 cumulative IPC: 1.854 (Simulation time: 00 hr 18 min 34 sec)
Heartbeat CPU 0 instructions: 177000857 cycles: 81151744 heartbeat IPC: 1.853 cumulative IPC: 1.854 (Simulation time: 00 hr 18 min 37 sec)
Heartbeat CPU 0 instructions: 177500857 cycles: 81424521 heartbeat IPC: 1.833 cumulative IPC: 1.853 (Simulation time: 00 hr 18 min 41 sec)
Heartbeat CPU 0 instructions: 178000861 cycles: 81693376 heartbeat IPC: 1.86 cumulative IPC: 1.854 (Simulation time: 00 hr 18 min 44 sec)
Heartbeat CPU 0 instructions: 178500863 cycles: 81975955 heartbeat IPC: 1.769 cumulative IPC: 1.853 (Simulation time: 00 hr 18 min 48 sec)
Heartbeat CPU 0 instructions: 179000864 cycles: 82247880 heartbeat IPC: 1.839 cumulative IPC: 1.853 (Simulation time: 00 hr 18 min 51 sec)
Heartbeat CPU 0 instructions: 179500864 cycles: 82516933 heartbeat IPC: 1.858 cumulative IPC: 1.853 (Simulation time: 00 hr 18 min 55 sec)
Heartbeat CPU 0 instructions: 180000869 cycles: 82789872 heartbeat IPC: 1.832 cumulative IPC: 1.853 (Simulation time: 00 hr 18 min 58 sec)
Heartbeat CPU 0 instructions: 180500869 cycles: 83061315 heartbeat IPC: 1.842 cumulative IPC: 1.853 (Simulation time: 00 hr 19 min 02 sec)
Heartbeat CPU 0 instructions: 181000873 cycles: 83330518 heartbeat IPC: 1.857 cumulative IPC: 1.853 (Simulation time: 00 hr 19 min 05 sec)
Heartbeat CPU 0 instructions: 181500873 cycles: 83601184 heartbeat IPC: 1.847 cumulative IPC: 1.853 (Simulation time: 00 hr 19 min 09 sec)
Heartbeat CPU 0 instructions: 182000873 cycles: 83870474 heartbeat IPC: 1.857 cumulative IPC: 1.853 (Simulation time: 00 hr 19 min 12 sec)
Heartbeat CPU 0 instructions: 182500875 cycles: 84144200 heartbeat IPC: 1.827 cumulative IPC: 1.853 (Simulation time: 00 hr 19 min 16 sec)
Heartbeat CPU 0 instructions: 183000875 cycles: 84413541 heartbeat IPC: 1.856 cumulative IPC: 1.853 (Simulation time: 00 hr 19 min 20 sec)
Heartbeat CPU 0 instructions: 183500879 cycles: 84683140 heartbeat IPC: 1.855 cumulative IPC: 1.853 (Simulation time: 00 hr 19 min 23 sec)
Heartbeat CPU 0 instructions: 184000879 cycles: 84953342 heartbeat IPC: 1.85 cumulative IPC: 1.853 (Simulation time: 00 hr 19 min 27 sec)
Heartbeat CPU 0 instructions: 184500879 cycles: 85223441 heartbeat IPC: 1.851 cumulative IPC: 1.853 (Simulation time: 00 hr 19 min 30 sec)
Heartbeat CPU 0 instructions: 185000879 cycles: 85492754 heartbeat IPC: 1.857 cumulative IPC: 1.853 (Simulation time: 00 hr 19 min 34 sec)
Heartbeat CPU 0 instructions: 185500882 cycles: 85783718 heartbeat IPC: 1.718 cumulative IPC: 1.852 (Simulation time: 00 hr 19 min 38 sec)
Heartbeat CPU 0 instructions: 186000884 cycles: 86054314 heartbeat IPC: 1.848 cumulative IPC: 1.852 (Simulation time: 00 hr 19 min 42 sec)
Heartbeat CPU 0 instructions: 186500890 cycles: 86326642 heartbeat IPC: 1.836 cumulative IPC: 1.852 (Simulation time: 00 hr 19 min 45 sec)
Heartbeat CPU 0 instructions: 187000891 cycles: 86600265 heartbeat IPC: 1.827 cumulative IPC: 1.852 (Simulation time: 00 hr 19 min 49 sec)
Heartbeat CPU 0 instructions: 187500891 cycles: 86872299 heartbeat IPC: 1.838 cumulative IPC: 1.852 (Simulation time: 00 hr 19 min 53 sec)
Heartbeat CPU 0 instructions: 188000892 cycles: 87147727 heartbeat IPC: 1.815 cumulative IPC: 1.852 (Simulation time: 00 hr 19 min 56 sec)
Heartbeat CPU 0 instructions: 188500896 cycles: 87417737 heartbeat IPC: 1.852 cumulative IPC: 1.852 (Simulation time: 00 hr 20 min 00 sec)
Heartbeat CPU 0 instructions: 189000897 cycles: 87686760 heartbeat IPC: 1.859 cumulative IPC: 1.852 (Simulation time: 00 hr 20 min 04 sec)
Heartbeat CPU 0 instructions: 189500902 cycles: 87959435 heartbeat IPC: 1.834 cumulative IPC: 1.852 (Simulation time: 00 hr 20 min 07 sec)
Heartbeat CPU 0 instructions: 190000906 cycles: 88227767 heartbeat IPC: 1.863 cumulative IPC: 1.852 (Simulation time: 00 hr 20 min 11 sec)
Heartbeat CPU 0 instructions: 190500910 cycles: 88500541 heartbeat IPC: 1.833 cumulative IPC: 1.852 (Simulation time: 00 hr 20 min 14 sec)
Heartbeat CPU 0 instructions: 191000910 cycles: 88768838 heartbeat IPC: 1.864 cumulative IPC: 1.852 (Simulation time: 00 hr 20 min 18 sec)
Heartbeat CPU 0 instructions: 191500910 cycles: 89054863 heartbeat IPC: 1.748 cumulative IPC: 1.852 (Simulation time: 00 hr 20 min 21 sec)
Heartbeat CPU 0 instructions: 192000911 cycles: 89325495 heartbeat IPC: 1.848 cumulative IPC: 1.852 (Simulation time: 00 hr 20 min 25 sec)
Heartbeat CPU 0 instructions: 192500911 cycles: 89599873 heartbeat IPC: 1.822 cumulative IPC: 1.852 (Simulation time: 00 hr 20 min 28 sec)
Heartbeat CPU 0 instructions: 193000911 cycles: 89870068 heartbeat IPC: 1.851 cumulative IPC: 1.852 (Simulation time: 00 hr 20 min 32 sec)
Heartbeat CPU 0 instructions: 193500911 cycles: 90137895 heartbeat IPC: 1.867 cumulative IPC: 1.852 (Simulation time: 00 hr 20 min 35 sec)
Heartbeat CPU 0 instructions: 194000914 cycles: 90407709 heartbeat IPC: 1.853 cumulative IPC: 1.852 (Simulation time: 00 hr 20 min 39 sec)
Heartbeat CPU 0 instructions: 194500915 cycles: 90675504 heartbeat IPC: 1.867 cumulative IPC: 1.852 (Simulation time: 00 hr 20 min 42 sec)
Heartbeat CPU 0 instructions: 195000915 cycles: 90946014 heartbeat IPC: 1.848 cumulative IPC: 1.852 (Simulation time: 00 hr 20 min 46 sec)
Heartbeat CPU 0 instructions: 195500917 cycles: 91219358 heartbeat IPC: 1.829 cumulative IPC: 1.852 (Simulation time: 00 hr 20 min 49 sec)
Heartbeat CPU 0 instructions: 196000922 cycles: 91480206 heartbeat IPC: 1.917 cumulative IPC: 1.852 (Simulation time: 00 hr 20 min 53 sec)
Heartbeat CPU 0 instructions: 196500928 cycles: 91728125 heartbeat IPC: 2.017 cumulative IPC: 1.852 (Simulation time: 00 hr 20 min 56 sec)
Heartbeat CPU 0 instructions: 197000928 cycles: 91984762 heartbeat IPC: 1.948 cumulative IPC: 1.853 (Simulation time: 00 hr 21 min 00 sec)
Heartbeat CPU 0 instructions: 197500928 cycles: 92222682 heartbeat IPC: 2.102 cumulative IPC: 1.853 (Simulation time: 00 hr 21 min 03 sec)
Heartbeat CPU 0 instructions: 198000933 cycles: 92467955 heartbeat IPC: 2.039 cumulative IPC: 1.854 (Simulation time: 00 hr 21 min 06 sec)
Heartbeat CPU 0 instructions: 198500939 cycles: 92681533 heartbeat IPC: 2.341 cumulative IPC: 1.855 (Simulation time: 00 hr 21 min 09 sec)
Heartbeat CPU 0 instructions: 199000941 cycles: 92905482 heartbeat IPC: 2.233 cumulative IPC: 1.856 (Simulation time: 00 hr 21 min 12 sec)
Heartbeat CPU 0 instructions: 199500947 cycles: 93123418 heartbeat IPC: 2.294 cumulative IPC: 1.857 (Simulation time: 00 hr 21 min 16 sec)
Heartbeat CPU 0 instructions: 200000949 cycles: 93342029 heartbeat IPC: 2.287 cumulative IPC: 1.859 (Simulation time: 00 hr 21 min 19 sec)
Heartbeat CPU 0 instructions: 200500955 cycles: 93561447 heartbeat IPC: 2.279 cumulative IPC: 1.86 (Simulation time: 00 hr 21 min 22 sec)
Heartbeat CPU 0 instructions: 201000957 cycles: 93792088 heartbeat IPC: 2.168 cumulative IPC: 1.861 (Simulation time: 00 hr 21 min 25 sec)
Heartbeat CPU 0 instructions: 201500957 cycles: 94018923 heartbeat IPC: 2.204 cumulative IPC: 1.862 (Simulation time: 00 hr 21 min 28 sec)
Heartbeat CPU 0 instructions: 202000958 cycles: 94255789 heartbeat IPC: 2.111 cumulative IPC: 1.862 (Simulation time: 00 hr 21 min 32 sec)
Heartbeat CPU 0 instructions: 202500962 cycles: 94486330 heartbeat IPC: 2.169 cumulative IPC: 1.863 (Simulation time: 00 hr 21 min 35 sec)
Heartbeat CPU 0 instructions: 203000962 cycles: 94723280 heartbeat IPC: 2.11 cumulative IPC: 1.864 (Simulation time: 00 hr 21 min 38 sec)
Heartbeat CPU 0 instructions: 203500966 cycles: 94953464 heartbeat IPC: 2.172 cumulative IPC: 1.865 (Simulation time: 00 hr 21 min 41 sec)
Heartbeat CPU 0 instructions: 204000971 cycles: 95207162 heartbeat IPC: 1.971 cumulative IPC: 1.865 (Simulation time: 00 hr 21 min 45 sec)
Heartbeat CPU 0 instructions: 204500971 cycles: 95428733 heartbeat IPC: 2.257 cumulative IPC: 1.866 (Simulation time: 00 hr 21 min 48 sec)
Heartbeat CPU 0 instructions: 205000974 cycles: 95651226 heartbeat IPC: 2.247 cumulative IPC: 1.867 (Simulation time: 00 hr 21 min 51 sec)
Heartbeat CPU 0 instructions: 205500974 cycles: 95880090 heartbeat IPC: 2.185 cumulative IPC: 1.868 (Simulation time: 00 hr 21 min 54 sec)
Heartbeat CPU 0 instructions: 206000974 cycles: 96109907 heartbeat IPC: 2.176 cumulative IPC: 1.869 (Simulation time: 00 hr 21 min 57 sec)
Heartbeat CPU 0 instructions: 206500978 cycles: 96334739 heartbeat IPC: 2.224 cumulative IPC: 1.87 (Simulation time: 00 hr 22 min 00 sec)
Heartbeat CPU 0 instructions: 207000978 cycles: 96562524 heartbeat IPC: 2.195 cumulative IPC: 1.871 (Simulation time: 00 hr 22 min 03 sec)
Heartbeat CPU 0 instructions: 207500978 cycles: 96793791 heartbeat IPC: 2.162 cumulative IPC: 1.871 (Simulation time: 00 hr 22 min 06 sec)
Heartbeat CPU 0 instructions: 208000980 cycles: 97027551 heartbeat IPC: 2.139 cumulative IPC: 1.872 (Simulation time: 00 hr 22 min 10 sec)
Heartbeat CPU 0 instructions: 208500986 cycles: 97253257 heartbeat IPC: 2.215 cumulative IPC: 1.873 (Simulation time: 00 hr 22 min 13 sec)
Heartbeat CPU 0 instructions: 209000991 cycles: 97477271 heartbeat IPC: 2.232 cumulative IPC: 1.874 (Simulation time: 00 hr 22 min 16 sec)
Heartbeat CPU 0 instructions: 209500991 cycles: 97704702 heartbeat IPC: 2.198 cumulative IPC: 1.875 (Simulation time: 00 hr 22 min 19 sec)
Heartbeat CPU 0 instructions: 210000991 cycles: 97936340 heartbeat IPC: 2.159 cumulative IPC: 1.876 (Simulation time: 00 hr 22 min 22 sec)
Heartbeat CPU 0 instructions: 210500991 cycles: 98164721 heartbeat IPC: 2.189 cumulative IPC: 1.877 (Simulation time: 00 hr 22 min 26 sec)
Heartbeat CPU 0 instructions: 211000996 cycles: 98409920 heartbeat IPC: 2.039 cumulative IPC: 1.877 (Simulation time: 00 hr 22 min 29 sec)
Heartbeat CPU 0 instructions: 211500996 cycles: 98631275 heartbeat IPC: 2.259 cumulative IPC: 1.878 (Simulation time: 00 hr 22 min 32 sec)
Heartbeat CPU 0 instructions: 212000998 cycles: 98852747 heartbeat IPC: 2.258 cumulative IPC: 1.879 (Simulation time: 00 hr 22 min 35 sec)
Heartbeat CPU 0 instructions: 212501004 cycles: 99075750 heartbeat IPC: 2.242 cumulative IPC: 1.88 (Simulation time: 00 hr 22 min 39 sec)
Heartbeat CPU 0 instructions: 213001006 cycles: 99293463 heartbeat IPC: 2.297 cumulative IPC: 1.881 (Simulation time: 00 hr 22 min 42 sec)
Heartbeat CPU 0 instructions: 213501006 cycles: 99522381 heartbeat IPC: 2.184 cumulative IPC: 1.882 (Simulation time: 00 hr 22 min 45 sec)
Heartbeat CPU 0 instructions: 214001011 cycles: 99752809 heartbeat IPC: 2.17 cumulative IPC: 1.883 (Simulation time: 00 hr 22 min 48 sec)
Heartbeat CPU 0 instructions: 214501014 cycles: 99985838 heartbeat IPC: 2.146 cumulative IPC: 1.883 (Simulation time: 00 hr 22 min 51 sec)
Heartbeat CPU 0 instructions: 215001014 cycles: 100215463 heartbeat IPC: 2.177 cumulative IPC: 1.884 (Simulation time: 00 hr 22 min 54 sec)
Heartbeat CPU 0 instructions: 215501015 cycles: 100454309 heartbeat IPC: 2.093 cumulative IPC: 1.885 (Simulation time: 00 hr 22 min 58 sec)
Heartbeat CPU 0 instructions: 216001015 cycles: 100684679 heartbeat IPC: 2.17 cumulative IPC: 1.885 (Simulation time: 00 hr 23 min 01 sec)
Heartbeat CPU 0 instructions: 216501017 cycles: 100926207 heartbeat IPC: 2.07 cumulative IPC: 1.886 (Simulation time: 00 hr 23 min 04 sec)
Heartbeat CPU 0 instructions: 217001018 cycles: 101161599 heartbeat IPC: 2.124 cumulative IPC: 1.886 (Simulation time: 00 hr 23 min 07 sec)
Heartbeat CPU 0 instructions: 217501018 cycles: 101377602 heartbeat IPC: 2.315 cumulative IPC: 1.887 (Simulation time: 00 hr 23 min 10 sec)
Heartbeat CPU 0 instructions: 218001023 cycles: 101597220 heartbeat IPC: 2.277 cumulative IPC: 1.888 (Simulation time: 00 hr 23 min 13 sec)
Heartbeat CPU 0 instructions: 218501023 cycles: 101817745 heartbeat IPC: 2.267 cumulative IPC: 1.889 (Simulation time: 00 hr 23 min 16 sec)
Heartbeat CPU 0 instructions: 219001030 cycles: 102039642 heartbeat IPC: 2.253 cumulative IPC: 1.89 (Simulation time: 00 hr 23 min 19 sec)
Heartbeat CPU 0 instructions: 219501034 cycles: 102268119 heartbeat IPC: 2.188 cumulative IPC: 1.891 (Simulation time: 00 hr 23 min 22 sec)
Heartbeat CPU 0 instructions: 220001034 cycles: 102497710 heartbeat IPC: 2.178 cumulative IPC: 1.892 (Simulation time: 00 hr 23 min 25 sec)
Heartbeat CPU 0 instructions: 220501036 cycles: 102729570 heartbeat IPC: 2.156 cumulative IPC: 1.892 (Simulation time: 00 hr 23 min 28 sec)
Heartbeat CPU 0 instructions: 221001036 cycles: 102956661 heartbeat IPC: 2.202 cumulative IPC: 1.893 (Simulation time: 00 hr 23 min 31 sec)
Heartbeat CPU 0 instructions: 221501040 cycles: 103184186 heartbeat IPC: 2.198 cumulative IPC: 1.894 (Simulation time: 00 hr 23 min 34 sec)
Heartbeat CPU 0 instructions: 222001040 cycles: 103411941 heartbeat IPC: 2.195 cumulative IPC: 1.895 (Simulation time: 00 hr 23 min 37 sec)
Heartbeat CPU 0 instructions: 222501040 cycles: 103637457 heartbeat IPC: 2.217 cumulative IPC: 1.896 (Simulation time: 00 hr 23 min 40 sec)
Heartbeat CPU 0 instructions: 223001040 cycles: 103866240 heartbeat IPC: 2.185 cumulative IPC: 1.896 (Simulation time: 00 hr 23 min 44 sec)
Heartbeat CPU 0 instructions: 223501041 cycles: 104117282 heartbeat IPC: 1.992 cumulative IPC: 1.897 (Simulation time: 00 hr 23 min 47 sec)
Heartbeat CPU 0 instructions: 224001047 cycles: 104338847 heartbeat IPC: 2.257 cumulative IPC: 1.897 (Simulation time: 00 hr 23 min 50 sec)
Heartbeat CPU 0 instructions: 224501049 cycles: 104557123 heartbeat IPC: 2.291 cumulative IPC: 1.898 (Simulation time: 00 hr 23 min 53 sec)
Heartbeat CPU 0 instructions: 225001055 cycles: 104775070 heartbeat IPC: 2.294 cumulative IPC: 1.899 (Simulation time: 00 hr 23 min 56 sec)
Heartbeat CPU 0 instructions: 225501057 cycles: 104994028 heartbeat IPC: 2.284 cumulative IPC: 1.9 (Simulation time: 00 hr 23 min 59 sec)
Heartbeat CPU 0 instructions: 226001057 cycles: 105214251 heartbeat IPC: 2.27 cumulative IPC: 1.901 (Simulation time: 00 hr 24 min 02 sec)
Heartbeat CPU 0 instructions: 226501057 cycles: 105444887 heartbeat IPC: 2.168 cumulative IPC: 1.902 (Simulation time: 00 hr 24 min 05 sec)
Heartbeat CPU 0 instructions: 227001058 cycles: 105675494 heartbeat IPC: 2.168 cumulative IPC: 1.902 (Simulation time: 00 hr 24 min 09 sec)
Heartbeat CPU 0 instructions: 227501063 cycles: 105906368 heartbeat IPC: 2.166 cumulative IPC: 1.903 (Simulation time: 00 hr 24 min 12 sec)
Heartbeat CPU 0 instructions: 228001067 cycles: 106134180 heartbeat IPC: 2.195 cumulative IPC: 1.904 (Simulation time: 00 hr 24 min 15 sec)
Heartbeat CPU 0 instructions: 228501071 cycles: 106365435 heartbeat IPC: 2.162 cumulative IPC: 1.904 (Simulation time: 00 hr 24 min 18 sec)
Heartbeat CPU 0 instructions: 229001071 cycles: 106597225 heartbeat IPC: 2.157 cumulative IPC: 1.905 (Simulation time: 00 hr 24 min 21 sec)
Heartbeat CPU 0 instructions: 229501071 cycles: 106842901 heartbeat IPC: 2.035 cumulative IPC: 1.905 (Simulation time: 00 hr 24 min 24 sec)
Heartbeat CPU 0 instructions: 230001072 cycles: 107060526 heartbeat IPC: 2.298 cumulative IPC: 1.906 (Simulation time: 00 hr 24 min 27 sec)
Heartbeat CPU 0 instructions: 230501072 cycles: 107289062 heartbeat IPC: 2.188 cumulative IPC: 1.907 (Simulation time: 00 hr 24 min 30 sec)
Heartbeat CPU 0 instructions: 231001072 cycles: 107519151 heartbeat IPC: 2.173 cumulative IPC: 1.908 (Simulation time: 00 hr 24 min 33 sec)
Heartbeat CPU 0 instructions: 231501072 cycles: 107753101 heartbeat IPC: 2.137 cumulative IPC: 1.908 (Simulation time: 00 hr 24 min 36 sec)
Heartbeat CPU 0 instructions: 232001076 cycles: 107982102 heartbeat IPC: 2.183 cumulative IPC: 1.909 (Simulation time: 00 hr 24 min 39 sec)
Heartbeat CPU 0 instructions: 232501076 cycles: 108209386 heartbeat IPC: 2.2 cumulative IPC: 1.91 (Simulation time: 00 hr 24 min 42 sec)
Heartbeat CPU 0 instructions: 233001076 cycles: 108434807 heartbeat IPC: 2.218 cumulative IPC: 1.91 (Simulation time: 00 hr 24 min 45 sec)
Heartbeat CPU 0 instructions: 233501078 cycles: 108665588 heartbeat IPC: 2.167 cumulative IPC: 1.911 (Simulation time: 00 hr 24 min 48 sec)
Heartbeat CPU 0 instructions: 234001079 cycles: 108894765 heartbeat IPC: 2.182 cumulative IPC: 1.912 (Simulation time: 00 hr 24 min 51 sec)
Heartbeat CPU 0 instructions: 234501082 cycles: 109122751 heartbeat IPC: 2.193 cumulative IPC: 1.912 (Simulation time: 00 hr 24 min 54 sec)
Heartbeat CPU 0 instructions: 235001082 cycles: 109348240 heartbeat IPC: 2.217 cumulative IPC: 1.913 (Simulation time: 00 hr 24 min 57 sec)
Heartbeat CPU 0 instructions: 235501082 cycles: 109574651 heartbeat IPC: 2.208 cumulative IPC: 1.914 (Simulation time: 00 hr 25 min 00 sec)
Heartbeat CPU 0 instructions: 236001082 cycles: 109821392 heartbeat IPC: 2.026 cumulative IPC: 1.914 (Simulation time: 00 hr 25 min 03 sec)
Heartbeat CPU 0 instructions: 236501084 cycles: 110038378 heartbeat IPC: 2.304 cumulative IPC: 1.915 (Simulation time: 00 hr 25 min 06 sec)
Heartbeat CPU 0 instructions: 237001090 cycles: 110256694 heartbeat IPC: 2.29 cumulative IPC: 1.916 (Simulation time: 00 hr 25 min 09 sec)
Heartbeat CPU 0 instructions: 237501092 cycles: 110475284 heartbeat IPC: 2.287 cumulative IPC: 1.916 (Simulation time: 00 hr 25 min 12 sec)
Heartbeat CPU 0 instructions: 238001098 cycles: 110697332 heartbeat IPC: 2.252 cumulative IPC: 1.917 (Simulation time: 00 hr 25 min 15 sec)
Heartbeat CPU 0 instructions: 238501099 cycles: 110916591 heartbeat IPC: 2.28 cumulative IPC: 1.918 (Simulation time: 00 hr 25 min 18 sec)
Heartbeat CPU 0 instructions: 239001104 cycles: 111145251 heartbeat IPC: 2.187 cumulative IPC: 1.919 (Simulation time: 00 hr 25 min 21 sec)
Heartbeat CPU 0 instructions: 239501104 cycles: 111377515 heartbeat IPC: 2.153 cumulative IPC: 1.919 (Simulation time: 00 hr 25 min 24 sec)
Heartbeat CPU 0 instructions: 240001105 cycles: 111609299 heartbeat IPC: 2.157 cumulative IPC: 1.92 (Simulation time: 00 hr 25 min 27 sec)
Heartbeat CPU 0 instructions: 240501109 cycles: 111839644 heartbeat IPC: 2.171 cumulative IPC: 1.92 (Simulation time: 00 hr 25 min 30 sec)
Heartbeat CPU 0 instructions: 241001113 cycles: 112072578 heartbeat IPC: 2.147 cumulative IPC: 1.921 (Simulation time: 00 hr 25 min 33 sec)
Heartbeat CPU 0 instructions: 241501113 cycles: 112299779 heartbeat IPC: 2.201 cumulative IPC: 1.921 (Simulation time: 00 hr 25 min 36 sec)
Heartbeat CPU 0 instructions: 242001118 cycles: 112550994 heartbeat IPC: 1.99 cumulative IPC: 1.922 (Simulation time: 00 hr 25 min 40 sec)
Heartbeat CPU 0 instructions: 242501118 cycles: 112766651 heartbeat IPC: 2.318 cumulative IPC: 1.922 (Simulation time: 00 hr 25 min 42 sec)
Heartbeat CPU 0 instructions: 243001121 cycles: 112986908 heartbeat IPC: 2.27 cumulative IPC: 1.923 (Simulation time: 00 hr 25 min 45 sec)
Heartbeat CPU 0 instructions: 243501121 cycles: 113204780 heartbeat IPC: 2.295 cumulative IPC: 1.924 (Simulation time: 00 hr 25 min 48 sec)
Heartbeat CPU 0 instructions: 244001121 cycles: 113425845 heartbeat IPC: 2.262 cumulative IPC: 1.925 (Simulation time: 00 hr 25 min 51 sec)
Heartbeat CPU 0 instructions: 244501125 cycles: 113661271 heartbeat IPC: 2.124 cumulative IPC: 1.925 (Simulation time: 00 hr 25 min 54 sec)
Heartbeat CPU 0 instructions: 245001125 cycles: 113904395 heartbeat IPC: 2.057 cumulative IPC: 1.926 (Simulation time: 00 hr 25 min 57 sec)
Heartbeat CPU 0 instructions: 245501125 cycles: 114147227 heartbeat IPC: 2.059 cumulative IPC: 1.926 (Simulation time: 00 hr 26 min 00 sec)
Heartbeat CPU 0 instructions: 246001127 cycles: 114386425 heartbeat IPC: 2.09 cumulative IPC: 1.926 (Simulation time: 00 hr 26 min 03 sec)
Heartbeat CPU 0 instructions: 246501127 cycles: 114615920 heartbeat IPC: 2.179 cumulative IPC: 1.927 (Simulation time: 00 hr 26 min 06 sec)
Heartbeat CPU 0 instructions: 247001131 cycles: 114843054 heartbeat IPC: 2.201 cumulative IPC: 1.927 (Simulation time: 00 hr 26 min 09 sec)
Heartbeat CPU 0 instructions: 247501131 cycles: 115070416 heartbeat IPC: 2.199 cumulative IPC: 1.928 (Simulation time: 00 hr 26 min 12 sec)
Heartbeat CPU 0 instructions: 248001131 cycles: 115299571 heartbeat IPC: 2.182 cumulative IPC: 1.929 (Simulation time: 00 hr 26 min 15 sec)
Heartbeat CPU 0 instructions: 248501131 cycles: 115528463 heartbeat IPC: 2.184 cumulative IPC: 1.929 (Simulation time: 00 hr 26 min 18 sec)
Heartbeat CPU 0 instructions: 249001132 cycles: 115765973 heartbeat IPC: 2.105 cumulative IPC: 1.93 (Simulation time: 00 hr 26 min 21 sec)
Heartbeat CPU 0 instructions: 249501133 cycles: 115981416 heartbeat IPC: 2.321 cumulative IPC: 1.93 (Simulation time: 00 hr 26 min 24 sec)
Simulation finished CPU 0 instructions: 200000000 cycles: 103563864 cumulative IPC: 1.931 (Simulation time: 00 hr 26 min 27 sec)
Simulation complete CPU 0 instructions: 200000000 cycles: 103563864 cumulative IPC: 1.931 (Simulation time: 00 hr 26 min 27 sec)

ChampSim completed all CPUs

=== Simulation ===
CPU 0 runs /local-ssd/ben/dpc4-traces/ai-ml/llama2.c-stories110M.2.champsimtrace.gz

Region of Interest Statistics

CPU 0 cumulative IPC: 1.931 instructions: 200000000 cycles: 103563864
CPU 0 Branch Prediction Accuracy: 99.54% MPKI: 0.6592 Average ROB Occupancy at Mispredict: 485.6
Branch type MPKI
BRANCH_DIRECT_JUMP: 0.000105
BRANCH_INDIRECT: 5e-06
BRANCH_CONDITIONAL: 0.6588
BRANCH_DIRECT_CALL: 0.00012
BRANCH_INDIRECT_CALL: 2.5e-05
BRANCH_RETURN: 0.00014

cpu0->cpu0_STLB TOTAL        ACCESS:     110664 HIT:        643 MISS:     110021 MSHR_MERGE:          0
cpu0->cpu0_STLB LOAD         ACCESS:     110664 HIT:        643 MISS:     110021 MSHR_MERGE:          0
cpu0->cpu0_STLB RFO          ACCESS:          0 HIT:          0 MISS:          0 MSHR_MERGE:          0
cpu0->cpu0_STLB PREFETCH     ACCESS:          0 HIT:          0 MISS:          0 MSHR_MERGE:          0
cpu0->cpu0_STLB WRITE        ACCESS:          0 HIT:          0 MISS:          0 MSHR_MERGE:          0
cpu0->cpu0_STLB TRANSLATION  ACCESS:          0 HIT:          0 MISS:          0 MSHR_MERGE:          0
cpu0->cpu0_STLB PREFETCH REQUESTED:          0 ISSUED:          0 USEFUL:          0 USELESS:          0
cpu0->cpu0_STLB AVERAGE MISS LATENCY: 190.5 cycles
cpu0->cpu0_L2C TOTAL        ACCESS:   33191906 HIT:    1446576 MISS:   31745330 MSHR_MERGE:   24716697
cpu0->cpu0_L2C LOAD         ACCESS:    1691687 HIT:     109720 MISS:    1581967 MSHR_MERGE:     803452
cpu0->cpu0_L2C RFO          ACCESS:      16208 HIT:       8245 MISS:       7963 MSHR_MERGE:          0
cpu0->cpu0_L2C PREFETCH     ACCESS:   31448504 HIT:    1309795 MISS:   30138709 MSHR_MERGE:   23913245
cpu0->cpu0_L2C WRITE        ACCESS:      20950 HIT:      18700 MISS:       2250 MSHR_MERGE:          0
cpu0->cpu0_L2C TRANSLATION  ACCESS:      14557 HIT:        116 MISS:      14441 MSHR_MERGE:          0
cpu0->cpu0_L2C PREFETCH REQUESTED:   36004773 ISSUED:   26135254 USEFUL:     982568 USELESS:    3461574
cpu0->cpu0_L2C AVERAGE MISS LATENCY: 151.8 cycles
cpu0->cpu0_L1I TOTAL        ACCESS:   42617281 HIT:   42616936 MISS:        345 MSHR_MERGE:        163
cpu0->cpu0_L1I LOAD         ACCESS:   24440154 HIT:   24440054 MISS:        100 MSHR_MERGE:         16
cpu0->cpu0_L1I RFO          ACCESS:          0 HIT:          0 MISS:          0 MSHR_MERGE:          0
cpu0->cpu0_L1I PREFETCH     ACCESS:   18177127 HIT:   18176882 MISS:        245 MSHR_MERGE:        147
cpu0->cpu0_L1I WRITE        ACCESS:          0 HIT:          0 MISS:          0 MSHR_MERGE:          0
cpu0->cpu0_L1I TRANSLATION  ACCESS:          0 HIT:          0 MISS:          0 MSHR_MERGE:          0
cpu0->cpu0_L1I PREFETCH REQUESTED:   24440154 ISSUED:   18177096 USEFUL:         62 USELESS:          0
cpu0->cpu0_L1I AVERAGE MISS LATENCY: 197.2 cycles
cpu0->cpu0_L1D TOTAL        ACCESS:   43137997 HIT:   21608020 MISS:   21529977 MSHR_MERGE:   14494421
cpu0->cpu0_L1D LOAD         ACCESS:   36608613 HIT:   21162570 MISS:   15446043 MSHR_MERGE:   13754440
cpu0->cpu0_L1D RFO          ACCESS:          0 HIT:          0 MISS:          0 MSHR_MERGE:          0
cpu0->cpu0_L1D PREFETCH     ACCESS:    6101160 HIT:      48594 MISS:    6052566 MSHR_MERGE:     739412
cpu0->cpu0_L1D WRITE        ACCESS:     207882 HIT:     191073 MISS:      16809 MSHR_MERGE:        567
cpu0->cpu0_L1D TRANSLATION  ACCESS:     220342 HIT:     205783 MISS:      14559 MSHR_MERGE:          2
cpu0->cpu0_L1D PREFETCH REQUESTED:    6975894 ISSUED:    6101153 USEFUL:    5309392 USELESS:       3753
cpu0->cpu0_L1D AVERAGE MISS LATENCY: 71.31 cycles
cpu0->cpu0_ITLB TOTAL        ACCESS:   38689053 HIT:   38689028 MISS:         25 MSHR_MERGE:          4
cpu0->cpu0_ITLB LOAD         ACCESS:   38689053 HIT:   38689028 MISS:         25 MSHR_MERGE:          4
cpu0->cpu0_ITLB RFO          ACCESS:          0 HIT:          0 MISS:          0 MSHR_MERGE:          0
cpu0->cpu0_ITLB PREFETCH     ACCESS:          0 HIT:          0 MISS:          0 MSHR_MERGE:          0
cpu0->cpu0_ITLB WRITE        ACCESS:          0 HIT:          0 MISS:          0 MSHR_MERGE:          0
cpu0->cpu0_ITLB TRANSLATION  ACCESS:          0 HIT:          0 MISS:          0 MSHR_MERGE:          0
cpu0->cpu0_ITLB PREFETCH REQUESTED:          0 ISSUED:          0 USEFUL:          0 USELESS:          0
cpu0->cpu0_ITLB AVERAGE MISS LATENCY: 442.8 cycles
cpu0->cpu0_DTLB TOTAL        ACCESS:   38305672 HIT:   36779875 MISS:    1525797 MSHR_MERGE:    1415154
cpu0->cpu0_DTLB LOAD         ACCESS:   38305672 HIT:   36779875 MISS:    1525797 MSHR_MERGE:    1415154
cpu0->cpu0_DTLB RFO          ACCESS:          0 HIT:          0 MISS:          0 MSHR_MERGE:          0
cpu0->cpu0_DTLB PREFETCH     ACCESS:          0 HIT:          0 MISS:          0 MSHR_MERGE:          0
cpu0->cpu0_DTLB WRITE        ACCESS:          0 HIT:          0 MISS:          0 MSHR_MERGE:          0
cpu0->cpu0_DTLB TRANSLATION  ACCESS:          0 HIT:          0 MISS:          0 MSHR_MERGE:          0
cpu0->cpu0_DTLB PREFETCH REQUESTED:          0 ISSUED:          0 USEFUL:          0 USELESS:          0
cpu0->cpu0_DTLB AVERAGE MISS LATENCY: 195.4 cycles
cpu0->LLC TOTAL        ACCESS:   13791724 HIT:     187022 MISS:   13604702 MSHR_MERGE:    6586201
cpu0->LLC LOAD         ACCESS:     778515 HIT:      14603 MISS:     763912 MSHR_MERGE:      23149
cpu0->LLC RFO          ACCESS:       7963 HIT:       3553 MISS:       4410 MSHR_MERGE:          0
cpu0->LLC PREFETCH     ACCESS:   12977905 HIT:     159850 MISS:   12818055 MSHR_MERGE:    6563052
cpu0->LLC WRITE        ACCESS:      12900 HIT:       8963 MISS:       3937 MSHR_MERGE:          0
cpu0->LLC TRANSLATION  ACCESS:      14441 HIT:         53 MISS:      14388 MSHR_MERGE:          0
cpu0->LLC PREFETCH REQUESTED:    6757495 ISSUED:    6752442 USEFUL:     165515 USELESS:    4652123
cpu0->LLC AVERAGE MISS LATENCY: 238.4 cycles

DRAM Statistics

Channel 0 RQ ROW_BUFFER_HIT:    3258689
  ROW_BUFFER_MISS:    3755768
  AVG DBUS CONGESTED CYCLE: 4.488
Channel 0 WQ ROW_BUFFER_HIT:        436
  ROW_BUFFER_MISS:       4231
  FULL:          0
Channel 0 REFRESHES ISSUED:       8630
