[VMEM] WARNING: physical memory size is smaller than virtual memory size.

*** ChampSim Multicore Out-of-Order Simulator ***
Warmup Instructions: 50000000
Simulation Instructions: 200000000
Number of CPUs: 1
Page size: 4096
Core 0: /local-ssd/ben/dpc4-traces/Graph/Ligra/ligra_Radii.com-lj.ungraph.gcc_6.3.0_O3.drop_25000M.length_250M.champsimtrace.xz
 L1D Berti prefetcher
Off-chip DRAM Size: 64 GiB Channels: 1 Width: 64-bit Data Rate: 4807 MT/s
Heartbeat CPU 0 instructions: 500004 cycles: 419247 heartbeat IPC: 1.193 cumulative IPC: 1.193 (Simulation time: 00 hr 00 min 06 sec)
Heartbeat CPU 0 instructions: 1000008 cycles: 743042 heartbeat IPC: 1.544 cumulative IPC: 1.346 (Simulation time: 00 hr 00 min 10 sec)
Heartbeat CPU 0 instructions: 1500015 cycles: 980183 heartbeat IPC: 2.108 cumulative IPC: 1.53 (Simulation time: 00 hr 00 min 14 sec)
Heartbeat CPU 0 instructions: 2000016 cycles: 1094608 heartbeat IPC: 4.37 cumulative IPC: 1.827 (Simulation time: 00 hr 00 min 15 sec)
Heartbeat CPU 0 instructions: 2500018 cycles: 1194609 heartbeat IPC: 5 cumulative IPC: 2.093 (Simulation time: 00 hr 00 min 17 sec)
Heartbeat CPU 0 instructions: 3000021 cycles: 1294609 heartbeat IPC: 5 cumulative IPC: 2.317 (Simulation time: 00 hr 00 min 18 sec)
Heartbeat CPU 0 instructions: 3500021 cycles: 1394622 heartbeat IPC: 4.999 cumulative IPC: 2.51 (Simulation time: 00 hr 00 min 19 sec)
Heartbeat CPU 0 instructions: 4000023 cycles: 1494623 heartbeat IPC: 5 cumulative IPC: 2.676 (Simulation time: 00 hr 00 min 20 sec)
Heartbeat CPU 0 instructions: 4500023 cycles: 1594629 heartbeat IPC: 5 cumulative IPC: 2.822 (Simulation time: 00 hr 00 min 22 sec)
Heartbeat CPU 0 instructions: 5000023 cycles: 1720646 heartbeat IPC: 3.968 cumulative IPC: 2.906 (Simulation time: 00 hr 00 min 24 sec)
Heartbeat CPU 0 instructions: 5500027 cycles: 2018037 heartbeat IPC: 1.681 cumulative IPC: 2.725 (Simulation time: 00 hr 00 min 29 sec)
Heartbeat CPU 0 instructions: 6000031 cycles: 2322622 heartbeat IPC: 1.642 cumulative IPC: 2.583 (Simulation time: 00 hr 00 min 34 sec)
Heartbeat CPU 0 instructions: 6500032 cycles: 2593267 heartbeat IPC: 1.847 cumulative IPC: 2.507 (Simulation time: 00 hr 00 min 39 sec)
Heartbeat CPU 0 instructions: 7000036 cycles: 2837436 heartbeat IPC: 2.048 cumulative IPC: 2.467 (Simulation time: 00 hr 00 min 43 sec)
Heartbeat CPU 0 instructions: 7500039 cycles: 3063105 heartbeat IPC: 2.216 cumulative IPC: 2.449 (Simulation time: 00 hr 00 min 47 sec)
Heartbeat CPU 0 instructions: 8000045 cycles: 3255958 heartbeat IPC: 2.593 cumulative IPC: 2.457 (Simulation time: 00 hr 00 min 51 sec)
Heartbeat CPU 0 instructions: 8500052 cycles: 3452602 heartbeat IPC: 2.543 cumulative IPC: 2.462 (Simulation time: 00 hr 00 min 55 sec)
Heartbeat CPU 0 instructions: 9000057 cycles: 3620045 heartbeat IPC: 2.986 cumulative IPC: 2.486 (Simulation time: 00 hr 00 min 58 sec)
Heartbeat CPU 0 instructions: 9500059 cycles: 3797283 heartbeat IPC: 2.821 cumulative IPC: 2.502 (Simulation time: 00 hr 01 min 01 sec)
Heartbeat CPU 0 instructions: 10000063 cycles: 3971758 heartbeat IPC: 2.866 cumulative IPC: 2.518 (Simulation time: 00 hr 01 min 05 sec)
Heartbeat CPU 0 instructions: 10500068 cycles: 4132118 heartbeat IPC: 3.118 cumulative IPC: 2.541 (Simulation time: 00 hr 01 min 08 sec)
Heartbeat CPU 0 instructions: 11000074 cycles: 4287700 heartbeat IPC: 3.214 cumulative IPC: 2.565 (Simulation time: 00 hr 01 min 11 sec)
Heartbeat CPU 0 instructions: 11500074 cycles: 4437888 heartbeat IPC: 3.329 cumulative IPC: 2.591 (Simulation time: 00 hr 01 min 14 sec)
Heartbeat CPU 0 instructions: 12000075 cycles: 4575269 heartbeat IPC: 3.64 cumulative IPC: 2.623 (Simulation time: 00 hr 01 min 17 sec)
Heartbeat CPU 0 instructions: 12500076 cycles: 4706665 heartbeat IPC: 3.805 cumulative IPC: 2.656 (Simulation time: 00 hr 01 min 19 sec)
Heartbeat CPU 0 instructions: 13000079 cycles: 4841952 heartbeat IPC: 3.696 cumulative IPC: 2.685 (Simulation time: 00 hr 01 min 22 sec)
Heartbeat CPU 0 instructions: 13500083 cycles: 4969817 heartbeat IPC: 3.91 cumulative IPC: 2.716 (Simulation time: 00 hr 01 min 25 sec)
Heartbeat CPU 0 instructions: 14000090 cycles: 5097567 heartbeat IPC: 3.914 cumulative IPC: 2.746 (Simulation time: 00 hr 01 min 28 sec)
Heartbeat CPU 0 instructions: 14500091 cycles: 5222034 heartbeat IPC: 4.017 cumulative IPC: 2.777 (Simulation time: 00 hr 01 min 31 sec)
Heartbeat CPU 0 instructions: 15000096 cycles: 5341212 heartbeat IPC: 4.195 cumulative IPC: 2.808 (Simulation time: 00 hr 01 min 33 sec)
Heartbeat CPU 0 instructions: 15500099 cycles: 5459413 heartbeat IPC: 4.23 cumulative IPC: 2.839 (Simulation time: 00 hr 01 min 36 sec)
Heartbeat CPU 0 instructions: 16000104 cycles: 5574559 heartbeat IPC: 4.342 cumulative IPC: 2.87 (Simulation time: 00 hr 01 min 38 sec)
Heartbeat CPU 0 instructions: 16500109 cycles: 5688116 heartbeat IPC: 4.403 cumulative IPC: 2.901 (Simulation time: 00 hr 01 min 41 sec)
Heartbeat CPU 0 instructions: 17000110 cycles: 5800017 heartbeat IPC: 4.468 cumulative IPC: 2.931 (Simulation time: 00 hr 01 min 44 sec)
Heartbeat CPU 0 instructions: 17500114 cycles: 5912058 heartbeat IPC: 4.463 cumulative IPC: 2.96 (Simulation time: 00 hr 01 min 46 sec)
Heartbeat CPU 0 instructions: 18000118 cycles: 6025733 heartbeat IPC: 4.399 cumulative IPC: 2.987 (Simulation time: 00 hr 01 min 49 sec)
Heartbeat CPU 0 instructions: 18500121 cycles: 6135898 heartbeat IPC: 4.539 cumulative IPC: 3.015 (Simulation time: 00 hr 01 min 51 sec)
Heartbeat CPU 0 instructions: 19000123 cycles: 6245882 heartbeat IPC: 4.546 cumulative IPC: 3.042 (Simulation time: 00 hr 01 min 54 sec)
Heartbeat CPU 0 instructions: 19500124 cycles: 6356793 heartbeat IPC: 4.508 cumulative IPC: 3.068 (Simulation time: 00 hr 01 min 56 sec)
Heartbeat CPU 0 instructions: 20000131 cycles: 6467205 heartbeat IPC: 4.529 cumulative IPC: 3.093 (Simulation time: 00 hr 01 min 59 sec)
Heartbeat CPU 0 instructions: 20500135 cycles: 6576821 heartbeat IPC: 4.561 cumulative IPC: 3.117 (Simulation time: 00 hr 02 min 01 sec)
Heartbeat CPU 0 instructions: 21000136 cycles: 6684327 heartbeat IPC: 4.651 cumulative IPC: 3.142 (Simulation time: 00 hr 02 min 03 sec)
Heartbeat CPU 0 instructions: 21500138 cycles: 6793037 heartbeat IPC: 4.599 cumulative IPC: 3.165 (Simulation time: 00 hr 02 min 06 sec)
Heartbeat CPU 0 instructions: 22000144 cycles: 6901483 heartbeat IPC: 4.611 cumulative IPC: 3.188 (Simulation time: 00 hr 02 min 08 sec)
Heartbeat CPU 0 instructions: 22500147 cycles: 7008461 heartbeat IPC: 4.674 cumulative IPC: 3.21 (Simulation time: 00 hr 02 min 10 sec)
Heartbeat CPU 0 instructions: 23000149 cycles: 7115916 heartbeat IPC: 4.653 cumulative IPC: 3.232 (Simulation time: 00 hr 02 min 12 sec)
Heartbeat CPU 0 instructions: 23500150 cycles: 7224397 heartbeat IPC: 4.609 cumulative IPC: 3.253 (Simulation time: 00 hr 02 min 14 sec)
Heartbeat CPU 0 instructions: 24000153 cycles: 7330870 heartbeat IPC: 4.696 cumulative IPC: 3.274 (Simulation time: 00 hr 02 min 16 sec)
Heartbeat CPU 0 instructions: 24500155 cycles: 7436315 heartbeat IPC: 4.742 cumulative IPC: 3.295 (Simulation time: 00 hr 02 min 18 sec)
Heartbeat CPU 0 instructions: 25000161 cycles: 7541085 heartbeat IPC: 4.772 cumulative IPC: 3.315 (Simulation time: 00 hr 02 min 19 sec)
Heartbeat CPU 0 instructions: 25500164 cycles: 7648983 heartbeat IPC: 4.634 cumulative IPC: 3.334 (Simulation time: 00 hr 02 min 22 sec)
Heartbeat CPU 0 instructions: 26000170 cycles: 7756579 heartbeat IPC: 4.647 cumulative IPC: 3.352 (Simulation time: 00 hr 02 min 24 sec)
Heartbeat CPU 0 instructions: 26500175 cycles: 7864372 heartbeat IPC: 4.639 cumulative IPC: 3.37 (Simulation time: 00 hr 02 min 26 sec)
Heartbeat CPU 0 instructions: 27000180 cycles: 7972759 heartbeat IPC: 4.613 cumulative IPC: 3.387 (Simulation time: 00 hr 02 min 28 sec)
Heartbeat CPU 0 instructions: 27500180 cycles: 8080060 heartbeat IPC: 4.66 cumulative IPC: 3.403 (Simulation time: 00 hr 02 min 30 sec)
Heartbeat CPU 0 instructions: 28000183 cycles: 8185877 heartbeat IPC: 4.725 cumulative IPC: 3.421 (Simulation time: 00 hr 02 min 32 sec)
Heartbeat CPU 0 instructions: 28500183 cycles: 8288872 heartbeat IPC: 4.855 cumulative IPC: 3.438 (Simulation time: 00 hr 02 min 34 sec)
Heartbeat CPU 0 instructions: 29000187 cycles: 8390604 heartbeat IPC: 4.915 cumulative IPC: 3.456 (Simulation time: 00 hr 02 min 36 sec)
Heartbeat CPU 0 instructions: 29500189 cycles: 8493144 heartbeat IPC: 4.876 cumulative IPC: 3.473 (Simulation time: 00 hr 02 min 38 sec)
Heartbeat CPU 0 instructions: 30000195 cycles: 8594830 heartbeat IPC: 4.917 cumulative IPC: 3.49 (Simulation time: 00 hr 02 min 40 sec)
Heartbeat CPU 0 instructions: 30500198 cycles: 8696695 heartbeat IPC: 4.908 cumulative IPC: 3.507 (Simulation time: 00 hr 02 min 42 sec)
Heartbeat CPU 0 instructions: 31000202 cycles: 8799799 heartbeat IPC: 4.85 cumulative IPC: 3.523 (Simulation time: 00 hr 02 min 44 sec)
Heartbeat CPU 0 instructions: 31500202 cycles: 8902972 heartbeat IPC: 4.846 cumulative IPC: 3.538 (Simulation time: 00 hr 02 min 46 sec)
Heartbeat CPU 0 instructions: 32000202 cycles: 9005020 heartbeat IPC: 4.9 cumulative IPC: 3.554 (Simulation time: 00 hr 02 min 48 sec)
Heartbeat CPU 0 instructions: 32500202 cycles: 9107768 heartbeat IPC: 4.866 cumulative IPC: 3.568 (Simulation time: 00 hr 02 min 49 sec)
Heartbeat CPU 0 instructions: 33000203 cycles: 9209634 heartbeat IPC: 4.908 cumulative IPC: 3.583 (Simulation time: 00 hr 02 min 51 sec)
Heartbeat CPU 0 instructions: 33500205 cycles: 9334037 heartbeat IPC: 4.019 cumulative IPC: 3.589 (Simulation time: 00 hr 02 min 53 sec)
Heartbeat CPU 0 instructions: 34000209 cycles: 9477094 heartbeat IPC: 3.495 cumulative IPC: 3.588 (Simulation time: 00 hr 02 min 54 sec)
Heartbeat CPU 0 instructions: 34500209 cycles: 9619928 heartbeat IPC: 3.501 cumulative IPC: 3.586 (Simulation time: 00 hr 02 min 56 sec)
Heartbeat CPU 0 instructions: 35000213 cycles: 9753873 heartbeat IPC: 3.733 cumulative IPC: 3.588 (Simulation time: 00 hr 02 min 57 sec)
Heartbeat CPU 0 instructions: 35500219 cycles: 9881697 heartbeat IPC: 3.912 cumulative IPC: 3.593 (Simulation time: 00 hr 02 min 58 sec)
Heartbeat CPU 0 instructions: 36000221 cycles: 10002823 heartbeat IPC: 4.128 cumulative IPC: 3.599 (Simulation time: 00 hr 02 min 59 sec)
Heartbeat CPU 0 instructions: 36500227 cycles: 10121101 heartbeat IPC: 4.227 cumulative IPC: 3.606 (Simulation time: 00 hr 03 min 01 sec)
Heartbeat CPU 0 instructions: 37000229 cycles: 10236227 heartbeat IPC: 4.343 cumulative IPC: 3.615 (Simulation time: 00 hr 03 min 02 sec)
Heartbeat CPU 0 instructions: 37500229 cycles: 10373745 heartbeat IPC: 3.636 cumulative IPC: 3.615 (Simulation time: 00 hr 03 min 03 sec)
Heartbeat CPU 0 instructions: 38000229 cycles: 10519425 heartbeat IPC: 3.432 cumulative IPC: 3.612 (Simulation time: 00 hr 03 min 05 sec)
Heartbeat CPU 0 instructions: 38500235 cycles: 10655690 heartbeat IPC: 3.669 cumulative IPC: 3.613 (Simulation time: 00 hr 03 min 06 sec)
Heartbeat CPU 0 instructions: 39000237 cycles: 10786466 heartbeat IPC: 3.823 cumulative IPC: 3.616 (Simulation time: 00 hr 03 min 07 sec)
Heartbeat CPU 0 instructions: 39500237 cycles: 10921759 heartbeat IPC: 3.696 cumulative IPC: 3.617 (Simulation time: 00 hr 03 min 09 sec)
Heartbeat CPU 0 instructions: 40000242 cycles: 11093457 heartbeat IPC: 2.912 cumulative IPC: 3.606 (Simulation time: 00 hr 03 min 11 sec)
Heartbeat CPU 0 instructions: 40500243 cycles: 11308741 heartbeat IPC: 2.323 cumulative IPC: 3.581 (Simulation time: 00 hr 03 min 15 sec)
Heartbeat CPU 0 instructions: 41000248 cycles: 11523218 heartbeat IPC: 2.331 cumulative IPC: 3.558 (Simulation time: 00 hr 03 min 20 sec)
Heartbeat CPU 0 instructions: 41500252 cycles: 11728660 heartbeat IPC: 2.434 cumulative IPC: 3.538 (Simulation time: 00 hr 03 min 25 sec)
Heartbeat CPU 0 instructions: 42000253 cycles: 12007923 heartbeat IPC: 1.79 cumulative IPC: 3.498 (Simulation time: 00 hr 03 min 31 sec)
Heartbeat CPU 0 instructions: 42500253 cycles: 12409341 heartbeat IPC: 1.246 cumulative IPC: 3.425 (Simulation time: 00 hr 03 min 36 sec)
Heartbeat CPU 0 instructions: 43000255 cycles: 12723357 heartbeat IPC: 1.592 cumulative IPC: 3.38 (Simulation time: 00 hr 03 min 41 sec)
Heartbeat CPU 0 instructions: 43500259 cycles: 12977295 heartbeat IPC: 1.969 cumulative IPC: 3.352 (Simulation time: 00 hr 03 min 45 sec)
Heartbeat CPU 0 instructions: 44000264 cycles: 13199626 heartbeat IPC: 2.249 cumulative IPC: 3.333 (Simulation time: 00 hr 03 min 49 sec)
Heartbeat CPU 0 instructions: 44500268 cycles: 13411921 heartbeat IPC: 2.355 cumulative IPC: 3.318 (Simulation time: 00 hr 03 min 53 sec)
Heartbeat CPU 0 instructions: 45000268 cycles: 13616205 heartbeat IPC: 2.448 cumulative IPC: 3.305 (Simulation time: 00 hr 03 min 57 sec)
Heartbeat CPU 0 instructions: 45500268 cycles: 13816112 heartbeat IPC: 2.501 cumulative IPC: 3.293 (Simulation time: 00 hr 04 min 00 sec)
Heartbeat CPU 0 instructions: 46000274 cycles: 13978098 heartbeat IPC: 3.087 cumulative IPC: 3.291 (Simulation time: 00 hr 04 min 03 sec)
Heartbeat CPU 0 instructions: 46500278 cycles: 14078097 heartbeat IPC: 5 cumulative IPC: 3.303 (Simulation time: 00 hr 04 min 04 sec)
Heartbeat CPU 0 instructions: 47000280 cycles: 14178098 heartbeat IPC: 5 cumulative IPC: 3.315 (Simulation time: 00 hr 04 min 05 sec)
Heartbeat CPU 0 instructions: 47500285 cycles: 14278118 heartbeat IPC: 4.999 cumulative IPC: 3.327 (Simulation time: 00 hr 04 min 07 sec)
Heartbeat CPU 0 instructions: 48000285 cycles: 14378111 heartbeat IPC: 5 cumulative IPC: 3.338 (Simulation time: 00 hr 04 min 08 sec)
Heartbeat CPU 0 instructions: 48500289 cycles: 14478117 heartbeat IPC: 5 cumulative IPC: 3.35 (Simulation time: 00 hr 04 min 09 sec)
Heartbeat CPU 0 instructions: 49000294 cycles: 14606534 heartbeat IPC: 3.894 cumulative IPC: 3.355 (Simulation time: 00 hr 04 min 12 sec)
Heartbeat CPU 0 instructions: 49500294 cycles: 14721260 heartbeat IPC: 4.358 cumulative IPC: 3.363 (Simulation time: 00 hr 04 min 14 sec)
Warmup finished CPU 0 instructions: 50000002 cycles: 14828887 cumulative IPC: 3.372 (Simulation time: 00 hr 04 min 17 sec)
Warmup complete CPU 0 instructions: 50000002 cycles: 14828887 cumulative IPC: 3.372 (Simulation time: 00 hr 04 min 17 sec)
Heartbeat CPU 0 instructions: 50000294 cycles: 14829361 heartbeat IPC: 4.625 cumulative IPC: 0.616 (Simulation time: 00 hr 04 min 17 sec)
Heartbeat CPU 0 instructions: 50500299 cycles: 17180027 heartbeat IPC: 0.2127 cumulative IPC: 0.2128 (Simulation time: 00 hr 04 min 34 sec)
Heartbeat CPU 0 instructions: 51000299 cycles: 19617524 heartbeat IPC: 0.2051 cumulative IPC: 0.2089 (Simulation time: 00 hr 04 min 52 sec)
Heartbeat CPU 0 instructions: 51500299 cycles: 21496779 heartbeat IPC: 0.2661 cumulative IPC: 0.225 (Simulation time: 00 hr 05 min 07 sec)
Heartbeat CPU 0 instructions: 52000300 cycles: 23765143 heartbeat IPC: 0.2204 cumulative IPC: 0.2238 (Simulation time: 00 hr 05 min 23 sec)
Heartbeat CPU 0 instructions: 52500307 cycles: 26177159 heartbeat IPC: 0.2073 cumulative IPC: 0.2203 (Simulation time: 00 hr 05 min 41 sec)
Heartbeat CPU 0 instructions: 53000308 cycles: 28388755 heartbeat IPC: 0.2261 cumulative IPC: 0.2213 (Simulation time: 00 hr 05 min 58 sec)
Heartbeat CPU 0 instructions: 53500311 cycles: 30680707 heartbeat IPC: 0.2182 cumulative IPC: 0.2208 (Simulation time: 00 hr 06 min 14 sec)
Heartbeat CPU 0 instructions: 54000311 cycles: 32995417 heartbeat IPC: 0.216 cumulative IPC: 0.2202 (Simulation time: 00 hr 06 min 32 sec)
Heartbeat CPU 0 instructions: 54500311 cycles: 35354490 heartbeat IPC: 0.2119 cumulative IPC: 0.2193 (Simulation time: 00 hr 06 min 49 sec)
Heartbeat CPU 0 instructions: 55000315 cycles: 37987585 heartbeat IPC: 0.1899 cumulative IPC: 0.2159 (Simulation time: 00 hr 07 min 08 sec)
Heartbeat CPU 0 instructions: 55500320 cycles: 40401376 heartbeat IPC: 0.2071 cumulative IPC: 0.2151 (Simulation time: 00 hr 07 min 26 sec)
Heartbeat CPU 0 instructions: 56000325 cycles: 42694669 heartbeat IPC: 0.218 cumulative IPC: 0.2153 (Simulation time: 00 hr 07 min 43 sec)
Heartbeat CPU 0 instructions: 56500329 cycles: 45348182 heartbeat IPC: 0.1884 cumulative IPC: 0.213 (Simulation time: 00 hr 08 min 03 sec)
Heartbeat CPU 0 instructions: 57000334 cycles: 47839415 heartbeat IPC: 0.2007 cumulative IPC: 0.2121 (Simulation time: 00 hr 08 min 21 sec)
Heartbeat CPU 0 instructions: 57500335 cycles: 50060778 heartbeat IPC: 0.2251 cumulative IPC: 0.2129 (Simulation time: 00 hr 08 min 38 sec)
Heartbeat CPU 0 instructions: 58000336 cycles: 52677256 heartbeat IPC: 0.1911 cumulative IPC: 0.2114 (Simulation time: 00 hr 08 min 57 sec)
Heartbeat CPU 0 instructions: 58500338 cycles: 55109721 heartbeat IPC: 0.2056 cumulative IPC: 0.211 (Simulation time: 00 hr 09 min 15 sec)
Heartbeat CPU 0 instructions: 59000338 cycles: 57617709 heartbeat IPC: 0.1994 cumulative IPC: 0.2103 (Simulation time: 00 hr 09 min 33 sec)
Heartbeat CPU 0 instructions: 59500339 cycles: 60079587 heartbeat IPC: 0.2031 cumulative IPC: 0.2099 (Simulation time: 00 hr 09 min 52 sec)
Heartbeat CPU 0 instructions: 60000346 cycles: 62395687 heartbeat IPC: 0.2159 cumulative IPC: 0.2102 (Simulation time: 00 hr 10 min 09 sec)
Heartbeat CPU 0 instructions: 60500352 cycles: 64843309 heartbeat IPC: 0.2043 cumulative IPC: 0.2099 (Simulation time: 00 hr 10 min 27 sec)
Heartbeat CPU 0 instructions: 61000354 cycles: 67393668 heartbeat IPC: 0.1961 cumulative IPC: 0.2093 (Simulation time: 00 hr 10 min 45 sec)
Heartbeat CPU 0 instructions: 61500360 cycles: 69934698 heartbeat IPC: 0.1968 cumulative IPC: 0.2087 (Simulation time: 00 hr 11 min 04 sec)
Heartbeat CPU 0 instructions: 62000362 cycles: 72489039 heartbeat IPC: 0.1957 cumulative IPC: 0.2081 (Simulation time: 00 hr 11 min 23 sec)
Heartbeat CPU 0 instructions: 62500362 cycles: 74709003 heartbeat IPC: 0.2252 cumulative IPC: 0.2088 (Simulation time: 00 hr 11 min 39 sec)
Heartbeat CPU 0 instructions: 63000363 cycles: 77097602 heartbeat IPC: 0.2093 cumulative IPC: 0.2088 (Simulation time: 00 hr 11 min 57 sec)
Heartbeat CPU 0 instructions: 63500364 cycles: 79543002 heartbeat IPC: 0.2045 cumulative IPC: 0.2086 (Simulation time: 00 hr 12 min 15 sec)
Heartbeat CPU 0 instructions: 64000368 cycles: 82029061 heartbeat IPC: 0.2011 cumulative IPC: 0.2083 (Simulation time: 00 hr 12 min 33 sec)
Heartbeat CPU 0 instructions: 64500368 cycles: 83531532 heartbeat IPC: 0.3328 cumulative IPC: 0.2111 (Simulation time: 00 hr 12 min 44 sec)
Heartbeat CPU 0 instructions: 65000370 cycles: 85025347 heartbeat IPC: 0.3347 cumulative IPC: 0.2137 (Simulation time: 00 hr 12 min 56 sec)
Heartbeat CPU 0 instructions: 65500372 cycles: 86689619 heartbeat IPC: 0.3004 cumulative IPC: 0.2157 (Simulation time: 00 hr 13 min 08 sec)
Heartbeat CPU 0 instructions: 66000375 cycles: 88983944 heartbeat IPC: 0.2179 cumulative IPC: 0.2158 (Simulation time: 00 hr 13 min 25 sec)
Heartbeat CPU 0 instructions: 66500379 cycles: 90767088 heartbeat IPC: 0.2804 cumulative IPC: 0.2173 (Simulation time: 00 hr 13 min 38 sec)
Heartbeat CPU 0 instructions: 67000384 cycles: 92861658 heartbeat IPC: 0.2387 cumulative IPC: 0.2179 (Simulation time: 00 hr 13 min 53 sec)
Heartbeat CPU 0 instructions: 67500387 cycles: 94844439 heartbeat IPC: 0.2522 cumulative IPC: 0.2187 (Simulation time: 00 hr 14 min 08 sec)
Heartbeat CPU 0 instructions: 68000392 cycles: 96539216 heartbeat IPC: 0.295 cumulative IPC: 0.2203 (Simulation time: 00 hr 14 min 20 sec)
Heartbeat CPU 0 instructions: 68500396 cycles: 98532970 heartbeat IPC: 0.2508 cumulative IPC: 0.221 (Simulation time: 00 hr 14 min 35 sec)
Heartbeat CPU 0 instructions: 69000396 cycles: 100433181 heartbeat IPC: 0.2631 cumulative IPC: 0.222 (Simulation time: 00 hr 14 min 49 sec)
Heartbeat CPU 0 instructions: 69500401 cycles: 101617615 heartbeat IPC: 0.4221 cumulative IPC: 0.2247 (Simulation time: 00 hr 14 min 58 sec)
Heartbeat CPU 0 instructions: 70000403 cycles: 102696214 heartbeat IPC: 0.4636 cumulative IPC: 0.2276 (Simulation time: 00 hr 15 min 06 sec)
Heartbeat CPU 0 instructions: 70500407 cycles: 103373223 heartbeat IPC: 0.7385 cumulative IPC: 0.2315 (Simulation time: 00 hr 15 min 12 sec)
Heartbeat CPU 0 instructions: 71000407 cycles: 104046658 heartbeat IPC: 0.7425 cumulative IPC: 0.2354 (Simulation time: 00 hr 15 min 17 sec)
Heartbeat CPU 0 instructions: 71500408 cycles: 104399710 heartbeat IPC: 1.416 cumulative IPC: 0.24 (Simulation time: 00 hr 15 min 20 sec)
Heartbeat CPU 0 instructions: 72000408 cycles: 104796612 heartbeat IPC: 1.26 cumulative IPC: 0.2445 (Simulation time: 00 hr 15 min 22 sec)
Heartbeat CPU 0 instructions: 72500409 cycles: 105232788 heartbeat IPC: 1.146 cumulative IPC: 0.2489 (Simulation time: 00 hr 15 min 25 sec)
Heartbeat CPU 0 instructions: 73000410 cycles: 105667907 heartbeat IPC: 1.149 cumulative IPC: 0.2532 (Simulation time: 00 hr 15 min 28 sec)
Heartbeat CPU 0 instructions: 73500410 cycles: 106126801 heartbeat IPC: 1.09 cumulative IPC: 0.2574 (Simulation time: 00 hr 15 min 32 sec)
Heartbeat CPU 0 instructions: 74000412 cycles: 106604221 heartbeat IPC: 1.047 cumulative IPC: 0.2615 (Simulation time: 00 hr 15 min 35 sec)
Heartbeat CPU 0 instructions: 74500414 cycles: 107015733 heartbeat IPC: 1.215 cumulative IPC: 0.2658 (Simulation time: 00 hr 15 min 38 sec)
Heartbeat CPU 0 instructions: 75000417 cycles: 107432891 heartbeat IPC: 1.199 cumulative IPC: 0.27 (Simulation time: 00 hr 15 min 41 sec)
Heartbeat CPU 0 instructions: 75500417 cycles: 107789801 heartbeat IPC: 1.401 cumulative IPC: 0.2743 (Simulation time: 00 hr 15 min 43 sec)
Heartbeat CPU 0 instructions: 76000418 cycles: 108121147 heartbeat IPC: 1.509 cumulative IPC: 0.2787 (Simulation time: 00 hr 15 min 47 sec)
Heartbeat CPU 0 instructions: 76500419 cycles: 111317138 heartbeat IPC: 0.1564 cumulative IPC: 0.2746 (Simulation time: 00 hr 16 min 26 sec)
Heartbeat CPU 0 instructions: 77000420 cycles: 114803684 heartbeat IPC: 0.1434 cumulative IPC: 0.2701 (Simulation time: 00 hr 17 min 10 sec)
Heartbeat CPU 0 instructions: 77500423 cycles: 117775632 heartbeat IPC: 0.1682 cumulative IPC: 0.2671 (Simulation time: 00 hr 17 min 46 sec)
Heartbeat CPU 0 instructions: 78000427 cycles: 119503475 heartbeat IPC: 0.2894 cumulative IPC: 0.2675 (Simulation time: 00 hr 18 min 06 sec)
Heartbeat CPU 0 instructions: 78500431 cycles: 121141351 heartbeat IPC: 0.3053 cumulative IPC: 0.2681 (Simulation time: 00 hr 18 min 25 sec)
Heartbeat CPU 0 instructions: 79000435 cycles: 122752292 heartbeat IPC: 0.3104 cumulative IPC: 0.2687 (Simulation time: 00 hr 18 min 44 sec)
Heartbeat CPU 0 instructions: 79500440 cycles: 124357442 heartbeat IPC: 0.3115 cumulative IPC: 0.2693 (Simulation time: 00 hr 19 min 02 sec)
Heartbeat CPU 0 instructions: 80000443 cycles: 125913364 heartbeat IPC: 0.3214 cumulative IPC: 0.2701 (Simulation time: 00 hr 19 min 21 sec)
Heartbeat CPU 0 instructions: 80500447 cycles: 127426914 heartbeat IPC: 0.3304 cumulative IPC: 0.2709 (Simulation time: 00 hr 19 min 38 sec)
Heartbeat CPU 0 instructions: 81000448 cycles: 128317206 heartbeat IPC: 0.5616 cumulative IPC: 0.2732 (Simulation time: 00 hr 19 min 48 sec)
Heartbeat CPU 0 instructions: 81500450 cycles: 128803437 heartbeat IPC: 1.028 cumulative IPC: 0.2764 (Simulation time: 00 hr 19 min 52 sec)
Heartbeat CPU 0 instructions: 82000450 cycles: 129224395 heartbeat IPC: 1.188 cumulative IPC: 0.2797 (Simulation time: 00 hr 19 min 57 sec)
Heartbeat CPU 0 instructions: 82500454 cycles: 129325456 heartbeat IPC: 4.948 cumulative IPC: 0.2839 (Simulation time: 00 hr 19 min 58 sec)
Heartbeat CPU 0 instructions: 83000458 cycles: 129426480 heartbeat IPC: 4.949 cumulative IPC: 0.288 (Simulation time: 00 hr 20 min 00 sec)
Heartbeat CPU 0 instructions: 83500463 cycles: 131621216 heartbeat IPC: 0.2278 cumulative IPC: 0.2868 (Simulation time: 00 hr 20 min 16 sec)
Heartbeat CPU 0 instructions: 84000469 cycles: 134162957 heartbeat IPC: 0.1967 cumulative IPC: 0.2849 (Simulation time: 00 hr 20 min 35 sec)
Heartbeat CPU 0 instructions: 84500473 cycles: 136585759 heartbeat IPC: 0.2064 cumulative IPC: 0.2834 (Simulation time: 00 hr 20 min 53 sec)
Heartbeat CPU 0 instructions: 85000473 cycles: 139124418 heartbeat IPC: 0.197 cumulative IPC: 0.2816 (Simulation time: 00 hr 21 min 12 sec)
Heartbeat CPU 0 instructions: 85500477 cycles: 141590908 heartbeat IPC: 0.2027 cumulative IPC: 0.2801 (Simulation time: 00 hr 21 min 30 sec)
Heartbeat CPU 0 instructions: 86000484 cycles: 144035145 heartbeat IPC: 0.2046 cumulative IPC: 0.2786 (Simulation time: 00 hr 21 min 47 sec)
Heartbeat CPU 0 instructions: 86500485 cycles: 146449900 heartbeat IPC: 0.2071 cumulative IPC: 0.2773 (Simulation time: 00 hr 22 min 05 sec)
Heartbeat CPU 0 instructions: 87000488 cycles: 148908142 heartbeat IPC: 0.2034 cumulative IPC: 0.276 (Simulation time: 00 hr 22 min 23 sec)
Heartbeat CPU 0 instructions: 87500492 cycles: 151456912 heartbeat IPC: 0.1962 cumulative IPC: 0.2745 (Simulation time: 00 hr 22 min 41 sec)
Heartbeat CPU 0 instructions: 88000494 cycles: 153847258 heartbeat IPC: 0.2092 cumulative IPC: 0.2733 (Simulation time: 00 hr 22 min 58 sec)
Heartbeat CPU 0 instructions: 88500494 cycles: 156561410 heartbeat IPC: 0.1842 cumulative IPC: 0.2716 (Simulation time: 00 hr 23 min 17 sec)
Heartbeat CPU 0 instructions: 89000497 cycles: 159028298 heartbeat IPC: 0.2027 cumulative IPC: 0.2705 (Simulation time: 00 hr 23 min 34 sec)
Heartbeat CPU 0 instructions: 89500498 cycles: 161293923 heartbeat IPC: 0.2207 cumulative IPC: 0.2697 (Simulation time: 00 hr 23 min 50 sec)
Heartbeat CPU 0 instructions: 90000498 cycles: 163477671 heartbeat IPC: 0.229 cumulative IPC: 0.2691 (Simulation time: 00 hr 24 min 05 sec)
Heartbeat CPU 0 instructions: 90500502 cycles: 166196986 heartbeat IPC: 0.1839 cumulative IPC: 0.2676 (Simulation time: 00 hr 24 min 24 sec)
Heartbeat CPU 0 instructions: 91000502 cycles: 168435802 heartbeat IPC: 0.2233 cumulative IPC: 0.2669 (Simulation time: 00 hr 24 min 39 sec)
Heartbeat CPU 0 instructions: 91500505 cycles: 170794432 heartbeat IPC: 0.212 cumulative IPC: 0.2661 (Simulation time: 00 hr 24 min 55 sec)
Heartbeat CPU 0 instructions: 92000509 cycles: 173241604 heartbeat IPC: 0.2043 cumulative IPC: 0.2651 (Simulation time: 00 hr 25 min 12 sec)
Heartbeat CPU 0 instructions: 92500514 cycles: 175695574 heartbeat IPC: 0.2038 cumulative IPC: 0.2642 (Simulation time: 00 hr 25 min 29 sec)
Heartbeat CPU 0 instructions: 93000515 cycles: 178147039 heartbeat IPC: 0.204 cumulative IPC: 0.2633 (Simulation time: 00 hr 25 min 45 sec)
Heartbeat CPU 0 instructions: 93500515 cycles: 180455594 heartbeat IPC: 0.2166 cumulative IPC: 0.2626 (Simulation time: 00 hr 26 min 01 sec)
Heartbeat CPU 0 instructions: 94000519 cycles: 183021344 heartbeat IPC: 0.1949 cumulative IPC: 0.2616 (Simulation time: 00 hr 26 min 18 sec)
Heartbeat CPU 0 instructions: 94500519 cycles: 185350965 heartbeat IPC: 0.2146 cumulative IPC: 0.261 (Simulation time: 00 hr 26 min 34 sec)
Heartbeat CPU 0 instructions: 95000523 cycles: 187832041 heartbeat IPC: 0.2015 cumulative IPC: 0.2601 (Simulation time: 00 hr 26 min 50 sec)
Heartbeat CPU 0 instructions: 95500524 cycles: 190148055 heartbeat IPC: 0.2159 cumulative IPC: 0.2595 (Simulation time: 00 hr 27 min 05 sec)
Heartbeat CPU 0 instructions: 96000526 cycles: 192552553 heartbeat IPC: 0.2079 cumulative IPC: 0.2588 (Simulation time: 00 hr 27 min 21 sec)
Heartbeat CPU 0 instructions: 96500526 cycles: 194704203 heartbeat IPC: 0.2324 cumulative IPC: 0.2585 (Simulation time: 00 hr 27 min 35 sec)
Heartbeat CPU 0 instructions: 97000533 cycles: 196498687 heartbeat IPC: 0.2786 cumulative IPC: 0.2587 (Simulation time: 00 hr 27 min 47 sec)
Heartbeat CPU 0 instructions: 97500537 cycles: 197507931 heartbeat IPC: 0.4954 cumulative IPC: 0.26 (Simulation time: 00 hr 27 min 54 sec)
Heartbeat CPU 0 instructions: 98000537 cycles: 198790319 heartbeat IPC: 0.3899 cumulative IPC: 0.2609 (Simulation time: 00 hr 28 min 03 sec)
Heartbeat CPU 0 instructions: 98500542 cycles: 200154486 heartbeat IPC: 0.3665 cumulative IPC: 0.2617 (Simulation time: 00 hr 28 min 12 sec)
Heartbeat CPU 0 instructions: 99000549 cycles: 201918624 heartbeat IPC: 0.2834 cumulative IPC: 0.2619 (Simulation time: 00 hr 28 min 24 sec)
Heartbeat CPU 0 instructions: 99500550 cycles: 203752477 heartbeat IPC: 0.2727 cumulative IPC: 0.262 (Simulation time: 00 hr 28 min 36 sec)
Heartbeat CPU 0 instructions: 100000550 cycles: 205462940 heartbeat IPC: 0.2923 cumulative IPC: 0.2623 (Simulation time: 00 hr 28 min 47 sec)
Heartbeat CPU 0 instructions: 100500551 cycles: 207141574 heartbeat IPC: 0.2979 cumulative IPC: 0.2626 (Simulation time: 00 hr 28 min 58 sec)
Heartbeat CPU 0 instructions: 101000551 cycles: 207878515 heartbeat IPC: 0.6785 cumulative IPC: 0.2642 (Simulation time: 00 hr 29 min 04 sec)
Heartbeat CPU 0 instructions: 101500551 cycles: 208371525 heartbeat IPC: 1.014 cumulative IPC: 0.2661 (Simulation time: 00 hr 29 min 07 sec)
Heartbeat CPU 0 instructions: 102000552 cycles: 208755204 heartbeat IPC: 1.303 cumulative IPC: 0.2681 (Simulation time: 00 hr 29 min 10 sec)
Heartbeat CPU 0 instructions: 102500553 cycles: 209204731 heartbeat IPC: 1.112 cumulative IPC: 0.2701 (Simulation time: 00 hr 29 min 12 sec)
Heartbeat CPU 0 instructions: 103000553 cycles: 209632752 heartbeat IPC: 1.168 cumulative IPC: 0.2721 (Simulation time: 00 hr 29 min 15 sec)
Heartbeat CPU 0 instructions: 103500554 cycles: 210087921 heartbeat IPC: 1.098 cumulative IPC: 0.274 (Simulation time: 00 hr 29 min 18 sec)
Heartbeat CPU 0 instructions: 104000556 cycles: 210565045 heartbeat IPC: 1.048 cumulative IPC: 0.2759 (Simulation time: 00 hr 29 min 21 sec)
Heartbeat CPU 0 instructions: 104500556 cycles: 210931123 heartbeat IPC: 1.366 cumulative IPC: 0.2779 (Simulation time: 00 hr 29 min 23 sec)
Heartbeat CPU 0 instructions: 105000558 cycles: 211283848 heartbeat IPC: 1.418 cumulative IPC: 0.28 (Simulation time: 00 hr 29 min 25 sec)
Heartbeat CPU 0 instructions: 105500564 cycles: 211623774 heartbeat IPC: 1.471 cumulative IPC: 0.282 (Simulation time: 00 hr 29 min 29 sec)
Heartbeat CPU 0 instructions: 106000570 cycles: 214641501 heartbeat IPC: 0.1657 cumulative IPC: 0.2803 (Simulation time: 00 hr 30 min 01 sec)
Heartbeat CPU 0 instructions: 106500574 cycles: 218034155 heartbeat IPC: 0.1474 cumulative IPC: 0.278 (Simulation time: 00 hr 30 min 39 sec)
Heartbeat CPU 0 instructions: 107000574 cycles: 220387683 heartbeat IPC: 0.2124 cumulative IPC: 0.2773 (Simulation time: 00 hr 31 min 03 sec)
Heartbeat CPU 0 instructions: 107500578 cycles: 222034374 heartbeat IPC: 0.3036 cumulative IPC: 0.2775 (Simulation time: 00 hr 31 min 20 sec)
Heartbeat CPU 0 instructions: 108000582 cycles: 223610217 heartbeat IPC: 0.3173 cumulative IPC: 0.2778 (Simulation time: 00 hr 31 min 37 sec)
Heartbeat CPU 0 instructions: 108500586 cycles: 225225733 heartbeat IPC: 0.3095 cumulative IPC: 0.278 (Simulation time: 00 hr 31 min 53 sec)
Heartbeat CPU 0 instructions: 109000591 cycles: 226814117 heartbeat IPC: 0.3148 cumulative IPC: 0.2783 (Simulation time: 00 hr 32 min 10 sec)
Heartbeat CPU 0 instructions: 109500595 cycles: 228177126 heartbeat IPC: 0.3668 cumulative IPC: 0.2789 (Simulation time: 00 hr 32 min 24 sec)
Heartbeat CPU 0 instructions: 110000598 cycles: 228690505 heartbeat IPC: 0.9739 cumulative IPC: 0.2806 (Simulation time: 00 hr 32 min 28 sec)
Heartbeat CPU 0 instructions: 110500601 cycles: 229142217 heartbeat IPC: 1.107 cumulative IPC: 0.2823 (Simulation time: 00 hr 32 min 32 sec)
Heartbeat CPU 0 instructions: 111000605 cycles: 229243273 heartbeat IPC: 4.948 cumulative IPC: 0.2845 (Simulation time: 00 hr 32 min 33 sec)
Heartbeat CPU 0 instructions: 111500610 cycles: 229811909 heartbeat IPC: 0.8793 cumulative IPC: 0.2861 (Simulation time: 00 hr 32 min 38 sec)
Heartbeat CPU 0 instructions: 112000611 cycles: 232484678 heartbeat IPC: 0.1871 cumulative IPC: 0.2849 (Simulation time: 00 hr 32 min 56 sec)
Heartbeat CPU 0 instructions: 112500615 cycles: 235074537 heartbeat IPC: 0.1931 cumulative IPC: 0.2838 (Simulation time: 00 hr 33 min 13 sec)
Heartbeat CPU 0 instructions: 113000622 cycles: 237466465 heartbeat IPC: 0.209 cumulative IPC: 0.283 (Simulation time: 00 hr 33 min 28 sec)
Heartbeat CPU 0 instructions: 113500623 cycles: 240030314 heartbeat IPC: 0.195 cumulative IPC: 0.282 (Simulation time: 00 hr 33 min 45 sec)
Heartbeat CPU 0 instructions: 114000623 cycles: 242210345 heartbeat IPC: 0.2294 cumulative IPC: 0.2815 (Simulation time: 00 hr 34 min 00 sec)
Heartbeat CPU 0 instructions: 114500626 cycles: 244694399 heartbeat IPC: 0.2013 cumulative IPC: 0.2806 (Simulation time: 00 hr 34 min 16 sec)
Heartbeat CPU 0 instructions: 115000630 cycles: 247255964 heartbeat IPC: 0.1952 cumulative IPC: 0.2797 (Simulation time: 00 hr 34 min 33 sec)
Heartbeat CPU 0 instructions: 115500637 cycles: 249827889 heartbeat IPC: 0.1944 cumulative IPC: 0.2787 (Simulation time: 00 hr 34 min 49 sec)
Heartbeat CPU 0 instructions: 116000638 cycles: 252310098 heartbeat IPC: 0.2014 cumulative IPC: 0.2779 (Simulation time: 00 hr 35 min 06 sec)
Heartbeat CPU 0 instructions: 116500638 cycles: 254974682 heartbeat IPC: 0.1876 cumulative IPC: 0.2769 (Simulation time: 00 hr 35 min 23 sec)
Heartbeat CPU 0 instructions: 117000638 cycles: 257414043 heartbeat IPC: 0.205 cumulative IPC: 0.2762 (Simulation time: 00 hr 35 min 39 sec)
Heartbeat CPU 0 instructions: 117500640 cycles: 260052523 heartbeat IPC: 0.1895 cumulative IPC: 0.2753 (Simulation time: 00 hr 35 min 56 sec)
Heartbeat CPU 0 instructions: 118000644 cycles: 262072591 heartbeat IPC: 0.2475 cumulative IPC: 0.275 (Simulation time: 00 hr 36 min 09 sec)
Heartbeat CPU 0 instructions: 118500649 cycles: 264366870 heartbeat IPC: 0.2179 cumulative IPC: 0.2745 (Simulation time: 00 hr 36 min 24 sec)
Heartbeat CPU 0 instructions: 119000654 cycles: 266110875 heartbeat IPC: 0.2867 cumulative IPC: 0.2746 (Simulation time: 00 hr 36 min 35 sec)
Heartbeat CPU 0 instructions: 119500655 cycles: 268363161 heartbeat IPC: 0.222 cumulative IPC: 0.2741 (Simulation time: 00 hr 36 min 50 sec)
Heartbeat CPU 0 instructions: 120000662 cycles: 270685223 heartbeat IPC: 0.2153 cumulative IPC: 0.2736 (Simulation time: 00 hr 37 min 05 sec)
Heartbeat CPU 0 instructions: 120500666 cycles: 273182982 heartbeat IPC: 0.2002 cumulative IPC: 0.2729 (Simulation time: 00 hr 37 min 21 sec)
Heartbeat CPU 0 instructions: 121000668 cycles: 275405674 heartbeat IPC: 0.225 cumulative IPC: 0.2725 (Simulation time: 00 hr 37 min 36 sec)
Heartbeat CPU 0 instructions: 121500670 cycles: 277800957 heartbeat IPC: 0.2087 cumulative IPC: 0.2719 (Simulation time: 00 hr 37 min 52 sec)
Heartbeat CPU 0 instructions: 122000670 cycles: 280106317 heartbeat IPC: 0.2169 cumulative IPC: 0.2714 (Simulation time: 00 hr 38 min 07 sec)
Heartbeat CPU 0 instructions: 122500670 cycles: 282550708 heartbeat IPC: 0.2045 cumulative IPC: 0.2708 (Simulation time: 00 hr 38 min 23 sec)
Heartbeat CPU 0 instructions: 123000670 cycles: 284924507 heartbeat IPC: 0.2106 cumulative IPC: 0.2703 (Simulation time: 00 hr 38 min 38 sec)
Heartbeat CPU 0 instructions: 123500671 cycles: 287141575 heartbeat IPC: 0.2255 cumulative IPC: 0.2699 (Simulation time: 00 hr 38 min 52 sec)
Heartbeat CPU 0 instructions: 124000677 cycles: 288884415 heartbeat IPC: 0.2869 cumulative IPC: 0.27 (Simulation time: 00 hr 39 min 04 sec)
Heartbeat CPU 0 instructions: 124500678 cycles: 290003171 heartbeat IPC: 0.4469 cumulative IPC: 0.2707 (Simulation time: 00 hr 39 min 12 sec)
Heartbeat CPU 0 instructions: 125000678 cycles: 291681771 heartbeat IPC: 0.2979 cumulative IPC: 0.2709 (Simulation time: 00 hr 39 min 23 sec)
Heartbeat CPU 0 instructions: 125500679 cycles: 293529927 heartbeat IPC: 0.2705 cumulative IPC: 0.2709 (Simulation time: 00 hr 39 min 35 sec)
Heartbeat CPU 0 instructions: 126000680 cycles: 294732194 heartbeat IPC: 0.4159 cumulative IPC: 0.2715 (Simulation time: 00 hr 39 min 43 sec)
Heartbeat CPU 0 instructions: 126500680 cycles: 295156839 heartbeat IPC: 1.177 cumulative IPC: 0.2729 (Simulation time: 00 hr 39 min 45 sec)
Heartbeat CPU 0 instructions: 127000680 cycles: 295580657 heartbeat IPC: 1.18 cumulative IPC: 0.2743 (Simulation time: 00 hr 39 min 48 sec)
Heartbeat CPU 0 instructions: 127500680 cycles: 296030184 heartbeat IPC: 1.112 cumulative IPC: 0.2756 (Simulation time: 00 hr 39 min 51 sec)
Heartbeat CPU 0 instructions: 128000680 cycles: 296446168 heartbeat IPC: 1.202 cumulative IPC: 0.277 (Simulation time: 00 hr 39 min 53 sec)
Heartbeat CPU 0 instructions: 128500680 cycles: 296917060 heartbeat IPC: 1.062 cumulative IPC: 0.2783 (Simulation time: 00 hr 39 min 56 sec)
Heartbeat CPU 0 instructions: 129000681 cycles: 297325329 heartbeat IPC: 1.225 cumulative IPC: 0.2797 (Simulation time: 00 hr 39 min 59 sec)
Heartbeat CPU 0 instructions: 129500686 cycles: 297676321 heartbeat IPC: 1.425 cumulative IPC: 0.2811 (Simulation time: 00 hr 40 min 02 sec)
Heartbeat CPU 0 instructions: 130000689 cycles: 300542229 heartbeat IPC: 0.1745 cumulative IPC: 0.28 (Simulation time: 00 hr 40 min 33 sec)
Heartbeat CPU 0 instructions: 130500690 cycles: 303848682 heartbeat IPC: 0.1512 cumulative IPC: 0.2785 (Simulation time: 00 hr 41 min 09 sec)
Heartbeat CPU 0 instructions: 131000695 cycles: 305724223 heartbeat IPC: 0.2666 cumulative IPC: 0.2785 (Simulation time: 00 hr 41 min 28 sec)
Heartbeat CPU 0 instructions: 131500698 cycles: 307312548 heartbeat IPC: 0.3148 cumulative IPC: 0.2787 (Simulation time: 00 hr 41 min 45 sec)
Heartbeat CPU 0 instructions: 132000702 cycles: 308900022 heartbeat IPC: 0.315 cumulative IPC: 0.2788 (Simulation time: 00 hr 42 min 01 sec)
Heartbeat CPU 0 instructions: 132500706 cycles: 310504557 heartbeat IPC: 0.3116 cumulative IPC: 0.279 (Simulation time: 00 hr 42 min 18 sec)
Heartbeat CPU 0 instructions: 133000709 cycles: 311749712 heartbeat IPC: 0.4016 cumulative IPC: 0.2795 (Simulation time: 00 hr 42 min 30 sec)
Heartbeat CPU 0 instructions: 133500713 cycles: 312237814 heartbeat IPC: 1.024 cumulative IPC: 0.2808 (Simulation time: 00 hr 42 min 34 sec)
Heartbeat CPU 0 instructions: 134000715 cycles: 312506704 heartbeat IPC: 1.86 cumulative IPC: 0.2822 (Simulation time: 00 hr 42 min 37 sec)
Heartbeat CPU 0 instructions: 134500719 cycles: 312607683 heartbeat IPC: 4.952 cumulative IPC: 0.2838 (Simulation time: 00 hr 42 min 38 sec)
Heartbeat CPU 0 instructions: 135000720 cycles: 315256209 heartbeat IPC: 0.1888 cumulative IPC: 0.2829 (Simulation time: 00 hr 42 min 56 sec)
Heartbeat CPU 0 instructions: 135500720 cycles: 317799199 heartbeat IPC: 0.1966 cumulative IPC: 0.2822 (Simulation time: 00 hr 43 min 12 sec)
Heartbeat CPU 0 instructions: 136000723 cycles: 320295535 heartbeat IPC: 0.2003 cumulative IPC: 0.2815 (Simulation time: 00 hr 43 min 29 sec)
Heartbeat CPU 0 instructions: 136500726 cycles: 322282283 heartbeat IPC: 0.2517 cumulative IPC: 0.2813 (Simulation time: 00 hr 43 min 42 sec)
Heartbeat CPU 0 instructions: 137000729 cycles: 324586448 heartbeat IPC: 0.217 cumulative IPC: 0.2809 (Simulation time: 00 hr 43 min 57 sec)
Heartbeat CPU 0 instructions: 137500729 cycles: 327011753 heartbeat IPC: 0.2062 cumulative IPC: 0.2803 (Simulation time: 00 hr 44 min 13 sec)
Heartbeat CPU 0 instructions: 138000734 cycles: 329587571 heartbeat IPC: 0.1941 cumulative IPC: 0.2796 (Simulation time: 00 hr 44 min 30 sec)
Heartbeat CPU 0 instructions: 138500734 cycles: 332167236 heartbeat IPC: 0.1938 cumulative IPC: 0.2789 (Simulation time: 00 hr 44 min 47 sec)
Heartbeat CPU 0 instructions: 139000738 cycles: 334659483 heartbeat IPC: 0.2006 cumulative IPC: 0.2783 (Simulation time: 00 hr 45 min 03 sec)
Heartbeat CPU 0 instructions: 139500738 cycles: 337386112 heartbeat IPC: 0.1834 cumulative IPC: 0.2775 (Simulation time: 00 hr 45 min 20 sec)
Heartbeat CPU 0 instructions: 140000739 cycles: 339641026 heartbeat IPC: 0.2217 cumulative IPC: 0.2771 (Simulation time: 00 hr 45 min 35 sec)
Heartbeat CPU 0 instructions: 140500739 cycles: 341508187 heartbeat IPC: 0.2678 cumulative IPC: 0.277 (Simulation time: 00 hr 45 min 47 sec)
Heartbeat CPU 0 instructions: 141000743 cycles: 343345738 heartbeat IPC: 0.2721 cumulative IPC: 0.277 (Simulation time: 00 hr 45 min 59 sec)
Heartbeat CPU 0 instructions: 141500743 cycles: 345576446 heartbeat IPC: 0.2241 cumulative IPC: 0.2766 (Simulation time: 00 hr 46 min 14 sec)
Heartbeat CPU 0 instructions: 142000743 cycles: 347985232 heartbeat IPC: 0.2076 cumulative IPC: 0.2761 (Simulation time: 00 hr 46 min 30 sec)
Heartbeat CPU 0 instructions: 142500745 cycles: 350355612 heartbeat IPC: 0.2109 cumulative IPC: 0.2757 (Simulation time: 00 hr 46 min 45 sec)
Heartbeat CPU 0 instructions: 143000749 cycles: 352779969 heartbeat IPC: 0.2062 cumulative IPC: 0.2752 (Simulation time: 00 hr 47 min 01 sec)
Heartbeat CPU 0 instructions: 143500751 cycles: 354898483 heartbeat IPC: 0.236 cumulative IPC: 0.2749 (Simulation time: 00 hr 47 min 15 sec)
Heartbeat CPU 0 instructions: 144000751 cycles: 357306621 heartbeat IPC: 0.2076 cumulative IPC: 0.2745 (Simulation time: 00 hr 47 min 30 sec)
Heartbeat CPU 0 instructions: 144500756 cycles: 359658953 heartbeat IPC: 0.2126 cumulative IPC: 0.2741 (Simulation time: 00 hr 47 min 46 sec)
Heartbeat CPU 0 instructions: 145000760 cycles: 362004761 heartbeat IPC: 0.2131 cumulative IPC: 0.2736 (Simulation time: 00 hr 48 min 01 sec)
Heartbeat CPU 0 instructions: 145500764 cycles: 364054773 heartbeat IPC: 0.2439 cumulative IPC: 0.2735 (Simulation time: 00 hr 48 min 14 sec)
Heartbeat CPU 0 instructions: 146000770 cycles: 365224711 heartbeat IPC: 0.4274 cumulative IPC: 0.274 (Simulation time: 00 hr 48 min 22 sec)
Heartbeat CPU 0 instructions: 146500772 cycles: 366728773 heartbeat IPC: 0.3324 cumulative IPC: 0.2742 (Simulation time: 00 hr 48 min 32 sec)
Heartbeat CPU 0 instructions: 147000777 cycles: 367944212 heartbeat IPC: 0.4114 cumulative IPC: 0.2747 (Simulation time: 00 hr 48 min 40 sec)
Heartbeat CPU 0 instructions: 147500779 cycles: 368336578 heartbeat IPC: 1.274 cumulative IPC: 0.2758 (Simulation time: 00 hr 48 min 43 sec)
Heartbeat CPU 0 instructions: 148000779 cycles: 368768091 heartbeat IPC: 1.159 cumulative IPC: 0.2769 (Simulation time: 00 hr 48 min 45 sec)
Heartbeat CPU 0 instructions: 148500779 cycles: 369175729 heartbeat IPC: 1.227 cumulative IPC: 0.278 (Simulation time: 00 hr 48 min 48 sec)
Heartbeat CPU 0 instructions: 149000780 cycles: 369639152 heartbeat IPC: 1.079 cumulative IPC: 0.279 (Simulation time: 00 hr 48 min 51 sec)
Heartbeat CPU 0 instructions: 149500780 cycles: 370065712 heartbeat IPC: 1.172 cumulative IPC: 0.2801 (Simulation time: 00 hr 48 min 53 sec)
Heartbeat CPU 0 instructions: 150000780 cycles: 370707237 heartbeat IPC: 0.7794 cumulative IPC: 0.281 (Simulation time: 00 hr 49 min 00 sec)
Heartbeat CPU 0 instructions: 150500780 cycles: 374059999 heartbeat IPC: 0.1491 cumulative IPC: 0.2798 (Simulation time: 00 hr 49 min 36 sec)
Heartbeat CPU 0 instructions: 151000784 cycles: 376573383 heartbeat IPC: 0.1989 cumulative IPC: 0.2792 (Simulation time: 00 hr 50 min 03 sec)
Heartbeat CPU 0 instructions: 151500788 cycles: 378186733 heartbeat IPC: 0.3099 cumulative IPC: 0.2793 (Simulation time: 00 hr 50 min 19 sec)
Heartbeat CPU 0 instructions: 152000791 cycles: 379756607 heartbeat IPC: 0.3185 cumulative IPC: 0.2795 (Simulation time: 00 hr 50 min 35 sec)
Heartbeat CPU 0 instructions: 152500795 cycles: 381333310 heartbeat IPC: 0.3171 cumulative IPC: 0.2797 (Simulation time: 00 hr 50 min 52 sec)
Heartbeat CPU 0 instructions: 153000795 cycles: 382287082 heartbeat IPC: 0.5242 cumulative IPC: 0.2803 (Simulation time: 00 hr 51 min 01 sec)
Heartbeat CPU 0 instructions: 153500798 cycles: 382736212 heartbeat IPC: 1.113 cumulative IPC: 0.2813 (Simulation time: 00 hr 51 min 05 sec)
Heartbeat CPU 0 instructions: 154000802 cycles: 382837270 heartbeat IPC: 4.948 cumulative IPC: 0.2826 (Simulation time: 00 hr 51 min 06 sec)
Heartbeat CPU 0 instructions: 154500802 cycles: 384756063 heartbeat IPC: 0.2606 cumulative IPC: 0.2825 (Simulation time: 00 hr 51 min 19 sec)
Heartbeat CPU 0 instructions: 155000806 cycles: 387345511 heartbeat IPC: 0.1931 cumulative IPC: 0.2819 (Simulation time: 00 hr 51 min 36 sec)
Heartbeat CPU 0 instructions: 155500807 cycles: 390095850 heartbeat IPC: 0.1818 cumulative IPC: 0.2811 (Simulation time: 00 hr 51 min 54 sec)
Heartbeat CPU 0 instructions: 156000811 cycles: 391634547 heartbeat IPC: 0.325 cumulative IPC: 0.2813 (Simulation time: 00 hr 52 min 04 sec)
Heartbeat CPU 0 instructions: 156500818 cycles: 394218019 heartbeat IPC: 0.1935 cumulative IPC: 0.2807 (Simulation time: 00 hr 52 min 21 sec)
Heartbeat CPU 0 instructions: 157000825 cycles: 396904886 heartbeat IPC: 0.1861 cumulative IPC: 0.2801 (Simulation time: 00 hr 52 min 38 sec)
Heartbeat CPU 0 instructions: 157500826 cycles: 399236683 heartbeat IPC: 0.2144 cumulative IPC: 0.2797 (Simulation time: 00 hr 52 min 54 sec)
Heartbeat CPU 0 instructions: 158000833 cycles: 401633846 heartbeat IPC: 0.2086 cumulative IPC: 0.2792 (Simulation time: 00 hr 53 min 09 sec)
Heartbeat CPU 0 instructions: 158500834 cycles: 404257302 heartbeat IPC: 0.1906 cumulative IPC: 0.2786 (Simulation time: 00 hr 53 min 26 sec)
Heartbeat CPU 0 instructions: 159000835 cycles: 406817879 heartbeat IPC: 0.1953 cumulative IPC: 0.2781 (Simulation time: 00 hr 53 min 42 sec)
Heartbeat CPU 0 instructions: 159500836 cycles: 409098799 heartbeat IPC: 0.2192 cumulative IPC: 0.2777 (Simulation time: 00 hr 53 min 57 sec)
Heartbeat CPU 0 instructions: 160000841 cycles: 411398188 heartbeat IPC: 0.2175 cumulative IPC: 0.2774 (Simulation time: 00 hr 54 min 12 sec)
Heartbeat CPU 0 instructions: 160500842 cycles: 413719510 heartbeat IPC: 0.2154 cumulative IPC: 0.277 (Simulation time: 00 hr 54 min 27 sec)
Heartbeat CPU 0 instructions: 161000844 cycles: 416040254 heartbeat IPC: 0.2154 cumulative IPC: 0.2767 (Simulation time: 00 hr 54 min 42 sec)
Heartbeat CPU 0 instructions: 161500846 cycles: 418468747 heartbeat IPC: 0.2059 cumulative IPC: 0.2762 (Simulation time: 00 hr 54 min 58 sec)
Heartbeat CPU 0 instructions: 162000846 cycles: 420682976 heartbeat IPC: 0.2258 cumulative IPC: 0.276 (Simulation time: 00 hr 55 min 12 sec)
Heartbeat CPU 0 instructions: 162500846 cycles: 423165377 heartbeat IPC: 0.2014 cumulative IPC: 0.2755 (Simulation time: 00 hr 55 min 28 sec)
Heartbeat CPU 0 instructions: 163000846 cycles: 425525806 heartbeat IPC: 0.2118 cumulative IPC: 0.2751 (Simulation time: 00 hr 55 min 43 sec)
Heartbeat CPU 0 instructions: 163500846 cycles: 427361032 heartbeat IPC: 0.2724 cumulative IPC: 0.2751 (Simulation time: 00 hr 55 min 55 sec)
Heartbeat CPU 0 instructions: 164000848 cycles: 428542979 heartbeat IPC: 0.423 cumulative IPC: 0.2756 (Simulation time: 00 hr 56 min 03 sec)
Heartbeat CPU 0 instructions: 164500849 cycles: 429455879 heartbeat IPC: 0.5477 cumulative IPC: 0.2762 (Simulation time: 00 hr 56 min 10 sec)
Heartbeat CPU 0 instructions: 165000849 cycles: 429857149 heartbeat IPC: 1.246 cumulative IPC: 0.2771 (Simulation time: 00 hr 56 min 12 sec)
Heartbeat CPU 0 instructions: 165500849 cycles: 430291478 heartbeat IPC: 1.151 cumulative IPC: 0.278 (Simulation time: 00 hr 56 min 15 sec)
Heartbeat CPU 0 instructions: 166000850 cycles: 430753646 heartbeat IPC: 1.082 cumulative IPC: 0.2789 (Simulation time: 00 hr 56 min 18 sec)
Heartbeat CPU 0 instructions: 166500850 cycles: 431182946 heartbeat IPC: 1.165 cumulative IPC: 0.2798 (Simulation time: 00 hr 56 min 20 sec)
Heartbeat CPU 0 instructions: 167000851 cycles: 432984256 heartbeat IPC: 0.2776 cumulative IPC: 0.2798 (Simulation time: 00 hr 56 min 39 sec)
Heartbeat CPU 0 instructions: 167500856 cycles: 436111452 heartbeat IPC: 0.1599 cumulative IPC: 0.2789 (Simulation time: 00 hr 57 min 13 sec)
Heartbeat CPU 0 instructions: 168000860 cycles: 437738959 heartbeat IPC: 0.3072 cumulative IPC: 0.279 (Simulation time: 00 hr 57 min 30 sec)
Heartbeat CPU 0 instructions: 168500864 cycles: 439311905 heartbeat IPC: 0.3179 cumulative IPC: 0.2792 (Simulation time: 00 hr 57 min 46 sec)
Heartbeat CPU 0 instructions: 169000868 cycles: 440860354 heartbeat IPC: 0.3229 cumulative IPC: 0.2793 (Simulation time: 00 hr 58 min 02 sec)
Heartbeat CPU 0 instructions: 169500868 cycles: 441521131 heartbeat IPC: 0.7567 cumulative IPC: 0.2801 (Simulation time: 00 hr 58 min 08 sec)
Heartbeat CPU 0 instructions: 170000869 cycles: 441767720 heartbeat IPC: 2.028 cumulative IPC: 0.2811 (Simulation time: 00 hr 58 min 10 sec)
Heartbeat CPU 0 instructions: 170500869 cycles: 443151374 heartbeat IPC: 0.3614 cumulative IPC: 0.2813 (Simulation time: 00 hr 58 min 20 sec)
Heartbeat CPU 0 instructions: 171000875 cycles: 445865925 heartbeat IPC: 0.1842 cumulative IPC: 0.2807 (Simulation time: 00 hr 58 min 38 sec)
Heartbeat CPU 0 instructions: 171500881 cycles: 448614633 heartbeat IPC: 0.1819 cumulative IPC: 0.2801 (Simulation time: 00 hr 58 min 55 sec)
Heartbeat CPU 0 instructions: 172000882 cycles: 449649073 heartbeat IPC: 0.4834 cumulative IPC: 0.2806 (Simulation time: 00 hr 59 min 03 sec)
Heartbeat CPU 0 instructions: 172500884 cycles: 452313500 heartbeat IPC: 0.1877 cumulative IPC: 0.28 (Simulation time: 00 hr 59 min 20 sec)
Heartbeat CPU 0 instructions: 173000884 cycles: 454995099 heartbeat IPC: 0.1865 cumulative IPC: 0.2794 (Simulation time: 00 hr 59 min 38 sec)
Heartbeat CPU 0 instructions: 173500884 cycles: 457156074 heartbeat IPC: 0.2314 cumulative IPC: 0.2792 (Simulation time: 00 hr 59 min 52 sec)
Heartbeat CPU 0 instructions: 174000884 cycles: 458912690 heartbeat IPC: 0.2846 cumulative IPC: 0.2792 (Simulation time: 01 hr 00 min 03 sec)
Heartbeat CPU 0 instructions: 174500884 cycles: 461032507 heartbeat IPC: 0.2359 cumulative IPC: 0.279 (Simulation time: 01 hr 00 min 17 sec)
Heartbeat CPU 0 instructions: 175000890 cycles: 462317053 heartbeat IPC: 0.3892 cumulative IPC: 0.2793 (Simulation time: 01 hr 00 min 26 sec)
Heartbeat CPU 0 instructions: 175500891 cycles: 464821525 heartbeat IPC: 0.1996 cumulative IPC: 0.2789 (Simulation time: 01 hr 00 min 42 sec)
Heartbeat CPU 0 instructions: 176000893 cycles: 467104010 heartbeat IPC: 0.2191 cumulative IPC: 0.2786 (Simulation time: 01 hr 00 min 57 sec)
Heartbeat CPU 0 instructions: 176500894 cycles: 469332309 heartbeat IPC: 0.2244 cumulative IPC: 0.2783 (Simulation time: 01 hr 01 min 11 sec)
Heartbeat CPU 0 instructions: 177000896 cycles: 471326794 heartbeat IPC: 0.2507 cumulative IPC: 0.2782 (Simulation time: 01 hr 01 min 24 sec)
Heartbeat CPU 0 instructions: 177500901 cycles: 473659661 heartbeat IPC: 0.2143 cumulative IPC: 0.2779 (Simulation time: 01 hr 01 min 39 sec)
Heartbeat CPU 0 instructions: 178000907 cycles: 476097515 heartbeat IPC: 0.2051 cumulative IPC: 0.2775 (Simulation time: 01 hr 01 min 55 sec)
Heartbeat CPU 0 instructions: 178500908 cycles: 478491112 heartbeat IPC: 0.2089 cumulative IPC: 0.2771 (Simulation time: 01 hr 02 min 10 sec)
Heartbeat CPU 0 instructions: 179000909 cycles: 479912289 heartbeat IPC: 0.3518 cumulative IPC: 0.2774 (Simulation time: 01 hr 02 min 20 sec)
Heartbeat CPU 0 instructions: 179500910 cycles: 480793928 heartbeat IPC: 0.5671 cumulative IPC: 0.2779 (Simulation time: 01 hr 02 min 25 sec)
Heartbeat CPU 0 instructions: 180000913 cycles: 481175095 heartbeat IPC: 1.312 cumulative IPC: 0.2788 (Simulation time: 01 hr 02 min 28 sec)
Heartbeat CPU 0 instructions: 180500913 cycles: 481521484 heartbeat IPC: 1.443 cumulative IPC: 0.2796 (Simulation time: 01 hr 02 min 30 sec)
Heartbeat CPU 0 instructions: 181000913 cycles: 481979474 heartbeat IPC: 1.092 cumulative IPC: 0.2804 (Simulation time: 01 hr 02 min 33 sec)
Heartbeat CPU 0 instructions: 181500919 cycles: 482766694 heartbeat IPC: 0.6352 cumulative IPC: 0.281 (Simulation time: 01 hr 02 min 40 sec)
Heartbeat CPU 0 instructions: 182000921 cycles: 486024902 heartbeat IPC: 0.1535 cumulative IPC: 0.2801 (Simulation time: 01 hr 03 min 15 sec)
Heartbeat CPU 0 instructions: 182500921 cycles: 487674859 heartbeat IPC: 0.303 cumulative IPC: 0.2802 (Simulation time: 01 hr 03 min 32 sec)
Heartbeat CPU 0 instructions: 183000924 cycles: 489206725 heartbeat IPC: 0.3264 cumulative IPC: 0.2804 (Simulation time: 01 hr 03 min 47 sec)
Heartbeat CPU 0 instructions: 183500928 cycles: 490378646 heartbeat IPC: 0.4267 cumulative IPC: 0.2807 (Simulation time: 01 hr 03 min 59 sec)
Heartbeat CPU 0 instructions: 184000929 cycles: 490725957 heartbeat IPC: 1.44 cumulative IPC: 0.2816 (Simulation time: 01 hr 04 min 02 sec)
Heartbeat CPU 0 instructions: 184500931 cycles: 491989964 heartbeat IPC: 0.3956 cumulative IPC: 0.2819 (Simulation time: 01 hr 04 min 11 sec)
Heartbeat CPU 0 instructions: 185000931 cycles: 494772175 heartbeat IPC: 0.1797 cumulative IPC: 0.2813 (Simulation time: 01 hr 04 min 28 sec)
Heartbeat CPU 0 instructions: 185500932 cycles: 497304461 heartbeat IPC: 0.1975 cumulative IPC: 0.2808 (Simulation time: 01 hr 04 min 45 sec)
Heartbeat CPU 0 instructions: 186000939 cycles: 499943377 heartbeat IPC: 0.1895 cumulative IPC: 0.2803 (Simulation time: 01 hr 05 min 02 sec)
Heartbeat CPU 0 instructions: 186500940 cycles: 502726164 heartbeat IPC: 0.1797 cumulative IPC: 0.2798 (Simulation time: 01 hr 05 min 19 sec)
Heartbeat CPU 0 instructions: 187000941 cycles: 505144838 heartbeat IPC: 0.2067 cumulative IPC: 0.2794 (Simulation time: 01 hr 05 min 35 sec)
Heartbeat CPU 0 instructions: 187500943 cycles: 507166836 heartbeat IPC: 0.2473 cumulative IPC: 0.2793 (Simulation time: 01 hr 05 min 48 sec)
Heartbeat CPU 0 instructions: 188000945 cycles: 509609862 heartbeat IPC: 0.2047 cumulative IPC: 0.2789 (Simulation time: 01 hr 06 min 04 sec)
Heartbeat CPU 0 instructions: 188500947 cycles: 511941983 heartbeat IPC: 0.2144 cumulative IPC: 0.2786 (Simulation time: 01 hr 06 min 19 sec)
Heartbeat CPU 0 instructions: 189000950 cycles: 513893532 heartbeat IPC: 0.2562 cumulative IPC: 0.2785 (Simulation time: 01 hr 06 min 32 sec)
Heartbeat CPU 0 instructions: 189500950 cycles: 515068468 heartbeat IPC: 0.4256 cumulative IPC: 0.2789 (Simulation time: 01 hr 06 min 40 sec)
Heartbeat CPU 0 instructions: 190000956 cycles: 517327173 heartbeat IPC: 0.2214 cumulative IPC: 0.2786 (Simulation time: 01 hr 06 min 55 sec)
Heartbeat CPU 0 instructions: 190500956 cycles: 519632312 heartbeat IPC: 0.2169 cumulative IPC: 0.2783 (Simulation time: 01 hr 07 min 10 sec)
Heartbeat CPU 0 instructions: 191000956 cycles: 521569369 heartbeat IPC: 0.2581 cumulative IPC: 0.2783 (Simulation time: 01 hr 07 min 22 sec)
Heartbeat CPU 0 instructions: 191500958 cycles: 522448864 heartbeat IPC: 0.5685 cumulative IPC: 0.2788 (Simulation time: 01 hr 07 min 28 sec)
Heartbeat CPU 0 instructions: 192000958 cycles: 522899027 heartbeat IPC: 1.111 cumulative IPC: 0.2795 (Simulation time: 01 hr 07 min 31 sec)
Heartbeat CPU 0 instructions: 192500958 cycles: 523301693 heartbeat IPC: 1.242 cumulative IPC: 0.2803 (Simulation time: 01 hr 07 min 33 sec)
Heartbeat CPU 0 instructions: 193000962 cycles: 523987433 heartbeat IPC: 0.7291 cumulative IPC: 0.2809 (Simulation time: 01 hr 07 min 39 sec)
Heartbeat CPU 0 instructions: 193500967 cycles: 527048637 heartbeat IPC: 0.1633 cumulative IPC: 0.2802 (Simulation time: 01 hr 08 min 12 sec)
Heartbeat CPU 0 instructions: 194000972 cycles: 528648538 heartbeat IPC: 0.3125 cumulative IPC: 0.2803 (Simulation time: 01 hr 08 min 28 sec)
Heartbeat CPU 0 instructions: 194500976 cycles: 530138008 heartbeat IPC: 0.3357 cumulative IPC: 0.2804 (Simulation time: 01 hr 08 min 43 sec)
Heartbeat CPU 0 instructions: 195000977 cycles: 530654606 heartbeat IPC: 0.9679 cumulative IPC: 0.2811 (Simulation time: 01 hr 08 min 48 sec)
Heartbeat CPU 0 instructions: 195500979 cycles: 531713633 heartbeat IPC: 0.4721 cumulative IPC: 0.2815 (Simulation time: 01 hr 08 min 55 sec)
Heartbeat CPU 0 instructions: 196000979 cycles: 534324631 heartbeat IPC: 0.1915 cumulative IPC: 0.281 (Simulation time: 01 hr 09 min 12 sec)
Heartbeat CPU 0 instructions: 196500980 cycles: 536806240 heartbeat IPC: 0.2015 cumulative IPC: 0.2807 (Simulation time: 01 hr 09 min 28 sec)
Heartbeat CPU 0 instructions: 197000980 cycles: 539300865 heartbeat IPC: 0.2004 cumulative IPC: 0.2803 (Simulation time: 01 hr 09 min 44 sec)
Heartbeat CPU 0 instructions: 197500984 cycles: 542018240 heartbeat IPC: 0.184 cumulative IPC: 0.2798 (Simulation time: 01 hr 10 min 01 sec)
Heartbeat CPU 0 instructions: 198000985 cycles: 544528187 heartbeat IPC: 0.1992 cumulative IPC: 0.2794 (Simulation time: 01 hr 10 min 17 sec)
Heartbeat CPU 0 instructions: 198500988 cycles: 546932501 heartbeat IPC: 0.208 cumulative IPC: 0.2791 (Simulation time: 01 hr 10 min 33 sec)
Heartbeat CPU 0 instructions: 199000988 cycles: 549206309 heartbeat IPC: 0.2199 cumulative IPC: 0.2788 (Simulation time: 01 hr 10 min 47 sec)
Heartbeat CPU 0 instructions: 199500992 cycles: 550204058 heartbeat IPC: 0.5011 cumulative IPC: 0.2792 (Simulation time: 01 hr 10 min 55 sec)
Heartbeat CPU 0 instructions: 200000997 cycles: 550342834 heartbeat IPC: 3.603 cumulative IPC: 0.2801 (Simulation time: 01 hr 10 min 56 sec)
Heartbeat CPU 0 instructions: 200501001 cycles: 550841136 heartbeat IPC: 1.003 cumulative IPC: 0.2808 (Simulation time: 01 hr 11 min 01 sec)
Heartbeat CPU 0 instructions: 201001001 cycles: 552987287 heartbeat IPC: 0.233 cumulative IPC: 0.2806 (Simulation time: 01 hr 11 min 15 sec)
Heartbeat CPU 0 instructions: 201501002 cycles: 555101266 heartbeat IPC: 0.2365 cumulative IPC: 0.2804 (Simulation time: 01 hr 11 min 28 sec)
Heartbeat CPU 0 instructions: 202001002 cycles: 556555046 heartbeat IPC: 0.3439 cumulative IPC: 0.2806 (Simulation time: 01 hr 11 min 38 sec)
Heartbeat CPU 0 instructions: 202501003 cycles: 557144272 heartbeat IPC: 0.8486 cumulative IPC: 0.2812 (Simulation time: 01 hr 11 min 42 sec)
Heartbeat CPU 0 instructions: 203001003 cycles: 557581647 heartbeat IPC: 1.143 cumulative IPC: 0.2819 (Simulation time: 01 hr 11 min 45 sec)
Heartbeat CPU 0 instructions: 203501003 cycles: 557832164 heartbeat IPC: 1.996 cumulative IPC: 0.2827 (Simulation time: 01 hr 11 min 47 sec)
Heartbeat CPU 0 instructions: 204001003 cycles: 558206700 heartbeat IPC: 1.335 cumulative IPC: 0.2834 (Simulation time: 01 hr 11 min 50 sec)
Heartbeat CPU 0 instructions: 204501006 cycles: 561021022 heartbeat IPC: 0.1777 cumulative IPC: 0.2829 (Simulation time: 01 hr 12 min 20 sec)
Heartbeat CPU 0 instructions: 205001010 cycles: 562590985 heartbeat IPC: 0.3185 cumulative IPC: 0.283 (Simulation time: 01 hr 12 min 36 sec)
Heartbeat CPU 0 instructions: 205501011 cycles: 563658676 heartbeat IPC: 0.4683 cumulative IPC: 0.2833 (Simulation time: 01 hr 12 min 46 sec)
Heartbeat CPU 0 instructions: 206001012 cycles: 564191396 heartbeat IPC: 0.9386 cumulative IPC: 0.284 (Simulation time: 01 hr 12 min 50 sec)
Heartbeat CPU 0 instructions: 206501013 cycles: 566695805 heartbeat IPC: 0.1996 cumulative IPC: 0.2836 (Simulation time: 01 hr 13 min 06 sec)
Heartbeat CPU 0 instructions: 207001015 cycles: 569094225 heartbeat IPC: 0.2085 cumulative IPC: 0.2833 (Simulation time: 01 hr 13 min 22 sec)
Heartbeat CPU 0 instructions: 207501020 cycles: 571788021 heartbeat IPC: 0.1856 cumulative IPC: 0.2828 (Simulation time: 01 hr 13 min 39 sec)
Heartbeat CPU 0 instructions: 208001025 cycles: 574380940 heartbeat IPC: 0.1928 cumulative IPC: 0.2824 (Simulation time: 01 hr 13 min 55 sec)
Heartbeat CPU 0 instructions: 208501027 cycles: 576276777 heartbeat IPC: 0.2637 cumulative IPC: 0.2823 (Simulation time: 01 hr 14 min 08 sec)
Heartbeat CPU 0 instructions: 209001027 cycles: 578680186 heartbeat IPC: 0.208 cumulative IPC: 0.282 (Simulation time: 01 hr 14 min 23 sec)
Heartbeat CPU 0 instructions: 209501027 cycles: 580839201 heartbeat IPC: 0.2316 cumulative IPC: 0.2818 (Simulation time: 01 hr 14 min 37 sec)
Heartbeat CPU 0 instructions: 210001030 cycles: 582824276 heartbeat IPC: 0.2519 cumulative IPC: 0.2817 (Simulation time: 01 hr 14 min 50 sec)
Heartbeat CPU 0 instructions: 210501030 cycles: 584381202 heartbeat IPC: 0.3211 cumulative IPC: 0.2818 (Simulation time: 01 hr 15 min 01 sec)
Heartbeat CPU 0 instructions: 211001030 cycles: 584773526 heartbeat IPC: 1.274 cumulative IPC: 0.2825 (Simulation time: 01 hr 15 min 03 sec)
Heartbeat CPU 0 instructions: 211501030 cycles: 585201884 heartbeat IPC: 1.167 cumulative IPC: 0.2831 (Simulation time: 01 hr 15 min 06 sec)
Heartbeat CPU 0 instructions: 212001031 cycles: 587170066 heartbeat IPC: 0.254 cumulative IPC: 0.283 (Simulation time: 01 hr 15 min 27 sec)
Heartbeat CPU 0 instructions: 212501035 cycles: 588929879 heartbeat IPC: 0.2841 cumulative IPC: 0.2831 (Simulation time: 01 hr 15 min 45 sec)
Heartbeat CPU 0 instructions: 213001039 cycles: 589934539 heartbeat IPC: 0.4977 cumulative IPC: 0.2834 (Simulation time: 01 hr 15 min 54 sec)
Heartbeat CPU 0 instructions: 213501046 cycles: 591331223 heartbeat IPC: 0.358 cumulative IPC: 0.2836 (Simulation time: 01 hr 16 min 04 sec)
Heartbeat CPU 0 instructions: 214001047 cycles: 593573491 heartbeat IPC: 0.223 cumulative IPC: 0.2834 (Simulation time: 01 hr 16 min 18 sec)
Heartbeat CPU 0 instructions: 214501052 cycles: 596097822 heartbeat IPC: 0.1981 cumulative IPC: 0.283 (Simulation time: 01 hr 16 min 34 sec)
Heartbeat CPU 0 instructions: 215001056 cycles: 598682389 heartbeat IPC: 0.1935 cumulative IPC: 0.2826 (Simulation time: 01 hr 16 min 51 sec)
Heartbeat CPU 0 instructions: 215501061 cycles: 600908636 heartbeat IPC: 0.2246 cumulative IPC: 0.2824 (Simulation time: 01 hr 17 min 05 sec)
Heartbeat CPU 0 instructions: 216001064 cycles: 603224683 heartbeat IPC: 0.2159 cumulative IPC: 0.2821 (Simulation time: 01 hr 17 min 20 sec)
Heartbeat CPU 0 instructions: 216501064 cycles: 605256622 heartbeat IPC: 0.2461 cumulative IPC: 0.282 (Simulation time: 01 hr 17 min 33 sec)
Heartbeat CPU 0 instructions: 217001065 cycles: 606751800 heartbeat IPC: 0.3344 cumulative IPC: 0.2821 (Simulation time: 01 hr 17 min 43 sec)
Heartbeat CPU 0 instructions: 217501066 cycles: 607189782 heartbeat IPC: 1.142 cumulative IPC: 0.2828 (Simulation time: 01 hr 17 min 46 sec)
Heartbeat CPU 0 instructions: 218001066 cycles: 609091147 heartbeat IPC: 0.263 cumulative IPC: 0.2827 (Simulation time: 01 hr 18 min 05 sec)
Heartbeat CPU 0 instructions: 218501071 cycles: 610680354 heartbeat IPC: 0.3146 cumulative IPC: 0.2828 (Simulation time: 01 hr 18 min 22 sec)
Heartbeat CPU 0 instructions: 219001072 cycles: 611128598 heartbeat IPC: 1.115 cumulative IPC: 0.2834 (Simulation time: 01 hr 18 min 26 sec)
Heartbeat CPU 0 instructions: 219501072 cycles: 613197622 heartbeat IPC: 0.2417 cumulative IPC: 0.2833 (Simulation time: 01 hr 18 min 39 sec)
Heartbeat CPU 0 instructions: 220001073 cycles: 615714408 heartbeat IPC: 0.1987 cumulative IPC: 0.2829 (Simulation time: 01 hr 18 min 55 sec)
Heartbeat CPU 0 instructions: 220501074 cycles: 618219594 heartbeat IPC: 0.1996 cumulative IPC: 0.2826 (Simulation time: 01 hr 19 min 11 sec)
Heartbeat CPU 0 instructions: 221001075 cycles: 620508421 heartbeat IPC: 0.2185 cumulative IPC: 0.2823 (Simulation time: 01 hr 19 min 25 sec)
Heartbeat CPU 0 instructions: 221501077 cycles: 622838531 heartbeat IPC: 0.2146 cumulative IPC: 0.2821 (Simulation time: 01 hr 19 min 40 sec)
Heartbeat CPU 0 instructions: 222001077 cycles: 624271141 heartbeat IPC: 0.349 cumulative IPC: 0.2822 (Simulation time: 01 hr 19 min 50 sec)
Heartbeat CPU 0 instructions: 222501079 cycles: 624709175 heartbeat IPC: 1.141 cumulative IPC: 0.2828 (Simulation time: 01 hr 19 min 52 sec)
Heartbeat CPU 0 instructions: 223001082 cycles: 626821355 heartbeat IPC: 0.2367 cumulative IPC: 0.2827 (Simulation time: 01 hr 20 min 14 sec)
Heartbeat CPU 0 instructions: 223501087 cycles: 627598638 heartbeat IPC: 0.6433 cumulative IPC: 0.2831 (Simulation time: 01 hr 20 min 22 sec)
Heartbeat CPU 0 instructions: 224001090 cycles: 629807373 heartbeat IPC: 0.2264 cumulative IPC: 0.2829 (Simulation time: 01 hr 20 min 36 sec)
Heartbeat CPU 0 instructions: 224501090 cycles: 632278621 heartbeat IPC: 0.2023 cumulative IPC: 0.2826 (Simulation time: 01 hr 20 min 52 sec)
Heartbeat CPU 0 instructions: 225001095 cycles: 634510209 heartbeat IPC: 0.2241 cumulative IPC: 0.2824 (Simulation time: 01 hr 21 min 06 sec)
Heartbeat CPU 0 instructions: 225501098 cycles: 636471247 heartbeat IPC: 0.255 cumulative IPC: 0.2823 (Simulation time: 01 hr 21 min 18 sec)
Heartbeat CPU 0 instructions: 226001099 cycles: 637980005 heartbeat IPC: 0.3314 cumulative IPC: 0.2824 (Simulation time: 01 hr 21 min 28 sec)
Heartbeat CPU 0 instructions: 226501100 cycles: 638866178 heartbeat IPC: 0.5642 cumulative IPC: 0.2828 (Simulation time: 01 hr 21 min 36 sec)
Heartbeat CPU 0 instructions: 227001104 cycles: 640484903 heartbeat IPC: 0.3089 cumulative IPC: 0.2829 (Simulation time: 01 hr 21 min 53 sec)
Heartbeat CPU 0 instructions: 227501106 cycles: 641951796 heartbeat IPC: 0.3409 cumulative IPC: 0.283 (Simulation time: 01 hr 22 min 02 sec)
Heartbeat CPU 0 instructions: 228001112 cycles: 644404298 heartbeat IPC: 0.2039 cumulative IPC: 0.2827 (Simulation time: 01 hr 22 min 18 sec)
Heartbeat CPU 0 instructions: 228501112 cycles: 646522397 heartbeat IPC: 0.2361 cumulative IPC: 0.2826 (Simulation time: 01 hr 22 min 32 sec)
Heartbeat CPU 0 instructions: 229001115 cycles: 647839086 heartbeat IPC: 0.3797 cumulative IPC: 0.2828 (Simulation time: 01 hr 22 min 40 sec)
Heartbeat CPU 0 instructions: 229501116 cycles: 648986640 heartbeat IPC: 0.4357 cumulative IPC: 0.2831 (Simulation time: 01 hr 22 min 48 sec)
Heartbeat CPU 0 instructions: 230001119 cycles: 649812152 heartbeat IPC: 0.6057 cumulative IPC: 0.2835 (Simulation time: 01 hr 22 min 56 sec)
Heartbeat CPU 0 instructions: 230501119 cycles: 651041720 heartbeat IPC: 0.4066 cumulative IPC: 0.2837 (Simulation time: 01 hr 23 min 08 sec)
Heartbeat CPU 0 instructions: 231001120 cycles: 653419633 heartbeat IPC: 0.2103 cumulative IPC: 0.2834 (Simulation time: 01 hr 23 min 23 sec)
Heartbeat CPU 0 instructions: 231501124 cycles: 655567299 heartbeat IPC: 0.2328 cumulative IPC: 0.2833 (Simulation time: 01 hr 23 min 36 sec)
Heartbeat CPU 0 instructions: 232001125 cycles: 657133147 heartbeat IPC: 0.3193 cumulative IPC: 0.2834 (Simulation time: 01 hr 23 min 46 sec)
Heartbeat CPU 0 instructions: 232501130 cycles: 658090906 heartbeat IPC: 0.5221 cumulative IPC: 0.2837 (Simulation time: 01 hr 23 min 55 sec)
Heartbeat CPU 0 instructions: 233001130 cycles: 659593814 heartbeat IPC: 0.3327 cumulative IPC: 0.2838 (Simulation time: 01 hr 24 min 07 sec)
Heartbeat CPU 0 instructions: 233501132 cycles: 661792781 heartbeat IPC: 0.2274 cumulative IPC: 0.2836 (Simulation time: 01 hr 24 min 21 sec)
Heartbeat CPU 0 instructions: 234001132 cycles: 662483832 heartbeat IPC: 0.7235 cumulative IPC: 0.2841 (Simulation time: 01 hr 24 min 26 sec)
Heartbeat CPU 0 instructions: 234501132 cycles: 663057380 heartbeat IPC: 0.8718 cumulative IPC: 0.2846 (Simulation time: 01 hr 24 min 29 sec)
Heartbeat CPU 0 instructions: 235001139 cycles: 664466659 heartbeat IPC: 0.3548 cumulative IPC: 0.2848 (Simulation time: 01 hr 24 min 41 sec)
Heartbeat CPU 0 instructions: 235501144 cycles: 666469487 heartbeat IPC: 0.2496 cumulative IPC: 0.2847 (Simulation time: 01 hr 24 min 54 sec)
Heartbeat CPU 0 instructions: 236001144 cycles: 666937253 heartbeat IPC: 1.069 cumulative IPC: 0.2852 (Simulation time: 01 hr 24 min 57 sec)
Heartbeat CPU 0 instructions: 236501147 cycles: 667935197 heartbeat IPC: 0.501 cumulative IPC: 0.2856 (Simulation time: 01 hr 25 min 06 sec)
Heartbeat CPU 0 instructions: 237001148 cycles: 669530730 heartbeat IPC: 0.3134 cumulative IPC: 0.2856 (Simulation time: 01 hr 25 min 16 sec)
Heartbeat CPU 0 instructions: 237501148 cycles: 670805293 heartbeat IPC: 0.3923 cumulative IPC: 0.2858 (Simulation time: 01 hr 25 min 25 sec)
Heartbeat CPU 0 instructions: 238001152 cycles: 671689046 heartbeat IPC: 0.5658 cumulative IPC: 0.2862 (Simulation time: 01 hr 25 min 32 sec)
Heartbeat CPU 0 instructions: 238501156 cycles: 672778514 heartbeat IPC: 0.4589 cumulative IPC: 0.2865 (Simulation time: 01 hr 25 min 39 sec)
Heartbeat CPU 0 instructions: 239001156 cycles: 673750207 heartbeat IPC: 0.5146 cumulative IPC: 0.2868 (Simulation time: 01 hr 25 min 46 sec)
Heartbeat CPU 0 instructions: 239501160 cycles: 674576890 heartbeat IPC: 0.6048 cumulative IPC: 0.2872 (Simulation time: 01 hr 25 min 52 sec)
Heartbeat CPU 0 instructions: 240001162 cycles: 675277301 heartbeat IPC: 0.7139 cumulative IPC: 0.2877 (Simulation time: 01 hr 25 min 57 sec)
Heartbeat CPU 0 instructions: 240501162 cycles: 676019430 heartbeat IPC: 0.6737 cumulative IPC: 0.2881 (Simulation time: 01 hr 26 min 02 sec)
Heartbeat CPU 0 instructions: 241001163 cycles: 678323353 heartbeat IPC: 0.217 cumulative IPC: 0.2879 (Simulation time: 01 hr 26 min 21 sec)
Heartbeat CPU 0 instructions: 241501163 cycles: 680880578 heartbeat IPC: 0.1955 cumulative IPC: 0.2875 (Simulation time: 01 hr 26 min 41 sec)
Heartbeat CPU 0 instructions: 242001163 cycles: 683451823 heartbeat IPC: 0.1945 cumulative IPC: 0.2872 (Simulation time: 01 hr 27 min 02 sec)
Heartbeat CPU 0 instructions: 242501163 cycles: 686039246 heartbeat IPC: 0.1932 cumulative IPC: 0.2868 (Simulation time: 01 hr 27 min 23 sec)
Heartbeat CPU 0 instructions: 243001163 cycles: 688619722 heartbeat IPC: 0.1938 cumulative IPC: 0.2864 (Simulation time: 01 hr 27 min 43 sec)
Heartbeat CPU 0 instructions: 243501164 cycles: 691200345 heartbeat IPC: 0.1938 cumulative IPC: 0.2861 (Simulation time: 01 hr 28 min 04 sec)
Heartbeat CPU 0 instructions: 244001165 cycles: 693782621 heartbeat IPC: 0.1936 cumulative IPC: 0.2857 (Simulation time: 01 hr 28 min 25 sec)
Heartbeat CPU 0 instructions: 244501165 cycles: 696359039 heartbeat IPC: 0.1941 cumulative IPC: 0.2854 (Simulation time: 01 hr 28 min 45 sec)
Heartbeat CPU 0 instructions: 245001165 cycles: 698932889 heartbeat IPC: 0.1943 cumulative IPC: 0.285 (Simulation time: 01 hr 29 min 06 sec)
Heartbeat CPU 0 instructions: 245501165 cycles: 701511125 heartbeat IPC: 0.1939 cumulative IPC: 0.2847 (Simulation time: 01 hr 29 min 26 sec)
Heartbeat CPU 0 instructions: 246001165 cycles: 704090356 heartbeat IPC: 0.1939 cumulative IPC: 0.2844 (Simulation time: 01 hr 29 min 47 sec)
Heartbeat CPU 0 instructions: 246501166 cycles: 706663814 heartbeat IPC: 0.1943 cumulative IPC: 0.284 (Simulation time: 01 hr 30 min 07 sec)
Heartbeat CPU 0 instructions: 247001166 cycles: 709252076 heartbeat IPC: 0.1932 cumulative IPC: 0.2837 (Simulation time: 01 hr 30 min 28 sec)
Heartbeat CPU 0 instructions: 247501166 cycles: 711480468 heartbeat IPC: 0.2244 cumulative IPC: 0.2835 (Simulation time: 01 hr 30 min 46 sec)
Heartbeat CPU 0 instructions: 248001166 cycles: 712022738 heartbeat IPC: 0.922 cumulative IPC: 0.284 (Simulation time: 01 hr 30 min 50 sec)
Heartbeat CPU 0 instructions: 248501166 cycles: 712571919 heartbeat IPC: 0.9104 cumulative IPC: 0.2845 (Simulation time: 01 hr 30 min 55 sec)
Heartbeat CPU 0 instructions: 249001166 cycles: 713112737 heartbeat IPC: 0.9245 cumulative IPC: 0.285 (Simulation time: 01 hr 30 min 59 sec)
Heartbeat CPU 0 instructions: 249501166 cycles: 713648704 heartbeat IPC: 0.9329 cumulative IPC: 0.2855 (Simulation time: 01 hr 31 min 04 sec)
*** Reached end of trace: (0, "/local-ssd/ben/dpc4-traces/Graph/Ligra/ligra_Radii.com-lj.ungraph.gcc_6.3.0_O3.drop_25000M.length_250M.champsimtrace.xz")
Simulation finished CPU 0 instructions: 200000001 cycles: 699366294 cumulative IPC: 0.286 (Simulation time: 01 hr 31 min 09 sec)
Simulation complete CPU 0 instructions: 200000001 cycles: 699366294 cumulative IPC: 0.286 (Simulation time: 01 hr 31 min 09 sec)

ChampSim completed all CPUs

=== Simulation ===
CPU 0 runs /local-ssd/ben/dpc4-traces/Graph/Ligra/ligra_Radii.com-lj.ungraph.gcc_6.3.0_O3.drop_25000M.length_250M.champsimtrace.xz

Region of Interest Statistics

CPU 0 cumulative IPC: 0.286 instructions: 200000001 cycles: 699366294
CPU 0 Branch Prediction Accuracy: 89.58% MPKI: 17.31 Average ROB Occupancy at Mispredict: 22.69
Branch type MPKI
BRANCH_DIRECT_JUMP: 0.00044
BRANCH_INDIRECT: 1.5e-05
BRANCH_CONDITIONAL: 17.31
BRANCH_DIRECT_CALL: 0.00012
BRANCH_INDIRECT_CALL: 1e-05
BRANCH_RETURN: 0.000155

cpu0->cpu0_STLB TOTAL        ACCESS:    4937511 HIT:     902074 MISS:    4035437 MSHR_MERGE:          0
cpu0->cpu0_STLB LOAD         ACCESS:    4937511 HIT:     902074 MISS:    4035437 MSHR_MERGE:          0
cpu0->cpu0_STLB RFO          ACCESS:          0 HIT:          0 MISS:          0 MSHR_MERGE:          0
cpu0->cpu0_STLB PREFETCH     ACCESS:          0 HIT:          0 MISS:          0 MSHR_MERGE:          0
cpu0->cpu0_STLB WRITE        ACCESS:          0 HIT:          0 MISS:          0 MSHR_MERGE:          0
cpu0->cpu0_STLB TRANSLATION  ACCESS:          0 HIT:          0 MISS:          0 MSHR_MERGE:          0
cpu0->cpu0_STLB PREFETCH REQUESTED:          0 ISSUED:          0 USEFUL:          0 USELESS:          0
cpu0->cpu0_STLB AVERAGE MISS LATENCY: 85.38 cycles
cpu0->cpu0_L2C TOTAL        ACCESS:   32742900 HIT:   15880435 MISS:   16862465 MSHR_MERGE:    1739023
cpu0->cpu0_L2C LOAD         ACCESS:    6102143 HIT:    1009397 MISS:    5092746 MSHR_MERGE:     205448
cpu0->cpu0_L2C RFO          ACCESS:    2617072 HIT:      57792 MISS:    2559280 MSHR_MERGE:          5
cpu0->cpu0_L2C PREFETCH     ACCESS:   16439650 HIT:    7464309 MISS:    8975341 MSHR_MERGE:    1533570
cpu0->cpu0_L2C WRITE        ACCESS:    4202455 HIT:    4202433 MISS:         22 MSHR_MERGE:          0
cpu0->cpu0_L2C TRANSLATION  ACCESS:    3381580 HIT:    3146504 MISS:     235076 MSHR_MERGE:          0
cpu0->cpu0_L2C PREFETCH REQUESTED:   14662407 ISSUED:   14484244 USEFUL:    1912800 USELESS:    4876327
cpu0->cpu0_L2C AVERAGE MISS LATENCY: 385.2 cycles
cpu0->cpu0_L1I TOTAL        ACCESS:   27462024 HIT:   27461844 MISS:        180 MSHR_MERGE:         41
cpu0->cpu0_L1I LOAD         ACCESS:   14614922 HIT:   14614856 MISS:         66 MSHR_MERGE:          9
cpu0->cpu0_L1I RFO          ACCESS:          0 HIT:          0 MISS:          0 MSHR_MERGE:          0
cpu0->cpu0_L1I PREFETCH     ACCESS:   12847102 HIT:   12846988 MISS:        114 MSHR_MERGE:         32
cpu0->cpu0_L1I WRITE        ACCESS:          0 HIT:          0 MISS:          0 MSHR_MERGE:          0
cpu0->cpu0_L1I TRANSLATION  ACCESS:          0 HIT:          0 MISS:          0 MSHR_MERGE:          0
cpu0->cpu0_L1I PREFETCH REQUESTED:   14614922 ISSUED:   12847070 USEFUL:         51 USELESS:          0
cpu0->cpu0_L1I AVERAGE MISS LATENCY: 215.5 cycles
cpu0->cpu0_L1D TOTAL        ACCESS:   74164480 HIT:   46188393 MISS:   27976087 MSHR_MERGE:   13919949
cpu0->cpu0_L1D LOAD         ACCESS:   38896148 HIT:   30797420 MISS:    8098728 MSHR_MERGE:    1996640
cpu0->cpu0_L1D RFO          ACCESS:          0 HIT:          0 MISS:          0 MSHR_MERGE:          0
cpu0->cpu0_L1D PREFETCH     ACCESS:    2260054 HIT:     275134 MISS:    1984920 MSHR_MERGE:      29595
cpu0->cpu0_L1D WRITE        ACCESS:   24741778 HIT:   10245131 MISS:   14496647 MSHR_MERGE:   11879502
cpu0->cpu0_L1D TRANSLATION  ACCESS:    8266500 HIT:    4870708 MISS:    3395792 MSHR_MERGE:      14212
cpu0->cpu0_L1D PREFETCH REQUESTED:    2360542 ISSUED:    2260054 USEFUL:    1180284 USELESS:     775042
cpu0->cpu0_L1D AVERAGE MISS LATENCY: 259.5 cycles
cpu0->cpu0_ITLB TOTAL        ACCESS:   22515681 HIT:   22515658 MISS:         23 MSHR_MERGE:          8
cpu0->cpu0_ITLB LOAD         ACCESS:   22515681 HIT:   22515658 MISS:         23 MSHR_MERGE:          8
cpu0->cpu0_ITLB RFO          ACCESS:          0 HIT:          0 MISS:          0 MSHR_MERGE:          0
cpu0->cpu0_ITLB PREFETCH     ACCESS:          0 HIT:          0 MISS:          0 MSHR_MERGE:          0
cpu0->cpu0_ITLB WRITE        ACCESS:          0 HIT:          0 MISS:          0 MSHR_MERGE:          0
cpu0->cpu0_ITLB TRANSLATION  ACCESS:          0 HIT:          0 MISS:          0 MSHR_MERGE:          0
cpu0->cpu0_ITLB PREFETCH REQUESTED:          0 ISSUED:          0 USEFUL:          0 USELESS:          0
cpu0->cpu0_ITLB AVERAGE MISS LATENCY: 364.6 cycles
cpu0->cpu0_DTLB TOTAL        ACCESS:   64007655 HIT:   57162175 MISS:    6845480 MSHR_MERGE:    1907984
cpu0->cpu0_DTLB LOAD         ACCESS:   64007655 HIT:   57162175 MISS:    6845480 MSHR_MERGE:    1907984
cpu0->cpu0_DTLB RFO          ACCESS:          0 HIT:          0 MISS:          0 MSHR_MERGE:          0
cpu0->cpu0_DTLB PREFETCH     ACCESS:          0 HIT:          0 MISS:          0 MSHR_MERGE:          0
cpu0->cpu0_DTLB WRITE        ACCESS:          0 HIT:          0 MISS:          0 MSHR_MERGE:          0
cpu0->cpu0_DTLB TRANSLATION  ACCESS:          0 HIT:          0 MISS:          0 MSHR_MERGE:          0
cpu0->cpu0_DTLB PREFETCH REQUESTED:          0 ISSUED:          0 USEFUL:          0 USELESS:          0
cpu0->cpu0_DTLB AVERAGE MISS LATENCY: 75.6 cycles
cpu0->LLC TOTAL        ACCESS:   28360883 HIT:    2256259 MISS:   26104624 MSHR_MERGE:    4020853
cpu0->LLC LOAD         ACCESS:    4887298 HIT:     225558 MISS:    4661740 MSHR_MERGE:      15965
cpu0->LLC RFO          ACCESS:    2559275 HIT:      98379 MISS:    2460896 MSHR_MERGE:          2
cpu0->LLC PREFETCH     ACCESS:   16598080 HIT:    1468364 MISS:   15129716 MSHR_MERGE:    4004886
cpu0->LLC WRITE        ACCESS:    4081154 HIT:     462381 MISS:    3618773 MSHR_MERGE:          0
cpu0->LLC TRANSLATION  ACCESS:     235076 HIT:       1577 MISS:     233499 MSHR_MERGE:          0
cpu0->LLC PREFETCH REQUESTED:    9214824 ISSUED:    9156292 USEFUL:     684143 USELESS:    4049588
cpu0->LLC AVERAGE MISS LATENCY: 260 cycles

DRAM Statistics

Channel 0 RQ ROW_BUFFER_HIT:     406601
  ROW_BUFFER_MISS:   18057295
  AVG DBUS CONGESTED CYCLE: 9.871
Channel 0 WQ ROW_BUFFER_HIT:     560286
  ROW_BUFFER_MISS:    3287219
  FULL:    1049987
Channel 0 REFRESHES ISSUED:      58277
