[VMEM] WARNING: physical memory size is smaller than virtual memory size.

*** ChampSim Multicore Out-of-Order Simulator ***
Warmup Instructions: 50000000
Simulation Instructions: 200000000
Number of CPUs: 1
Page size: 4096
Core 0: /local-ssd/ben/dpc4-traces/Graph/GAP/bc-0.trace.gz
 L1D Berti prefetcher
Off-chip DRAM Size: 64 GiB Channels: 1 Width: 64-bit Data Rate: 4807 MT/s
Heartbeat CPU 0 instructions: 500003 cycles: 508678 heartbeat IPC: 0.9829 cumulative IPC: 0.9829 (Simulation time: 00 hr 00 min 04 sec)
Heartbeat CPU 0 instructions: 1000003 cycles: 1015094 heartbeat IPC: 0.9873 cumulative IPC: 0.9851 (Simulation time: 00 hr 00 min 08 sec)
Heartbeat CPU 0 instructions: 1500003 cycles: 1521030 heartbeat IPC: 0.9883 cumulative IPC: 0.9862 (Simulation time: 00 hr 00 min 12 sec)
Heartbeat CPU 0 instructions: 2000010 cycles: 1877178 heartbeat IPC: 1.404 cumulative IPC: 1.065 (Simulation time: 00 hr 00 min 15 sec)
Heartbeat CPU 0 instructions: 2500015 cycles: 1985999 heartbeat IPC: 4.595 cumulative IPC: 1.259 (Simulation time: 00 hr 00 min 17 sec)
Heartbeat CPU 0 instructions: 3000019 cycles: 2091122 heartbeat IPC: 4.756 cumulative IPC: 1.435 (Simulation time: 00 hr 00 min 20 sec)
Heartbeat CPU 0 instructions: 3500026 cycles: 2199014 heartbeat IPC: 4.634 cumulative IPC: 1.592 (Simulation time: 00 hr 00 min 22 sec)
Heartbeat CPU 0 instructions: 4000026 cycles: 2301641 heartbeat IPC: 4.872 cumulative IPC: 1.738 (Simulation time: 00 hr 00 min 24 sec)
Heartbeat CPU 0 instructions: 4500033 cycles: 2414240 heartbeat IPC: 4.441 cumulative IPC: 1.864 (Simulation time: 00 hr 00 min 26 sec)
Heartbeat CPU 0 instructions: 5000039 cycles: 2526086 heartbeat IPC: 4.47 cumulative IPC: 1.979 (Simulation time: 00 hr 00 min 29 sec)
Heartbeat CPU 0 instructions: 5500042 cycles: 2631924 heartbeat IPC: 4.724 cumulative IPC: 2.09 (Simulation time: 00 hr 00 min 31 sec)
Heartbeat CPU 0 instructions: 6000047 cycles: 2743883 heartbeat IPC: 4.466 cumulative IPC: 2.187 (Simulation time: 00 hr 00 min 34 sec)
Heartbeat CPU 0 instructions: 6500050 cycles: 2850329 heartbeat IPC: 4.697 cumulative IPC: 2.28 (Simulation time: 00 hr 00 min 36 sec)
Heartbeat CPU 0 instructions: 7000053 cycles: 2959063 heartbeat IPC: 4.598 cumulative IPC: 2.366 (Simulation time: 00 hr 00 min 38 sec)
Heartbeat CPU 0 instructions: 7500053 cycles: 3061284 heartbeat IPC: 4.891 cumulative IPC: 2.45 (Simulation time: 00 hr 00 min 40 sec)
Heartbeat CPU 0 instructions: 8000060 cycles: 3169217 heartbeat IPC: 4.633 cumulative IPC: 2.524 (Simulation time: 00 hr 00 min 42 sec)
Heartbeat CPU 0 instructions: 8500060 cycles: 3274346 heartbeat IPC: 4.756 cumulative IPC: 2.596 (Simulation time: 00 hr 00 min 44 sec)
Heartbeat CPU 0 instructions: 9000060 cycles: 3385933 heartbeat IPC: 4.481 cumulative IPC: 2.658 (Simulation time: 00 hr 00 min 47 sec)
Heartbeat CPU 0 instructions: 9500063 cycles: 3491965 heartbeat IPC: 4.716 cumulative IPC: 2.721 (Simulation time: 00 hr 00 min 49 sec)
Heartbeat CPU 0 instructions: 10000070 cycles: 3597065 heartbeat IPC: 4.757 cumulative IPC: 2.78 (Simulation time: 00 hr 00 min 52 sec)
Heartbeat CPU 0 instructions: 10500076 cycles: 3702785 heartbeat IPC: 4.73 cumulative IPC: 2.836 (Simulation time: 00 hr 00 min 54 sec)
Heartbeat CPU 0 instructions: 11000083 cycles: 3814864 heartbeat IPC: 4.461 cumulative IPC: 2.883 (Simulation time: 00 hr 00 min 57 sec)
Heartbeat CPU 0 instructions: 11500087 cycles: 3922007 heartbeat IPC: 4.667 cumulative IPC: 2.932 (Simulation time: 00 hr 00 min 59 sec)
Heartbeat CPU 0 instructions: 12000091 cycles: 4025645 heartbeat IPC: 4.825 cumulative IPC: 2.981 (Simulation time: 00 hr 01 min 01 sec)
Heartbeat CPU 0 instructions: 12500093 cycles: 4136621 heartbeat IPC: 4.505 cumulative IPC: 3.022 (Simulation time: 00 hr 01 min 04 sec)
Heartbeat CPU 0 instructions: 13000097 cycles: 4242782 heartbeat IPC: 4.71 cumulative IPC: 3.064 (Simulation time: 00 hr 01 min 06 sec)
Heartbeat CPU 0 instructions: 13500100 cycles: 4348535 heartbeat IPC: 4.728 cumulative IPC: 3.105 (Simulation time: 00 hr 01 min 09 sec)
Heartbeat CPU 0 instructions: 14000107 cycles: 4455207 heartbeat IPC: 4.687 cumulative IPC: 3.142 (Simulation time: 00 hr 01 min 11 sec)
Heartbeat CPU 0 instructions: 14500107 cycles: 4566710 heartbeat IPC: 4.484 cumulative IPC: 3.175 (Simulation time: 00 hr 01 min 14 sec)
Heartbeat CPU 0 instructions: 15000107 cycles: 4674625 heartbeat IPC: 4.633 cumulative IPC: 3.209 (Simulation time: 00 hr 01 min 16 sec)
Heartbeat CPU 0 instructions: 15500107 cycles: 4781211 heartbeat IPC: 4.691 cumulative IPC: 3.242 (Simulation time: 00 hr 01 min 19 sec)
Heartbeat CPU 0 instructions: 16000112 cycles: 4888070 heartbeat IPC: 4.679 cumulative IPC: 3.273 (Simulation time: 00 hr 01 min 21 sec)
Heartbeat CPU 0 instructions: 16500115 cycles: 4994442 heartbeat IPC: 4.701 cumulative IPC: 3.304 (Simulation time: 00 hr 01 min 24 sec)
Heartbeat CPU 0 instructions: 17000122 cycles: 5105814 heartbeat IPC: 4.49 cumulative IPC: 3.33 (Simulation time: 00 hr 01 min 26 sec)
Heartbeat CPU 0 instructions: 17500128 cycles: 5211765 heartbeat IPC: 4.719 cumulative IPC: 3.358 (Simulation time: 00 hr 01 min 28 sec)
Heartbeat CPU 0 instructions: 18000130 cycles: 5315034 heartbeat IPC: 4.842 cumulative IPC: 3.387 (Simulation time: 00 hr 01 min 31 sec)
Heartbeat CPU 0 instructions: 18500131 cycles: 5421793 heartbeat IPC: 4.683 cumulative IPC: 3.412 (Simulation time: 00 hr 01 min 33 sec)
Heartbeat CPU 0 instructions: 19000133 cycles: 5534362 heartbeat IPC: 4.442 cumulative IPC: 3.433 (Simulation time: 00 hr 01 min 36 sec)
Heartbeat CPU 0 instructions: 19500139 cycles: 5642268 heartbeat IPC: 4.634 cumulative IPC: 3.456 (Simulation time: 00 hr 01 min 38 sec)
Heartbeat CPU 0 instructions: 20000144 cycles: 5749703 heartbeat IPC: 4.654 cumulative IPC: 3.478 (Simulation time: 00 hr 01 min 41 sec)
Heartbeat CPU 0 instructions: 20500151 cycles: 5855875 heartbeat IPC: 4.709 cumulative IPC: 3.501 (Simulation time: 00 hr 01 min 43 sec)
Heartbeat CPU 0 instructions: 21000153 cycles: 5960890 heartbeat IPC: 4.761 cumulative IPC: 3.523 (Simulation time: 00 hr 01 min 46 sec)
Heartbeat CPU 0 instructions: 21500155 cycles: 6067665 heartbeat IPC: 4.683 cumulative IPC: 3.543 (Simulation time: 00 hr 01 min 48 sec)
Heartbeat CPU 0 instructions: 22000157 cycles: 6180108 heartbeat IPC: 4.447 cumulative IPC: 3.56 (Simulation time: 00 hr 01 min 51 sec)
Heartbeat CPU 0 instructions: 22500162 cycles: 6285702 heartbeat IPC: 4.735 cumulative IPC: 3.58 (Simulation time: 00 hr 01 min 53 sec)
Heartbeat CPU 0 instructions: 23000164 cycles: 6391753 heartbeat IPC: 4.715 cumulative IPC: 3.598 (Simulation time: 00 hr 01 min 56 sec)
Heartbeat CPU 0 instructions: 23500171 cycles: 6497713 heartbeat IPC: 4.719 cumulative IPC: 3.617 (Simulation time: 00 hr 01 min 58 sec)
Heartbeat CPU 0 instructions: 24000176 cycles: 6602261 heartbeat IPC: 4.783 cumulative IPC: 3.635 (Simulation time: 00 hr 02 min 01 sec)
Heartbeat CPU 0 instructions: 24500181 cycles: 6708099 heartbeat IPC: 4.724 cumulative IPC: 3.652 (Simulation time: 00 hr 02 min 03 sec)
Heartbeat CPU 0 instructions: 25000186 cycles: 6819899 heartbeat IPC: 4.472 cumulative IPC: 3.666 (Simulation time: 00 hr 02 min 06 sec)
Heartbeat CPU 0 instructions: 25500192 cycles: 6927132 heartbeat IPC: 4.663 cumulative IPC: 3.681 (Simulation time: 00 hr 02 min 08 sec)
Heartbeat CPU 0 instructions: 26000197 cycles: 7036390 heartbeat IPC: 4.576 cumulative IPC: 3.695 (Simulation time: 00 hr 02 min 11 sec)
Heartbeat CPU 0 instructions: 26500203 cycles: 7143359 heartbeat IPC: 4.674 cumulative IPC: 3.71 (Simulation time: 00 hr 02 min 13 sec)
Heartbeat CPU 0 instructions: 27000203 cycles: 7250589 heartbeat IPC: 4.663 cumulative IPC: 3.724 (Simulation time: 00 hr 02 min 16 sec)
Heartbeat CPU 0 instructions: 27500203 cycles: 7356421 heartbeat IPC: 4.724 cumulative IPC: 3.738 (Simulation time: 00 hr 02 min 18 sec)
Heartbeat CPU 0 instructions: 28000206 cycles: 7464765 heartbeat IPC: 4.615 cumulative IPC: 3.751 (Simulation time: 00 hr 02 min 21 sec)
Heartbeat CPU 0 instructions: 28500209 cycles: 7578934 heartbeat IPC: 4.379 cumulative IPC: 3.76 (Simulation time: 00 hr 02 min 23 sec)
Heartbeat CPU 0 instructions: 29000211 cycles: 7685038 heartbeat IPC: 4.712 cumulative IPC: 3.774 (Simulation time: 00 hr 02 min 26 sec)
Heartbeat CPU 0 instructions: 29500216 cycles: 7792883 heartbeat IPC: 4.636 cumulative IPC: 3.786 (Simulation time: 00 hr 02 min 28 sec)
Heartbeat CPU 0 instructions: 30000216 cycles: 7898614 heartbeat IPC: 4.729 cumulative IPC: 3.798 (Simulation time: 00 hr 02 min 31 sec)
Heartbeat CPU 0 instructions: 30500222 cycles: 8004616 heartbeat IPC: 4.717 cumulative IPC: 3.81 (Simulation time: 00 hr 02 min 33 sec)
Heartbeat CPU 0 instructions: 31000228 cycles: 8111930 heartbeat IPC: 4.659 cumulative IPC: 3.822 (Simulation time: 00 hr 02 min 36 sec)
Heartbeat CPU 0 instructions: 31500230 cycles: 8217784 heartbeat IPC: 4.724 cumulative IPC: 3.833 (Simulation time: 00 hr 02 min 38 sec)
Heartbeat CPU 0 instructions: 32000232 cycles: 8323132 heartbeat IPC: 4.746 cumulative IPC: 3.845 (Simulation time: 00 hr 02 min 41 sec)
Heartbeat CPU 0 instructions: 32500232 cycles: 8432194 heartbeat IPC: 4.585 cumulative IPC: 3.854 (Simulation time: 00 hr 02 min 43 sec)
Heartbeat CPU 0 instructions: 33000234 cycles: 8538547 heartbeat IPC: 4.701 cumulative IPC: 3.865 (Simulation time: 00 hr 02 min 46 sec)
Heartbeat CPU 0 instructions: 33500235 cycles: 8645312 heartbeat IPC: 4.683 cumulative IPC: 3.875 (Simulation time: 00 hr 02 min 48 sec)
Heartbeat CPU 0 instructions: 34000240 cycles: 8752741 heartbeat IPC: 4.654 cumulative IPC: 3.885 (Simulation time: 00 hr 02 min 51 sec)
Heartbeat CPU 0 instructions: 34500245 cycles: 8860170 heartbeat IPC: 4.654 cumulative IPC: 3.894 (Simulation time: 00 hr 02 min 53 sec)
Heartbeat CPU 0 instructions: 35000252 cycles: 8967204 heartbeat IPC: 4.671 cumulative IPC: 3.903 (Simulation time: 00 hr 02 min 56 sec)
Heartbeat CPU 0 instructions: 35500259 cycles: 9072322 heartbeat IPC: 4.757 cumulative IPC: 3.913 (Simulation time: 00 hr 02 min 58 sec)
Heartbeat CPU 0 instructions: 36000264 cycles: 9177719 heartbeat IPC: 4.744 cumulative IPC: 3.923 (Simulation time: 00 hr 03 min 01 sec)
Heartbeat CPU 0 instructions: 36500266 cycles: 9289953 heartbeat IPC: 4.455 cumulative IPC: 3.929 (Simulation time: 00 hr 03 min 03 sec)
Heartbeat CPU 0 instructions: 37000272 cycles: 9398390 heartbeat IPC: 4.611 cumulative IPC: 3.937 (Simulation time: 00 hr 03 min 06 sec)
Heartbeat CPU 0 instructions: 37500279 cycles: 9503288 heartbeat IPC: 4.767 cumulative IPC: 3.946 (Simulation time: 00 hr 03 min 08 sec)
Heartbeat CPU 0 instructions: 38000284 cycles: 9609372 heartbeat IPC: 4.713 cumulative IPC: 3.955 (Simulation time: 00 hr 03 min 11 sec)
Heartbeat CPU 0 instructions: 38500285 cycles: 9716451 heartbeat IPC: 4.669 cumulative IPC: 3.962 (Simulation time: 00 hr 03 min 13 sec)
Heartbeat CPU 0 instructions: 39000292 cycles: 9825038 heartbeat IPC: 4.605 cumulative IPC: 3.969 (Simulation time: 00 hr 03 min 16 sec)
Heartbeat CPU 0 instructions: 39500293 cycles: 9928405 heartbeat IPC: 4.837 cumulative IPC: 3.979 (Simulation time: 00 hr 03 min 18 sec)
Heartbeat CPU 0 instructions: 40000299 cycles: 10034962 heartbeat IPC: 4.692 cumulative IPC: 3.986 (Simulation time: 00 hr 03 min 21 sec)
Heartbeat CPU 0 instructions: 40500303 cycles: 10142966 heartbeat IPC: 4.629 cumulative IPC: 3.993 (Simulation time: 00 hr 03 min 23 sec)
Heartbeat CPU 0 instructions: 41000303 cycles: 10253920 heartbeat IPC: 4.506 cumulative IPC: 3.999 (Simulation time: 00 hr 03 min 26 sec)
Heartbeat CPU 0 instructions: 41500304 cycles: 10359304 heartbeat IPC: 4.745 cumulative IPC: 4.006 (Simulation time: 00 hr 03 min 28 sec)
Heartbeat CPU 0 instructions: 42000304 cycles: 10464694 heartbeat IPC: 4.744 cumulative IPC: 4.014 (Simulation time: 00 hr 03 min 31 sec)
Heartbeat CPU 0 instructions: 42500308 cycles: 10570720 heartbeat IPC: 4.716 cumulative IPC: 4.021 (Simulation time: 00 hr 03 min 33 sec)
Heartbeat CPU 0 instructions: 43000315 cycles: 10674358 heartbeat IPC: 4.825 cumulative IPC: 4.028 (Simulation time: 00 hr 03 min 36 sec)
Heartbeat CPU 0 instructions: 43500318 cycles: 10780389 heartbeat IPC: 4.716 cumulative IPC: 4.035 (Simulation time: 00 hr 03 min 38 sec)
Heartbeat CPU 0 instructions: 44000321 cycles: 10886573 heartbeat IPC: 4.709 cumulative IPC: 4.042 (Simulation time: 00 hr 03 min 41 sec)
Heartbeat CPU 0 instructions: 44500325 cycles: 10991505 heartbeat IPC: 4.765 cumulative IPC: 4.049 (Simulation time: 00 hr 03 min 43 sec)
Heartbeat CPU 0 instructions: 45000332 cycles: 11098245 heartbeat IPC: 4.684 cumulative IPC: 4.055 (Simulation time: 00 hr 03 min 45 sec)
Heartbeat CPU 0 instructions: 45500334 cycles: 11207890 heartbeat IPC: 4.56 cumulative IPC: 4.06 (Simulation time: 00 hr 03 min 48 sec)
Heartbeat CPU 0 instructions: 46000337 cycles: 11315515 heartbeat IPC: 4.646 cumulative IPC: 4.065 (Simulation time: 00 hr 03 min 50 sec)
Heartbeat CPU 0 instructions: 46500339 cycles: 11420772 heartbeat IPC: 4.75 cumulative IPC: 4.072 (Simulation time: 00 hr 03 min 53 sec)
Heartbeat CPU 0 instructions: 47000341 cycles: 11526856 heartbeat IPC: 4.713 cumulative IPC: 4.077 (Simulation time: 00 hr 03 min 55 sec)
Heartbeat CPU 0 instructions: 47500346 cycles: 11635314 heartbeat IPC: 4.61 cumulative IPC: 4.082 (Simulation time: 00 hr 03 min 58 sec)
Heartbeat CPU 0 instructions: 48000346 cycles: 11741411 heartbeat IPC: 4.713 cumulative IPC: 4.088 (Simulation time: 00 hr 04 min 01 sec)
Heartbeat CPU 0 instructions: 48500352 cycles: 11848530 heartbeat IPC: 4.668 cumulative IPC: 4.093 (Simulation time: 00 hr 04 min 03 sec)
Heartbeat CPU 0 instructions: 49000359 cycles: 11954547 heartbeat IPC: 4.716 cumulative IPC: 4.099 (Simulation time: 00 hr 04 min 06 sec)
Heartbeat CPU 0 instructions: 49500360 cycles: 12062090 heartbeat IPC: 4.649 cumulative IPC: 4.104 (Simulation time: 00 hr 04 min 08 sec)
Warmup finished CPU 0 instructions: 50000007 cycles: 12168119 cumulative IPC: 4.109 (Simulation time: 00 hr 04 min 11 sec)
Warmup complete CPU 0 instructions: 50000007 cycles: 12168119 cumulative IPC: 4.109 (Simulation time: 00 hr 04 min 11 sec)
Heartbeat CPU 0 instructions: 50000362 cycles: 12169979 heartbeat IPC: 4.634 cumulative IPC: 0.1909 (Simulation time: 00 hr 04 min 11 sec)
Heartbeat CPU 0 instructions: 50500363 cycles: 14837372 heartbeat IPC: 0.1874 cumulative IPC: 0.1875 (Simulation time: 00 hr 04 min 32 sec)
Heartbeat CPU 0 instructions: 51000363 cycles: 17403429 heartbeat IPC: 0.1949 cumulative IPC: 0.1911 (Simulation time: 00 hr 04 min 52 sec)
Heartbeat CPU 0 instructions: 51500365 cycles: 19939042 heartbeat IPC: 0.1972 cumulative IPC: 0.1931 (Simulation time: 00 hr 05 min 12 sec)
Heartbeat CPU 0 instructions: 52000370 cycles: 22388718 heartbeat IPC: 0.2041 cumulative IPC: 0.1957 (Simulation time: 00 hr 05 min 31 sec)
Heartbeat CPU 0 instructions: 52500370 cycles: 24605723 heartbeat IPC: 0.2255 cumulative IPC: 0.201 (Simulation time: 00 hr 05 min 48 sec)
Heartbeat CPU 0 instructions: 53000372 cycles: 26778167 heartbeat IPC: 0.2302 cumulative IPC: 0.2054 (Simulation time: 00 hr 06 min 07 sec)
Heartbeat CPU 0 instructions: 53500372 cycles: 29418651 heartbeat IPC: 0.1894 cumulative IPC: 0.2029 (Simulation time: 00 hr 06 min 27 sec)
Heartbeat CPU 0 instructions: 54000377 cycles: 31866536 heartbeat IPC: 0.2043 cumulative IPC: 0.2031 (Simulation time: 00 hr 06 min 46 sec)
Heartbeat CPU 0 instructions: 54500379 cycles: 34273655 heartbeat IPC: 0.2077 cumulative IPC: 0.2036 (Simulation time: 00 hr 07 min 04 sec)
Heartbeat CPU 0 instructions: 55000381 cycles: 36691942 heartbeat IPC: 0.2068 cumulative IPC: 0.2039 (Simulation time: 00 hr 07 min 22 sec)
Heartbeat CPU 0 instructions: 55500383 cycles: 39212547 heartbeat IPC: 0.1984 cumulative IPC: 0.2034 (Simulation time: 00 hr 07 min 42 sec)
Heartbeat CPU 0 instructions: 56000385 cycles: 41735061 heartbeat IPC: 0.1982 cumulative IPC: 0.2029 (Simulation time: 00 hr 08 min 01 sec)
Heartbeat CPU 0 instructions: 56500389 cycles: 44323913 heartbeat IPC: 0.1931 cumulative IPC: 0.2022 (Simulation time: 00 hr 08 min 22 sec)
Heartbeat CPU 0 instructions: 57000390 cycles: 46777826 heartbeat IPC: 0.2038 cumulative IPC: 0.2023 (Simulation time: 00 hr 08 min 41 sec)
Heartbeat CPU 0 instructions: 57500390 cycles: 49329151 heartbeat IPC: 0.196 cumulative IPC: 0.2018 (Simulation time: 00 hr 09 min 01 sec)
Heartbeat CPU 0 instructions: 58000390 cycles: 51957816 heartbeat IPC: 0.1902 cumulative IPC: 0.2011 (Simulation time: 00 hr 09 min 23 sec)
Heartbeat CPU 0 instructions: 58500390 cycles: 53817416 heartbeat IPC: 0.2689 cumulative IPC: 0.2041 (Simulation time: 00 hr 09 min 39 sec)
Heartbeat CPU 0 instructions: 59000391 cycles: 56418918 heartbeat IPC: 0.1922 cumulative IPC: 0.2034 (Simulation time: 00 hr 09 min 59 sec)
Heartbeat CPU 0 instructions: 59500393 cycles: 58694615 heartbeat IPC: 0.2197 cumulative IPC: 0.2042 (Simulation time: 00 hr 10 min 17 sec)
Heartbeat CPU 0 instructions: 60000393 cycles: 60881842 heartbeat IPC: 0.2286 cumulative IPC: 0.2053 (Simulation time: 00 hr 10 min 35 sec)
Heartbeat CPU 0 instructions: 60500393 cycles: 63431742 heartbeat IPC: 0.1961 cumulative IPC: 0.2048 (Simulation time: 00 hr 10 min 54 sec)
Heartbeat CPU 0 instructions: 61000396 cycles: 65494969 heartbeat IPC: 0.2423 cumulative IPC: 0.2063 (Simulation time: 00 hr 11 min 12 sec)
Heartbeat CPU 0 instructions: 61500402 cycles: 67978519 heartbeat IPC: 0.2013 cumulative IPC: 0.2061 (Simulation time: 00 hr 11 min 32 sec)
Heartbeat CPU 0 instructions: 62000408 cycles: 70095276 heartbeat IPC: 0.2362 cumulative IPC: 0.2072 (Simulation time: 00 hr 11 min 50 sec)
Heartbeat CPU 0 instructions: 62500408 cycles: 72382562 heartbeat IPC: 0.2186 cumulative IPC: 0.2076 (Simulation time: 00 hr 12 min 07 sec)
Heartbeat CPU 0 instructions: 63000413 cycles: 75030632 heartbeat IPC: 0.1888 cumulative IPC: 0.2068 (Simulation time: 00 hr 12 min 28 sec)
Heartbeat CPU 0 instructions: 63500418 cycles: 77502802 heartbeat IPC: 0.2023 cumulative IPC: 0.2066 (Simulation time: 00 hr 12 min 47 sec)
Heartbeat CPU 0 instructions: 64000419 cycles: 80067967 heartbeat IPC: 0.1949 cumulative IPC: 0.2062 (Simulation time: 00 hr 13 min 07 sec)
Heartbeat CPU 0 instructions: 64500421 cycles: 82708185 heartbeat IPC: 0.1894 cumulative IPC: 0.2056 (Simulation time: 00 hr 13 min 28 sec)
Heartbeat CPU 0 instructions: 65000421 cycles: 85235471 heartbeat IPC: 0.1978 cumulative IPC: 0.2053 (Simulation time: 00 hr 13 min 48 sec)
Heartbeat CPU 0 instructions: 65500423 cycles: 87721063 heartbeat IPC: 0.2012 cumulative IPC: 0.2052 (Simulation time: 00 hr 14 min 07 sec)
Heartbeat CPU 0 instructions: 66000423 cycles: 90314336 heartbeat IPC: 0.1928 cumulative IPC: 0.2047 (Simulation time: 00 hr 14 min 27 sec)
Heartbeat CPU 0 instructions: 66500426 cycles: 92627727 heartbeat IPC: 0.2161 cumulative IPC: 0.2051 (Simulation time: 00 hr 14 min 45 sec)
Heartbeat CPU 0 instructions: 67000428 cycles: 95132272 heartbeat IPC: 0.1996 cumulative IPC: 0.2049 (Simulation time: 00 hr 15 min 04 sec)
Heartbeat CPU 0 instructions: 67500428 cycles: 97704630 heartbeat IPC: 0.1944 cumulative IPC: 0.2046 (Simulation time: 00 hr 15 min 24 sec)
Heartbeat CPU 0 instructions: 68000432 cycles: 100229891 heartbeat IPC: 0.198 cumulative IPC: 0.2044 (Simulation time: 00 hr 15 min 44 sec)
Heartbeat CPU 0 instructions: 68500439 cycles: 102748434 heartbeat IPC: 0.1985 cumulative IPC: 0.2042 (Simulation time: 00 hr 16 min 03 sec)
Heartbeat CPU 0 instructions: 69000439 cycles: 104607214 heartbeat IPC: 0.269 cumulative IPC: 0.2055 (Simulation time: 00 hr 16 min 19 sec)
Heartbeat CPU 0 instructions: 69500444 cycles: 107092257 heartbeat IPC: 0.2012 cumulative IPC: 0.2054 (Simulation time: 00 hr 16 min 38 sec)
Heartbeat CPU 0 instructions: 70000446 cycles: 109725101 heartbeat IPC: 0.1899 cumulative IPC: 0.205 (Simulation time: 00 hr 16 min 59 sec)
Heartbeat CPU 0 instructions: 70500448 cycles: 112234847 heartbeat IPC: 0.1992 cumulative IPC: 0.2049 (Simulation time: 00 hr 17 min 18 sec)
Heartbeat CPU 0 instructions: 71000449 cycles: 114673158 heartbeat IPC: 0.2051 cumulative IPC: 0.2049 (Simulation time: 00 hr 17 min 37 sec)
Heartbeat CPU 0 instructions: 71500452 cycles: 117117473 heartbeat IPC: 0.2046 cumulative IPC: 0.2049 (Simulation time: 00 hr 17 min 56 sec)
Heartbeat CPU 0 instructions: 72000453 cycles: 119177189 heartbeat IPC: 0.2428 cumulative IPC: 0.2056 (Simulation time: 00 hr 18 min 12 sec)
Heartbeat CPU 0 instructions: 72500453 cycles: 121588081 heartbeat IPC: 0.2074 cumulative IPC: 0.2056 (Simulation time: 00 hr 18 min 32 sec)
Heartbeat CPU 0 instructions: 73000455 cycles: 124127637 heartbeat IPC: 0.1969 cumulative IPC: 0.2054 (Simulation time: 00 hr 18 min 52 sec)
Heartbeat CPU 0 instructions: 73500455 cycles: 126662485 heartbeat IPC: 0.1973 cumulative IPC: 0.2053 (Simulation time: 00 hr 19 min 11 sec)
Heartbeat CPU 0 instructions: 74000460 cycles: 129243210 heartbeat IPC: 0.1937 cumulative IPC: 0.205 (Simulation time: 00 hr 19 min 31 sec)
Heartbeat CPU 0 instructions: 74500466 cycles: 131752494 heartbeat IPC: 0.1993 cumulative IPC: 0.2049 (Simulation time: 00 hr 19 min 51 sec)
Heartbeat CPU 0 instructions: 75000467 cycles: 134286894 heartbeat IPC: 0.1973 cumulative IPC: 0.2047 (Simulation time: 00 hr 20 min 10 sec)
Heartbeat CPU 0 instructions: 75500473 cycles: 136776358 heartbeat IPC: 0.2008 cumulative IPC: 0.2046 (Simulation time: 00 hr 20 min 29 sec)
Heartbeat CPU 0 instructions: 76000473 cycles: 138914661 heartbeat IPC: 0.2338 cumulative IPC: 0.2051 (Simulation time: 00 hr 20 min 47 sec)
Heartbeat CPU 0 instructions: 76500475 cycles: 141169398 heartbeat IPC: 0.2218 cumulative IPC: 0.2054 (Simulation time: 00 hr 21 min 04 sec)
Heartbeat CPU 0 instructions: 77000475 cycles: 143692762 heartbeat IPC: 0.1981 cumulative IPC: 0.2053 (Simulation time: 00 hr 21 min 23 sec)
Heartbeat CPU 0 instructions: 77500478 cycles: 146076641 heartbeat IPC: 0.2097 cumulative IPC: 0.2054 (Simulation time: 00 hr 21 min 40 sec)
Heartbeat CPU 0 instructions: 78000485 cycles: 148649396 heartbeat IPC: 0.1943 cumulative IPC: 0.2052 (Simulation time: 00 hr 22 min 00 sec)
Heartbeat CPU 0 instructions: 78500488 cycles: 151024321 heartbeat IPC: 0.2105 cumulative IPC: 0.2053 (Simulation time: 00 hr 22 min 17 sec)
Heartbeat CPU 0 instructions: 79000491 cycles: 153440437 heartbeat IPC: 0.2069 cumulative IPC: 0.2053 (Simulation time: 00 hr 22 min 34 sec)
Heartbeat CPU 0 instructions: 79500491 cycles: 155959262 heartbeat IPC: 0.1985 cumulative IPC: 0.2052 (Simulation time: 00 hr 22 min 53 sec)
Heartbeat CPU 0 instructions: 80000494 cycles: 158461344 heartbeat IPC: 0.1998 cumulative IPC: 0.2051 (Simulation time: 00 hr 23 min 12 sec)
Heartbeat CPU 0 instructions: 80500496 cycles: 161023865 heartbeat IPC: 0.1951 cumulative IPC: 0.2049 (Simulation time: 00 hr 23 min 30 sec)
Heartbeat CPU 0 instructions: 81000497 cycles: 163502326 heartbeat IPC: 0.2017 cumulative IPC: 0.2048 (Simulation time: 00 hr 23 min 49 sec)
Heartbeat CPU 0 instructions: 81500497 cycles: 166121889 heartbeat IPC: 0.1909 cumulative IPC: 0.2046 (Simulation time: 00 hr 24 min 08 sec)
Heartbeat CPU 0 instructions: 82000497 cycles: 168687095 heartbeat IPC: 0.1949 cumulative IPC: 0.2045 (Simulation time: 00 hr 24 min 27 sec)
Heartbeat CPU 0 instructions: 82500500 cycles: 171076267 heartbeat IPC: 0.2093 cumulative IPC: 0.2045 (Simulation time: 00 hr 24 min 44 sec)
Heartbeat CPU 0 instructions: 83000507 cycles: 173492379 heartbeat IPC: 0.2069 cumulative IPC: 0.2046 (Simulation time: 00 hr 25 min 02 sec)
Heartbeat CPU 0 instructions: 83500510 cycles: 175469463 heartbeat IPC: 0.2529 cumulative IPC: 0.2051 (Simulation time: 00 hr 25 min 18 sec)
Heartbeat CPU 0 instructions: 84000515 cycles: 178138264 heartbeat IPC: 0.1874 cumulative IPC: 0.2049 (Simulation time: 00 hr 25 min 37 sec)
Heartbeat CPU 0 instructions: 84500520 cycles: 180544022 heartbeat IPC: 0.2078 cumulative IPC: 0.2049 (Simulation time: 00 hr 25 min 54 sec)
Heartbeat CPU 0 instructions: 85000523 cycles: 183012969 heartbeat IPC: 0.2025 cumulative IPC: 0.2049 (Simulation time: 00 hr 26 min 11 sec)
Heartbeat CPU 0 instructions: 85500529 cycles: 185547428 heartbeat IPC: 0.1973 cumulative IPC: 0.2048 (Simulation time: 00 hr 26 min 29 sec)
Heartbeat CPU 0 instructions: 86000531 cycles: 188205210 heartbeat IPC: 0.1881 cumulative IPC: 0.2045 (Simulation time: 00 hr 26 min 48 sec)
Heartbeat CPU 0 instructions: 86500533 cycles: 190798050 heartbeat IPC: 0.1928 cumulative IPC: 0.2043 (Simulation time: 00 hr 27 min 06 sec)
Heartbeat CPU 0 instructions: 87000536 cycles: 193271453 heartbeat IPC: 0.2022 cumulative IPC: 0.2043 (Simulation time: 00 hr 27 min 23 sec)
Heartbeat CPU 0 instructions: 87500536 cycles: 195791971 heartbeat IPC: 0.1984 cumulative IPC: 0.2042 (Simulation time: 00 hr 27 min 41 sec)
Heartbeat CPU 0 instructions: 88000543 cycles: 198441015 heartbeat IPC: 0.1887 cumulative IPC: 0.204 (Simulation time: 00 hr 27 min 59 sec)
Heartbeat CPU 0 instructions: 88500543 cycles: 200892017 heartbeat IPC: 0.204 cumulative IPC: 0.204 (Simulation time: 00 hr 28 min 16 sec)
Heartbeat CPU 0 instructions: 89000544 cycles: 203431010 heartbeat IPC: 0.1969 cumulative IPC: 0.2039 (Simulation time: 00 hr 28 min 34 sec)
Heartbeat CPU 0 instructions: 89500545 cycles: 205835919 heartbeat IPC: 0.2079 cumulative IPC: 0.204 (Simulation time: 00 hr 28 min 50 sec)
Heartbeat CPU 0 instructions: 90000552 cycles: 208341113 heartbeat IPC: 0.1996 cumulative IPC: 0.2039 (Simulation time: 00 hr 29 min 07 sec)
Heartbeat CPU 0 instructions: 90500555 cycles: 210889346 heartbeat IPC: 0.1962 cumulative IPC: 0.2038 (Simulation time: 00 hr 29 min 25 sec)
Heartbeat CPU 0 instructions: 91000558 cycles: 213480720 heartbeat IPC: 0.1929 cumulative IPC: 0.2037 (Simulation time: 00 hr 29 min 43 sec)
Heartbeat CPU 0 instructions: 91500565 cycles: 215886203 heartbeat IPC: 0.2079 cumulative IPC: 0.2037 (Simulation time: 00 hr 29 min 59 sec)
Heartbeat CPU 0 instructions: 92000568 cycles: 218500874 heartbeat IPC: 0.1912 cumulative IPC: 0.2036 (Simulation time: 00 hr 30 min 18 sec)
Heartbeat CPU 0 instructions: 92500569 cycles: 220947613 heartbeat IPC: 0.2044 cumulative IPC: 0.2036 (Simulation time: 00 hr 30 min 35 sec)
Heartbeat CPU 0 instructions: 93000576 cycles: 222877541 heartbeat IPC: 0.2591 cumulative IPC: 0.2041 (Simulation time: 00 hr 30 min 50 sec)
Heartbeat CPU 0 instructions: 93500578 cycles: 225479746 heartbeat IPC: 0.1921 cumulative IPC: 0.2039 (Simulation time: 00 hr 31 min 07 sec)
Heartbeat CPU 0 instructions: 94000585 cycles: 227716338 heartbeat IPC: 0.2236 cumulative IPC: 0.2041 (Simulation time: 00 hr 31 min 23 sec)
Heartbeat CPU 0 instructions: 94500588 cycles: 229946380 heartbeat IPC: 0.2242 cumulative IPC: 0.2043 (Simulation time: 00 hr 31 min 39 sec)
Heartbeat CPU 0 instructions: 95000590 cycles: 232553343 heartbeat IPC: 0.1918 cumulative IPC: 0.2042 (Simulation time: 00 hr 31 min 57 sec)
Heartbeat CPU 0 instructions: 95500590 cycles: 234983134 heartbeat IPC: 0.2058 cumulative IPC: 0.2042 (Simulation time: 00 hr 32 min 13 sec)
Heartbeat CPU 0 instructions: 96000593 cycles: 237529206 heartbeat IPC: 0.1964 cumulative IPC: 0.2041 (Simulation time: 00 hr 32 min 30 sec)
Heartbeat CPU 0 instructions: 96500593 cycles: 239977226 heartbeat IPC: 0.2042 cumulative IPC: 0.2041 (Simulation time: 00 hr 32 min 47 sec)
Heartbeat CPU 0 instructions: 97000595 cycles: 242371339 heartbeat IPC: 0.2088 cumulative IPC: 0.2042 (Simulation time: 00 hr 33 min 03 sec)
Heartbeat CPU 0 instructions: 97500598 cycles: 244683425 heartbeat IPC: 0.2163 cumulative IPC: 0.2043 (Simulation time: 00 hr 33 min 18 sec)
Heartbeat CPU 0 instructions: 98000603 cycles: 247105508 heartbeat IPC: 0.2064 cumulative IPC: 0.2043 (Simulation time: 00 hr 33 min 34 sec)
Heartbeat CPU 0 instructions: 98500604 cycles: 249523136 heartbeat IPC: 0.2068 cumulative IPC: 0.2043 (Simulation time: 00 hr 33 min 50 sec)
Heartbeat CPU 0 instructions: 99000604 cycles: 251897687 heartbeat IPC: 0.2106 cumulative IPC: 0.2044 (Simulation time: 00 hr 34 min 06 sec)
Heartbeat CPU 0 instructions: 99500611 cycles: 254314150 heartbeat IPC: 0.2069 cumulative IPC: 0.2044 (Simulation time: 00 hr 34 min 22 sec)
Heartbeat CPU 0 instructions: 100000612 cycles: 256712348 heartbeat IPC: 0.2085 cumulative IPC: 0.2045 (Simulation time: 00 hr 34 min 38 sec)
Heartbeat CPU 0 instructions: 100500613 cycles: 259196660 heartbeat IPC: 0.2013 cumulative IPC: 0.2044 (Simulation time: 00 hr 34 min 55 sec)
Heartbeat CPU 0 instructions: 101000613 cycles: 261729232 heartbeat IPC: 0.1974 cumulative IPC: 0.2044 (Simulation time: 00 hr 35 min 13 sec)
Heartbeat CPU 0 instructions: 101500620 cycles: 264064536 heartbeat IPC: 0.2141 cumulative IPC: 0.2045 (Simulation time: 00 hr 35 min 28 sec)
Heartbeat CPU 0 instructions: 102000626 cycles: 266554076 heartbeat IPC: 0.2008 cumulative IPC: 0.2044 (Simulation time: 00 hr 35 min 45 sec)
Heartbeat CPU 0 instructions: 102500633 cycles: 269097420 heartbeat IPC: 0.1966 cumulative IPC: 0.2043 (Simulation time: 00 hr 36 min 03 sec)
Heartbeat CPU 0 instructions: 103000640 cycles: 271500003 heartbeat IPC: 0.2081 cumulative IPC: 0.2044 (Simulation time: 00 hr 36 min 19 sec)
Heartbeat CPU 0 instructions: 103500642 cycles: 273893543 heartbeat IPC: 0.2089 cumulative IPC: 0.2044 (Simulation time: 00 hr 36 min 35 sec)
Heartbeat CPU 0 instructions: 104000643 cycles: 276467852 heartbeat IPC: 0.1942 cumulative IPC: 0.2043 (Simulation time: 00 hr 36 min 53 sec)
Heartbeat CPU 0 instructions: 104500650 cycles: 278991870 heartbeat IPC: 0.1981 cumulative IPC: 0.2043 (Simulation time: 00 hr 37 min 10 sec)
Heartbeat CPU 0 instructions: 105000651 cycles: 281361332 heartbeat IPC: 0.211 cumulative IPC: 0.2043 (Simulation time: 00 hr 37 min 26 sec)
Heartbeat CPU 0 instructions: 105500653 cycles: 283956070 heartbeat IPC: 0.1927 cumulative IPC: 0.2042 (Simulation time: 00 hr 37 min 44 sec)
Heartbeat CPU 0 instructions: 106000655 cycles: 286447721 heartbeat IPC: 0.2007 cumulative IPC: 0.2042 (Simulation time: 00 hr 38 min 01 sec)
Heartbeat CPU 0 instructions: 106500662 cycles: 288683245 heartbeat IPC: 0.2237 cumulative IPC: 0.2043 (Simulation time: 00 hr 38 min 16 sec)
Heartbeat CPU 0 instructions: 107000662 cycles: 291143498 heartbeat IPC: 0.2032 cumulative IPC: 0.2043 (Simulation time: 00 hr 38 min 33 sec)
Heartbeat CPU 0 instructions: 107500664 cycles: 293529486 heartbeat IPC: 0.2096 cumulative IPC: 0.2044 (Simulation time: 00 hr 38 min 48 sec)
Heartbeat CPU 0 instructions: 108000665 cycles: 295994240 heartbeat IPC: 0.2029 cumulative IPC: 0.2044 (Simulation time: 00 hr 39 min 05 sec)
Heartbeat CPU 0 instructions: 108500666 cycles: 298480460 heartbeat IPC: 0.2011 cumulative IPC: 0.2043 (Simulation time: 00 hr 39 min 22 sec)
Heartbeat CPU 0 instructions: 109000672 cycles: 300816357 heartbeat IPC: 0.2141 cumulative IPC: 0.2044 (Simulation time: 00 hr 39 min 38 sec)
Heartbeat CPU 0 instructions: 109500675 cycles: 303221099 heartbeat IPC: 0.2079 cumulative IPC: 0.2044 (Simulation time: 00 hr 39 min 54 sec)
Heartbeat CPU 0 instructions: 110000679 cycles: 305581073 heartbeat IPC: 0.2119 cumulative IPC: 0.2045 (Simulation time: 00 hr 40 min 09 sec)
Heartbeat CPU 0 instructions: 110500680 cycles: 308007975 heartbeat IPC: 0.206 cumulative IPC: 0.2045 (Simulation time: 00 hr 40 min 25 sec)
Heartbeat CPU 0 instructions: 111000686 cycles: 310422430 heartbeat IPC: 0.2071 cumulative IPC: 0.2045 (Simulation time: 00 hr 40 min 41 sec)
Heartbeat CPU 0 instructions: 111500692 cycles: 312850340 heartbeat IPC: 0.2059 cumulative IPC: 0.2045 (Simulation time: 00 hr 40 min 57 sec)
Heartbeat CPU 0 instructions: 112000694 cycles: 315225908 heartbeat IPC: 0.2105 cumulative IPC: 0.2046 (Simulation time: 00 hr 41 min 13 sec)
Heartbeat CPU 0 instructions: 112500697 cycles: 317751531 heartbeat IPC: 0.198 cumulative IPC: 0.2045 (Simulation time: 00 hr 41 min 30 sec)
Heartbeat CPU 0 instructions: 113000702 cycles: 320156545 heartbeat IPC: 0.2079 cumulative IPC: 0.2046 (Simulation time: 00 hr 41 min 46 sec)
Heartbeat CPU 0 instructions: 113500704 cycles: 322513141 heartbeat IPC: 0.2122 cumulative IPC: 0.2046 (Simulation time: 00 hr 42 min 02 sec)
Heartbeat CPU 0 instructions: 114000707 cycles: 324854665 heartbeat IPC: 0.2135 cumulative IPC: 0.2047 (Simulation time: 00 hr 42 min 17 sec)
Heartbeat CPU 0 instructions: 114500714 cycles: 327251390 heartbeat IPC: 0.2086 cumulative IPC: 0.2047 (Simulation time: 00 hr 42 min 33 sec)
Heartbeat CPU 0 instructions: 115000721 cycles: 329645252 heartbeat IPC: 0.2089 cumulative IPC: 0.2047 (Simulation time: 00 hr 42 min 49 sec)
Heartbeat CPU 0 instructions: 115500726 cycles: 331975116 heartbeat IPC: 0.2146 cumulative IPC: 0.2048 (Simulation time: 00 hr 43 min 04 sec)
Heartbeat CPU 0 instructions: 116000726 cycles: 334320011 heartbeat IPC: 0.2132 cumulative IPC: 0.2049 (Simulation time: 00 hr 43 min 20 sec)
Heartbeat CPU 0 instructions: 116500729 cycles: 336684930 heartbeat IPC: 0.2114 cumulative IPC: 0.2049 (Simulation time: 00 hr 43 min 35 sec)
Heartbeat CPU 0 instructions: 117000730 cycles: 339110587 heartbeat IPC: 0.2061 cumulative IPC: 0.2049 (Simulation time: 00 hr 43 min 51 sec)
Heartbeat CPU 0 instructions: 117500734 cycles: 341417686 heartbeat IPC: 0.2167 cumulative IPC: 0.205 (Simulation time: 00 hr 44 min 06 sec)
Heartbeat CPU 0 instructions: 118000740 cycles: 343713010 heartbeat IPC: 0.2178 cumulative IPC: 0.2051 (Simulation time: 00 hr 44 min 22 sec)
Heartbeat CPU 0 instructions: 118500744 cycles: 346008286 heartbeat IPC: 0.2178 cumulative IPC: 0.2052 (Simulation time: 00 hr 44 min 37 sec)
Heartbeat CPU 0 instructions: 119000745 cycles: 348438629 heartbeat IPC: 0.2057 cumulative IPC: 0.2052 (Simulation time: 00 hr 44 min 53 sec)
Heartbeat CPU 0 instructions: 119500749 cycles: 351012249 heartbeat IPC: 0.1943 cumulative IPC: 0.2051 (Simulation time: 00 hr 45 min 11 sec)
Heartbeat CPU 0 instructions: 120000749 cycles: 353308185 heartbeat IPC: 0.2178 cumulative IPC: 0.2052 (Simulation time: 00 hr 45 min 26 sec)
Heartbeat CPU 0 instructions: 120500750 cycles: 355659466 heartbeat IPC: 0.2127 cumulative IPC: 0.2052 (Simulation time: 00 hr 45 min 41 sec)
Heartbeat CPU 0 instructions: 121000750 cycles: 358073727 heartbeat IPC: 0.2071 cumulative IPC: 0.2053 (Simulation time: 00 hr 45 min 57 sec)
Heartbeat CPU 0 instructions: 121500752 cycles: 360447992 heartbeat IPC: 0.2106 cumulative IPC: 0.2053 (Simulation time: 00 hr 46 min 13 sec)
Heartbeat CPU 0 instructions: 122000755 cycles: 362829037 heartbeat IPC: 0.21 cumulative IPC: 0.2053 (Simulation time: 00 hr 46 min 28 sec)
Heartbeat CPU 0 instructions: 122500760 cycles: 365216888 heartbeat IPC: 0.2094 cumulative IPC: 0.2054 (Simulation time: 00 hr 46 min 44 sec)
Heartbeat CPU 0 instructions: 123000766 cycles: 367564680 heartbeat IPC: 0.213 cumulative IPC: 0.2054 (Simulation time: 00 hr 47 min 00 sec)
Heartbeat CPU 0 instructions: 123500772 cycles: 370094207 heartbeat IPC: 0.1977 cumulative IPC: 0.2054 (Simulation time: 00 hr 47 min 17 sec)
Heartbeat CPU 0 instructions: 124000777 cycles: 372465895 heartbeat IPC: 0.2108 cumulative IPC: 0.2054 (Simulation time: 00 hr 47 min 33 sec)
Heartbeat CPU 0 instructions: 124500778 cycles: 374754736 heartbeat IPC: 0.2185 cumulative IPC: 0.2055 (Simulation time: 00 hr 47 min 48 sec)
Heartbeat CPU 0 instructions: 125000780 cycles: 377141486 heartbeat IPC: 0.2095 cumulative IPC: 0.2055 (Simulation time: 00 hr 48 min 03 sec)
Heartbeat CPU 0 instructions: 125500780 cycles: 379700592 heartbeat IPC: 0.1954 cumulative IPC: 0.2054 (Simulation time: 00 hr 48 min 21 sec)
Heartbeat CPU 0 instructions: 126000782 cycles: 382004229 heartbeat IPC: 0.217 cumulative IPC: 0.2055 (Simulation time: 00 hr 48 min 36 sec)
Heartbeat CPU 0 instructions: 126500782 cycles: 384496518 heartbeat IPC: 0.2006 cumulative IPC: 0.2055 (Simulation time: 00 hr 48 min 53 sec)
Heartbeat CPU 0 instructions: 127000786 cycles: 386816213 heartbeat IPC: 0.2155 cumulative IPC: 0.2055 (Simulation time: 00 hr 49 min 08 sec)
Heartbeat CPU 0 instructions: 127500788 cycles: 389285152 heartbeat IPC: 0.2025 cumulative IPC: 0.2055 (Simulation time: 00 hr 49 min 25 sec)
Heartbeat CPU 0 instructions: 128000793 cycles: 391805065 heartbeat IPC: 0.1984 cumulative IPC: 0.2055 (Simulation time: 00 hr 49 min 42 sec)
Heartbeat CPU 0 instructions: 128500794 cycles: 394116621 heartbeat IPC: 0.2163 cumulative IPC: 0.2055 (Simulation time: 00 hr 49 min 58 sec)
Heartbeat CPU 0 instructions: 129000799 cycles: 396616868 heartbeat IPC: 0.2 cumulative IPC: 0.2055 (Simulation time: 00 hr 50 min 15 sec)
Heartbeat CPU 0 instructions: 129500805 cycles: 399138170 heartbeat IPC: 0.1983 cumulative IPC: 0.2054 (Simulation time: 00 hr 50 min 32 sec)
Heartbeat CPU 0 instructions: 130000805 cycles: 401434686 heartbeat IPC: 0.2177 cumulative IPC: 0.2055 (Simulation time: 00 hr 50 min 47 sec)
Heartbeat CPU 0 instructions: 130500806 cycles: 403813210 heartbeat IPC: 0.2102 cumulative IPC: 0.2055 (Simulation time: 00 hr 51 min 02 sec)
Heartbeat CPU 0 instructions: 131000806 cycles: 406107469 heartbeat IPC: 0.2179 cumulative IPC: 0.2056 (Simulation time: 00 hr 51 min 18 sec)
Heartbeat CPU 0 instructions: 131500807 cycles: 408497431 heartbeat IPC: 0.2092 cumulative IPC: 0.2056 (Simulation time: 00 hr 51 min 33 sec)
Heartbeat CPU 0 instructions: 132000807 cycles: 411028897 heartbeat IPC: 0.1975 cumulative IPC: 0.2056 (Simulation time: 00 hr 51 min 51 sec)
Heartbeat CPU 0 instructions: 132500814 cycles: 413373070 heartbeat IPC: 0.2133 cumulative IPC: 0.2056 (Simulation time: 00 hr 52 min 06 sec)
Heartbeat CPU 0 instructions: 133000817 cycles: 415741434 heartbeat IPC: 0.2111 cumulative IPC: 0.2057 (Simulation time: 00 hr 52 min 22 sec)
Heartbeat CPU 0 instructions: 133500823 cycles: 418402961 heartbeat IPC: 0.1879 cumulative IPC: 0.2055 (Simulation time: 00 hr 52 min 40 sec)
Heartbeat CPU 0 instructions: 134000829 cycles: 420825873 heartbeat IPC: 0.2064 cumulative IPC: 0.2056 (Simulation time: 00 hr 52 min 57 sec)
Heartbeat CPU 0 instructions: 134500833 cycles: 423121193 heartbeat IPC: 0.2178 cumulative IPC: 0.2056 (Simulation time: 00 hr 53 min 12 sec)
Heartbeat CPU 0 instructions: 135000839 cycles: 425505145 heartbeat IPC: 0.2097 cumulative IPC: 0.2056 (Simulation time: 00 hr 53 min 27 sec)
Heartbeat CPU 0 instructions: 135500840 cycles: 427843238 heartbeat IPC: 0.2138 cumulative IPC: 0.2057 (Simulation time: 00 hr 53 min 43 sec)
Heartbeat CPU 0 instructions: 136000844 cycles: 430364608 heartbeat IPC: 0.1983 cumulative IPC: 0.2056 (Simulation time: 00 hr 54 min 00 sec)
Heartbeat CPU 0 instructions: 136500850 cycles: 432679335 heartbeat IPC: 0.216 cumulative IPC: 0.2057 (Simulation time: 00 hr 54 min 15 sec)
Heartbeat CPU 0 instructions: 137000850 cycles: 435093105 heartbeat IPC: 0.2071 cumulative IPC: 0.2057 (Simulation time: 00 hr 54 min 31 sec)
Heartbeat CPU 0 instructions: 137500850 cycles: 437399825 heartbeat IPC: 0.2168 cumulative IPC: 0.2058 (Simulation time: 00 hr 54 min 46 sec)
Heartbeat CPU 0 instructions: 138000853 cycles: 439755851 heartbeat IPC: 0.2122 cumulative IPC: 0.2058 (Simulation time: 00 hr 55 min 02 sec)
Heartbeat CPU 0 instructions: 138500853 cycles: 442102513 heartbeat IPC: 0.2131 cumulative IPC: 0.2058 (Simulation time: 00 hr 55 min 17 sec)
Heartbeat CPU 0 instructions: 139000854 cycles: 444588278 heartbeat IPC: 0.2011 cumulative IPC: 0.2058 (Simulation time: 00 hr 55 min 34 sec)
Heartbeat CPU 0 instructions: 139500855 cycles: 447066332 heartbeat IPC: 0.2018 cumulative IPC: 0.2058 (Simulation time: 00 hr 55 min 51 sec)
Heartbeat CPU 0 instructions: 140000857 cycles: 449468768 heartbeat IPC: 0.2081 cumulative IPC: 0.2058 (Simulation time: 00 hr 56 min 07 sec)
Heartbeat CPU 0 instructions: 140500858 cycles: 451929633 heartbeat IPC: 0.2032 cumulative IPC: 0.2058 (Simulation time: 00 hr 56 min 24 sec)
Heartbeat CPU 0 instructions: 141000861 cycles: 454396621 heartbeat IPC: 0.2027 cumulative IPC: 0.2058 (Simulation time: 00 hr 56 min 40 sec)
Heartbeat CPU 0 instructions: 141500865 cycles: 456791901 heartbeat IPC: 0.2087 cumulative IPC: 0.2058 (Simulation time: 00 hr 56 min 56 sec)
Heartbeat CPU 0 instructions: 142000869 cycles: 459099457 heartbeat IPC: 0.2167 cumulative IPC: 0.2059 (Simulation time: 00 hr 57 min 11 sec)
Heartbeat CPU 0 instructions: 142500871 cycles: 461471053 heartbeat IPC: 0.2108 cumulative IPC: 0.2059 (Simulation time: 00 hr 57 min 26 sec)
Heartbeat CPU 0 instructions: 143000871 cycles: 463861596 heartbeat IPC: 0.2092 cumulative IPC: 0.2059 (Simulation time: 00 hr 57 min 42 sec)
Heartbeat CPU 0 instructions: 143500876 cycles: 466310266 heartbeat IPC: 0.2042 cumulative IPC: 0.2059 (Simulation time: 00 hr 57 min 58 sec)
Heartbeat CPU 0 instructions: 144000877 cycles: 468646599 heartbeat IPC: 0.214 cumulative IPC: 0.2059 (Simulation time: 00 hr 58 min 13 sec)
Heartbeat CPU 0 instructions: 144500878 cycles: 471039672 heartbeat IPC: 0.2089 cumulative IPC: 0.2059 (Simulation time: 00 hr 58 min 29 sec)
Heartbeat CPU 0 instructions: 145000878 cycles: 473336176 heartbeat IPC: 0.2177 cumulative IPC: 0.206 (Simulation time: 00 hr 58 min 44 sec)
Heartbeat CPU 0 instructions: 145500880 cycles: 475681145 heartbeat IPC: 0.2132 cumulative IPC: 0.206 (Simulation time: 00 hr 58 min 59 sec)
Heartbeat CPU 0 instructions: 146000881 cycles: 478119928 heartbeat IPC: 0.205 cumulative IPC: 0.206 (Simulation time: 00 hr 59 min 15 sec)
Heartbeat CPU 0 instructions: 146500885 cycles: 480606368 heartbeat IPC: 0.2011 cumulative IPC: 0.206 (Simulation time: 00 hr 59 min 32 sec)
Heartbeat CPU 0 instructions: 147000885 cycles: 483013528 heartbeat IPC: 0.2077 cumulative IPC: 0.206 (Simulation time: 00 hr 59 min 48 sec)
Heartbeat CPU 0 instructions: 147500889 cycles: 485316645 heartbeat IPC: 0.2171 cumulative IPC: 0.2061 (Simulation time: 01 hr 00 min 03 sec)
Heartbeat CPU 0 instructions: 148000889 cycles: 487679153 heartbeat IPC: 0.2116 cumulative IPC: 0.2061 (Simulation time: 01 hr 00 min 18 sec)
Heartbeat CPU 0 instructions: 148500894 cycles: 490074073 heartbeat IPC: 0.2088 cumulative IPC: 0.2061 (Simulation time: 01 hr 00 min 34 sec)
Heartbeat CPU 0 instructions: 149000898 cycles: 492585576 heartbeat IPC: 0.1991 cumulative IPC: 0.2061 (Simulation time: 01 hr 00 min 51 sec)
Heartbeat CPU 0 instructions: 149500902 cycles: 494932576 heartbeat IPC: 0.213 cumulative IPC: 0.2061 (Simulation time: 01 hr 01 min 06 sec)
Heartbeat CPU 0 instructions: 150000909 cycles: 497316863 heartbeat IPC: 0.2097 cumulative IPC: 0.2061 (Simulation time: 01 hr 01 min 22 sec)
Heartbeat CPU 0 instructions: 150500914 cycles: 499607310 heartbeat IPC: 0.2183 cumulative IPC: 0.2062 (Simulation time: 01 hr 01 min 37 sec)
Heartbeat CPU 0 instructions: 151000914 cycles: 501921581 heartbeat IPC: 0.2161 cumulative IPC: 0.2062 (Simulation time: 01 hr 01 min 52 sec)
Heartbeat CPU 0 instructions: 151500915 cycles: 504208089 heartbeat IPC: 0.2187 cumulative IPC: 0.2063 (Simulation time: 01 hr 02 min 07 sec)
Heartbeat CPU 0 instructions: 152000915 cycles: 506499896 heartbeat IPC: 0.2182 cumulative IPC: 0.2063 (Simulation time: 01 hr 02 min 22 sec)
Heartbeat CPU 0 instructions: 152500916 cycles: 508847426 heartbeat IPC: 0.213 cumulative IPC: 0.2064 (Simulation time: 01 hr 02 min 37 sec)
Heartbeat CPU 0 instructions: 153000920 cycles: 511231168 heartbeat IPC: 0.2098 cumulative IPC: 0.2064 (Simulation time: 01 hr 02 min 53 sec)
Heartbeat CPU 0 instructions: 153500920 cycles: 513512602 heartbeat IPC: 0.2192 cumulative IPC: 0.2064 (Simulation time: 01 hr 03 min 07 sec)
Heartbeat CPU 0 instructions: 154000921 cycles: 515816773 heartbeat IPC: 0.217 cumulative IPC: 0.2065 (Simulation time: 01 hr 03 min 22 sec)
Heartbeat CPU 0 instructions: 154500921 cycles: 518125444 heartbeat IPC: 0.2166 cumulative IPC: 0.2065 (Simulation time: 01 hr 03 min 37 sec)
Heartbeat CPU 0 instructions: 155000922 cycles: 520444411 heartbeat IPC: 0.2156 cumulative IPC: 0.2066 (Simulation time: 01 hr 03 min 53 sec)
Heartbeat CPU 0 instructions: 155500922 cycles: 522799523 heartbeat IPC: 0.2123 cumulative IPC: 0.2066 (Simulation time: 01 hr 04 min 08 sec)
Heartbeat CPU 0 instructions: 156000922 cycles: 525080688 heartbeat IPC: 0.2192 cumulative IPC: 0.2067 (Simulation time: 01 hr 04 min 23 sec)
Heartbeat CPU 0 instructions: 156500922 cycles: 527393717 heartbeat IPC: 0.2162 cumulative IPC: 0.2067 (Simulation time: 01 hr 04 min 38 sec)
Heartbeat CPU 0 instructions: 157000922 cycles: 529721426 heartbeat IPC: 0.2148 cumulative IPC: 0.2067 (Simulation time: 01 hr 04 min 53 sec)
Heartbeat CPU 0 instructions: 157500922 cycles: 532063602 heartbeat IPC: 0.2135 cumulative IPC: 0.2068 (Simulation time: 01 hr 05 min 08 sec)
Heartbeat CPU 0 instructions: 158000922 cycles: 534439584 heartbeat IPC: 0.2104 cumulative IPC: 0.2068 (Simulation time: 01 hr 05 min 24 sec)
Heartbeat CPU 0 instructions: 158500929 cycles: 536769705 heartbeat IPC: 0.2146 cumulative IPC: 0.2068 (Simulation time: 01 hr 05 min 39 sec)
Heartbeat CPU 0 instructions: 159000931 cycles: 539150873 heartbeat IPC: 0.21 cumulative IPC: 0.2068 (Simulation time: 01 hr 05 min 55 sec)
Heartbeat CPU 0 instructions: 159500931 cycles: 541544365 heartbeat IPC: 0.2089 cumulative IPC: 0.2068 (Simulation time: 01 hr 06 min 10 sec)
Heartbeat CPU 0 instructions: 160000931 cycles: 543862755 heartbeat IPC: 0.2157 cumulative IPC: 0.2069 (Simulation time: 01 hr 06 min 25 sec)
Heartbeat CPU 0 instructions: 160500938 cycles: 546163266 heartbeat IPC: 0.2173 cumulative IPC: 0.2069 (Simulation time: 01 hr 06 min 40 sec)
Heartbeat CPU 0 instructions: 161000940 cycles: 548465335 heartbeat IPC: 0.2172 cumulative IPC: 0.207 (Simulation time: 01 hr 06 min 55 sec)
Heartbeat CPU 0 instructions: 161500940 cycles: 550734866 heartbeat IPC: 0.2203 cumulative IPC: 0.207 (Simulation time: 01 hr 07 min 10 sec)
Heartbeat CPU 0 instructions: 162000943 cycles: 553099622 heartbeat IPC: 0.2114 cumulative IPC: 0.2071 (Simulation time: 01 hr 07 min 25 sec)
Heartbeat CPU 0 instructions: 162500943 cycles: 555410897 heartbeat IPC: 0.2163 cumulative IPC: 0.2071 (Simulation time: 01 hr 07 min 40 sec)
Heartbeat CPU 0 instructions: 163000944 cycles: 557740744 heartbeat IPC: 0.2146 cumulative IPC: 0.2071 (Simulation time: 01 hr 07 min 55 sec)
Heartbeat CPU 0 instructions: 163500948 cycles: 560117297 heartbeat IPC: 0.2104 cumulative IPC: 0.2071 (Simulation time: 01 hr 08 min 11 sec)
Heartbeat CPU 0 instructions: 164000949 cycles: 562467674 heartbeat IPC: 0.2127 cumulative IPC: 0.2072 (Simulation time: 01 hr 08 min 26 sec)
Heartbeat CPU 0 instructions: 164500950 cycles: 564837998 heartbeat IPC: 0.2109 cumulative IPC: 0.2072 (Simulation time: 01 hr 08 min 42 sec)
Heartbeat CPU 0 instructions: 165000952 cycles: 567203795 heartbeat IPC: 0.2113 cumulative IPC: 0.2072 (Simulation time: 01 hr 08 min 57 sec)
Heartbeat CPU 0 instructions: 165500957 cycles: 569502136 heartbeat IPC: 0.2176 cumulative IPC: 0.2072 (Simulation time: 01 hr 09 min 12 sec)
Heartbeat CPU 0 instructions: 166000963 cycles: 571770123 heartbeat IPC: 0.2205 cumulative IPC: 0.2073 (Simulation time: 01 hr 09 min 27 sec)
Heartbeat CPU 0 instructions: 166500968 cycles: 574150174 heartbeat IPC: 0.2101 cumulative IPC: 0.2073 (Simulation time: 01 hr 09 min 42 sec)
Heartbeat CPU 0 instructions: 167000972 cycles: 576783146 heartbeat IPC: 0.1899 cumulative IPC: 0.2072 (Simulation time: 01 hr 10 min 01 sec)
Heartbeat CPU 0 instructions: 167500977 cycles: 579107952 heartbeat IPC: 0.2151 cumulative IPC: 0.2073 (Simulation time: 01 hr 10 min 16 sec)
Heartbeat CPU 0 instructions: 168000977 cycles: 581356601 heartbeat IPC: 0.2224 cumulative IPC: 0.2073 (Simulation time: 01 hr 10 min 30 sec)
Heartbeat CPU 0 instructions: 168500981 cycles: 583658858 heartbeat IPC: 0.2172 cumulative IPC: 0.2074 (Simulation time: 01 hr 10 min 45 sec)
Heartbeat CPU 0 instructions: 169000987 cycles: 585993491 heartbeat IPC: 0.2142 cumulative IPC: 0.2074 (Simulation time: 01 hr 11 min 00 sec)
Heartbeat CPU 0 instructions: 169500988 cycles: 588388901 heartbeat IPC: 0.2087 cumulative IPC: 0.2074 (Simulation time: 01 hr 11 min 16 sec)
Heartbeat CPU 0 instructions: 170000992 cycles: 590745013 heartbeat IPC: 0.2122 cumulative IPC: 0.2074 (Simulation time: 01 hr 11 min 31 sec)
Heartbeat CPU 0 instructions: 170500994 cycles: 593085194 heartbeat IPC: 0.2137 cumulative IPC: 0.2074 (Simulation time: 01 hr 11 min 47 sec)
Heartbeat CPU 0 instructions: 171000994 cycles: 595404148 heartbeat IPC: 0.2156 cumulative IPC: 0.2075 (Simulation time: 01 hr 12 min 02 sec)
Heartbeat CPU 0 instructions: 171500997 cycles: 597726519 heartbeat IPC: 0.2153 cumulative IPC: 0.2075 (Simulation time: 01 hr 12 min 17 sec)
Heartbeat CPU 0 instructions: 172000998 cycles: 600126636 heartbeat IPC: 0.2083 cumulative IPC: 0.2075 (Simulation time: 01 hr 12 min 32 sec)
Heartbeat CPU 0 instructions: 172500999 cycles: 602429922 heartbeat IPC: 0.2171 cumulative IPC: 0.2075 (Simulation time: 01 hr 12 min 47 sec)
Heartbeat CPU 0 instructions: 173001000 cycles: 604730845 heartbeat IPC: 0.2173 cumulative IPC: 0.2076 (Simulation time: 01 hr 13 min 02 sec)
Heartbeat CPU 0 instructions: 173501004 cycles: 607090849 heartbeat IPC: 0.2119 cumulative IPC: 0.2076 (Simulation time: 01 hr 13 min 18 sec)
Heartbeat CPU 0 instructions: 174001005 cycles: 609454563 heartbeat IPC: 0.2115 cumulative IPC: 0.2076 (Simulation time: 01 hr 13 min 33 sec)
Heartbeat CPU 0 instructions: 174501005 cycles: 611777067 heartbeat IPC: 0.2153 cumulative IPC: 0.2076 (Simulation time: 01 hr 13 min 48 sec)
Heartbeat CPU 0 instructions: 175001011 cycles: 614274222 heartbeat IPC: 0.2002 cumulative IPC: 0.2076 (Simulation time: 01 hr 14 min 05 sec)
Heartbeat CPU 0 instructions: 175501013 cycles: 616626617 heartbeat IPC: 0.2126 cumulative IPC: 0.2076 (Simulation time: 01 hr 14 min 21 sec)
Heartbeat CPU 0 instructions: 176001014 cycles: 618944681 heartbeat IPC: 0.2157 cumulative IPC: 0.2077 (Simulation time: 01 hr 14 min 36 sec)
Heartbeat CPU 0 instructions: 176501018 cycles: 621305772 heartbeat IPC: 0.2118 cumulative IPC: 0.2077 (Simulation time: 01 hr 14 min 51 sec)
Heartbeat CPU 0 instructions: 177001018 cycles: 623638276 heartbeat IPC: 0.2144 cumulative IPC: 0.2077 (Simulation time: 01 hr 15 min 06 sec)
Heartbeat CPU 0 instructions: 177501019 cycles: 626052586 heartbeat IPC: 0.2071 cumulative IPC: 0.2077 (Simulation time: 01 hr 15 min 22 sec)
Heartbeat CPU 0 instructions: 178001020 cycles: 628386176 heartbeat IPC: 0.2143 cumulative IPC: 0.2077 (Simulation time: 01 hr 15 min 37 sec)
Heartbeat CPU 0 instructions: 178501020 cycles: 630684175 heartbeat IPC: 0.2176 cumulative IPC: 0.2078 (Simulation time: 01 hr 15 min 52 sec)
Heartbeat CPU 0 instructions: 179001023 cycles: 633033687 heartbeat IPC: 0.2128 cumulative IPC: 0.2078 (Simulation time: 01 hr 16 min 08 sec)
Heartbeat CPU 0 instructions: 179501030 cycles: 635340138 heartbeat IPC: 0.2168 cumulative IPC: 0.2078 (Simulation time: 01 hr 16 min 22 sec)
Heartbeat CPU 0 instructions: 180001031 cycles: 637659191 heartbeat IPC: 0.2156 cumulative IPC: 0.2078 (Simulation time: 01 hr 16 min 38 sec)
Heartbeat CPU 0 instructions: 180501032 cycles: 640041355 heartbeat IPC: 0.2099 cumulative IPC: 0.2078 (Simulation time: 01 hr 16 min 53 sec)
Heartbeat CPU 0 instructions: 181001037 cycles: 642401101 heartbeat IPC: 0.2119 cumulative IPC: 0.2079 (Simulation time: 01 hr 17 min 08 sec)
Heartbeat CPU 0 instructions: 181501039 cycles: 644738832 heartbeat IPC: 0.2139 cumulative IPC: 0.2079 (Simulation time: 01 hr 17 min 24 sec)
Heartbeat CPU 0 instructions: 182001044 cycles: 647145848 heartbeat IPC: 0.2077 cumulative IPC: 0.2079 (Simulation time: 01 hr 17 min 39 sec)
Heartbeat CPU 0 instructions: 182501048 cycles: 649478488 heartbeat IPC: 0.2144 cumulative IPC: 0.2079 (Simulation time: 01 hr 17 min 55 sec)
Heartbeat CPU 0 instructions: 183001055 cycles: 651768386 heartbeat IPC: 0.2184 cumulative IPC: 0.2079 (Simulation time: 01 hr 18 min 10 sec)
Heartbeat CPU 0 instructions: 183501056 cycles: 654105153 heartbeat IPC: 0.214 cumulative IPC: 0.208 (Simulation time: 01 hr 18 min 25 sec)
Heartbeat CPU 0 instructions: 184001062 cycles: 656398543 heartbeat IPC: 0.218 cumulative IPC: 0.208 (Simulation time: 01 hr 18 min 40 sec)
Heartbeat CPU 0 instructions: 184501064 cycles: 658677819 heartbeat IPC: 0.2194 cumulative IPC: 0.208 (Simulation time: 01 hr 18 min 55 sec)
Heartbeat CPU 0 instructions: 185001068 cycles: 661052428 heartbeat IPC: 0.2106 cumulative IPC: 0.2081 (Simulation time: 01 hr 19 min 10 sec)
Heartbeat CPU 0 instructions: 185501073 cycles: 663454220 heartbeat IPC: 0.2082 cumulative IPC: 0.2081 (Simulation time: 01 hr 19 min 26 sec)
Heartbeat CPU 0 instructions: 186001075 cycles: 665777361 heartbeat IPC: 0.2152 cumulative IPC: 0.2081 (Simulation time: 01 hr 19 min 41 sec)
Heartbeat CPU 0 instructions: 186501078 cycles: 668144321 heartbeat IPC: 0.2112 cumulative IPC: 0.2081 (Simulation time: 01 hr 19 min 57 sec)
Heartbeat CPU 0 instructions: 187001079 cycles: 670446440 heartbeat IPC: 0.2172 cumulative IPC: 0.2081 (Simulation time: 01 hr 20 min 12 sec)
Heartbeat CPU 0 instructions: 187501080 cycles: 672813736 heartbeat IPC: 0.2112 cumulative IPC: 0.2081 (Simulation time: 01 hr 20 min 27 sec)
Heartbeat CPU 0 instructions: 188001082 cycles: 675156217 heartbeat IPC: 0.2134 cumulative IPC: 0.2082 (Simulation time: 01 hr 20 min 42 sec)
Heartbeat CPU 0 instructions: 188501084 cycles: 677441592 heartbeat IPC: 0.2188 cumulative IPC: 0.2082 (Simulation time: 01 hr 20 min 57 sec)
Heartbeat CPU 0 instructions: 189001088 cycles: 679785921 heartbeat IPC: 0.2133 cumulative IPC: 0.2082 (Simulation time: 01 hr 21 min 13 sec)
Heartbeat CPU 0 instructions: 189501088 cycles: 682144256 heartbeat IPC: 0.212 cumulative IPC: 0.2082 (Simulation time: 01 hr 21 min 28 sec)
Heartbeat CPU 0 instructions: 190001095 cycles: 684398121 heartbeat IPC: 0.2218 cumulative IPC: 0.2083 (Simulation time: 01 hr 21 min 43 sec)
Heartbeat CPU 0 instructions: 190501096 cycles: 686689007 heartbeat IPC: 0.2183 cumulative IPC: 0.2083 (Simulation time: 01 hr 21 min 58 sec)
Heartbeat CPU 0 instructions: 191001101 cycles: 689127520 heartbeat IPC: 0.205 cumulative IPC: 0.2083 (Simulation time: 01 hr 22 min 14 sec)
Heartbeat CPU 0 instructions: 191501104 cycles: 691420305 heartbeat IPC: 0.2181 cumulative IPC: 0.2083 (Simulation time: 01 hr 22 min 29 sec)
Heartbeat CPU 0 instructions: 192001108 cycles: 693965355 heartbeat IPC: 0.1965 cumulative IPC: 0.2083 (Simulation time: 01 hr 22 min 46 sec)
Heartbeat CPU 0 instructions: 192501113 cycles: 696286845 heartbeat IPC: 0.2154 cumulative IPC: 0.2083 (Simulation time: 01 hr 23 min 01 sec)
Heartbeat CPU 0 instructions: 193001120 cycles: 698763934 heartbeat IPC: 0.2019 cumulative IPC: 0.2083 (Simulation time: 01 hr 23 min 18 sec)
Heartbeat CPU 0 instructions: 193501120 cycles: 701285348 heartbeat IPC: 0.1983 cumulative IPC: 0.2082 (Simulation time: 01 hr 23 min 35 sec)
Heartbeat CPU 0 instructions: 194001127 cycles: 703564536 heartbeat IPC: 0.2194 cumulative IPC: 0.2083 (Simulation time: 01 hr 23 min 50 sec)
Heartbeat CPU 0 instructions: 194501130 cycles: 705955257 heartbeat IPC: 0.2091 cumulative IPC: 0.2083 (Simulation time: 01 hr 24 min 05 sec)
Heartbeat CPU 0 instructions: 195001132 cycles: 708275654 heartbeat IPC: 0.2155 cumulative IPC: 0.2083 (Simulation time: 01 hr 24 min 20 sec)
Heartbeat CPU 0 instructions: 195501138 cycles: 710613520 heartbeat IPC: 0.2139 cumulative IPC: 0.2083 (Simulation time: 01 hr 24 min 36 sec)
Heartbeat CPU 0 instructions: 196001142 cycles: 712871511 heartbeat IPC: 0.2214 cumulative IPC: 0.2084 (Simulation time: 01 hr 24 min 50 sec)
Heartbeat CPU 0 instructions: 196501143 cycles: 715284512 heartbeat IPC: 0.2072 cumulative IPC: 0.2084 (Simulation time: 01 hr 25 min 06 sec)
Heartbeat CPU 0 instructions: 197001144 cycles: 717653262 heartbeat IPC: 0.2111 cumulative IPC: 0.2084 (Simulation time: 01 hr 25 min 21 sec)
Heartbeat CPU 0 instructions: 197501150 cycles: 720046045 heartbeat IPC: 0.209 cumulative IPC: 0.2084 (Simulation time: 01 hr 25 min 37 sec)
Heartbeat CPU 0 instructions: 198001155 cycles: 722390168 heartbeat IPC: 0.2133 cumulative IPC: 0.2084 (Simulation time: 01 hr 25 min 52 sec)
Heartbeat CPU 0 instructions: 198501155 cycles: 724736601 heartbeat IPC: 0.2131 cumulative IPC: 0.2084 (Simulation time: 01 hr 26 min 08 sec)
Heartbeat CPU 0 instructions: 199001161 cycles: 727022465 heartbeat IPC: 0.2187 cumulative IPC: 0.2084 (Simulation time: 01 hr 26 min 23 sec)
Heartbeat CPU 0 instructions: 199501161 cycles: 729391082 heartbeat IPC: 0.2111 cumulative IPC: 0.2084 (Simulation time: 01 hr 26 min 38 sec)
Heartbeat CPU 0 instructions: 200001162 cycles: 731704762 heartbeat IPC: 0.2161 cumulative IPC: 0.2085 (Simulation time: 01 hr 26 min 53 sec)
Heartbeat CPU 0 instructions: 200501165 cycles: 734021062 heartbeat IPC: 0.2159 cumulative IPC: 0.2085 (Simulation time: 01 hr 27 min 08 sec)
Heartbeat CPU 0 instructions: 201001168 cycles: 736373415 heartbeat IPC: 0.2126 cumulative IPC: 0.2085 (Simulation time: 01 hr 27 min 24 sec)
Heartbeat CPU 0 instructions: 201501171 cycles: 738751186 heartbeat IPC: 0.2103 cumulative IPC: 0.2085 (Simulation time: 01 hr 27 min 39 sec)
Heartbeat CPU 0 instructions: 202001175 cycles: 741126146 heartbeat IPC: 0.2105 cumulative IPC: 0.2085 (Simulation time: 01 hr 27 min 55 sec)
Heartbeat CPU 0 instructions: 202501181 cycles: 743526424 heartbeat IPC: 0.2083 cumulative IPC: 0.2085 (Simulation time: 01 hr 28 min 10 sec)
Heartbeat CPU 0 instructions: 203001183 cycles: 745845038 heartbeat IPC: 0.2156 cumulative IPC: 0.2085 (Simulation time: 01 hr 28 min 25 sec)
Heartbeat CPU 0 instructions: 203501190 cycles: 748177749 heartbeat IPC: 0.2143 cumulative IPC: 0.2086 (Simulation time: 01 hr 28 min 41 sec)
Heartbeat CPU 0 instructions: 204001190 cycles: 750582578 heartbeat IPC: 0.2079 cumulative IPC: 0.2086 (Simulation time: 01 hr 28 min 56 sec)
Heartbeat CPU 0 instructions: 204501190 cycles: 752935108 heartbeat IPC: 0.2125 cumulative IPC: 0.2086 (Simulation time: 01 hr 29 min 12 sec)
Heartbeat CPU 0 instructions: 205001190 cycles: 755312874 heartbeat IPC: 0.2103 cumulative IPC: 0.2086 (Simulation time: 01 hr 29 min 27 sec)
Heartbeat CPU 0 instructions: 205501194 cycles: 757673326 heartbeat IPC: 0.2118 cumulative IPC: 0.2086 (Simulation time: 01 hr 29 min 42 sec)
Heartbeat CPU 0 instructions: 206001194 cycles: 760092500 heartbeat IPC: 0.2067 cumulative IPC: 0.2086 (Simulation time: 01 hr 29 min 58 sec)
Heartbeat CPU 0 instructions: 206501197 cycles: 762427994 heartbeat IPC: 0.2141 cumulative IPC: 0.2086 (Simulation time: 01 hr 30 min 14 sec)
Heartbeat CPU 0 instructions: 207001198 cycles: 764788008 heartbeat IPC: 0.2119 cumulative IPC: 0.2086 (Simulation time: 01 hr 30 min 29 sec)
Heartbeat CPU 0 instructions: 207501198 cycles: 767163177 heartbeat IPC: 0.2105 cumulative IPC: 0.2086 (Simulation time: 01 hr 30 min 44 sec)
Heartbeat CPU 0 instructions: 208001198 cycles: 769510680 heartbeat IPC: 0.213 cumulative IPC: 0.2086 (Simulation time: 01 hr 31 min 00 sec)
Heartbeat CPU 0 instructions: 208501204 cycles: 771779309 heartbeat IPC: 0.2204 cumulative IPC: 0.2087 (Simulation time: 01 hr 31 min 15 sec)
Heartbeat CPU 0 instructions: 209001206 cycles: 774165222 heartbeat IPC: 0.2096 cumulative IPC: 0.2087 (Simulation time: 01 hr 31 min 30 sec)
Heartbeat CPU 0 instructions: 209501207 cycles: 776424762 heartbeat IPC: 0.2213 cumulative IPC: 0.2087 (Simulation time: 01 hr 31 min 45 sec)
Heartbeat CPU 0 instructions: 210001207 cycles: 778759768 heartbeat IPC: 0.2141 cumulative IPC: 0.2087 (Simulation time: 01 hr 32 min 00 sec)
Heartbeat CPU 0 instructions: 210501213 cycles: 781133679 heartbeat IPC: 0.2106 cumulative IPC: 0.2087 (Simulation time: 01 hr 32 min 16 sec)
Heartbeat CPU 0 instructions: 211001220 cycles: 783556966 heartbeat IPC: 0.2063 cumulative IPC: 0.2087 (Simulation time: 01 hr 32 min 32 sec)
Heartbeat CPU 0 instructions: 211501224 cycles: 785941022 heartbeat IPC: 0.2097 cumulative IPC: 0.2087 (Simulation time: 01 hr 32 min 47 sec)
Heartbeat CPU 0 instructions: 212001224 cycles: 788245606 heartbeat IPC: 0.217 cumulative IPC: 0.2087 (Simulation time: 01 hr 33 min 02 sec)
Heartbeat CPU 0 instructions: 212501227 cycles: 790667275 heartbeat IPC: 0.2065 cumulative IPC: 0.2087 (Simulation time: 01 hr 33 min 18 sec)
Heartbeat CPU 0 instructions: 213001233 cycles: 793018493 heartbeat IPC: 0.2127 cumulative IPC: 0.2087 (Simulation time: 01 hr 33 min 33 sec)
Heartbeat CPU 0 instructions: 213501235 cycles: 795517457 heartbeat IPC: 0.2001 cumulative IPC: 0.2087 (Simulation time: 01 hr 33 min 50 sec)
Heartbeat CPU 0 instructions: 214001236 cycles: 797830269 heartbeat IPC: 0.2162 cumulative IPC: 0.2087 (Simulation time: 01 hr 34 min 05 sec)
Heartbeat CPU 0 instructions: 214501237 cycles: 800118739 heartbeat IPC: 0.2185 cumulative IPC: 0.2088 (Simulation time: 01 hr 34 min 20 sec)
Heartbeat CPU 0 instructions: 215001238 cycles: 802471377 heartbeat IPC: 0.2125 cumulative IPC: 0.2088 (Simulation time: 01 hr 34 min 36 sec)
Heartbeat CPU 0 instructions: 215501245 cycles: 804835028 heartbeat IPC: 0.2115 cumulative IPC: 0.2088 (Simulation time: 01 hr 34 min 51 sec)
Heartbeat CPU 0 instructions: 216001248 cycles: 807119120 heartbeat IPC: 0.2189 cumulative IPC: 0.2088 (Simulation time: 01 hr 35 min 06 sec)
Heartbeat CPU 0 instructions: 216501255 cycles: 809461626 heartbeat IPC: 0.2134 cumulative IPC: 0.2088 (Simulation time: 01 hr 35 min 21 sec)
Heartbeat CPU 0 instructions: 217001259 cycles: 811890436 heartbeat IPC: 0.2059 cumulative IPC: 0.2088 (Simulation time: 01 hr 35 min 37 sec)
Heartbeat CPU 0 instructions: 217501264 cycles: 814169640 heartbeat IPC: 0.2194 cumulative IPC: 0.2089 (Simulation time: 01 hr 35 min 52 sec)
Heartbeat CPU 0 instructions: 218001269 cycles: 816503247 heartbeat IPC: 0.2143 cumulative IPC: 0.2089 (Simulation time: 01 hr 36 min 07 sec)
Heartbeat CPU 0 instructions: 218501275 cycles: 818834012 heartbeat IPC: 0.2145 cumulative IPC: 0.2089 (Simulation time: 01 hr 36 min 23 sec)
Heartbeat CPU 0 instructions: 219001278 cycles: 821132785 heartbeat IPC: 0.2175 cumulative IPC: 0.2089 (Simulation time: 01 hr 36 min 38 sec)
Heartbeat CPU 0 instructions: 219501284 cycles: 823473972 heartbeat IPC: 0.2136 cumulative IPC: 0.2089 (Simulation time: 01 hr 36 min 53 sec)
Heartbeat CPU 0 instructions: 220001285 cycles: 825754054 heartbeat IPC: 0.2193 cumulative IPC: 0.209 (Simulation time: 01 hr 37 min 08 sec)
Heartbeat CPU 0 instructions: 220501286 cycles: 828056117 heartbeat IPC: 0.2172 cumulative IPC: 0.209 (Simulation time: 01 hr 37 min 23 sec)
Heartbeat CPU 0 instructions: 221001293 cycles: 830342533 heartbeat IPC: 0.2187 cumulative IPC: 0.209 (Simulation time: 01 hr 37 min 38 sec)
Heartbeat CPU 0 instructions: 221501299 cycles: 832683631 heartbeat IPC: 0.2136 cumulative IPC: 0.209 (Simulation time: 01 hr 37 min 53 sec)
Heartbeat CPU 0 instructions: 222001299 cycles: 835051650 heartbeat IPC: 0.2111 cumulative IPC: 0.209 (Simulation time: 01 hr 38 min 08 sec)
Heartbeat CPU 0 instructions: 222501306 cycles: 837418090 heartbeat IPC: 0.2113 cumulative IPC: 0.209 (Simulation time: 01 hr 38 min 24 sec)
Heartbeat CPU 0 instructions: 223001309 cycles: 839767062 heartbeat IPC: 0.2129 cumulative IPC: 0.209 (Simulation time: 01 hr 38 min 39 sec)
Heartbeat CPU 0 instructions: 223501312 cycles: 842086459 heartbeat IPC: 0.2156 cumulative IPC: 0.2091 (Simulation time: 01 hr 38 min 54 sec)
Heartbeat CPU 0 instructions: 224001312 cycles: 844514190 heartbeat IPC: 0.206 cumulative IPC: 0.209 (Simulation time: 01 hr 39 min 10 sec)
Heartbeat CPU 0 instructions: 224501312 cycles: 846847407 heartbeat IPC: 0.2143 cumulative IPC: 0.2091 (Simulation time: 01 hr 39 min 25 sec)
Heartbeat CPU 0 instructions: 225001315 cycles: 849191777 heartbeat IPC: 0.2133 cumulative IPC: 0.2091 (Simulation time: 01 hr 39 min 41 sec)
Heartbeat CPU 0 instructions: 225501316 cycles: 851548292 heartbeat IPC: 0.2122 cumulative IPC: 0.2091 (Simulation time: 01 hr 39 min 56 sec)
Heartbeat CPU 0 instructions: 226001317 cycles: 853856613 heartbeat IPC: 0.2166 cumulative IPC: 0.2091 (Simulation time: 01 hr 40 min 11 sec)
Heartbeat CPU 0 instructions: 226501322 cycles: 856182730 heartbeat IPC: 0.215 cumulative IPC: 0.2091 (Simulation time: 01 hr 40 min 26 sec)
Heartbeat CPU 0 instructions: 227001324 cycles: 858565446 heartbeat IPC: 0.2098 cumulative IPC: 0.2091 (Simulation time: 01 hr 40 min 42 sec)
Heartbeat CPU 0 instructions: 227501324 cycles: 860933312 heartbeat IPC: 0.2112 cumulative IPC: 0.2091 (Simulation time: 01 hr 40 min 57 sec)
Heartbeat CPU 0 instructions: 228001328 cycles: 863240444 heartbeat IPC: 0.2167 cumulative IPC: 0.2091 (Simulation time: 01 hr 41 min 12 sec)
Heartbeat CPU 0 instructions: 228501328 cycles: 865632125 heartbeat IPC: 0.2091 cumulative IPC: 0.2091 (Simulation time: 01 hr 41 min 27 sec)
Heartbeat CPU 0 instructions: 229001334 cycles: 868000990 heartbeat IPC: 0.2111 cumulative IPC: 0.2092 (Simulation time: 01 hr 41 min 43 sec)
Heartbeat CPU 0 instructions: 229501337 cycles: 870324369 heartbeat IPC: 0.2152 cumulative IPC: 0.2092 (Simulation time: 01 hr 41 min 58 sec)
Heartbeat CPU 0 instructions: 230001337 cycles: 872647875 heartbeat IPC: 0.2152 cumulative IPC: 0.2092 (Simulation time: 01 hr 42 min 13 sec)
Heartbeat CPU 0 instructions: 230501337 cycles: 874989885 heartbeat IPC: 0.2135 cumulative IPC: 0.2092 (Simulation time: 01 hr 42 min 28 sec)
Heartbeat CPU 0 instructions: 231001337 cycles: 877337685 heartbeat IPC: 0.213 cumulative IPC: 0.2092 (Simulation time: 01 hr 42 min 43 sec)
Heartbeat CPU 0 instructions: 231501337 cycles: 879709612 heartbeat IPC: 0.2108 cumulative IPC: 0.2092 (Simulation time: 01 hr 42 min 59 sec)
Heartbeat CPU 0 instructions: 232001337 cycles: 882018118 heartbeat IPC: 0.2166 cumulative IPC: 0.2092 (Simulation time: 01 hr 43 min 14 sec)
Heartbeat CPU 0 instructions: 232501341 cycles: 884391192 heartbeat IPC: 0.2107 cumulative IPC: 0.2092 (Simulation time: 01 hr 43 min 29 sec)
Heartbeat CPU 0 instructions: 233001343 cycles: 886746398 heartbeat IPC: 0.2123 cumulative IPC: 0.2092 (Simulation time: 01 hr 43 min 45 sec)
Heartbeat CPU 0 instructions: 233501349 cycles: 889103066 heartbeat IPC: 0.2122 cumulative IPC: 0.2093 (Simulation time: 01 hr 44 min 00 sec)
Heartbeat CPU 0 instructions: 234001351 cycles: 891452984 heartbeat IPC: 0.2128 cumulative IPC: 0.2093 (Simulation time: 01 hr 44 min 15 sec)
Heartbeat CPU 0 instructions: 234501351 cycles: 893822778 heartbeat IPC: 0.211 cumulative IPC: 0.2093 (Simulation time: 01 hr 44 min 30 sec)
Heartbeat CPU 0 instructions: 235001353 cycles: 896152615 heartbeat IPC: 0.2146 cumulative IPC: 0.2093 (Simulation time: 01 hr 44 min 46 sec)
Heartbeat CPU 0 instructions: 235501360 cycles: 898542907 heartbeat IPC: 0.2092 cumulative IPC: 0.2093 (Simulation time: 01 hr 45 min 01 sec)
Heartbeat CPU 0 instructions: 236001361 cycles: 900856613 heartbeat IPC: 0.2161 cumulative IPC: 0.2093 (Simulation time: 01 hr 45 min 16 sec)
Heartbeat CPU 0 instructions: 236501366 cycles: 903200314 heartbeat IPC: 0.2133 cumulative IPC: 0.2093 (Simulation time: 01 hr 45 min 31 sec)
Heartbeat CPU 0 instructions: 237001369 cycles: 905553410 heartbeat IPC: 0.2125 cumulative IPC: 0.2093 (Simulation time: 01 hr 45 min 46 sec)
Heartbeat CPU 0 instructions: 237501369 cycles: 907923166 heartbeat IPC: 0.211 cumulative IPC: 0.2093 (Simulation time: 01 hr 46 min 02 sec)
Heartbeat CPU 0 instructions: 238001369 cycles: 910300207 heartbeat IPC: 0.2103 cumulative IPC: 0.2093 (Simulation time: 01 hr 46 min 17 sec)
Heartbeat CPU 0 instructions: 238501375 cycles: 912669924 heartbeat IPC: 0.211 cumulative IPC: 0.2093 (Simulation time: 01 hr 46 min 32 sec)
Heartbeat CPU 0 instructions: 239001375 cycles: 915038379 heartbeat IPC: 0.2111 cumulative IPC: 0.2093 (Simulation time: 01 hr 46 min 48 sec)
Heartbeat CPU 0 instructions: 239501377 cycles: 917372650 heartbeat IPC: 0.2142 cumulative IPC: 0.2093 (Simulation time: 01 hr 47 min 03 sec)
Heartbeat CPU 0 instructions: 240001377 cycles: 919718882 heartbeat IPC: 0.2131 cumulative IPC: 0.2094 (Simulation time: 01 hr 47 min 18 sec)
Heartbeat CPU 0 instructions: 240501380 cycles: 922060735 heartbeat IPC: 0.2135 cumulative IPC: 0.2094 (Simulation time: 01 hr 47 min 33 sec)
Heartbeat CPU 0 instructions: 241001387 cycles: 924400711 heartbeat IPC: 0.2137 cumulative IPC: 0.2094 (Simulation time: 01 hr 47 min 48 sec)
Heartbeat CPU 0 instructions: 241501391 cycles: 926806433 heartbeat IPC: 0.2078 cumulative IPC: 0.2094 (Simulation time: 01 hr 48 min 04 sec)
Heartbeat CPU 0 instructions: 242001393 cycles: 929120559 heartbeat IPC: 0.2161 cumulative IPC: 0.2094 (Simulation time: 01 hr 48 min 19 sec)
Heartbeat CPU 0 instructions: 242501393 cycles: 931491513 heartbeat IPC: 0.2109 cumulative IPC: 0.2094 (Simulation time: 01 hr 48 min 34 sec)
Heartbeat CPU 0 instructions: 243001400 cycles: 933833530 heartbeat IPC: 0.2135 cumulative IPC: 0.2094 (Simulation time: 01 hr 48 min 50 sec)
Heartbeat CPU 0 instructions: 243501400 cycles: 936163612 heartbeat IPC: 0.2146 cumulative IPC: 0.2094 (Simulation time: 01 hr 49 min 05 sec)
Heartbeat CPU 0 instructions: 244001405 cycles: 938514144 heartbeat IPC: 0.2127 cumulative IPC: 0.2094 (Simulation time: 01 hr 49 min 20 sec)
Heartbeat CPU 0 instructions: 244501405 cycles: 940873615 heartbeat IPC: 0.2119 cumulative IPC: 0.2094 (Simulation time: 01 hr 49 min 35 sec)
Heartbeat CPU 0 instructions: 245001405 cycles: 943185595 heartbeat IPC: 0.2163 cumulative IPC: 0.2094 (Simulation time: 01 hr 49 min 51 sec)
Heartbeat CPU 0 instructions: 245501407 cycles: 945533004 heartbeat IPC: 0.213 cumulative IPC: 0.2095 (Simulation time: 01 hr 50 min 06 sec)
Heartbeat CPU 0 instructions: 246001410 cycles: 947887955 heartbeat IPC: 0.2123 cumulative IPC: 0.2095 (Simulation time: 01 hr 50 min 21 sec)
Heartbeat CPU 0 instructions: 246501412 cycles: 950204951 heartbeat IPC: 0.2158 cumulative IPC: 0.2095 (Simulation time: 01 hr 50 min 36 sec)
Heartbeat CPU 0 instructions: 247001419 cycles: 952523043 heartbeat IPC: 0.2157 cumulative IPC: 0.2095 (Simulation time: 01 hr 50 min 51 sec)
Heartbeat CPU 0 instructions: 247501424 cycles: 954862894 heartbeat IPC: 0.2137 cumulative IPC: 0.2095 (Simulation time: 01 hr 51 min 07 sec)
Heartbeat CPU 0 instructions: 248001424 cycles: 957162535 heartbeat IPC: 0.2174 cumulative IPC: 0.2095 (Simulation time: 01 hr 51 min 22 sec)
Heartbeat CPU 0 instructions: 248501427 cycles: 959530516 heartbeat IPC: 0.2112 cumulative IPC: 0.2095 (Simulation time: 01 hr 51 min 37 sec)
Heartbeat CPU 0 instructions: 249001429 cycles: 961881793 heartbeat IPC: 0.2127 cumulative IPC: 0.2095 (Simulation time: 01 hr 51 min 52 sec)
Heartbeat CPU 0 instructions: 249501436 cycles: 964230957 heartbeat IPC: 0.2128 cumulative IPC: 0.2095 (Simulation time: 01 hr 52 min 08 sec)
Simulation finished CPU 0 instructions: 200000000 cycles: 954420971 cumulative IPC: 0.2096 (Simulation time: 01 hr 52 min 23 sec)
Simulation complete CPU 0 instructions: 200000000 cycles: 954420971 cumulative IPC: 0.2096 (Simulation time: 01 hr 52 min 23 sec)

ChampSim completed all CPUs

=== Simulation ===
CPU 0 runs /local-ssd/ben/dpc4-traces/Graph/GAP/bc-0.trace.gz

Region of Interest Statistics

CPU 0 cumulative IPC: 0.2096 instructions: 200000000 cycles: 954420971
CPU 0 Branch Prediction Accuracy: 88.34% MPKI: 22.72 Average ROB Occupancy at Mispredict: 52.97
Branch type MPKI
BRANCH_DIRECT_JUMP: 0
BRANCH_INDIRECT: 0
BRANCH_CONDITIONAL: 22.72
BRANCH_DIRECT_CALL: 0
BRANCH_INDIRECT_CALL: 0
BRANCH_RETURN: 0

cpu0->cpu0_STLB TOTAL        ACCESS:    9667848 HIT:    6543960 MISS:    3123888 MSHR_MERGE:          0
cpu0->cpu0_STLB LOAD         ACCESS:    9667848 HIT:    6543960 MISS:    3123888 MSHR_MERGE:          0
cpu0->cpu0_STLB RFO          ACCESS:          0 HIT:          0 MISS:          0 MSHR_MERGE:          0
cpu0->cpu0_STLB PREFETCH     ACCESS:          0 HIT:          0 MISS:          0 MSHR_MERGE:          0
cpu0->cpu0_STLB WRITE        ACCESS:          0 HIT:          0 MISS:          0 MSHR_MERGE:          0
cpu0->cpu0_STLB TRANSLATION  ACCESS:          0 HIT:          0 MISS:          0 MSHR_MERGE:          0
cpu0->cpu0_STLB PREFETCH REQUESTED:          0 ISSUED:          0 USEFUL:          0 USELESS:          0
cpu0->cpu0_STLB AVERAGE MISS LATENCY: 24.52 cycles
cpu0->cpu0_L2C TOTAL        ACCESS:   64283864 HIT:   28328207 MISS:   35955657 MSHR_MERGE:    3146541
cpu0->cpu0_L2C LOAD         ACCESS:   16613099 HIT:    6787306 MISS:    9825793 MSHR_MERGE:     250886
cpu0->cpu0_L2C RFO          ACCESS:      48875 HIT:      20330 MISS:      28545 MSHR_MERGE:          0
cpu0->cpu0_L2C PREFETCH     ACCESS:   41638681 HIT:   15607357 MISS:   26031324 MSHR_MERGE:    2895655
cpu0->cpu0_L2C WRITE        ACCESS:    4567319 HIT:    4567049 MISS:        270 MSHR_MERGE:          0
cpu0->cpu0_L2C TRANSLATION  ACCESS:    1415890 HIT:    1346165 MISS:      69725 MSHR_MERGE:          0
cpu0->cpu0_L2C PREFETCH REQUESTED:   38924733 ISSUED:   35822555 USEFUL:    3498729 USELESS:   16045683
cpu0->cpu0_L2C AVERAGE MISS LATENCY: 182.7 cycles
cpu0->cpu0_L1I TOTAL        ACCESS:     150729 HIT:     150729 MISS:          0 MSHR_MERGE:          0
cpu0->cpu0_L1I LOAD         ACCESS:      75450 HIT:      75450 MISS:          0 MSHR_MERGE:          0
cpu0->cpu0_L1I RFO          ACCESS:          0 HIT:          0 MISS:          0 MSHR_MERGE:          0
cpu0->cpu0_L1I PREFETCH     ACCESS:      75279 HIT:      75279 MISS:          0 MSHR_MERGE:          0
cpu0->cpu0_L1I WRITE        ACCESS:          0 HIT:          0 MISS:          0 MSHR_MERGE:          0
cpu0->cpu0_L1I TRANSLATION  ACCESS:          0 HIT:          0 MISS:          0 MSHR_MERGE:          0
cpu0->cpu0_L1I PREFETCH REQUESTED:      75450 ISSUED:      75278 USEFUL:          0 USELESS:          0
cpu0->cpu0_L1I AVERAGE MISS LATENCY: - cycles
cpu0->cpu0_L1D TOTAL        ACCESS:   72170722 HIT:   47624421 MISS:   24546301 MSHR_MERGE:     652317
cpu0->cpu0_L1D LOAD         ACCESS:   50555877 HIT:   33480073 MISS:   17075804 MSHR_MERGE:     462706
cpu0->cpu0_L1D RFO          ACCESS:          0 HIT:          0 MISS:          0 MSHR_MERGE:          0
cpu0->cpu0_L1D PREFETCH     ACCESS:    6343851 HIT:     442171 MISS:    5901680 MSHR_MERGE:      85564
cpu0->cpu0_L1D WRITE        ACCESS:    9120618 HIT:    9027356 MISS:      93262 MSHR_MERGE:      44382
cpu0->cpu0_L1D TRANSLATION  ACCESS:    6150376 HIT:    4674821 MISS:    1475555 MSHR_MERGE:      59665
cpu0->cpu0_L1D PREFETCH REQUESTED:    6353834 ISSUED:    6343849 USEFUL:     992628 USELESS:    4823518
cpu0->cpu0_L1D AVERAGE MISS LATENCY: 109.6 cycles
cpu0->cpu0_ITLB TOTAL        ACCESS:     115734 HIT:     115734 MISS:          0 MSHR_MERGE:          0
cpu0->cpu0_ITLB LOAD         ACCESS:     115734 HIT:     115734 MISS:          0 MSHR_MERGE:          0
cpu0->cpu0_ITLB RFO          ACCESS:          0 HIT:          0 MISS:          0 MSHR_MERGE:          0
cpu0->cpu0_ITLB PREFETCH     ACCESS:          0 HIT:          0 MISS:          0 MSHR_MERGE:          0
cpu0->cpu0_ITLB WRITE        ACCESS:          0 HIT:          0 MISS:          0 MSHR_MERGE:          0
cpu0->cpu0_ITLB TRANSLATION  ACCESS:          0 HIT:          0 MISS:          0 MSHR_MERGE:          0
cpu0->cpu0_ITLB PREFETCH REQUESTED:          0 ISSUED:          0 USEFUL:          0 USELESS:          0
cpu0->cpu0_ITLB AVERAGE MISS LATENCY: - cycles
cpu0->cpu0_DTLB TOTAL        ACCESS:   64610103 HIT:   52717493 MISS:   11892610 MSHR_MERGE:    2224762
cpu0->cpu0_DTLB LOAD         ACCESS:   64610103 HIT:   52717493 MISS:   11892610 MSHR_MERGE:    2224762
cpu0->cpu0_DTLB RFO          ACCESS:          0 HIT:          0 MISS:          0 MSHR_MERGE:          0
cpu0->cpu0_DTLB PREFETCH     ACCESS:          0 HIT:          0 MISS:          0 MSHR_MERGE:          0
cpu0->cpu0_DTLB WRITE        ACCESS:          0 HIT:          0 MISS:          0 MSHR_MERGE:          0
cpu0->cpu0_DTLB TRANSLATION  ACCESS:          0 HIT:          0 MISS:          0 MSHR_MERGE:          0
cpu0->cpu0_DTLB PREFETCH REQUESTED:          0 ISSUED:          0 USEFUL:          0 USELESS:          0
cpu0->cpu0_DTLB AVERAGE MISS LATENCY: 13.25 cycles
cpu0->LLC TOTAL        ACCESS:   64236362 HIT:   25221027 MISS:   39015335 MSHR_MERGE:    6078207
cpu0->LLC LOAD         ACCESS:    9574907 HIT:    4021938 MISS:    5552969 MSHR_MERGE:     139140
cpu0->LLC RFO          ACCESS:      28545 HIT:        138 MISS:      28407 MSHR_MERGE:          0
cpu0->LLC PREFETCH     ACCESS:   50343597 HIT:   19748286 MISS:   30595311 MSHR_MERGE:    5939067
cpu0->LLC WRITE        ACCESS:    4219588 HIT:    1450559 MISS:    2769029 MSHR_MERGE:          0
cpu0->LLC TRANSLATION  ACCESS:      69725 HIT:        106 MISS:      69619 MSHR_MERGE:          0
cpu0->LLC PREFETCH REQUESTED:   27638485 ISSUED:   27207896 USEFUL:    2111251 USELESS:   10159709
cpu0->LLC AVERAGE MISS LATENCY: 188.5 cycles

DRAM Statistics

Channel 0 RQ ROW_BUFFER_HIT:    1546169
  ROW_BUFFER_MISS:   28607274
  AVG DBUS CONGESTED CYCLE: 8.547
Channel 0 WQ ROW_BUFFER_HIT:     550156
  ROW_BUFFER_MISS:    2708771
  FULL:          0
Channel 0 REFRESHES ISSUED:      79530
