[VMEM] WARNING: physical memory size is smaller than virtual memory size.

*** ChampSim Multicore Out-of-Order Simulator ***
Warmup Instructions: 50000000
Simulation Instructions: 200000000
Number of CPUs: 1
Page size: 4096
Core 0: /local-ssd/ben/dpc4-traces/gtraces_v2/sierra.a.3_0003.champsim.gz
 L1D Berti prefetcher
Off-chip DRAM Size: 64 GiB Channels: 1 Width: 64-bit Data Rate: 4807 MT/s
Heartbeat CPU 0 instructions: 500007 cycles: 266354 heartbeat IPC: 1.877 cumulative IPC: 1.877 (Simulation time: 00 hr 00 min 04 sec)
[BTB] WARNING: target of return is a lower address than the corresponding call. This is usually a problem with your trace.
Heartbeat CPU 0 instructions: 1000010 cycles: 477609 heartbeat IPC: 2.367 cumulative IPC: 2.094 (Simulation time: 00 hr 00 min 07 sec)
Heartbeat CPU 0 instructions: 1500017 cycles: 679212 heartbeat IPC: 2.48 cumulative IPC: 2.208 (Simulation time: 00 hr 00 min 11 sec)
[BTB] WARNING: target of return is a lower address than the corresponding call. This is usually a problem with your trace.
[BTB] WARNING: target of return is a lower address than the corresponding call. This is usually a problem with your trace.
Heartbeat CPU 0 instructions: 2000018 cycles: 876697 heartbeat IPC: 2.532 cumulative IPC: 2.281 (Simulation time: 00 hr 00 min 14 sec)
Heartbeat CPU 0 instructions: 2500019 cycles: 1079800 heartbeat IPC: 2.462 cumulative IPC: 2.315 (Simulation time: 00 hr 00 min 17 sec)
Heartbeat CPU 0 instructions: 3000024 cycles: 1272965 heartbeat IPC: 2.588 cumulative IPC: 2.357 (Simulation time: 00 hr 00 min 20 sec)
[BTB] WARNING: target of return is a lower address than the corresponding call. This is usually a problem with your trace.
Heartbeat CPU 0 instructions: 3500029 cycles: 1467365 heartbeat IPC: 2.572 cumulative IPC: 2.385 (Simulation time: 00 hr 00 min 23 sec)
Heartbeat CPU 0 instructions: 4000036 cycles: 1664667 heartbeat IPC: 2.534 cumulative IPC: 2.403 (Simulation time: 00 hr 00 min 26 sec)
[BTB] WARNING: target of return is a lower address than the corresponding call. This is usually a problem with your trace.
Heartbeat CPU 0 instructions: 4500042 cycles: 1856042 heartbeat IPC: 2.613 cumulative IPC: 2.425 (Simulation time: 00 hr 00 min 29 sec)
[BTB] WARNING: target of return is a lower address than the corresponding call. This is usually a problem with your trace.
[BTB] WARNING: target of return is a lower address than the corresponding call. This is usually a problem with your trace.
Heartbeat CPU 0 instructions: 5000045 cycles: 2036840 heartbeat IPC: 2.766 cumulative IPC: 2.455 (Simulation time: 00 hr 00 min 32 sec)
[BTB] WARNING: target of return is a lower address than the corresponding call. This is usually a problem with your trace.
[BTB] WARNING: target of return is a lower address than the corresponding call. This is usually a problem with your trace.
[BTB] WARNING: target of return is a lower address than the corresponding call. This is usually a problem with your trace.
Heartbeat CPU 0 instructions: 5500047 cycles: 2215296 heartbeat IPC: 2.802 cumulative IPC: 2.483 (Simulation time: 00 hr 00 min 35 sec)
Heartbeat CPU 0 instructions: 6000047 cycles: 2393361 heartbeat IPC: 2.808 cumulative IPC: 2.507 (Simulation time: 00 hr 00 min 38 sec)
Heartbeat CPU 0 instructions: 6500054 cycles: 2570807 heartbeat IPC: 2.818 cumulative IPC: 2.528 (Simulation time: 00 hr 00 min 41 sec)
Heartbeat CPU 0 instructions: 7000058 cycles: 2750432 heartbeat IPC: 2.784 cumulative IPC: 2.545 (Simulation time: 00 hr 00 min 44 sec)
Heartbeat CPU 0 instructions: 7500062 cycles: 2924895 heartbeat IPC: 2.866 cumulative IPC: 2.564 (Simulation time: 00 hr 00 min 47 sec)
Heartbeat CPU 0 instructions: 8000063 cycles: 3099295 heartbeat IPC: 2.867 cumulative IPC: 2.581 (Simulation time: 00 hr 00 min 50 sec)
Heartbeat CPU 0 instructions: 8500066 cycles: 3269177 heartbeat IPC: 2.943 cumulative IPC: 2.6 (Simulation time: 00 hr 00 min 53 sec)
Heartbeat CPU 0 instructions: 9000073 cycles: 3436393 heartbeat IPC: 2.99 cumulative IPC: 2.619 (Simulation time: 00 hr 00 min 56 sec)
Heartbeat CPU 0 instructions: 9500074 cycles: 3604594 heartbeat IPC: 2.973 cumulative IPC: 2.636 (Simulation time: 00 hr 00 min 59 sec)
Heartbeat CPU 0 instructions: 10000080 cycles: 3773383 heartbeat IPC: 2.962 cumulative IPC: 2.65 (Simulation time: 00 hr 01 min 01 sec)
Heartbeat CPU 0 instructions: 10500080 cycles: 4014321 heartbeat IPC: 2.075 cumulative IPC: 2.616 (Simulation time: 00 hr 01 min 05 sec)
Heartbeat CPU 0 instructions: 11000083 cycles: 4189231 heartbeat IPC: 2.859 cumulative IPC: 2.626 (Simulation time: 00 hr 01 min 08 sec)
Heartbeat CPU 0 instructions: 11500083 cycles: 4326707 heartbeat IPC: 3.637 cumulative IPC: 2.658 (Simulation time: 00 hr 01 min 10 sec)
Heartbeat CPU 0 instructions: 12000089 cycles: 4441239 heartbeat IPC: 4.366 cumulative IPC: 2.702 (Simulation time: 00 hr 01 min 12 sec)
Heartbeat CPU 0 instructions: 12500092 cycles: 4583325 heartbeat IPC: 3.519 cumulative IPC: 2.727 (Simulation time: 00 hr 01 min 14 sec)
Heartbeat CPU 0 instructions: 13000092 cycles: 4814917 heartbeat IPC: 2.159 cumulative IPC: 2.7 (Simulation time: 00 hr 01 min 17 sec)
Heartbeat CPU 0 instructions: 13500092 cycles: 4957586 heartbeat IPC: 3.505 cumulative IPC: 2.723 (Simulation time: 00 hr 01 min 20 sec)
Heartbeat CPU 0 instructions: 14000098 cycles: 5144366 heartbeat IPC: 2.677 cumulative IPC: 2.721 (Simulation time: 00 hr 01 min 23 sec)
Heartbeat CPU 0 instructions: 14500098 cycles: 5312572 heartbeat IPC: 2.973 cumulative IPC: 2.729 (Simulation time: 00 hr 01 min 26 sec)
Heartbeat CPU 0 instructions: 15000101 cycles: 5450484 heartbeat IPC: 3.626 cumulative IPC: 2.752 (Simulation time: 00 hr 01 min 29 sec)
Heartbeat CPU 0 instructions: 15500107 cycles: 5602406 heartbeat IPC: 3.291 cumulative IPC: 2.767 (Simulation time: 00 hr 01 min 32 sec)
Heartbeat CPU 0 instructions: 16000107 cycles: 5726215 heartbeat IPC: 4.038 cumulative IPC: 2.794 (Simulation time: 00 hr 01 min 35 sec)
Heartbeat CPU 0 instructions: 16500111 cycles: 5851190 heartbeat IPC: 4.001 cumulative IPC: 2.82 (Simulation time: 00 hr 01 min 37 sec)
Heartbeat CPU 0 instructions: 17000116 cycles: 5976442 heartbeat IPC: 3.992 cumulative IPC: 2.845 (Simulation time: 00 hr 01 min 40 sec)
Heartbeat CPU 0 instructions: 17500122 cycles: 6100104 heartbeat IPC: 4.043 cumulative IPC: 2.869 (Simulation time: 00 hr 01 min 42 sec)
Heartbeat CPU 0 instructions: 18000123 cycles: 6223485 heartbeat IPC: 4.052 cumulative IPC: 2.892 (Simulation time: 00 hr 01 min 45 sec)
Heartbeat CPU 0 instructions: 18500123 cycles: 6346914 heartbeat IPC: 4.051 cumulative IPC: 2.915 (Simulation time: 00 hr 01 min 47 sec)
Heartbeat CPU 0 instructions: 19000130 cycles: 6471308 heartbeat IPC: 4.02 cumulative IPC: 2.936 (Simulation time: 00 hr 01 min 49 sec)
Heartbeat CPU 0 instructions: 19500132 cycles: 6590098 heartbeat IPC: 4.209 cumulative IPC: 2.959 (Simulation time: 00 hr 01 min 52 sec)
Heartbeat CPU 0 instructions: 20000135 cycles: 6695414 heartbeat IPC: 4.748 cumulative IPC: 2.987 (Simulation time: 00 hr 01 min 54 sec)
Heartbeat CPU 0 instructions: 20500137 cycles: 6798202 heartbeat IPC: 4.864 cumulative IPC: 3.016 (Simulation time: 00 hr 01 min 55 sec)
Heartbeat CPU 0 instructions: 21000138 cycles: 6900186 heartbeat IPC: 4.903 cumulative IPC: 3.043 (Simulation time: 00 hr 01 min 57 sec)
Heartbeat CPU 0 instructions: 21500140 cycles: 7001672 heartbeat IPC: 4.927 cumulative IPC: 3.071 (Simulation time: 00 hr 01 min 59 sec)
Heartbeat CPU 0 instructions: 22000147 cycles: 7103992 heartbeat IPC: 4.887 cumulative IPC: 3.097 (Simulation time: 00 hr 02 min 01 sec)
Heartbeat CPU 0 instructions: 22500147 cycles: 7204738 heartbeat IPC: 4.963 cumulative IPC: 3.123 (Simulation time: 00 hr 02 min 03 sec)
Heartbeat CPU 0 instructions: 23000154 cycles: 7324774 heartbeat IPC: 4.165 cumulative IPC: 3.14 (Simulation time: 00 hr 02 min 05 sec)
Heartbeat CPU 0 instructions: 23500161 cycles: 7444482 heartbeat IPC: 4.177 cumulative IPC: 3.157 (Simulation time: 00 hr 02 min 07 sec)
Heartbeat CPU 0 instructions: 24000168 cycles: 7610641 heartbeat IPC: 3.009 cumulative IPC: 3.154 (Simulation time: 00 hr 02 min 10 sec)
Heartbeat CPU 0 instructions: 24500175 cycles: 7764006 heartbeat IPC: 3.26 cumulative IPC: 3.156 (Simulation time: 00 hr 02 min 13 sec)
Heartbeat CPU 0 instructions: 25000182 cycles: 7891727 heartbeat IPC: 3.915 cumulative IPC: 3.168 (Simulation time: 00 hr 02 min 15 sec)
Heartbeat CPU 0 instructions: 25500183 cycles: 8057291 heartbeat IPC: 3.02 cumulative IPC: 3.165 (Simulation time: 00 hr 02 min 18 sec)
Heartbeat CPU 0 instructions: 26000186 cycles: 8232037 heartbeat IPC: 2.861 cumulative IPC: 3.158 (Simulation time: 00 hr 02 min 21 sec)
Heartbeat CPU 0 instructions: 26500192 cycles: 8404721 heartbeat IPC: 2.895 cumulative IPC: 3.153 (Simulation time: 00 hr 02 min 24 sec)
Heartbeat CPU 0 instructions: 27000195 cycles: 8532303 heartbeat IPC: 3.919 cumulative IPC: 3.164 (Simulation time: 00 hr 02 min 26 sec)
Heartbeat CPU 0 instructions: 27500202 cycles: 8668073 heartbeat IPC: 3.683 cumulative IPC: 3.173 (Simulation time: 00 hr 02 min 29 sec)
Heartbeat CPU 0 instructions: 28000208 cycles: 8770309 heartbeat IPC: 4.891 cumulative IPC: 3.193 (Simulation time: 00 hr 02 min 30 sec)
Heartbeat CPU 0 instructions: 28500215 cycles: 8873713 heartbeat IPC: 4.835 cumulative IPC: 3.212 (Simulation time: 00 hr 02 min 32 sec)
Heartbeat CPU 0 instructions: 29000216 cycles: 9031645 heartbeat IPC: 3.166 cumulative IPC: 3.211 (Simulation time: 00 hr 02 min 35 sec)
Heartbeat CPU 0 instructions: 29500219 cycles: 9190262 heartbeat IPC: 3.152 cumulative IPC: 3.21 (Simulation time: 00 hr 02 min 38 sec)
Heartbeat CPU 0 instructions: 30000226 cycles: 9328766 heartbeat IPC: 3.61 cumulative IPC: 3.216 (Simulation time: 00 hr 02 min 40 sec)
Heartbeat CPU 0 instructions: 30500228 cycles: 9454043 heartbeat IPC: 3.991 cumulative IPC: 3.226 (Simulation time: 00 hr 02 min 42 sec)
Heartbeat CPU 0 instructions: 31000232 cycles: 9612554 heartbeat IPC: 3.154 cumulative IPC: 3.225 (Simulation time: 00 hr 02 min 45 sec)
Heartbeat CPU 0 instructions: 31500237 cycles: 9781948 heartbeat IPC: 2.952 cumulative IPC: 3.22 (Simulation time: 00 hr 02 min 48 sec)
Heartbeat CPU 0 instructions: 32000239 cycles: 9932215 heartbeat IPC: 3.327 cumulative IPC: 3.222 (Simulation time: 00 hr 02 min 51 sec)
Heartbeat CPU 0 instructions: 32500245 cycles: 10061643 heartbeat IPC: 3.863 cumulative IPC: 3.23 (Simulation time: 00 hr 02 min 54 sec)
Heartbeat CPU 0 instructions: 33000246 cycles: 10186471 heartbeat IPC: 4.006 cumulative IPC: 3.24 (Simulation time: 00 hr 02 min 56 sec)
Heartbeat CPU 0 instructions: 33500251 cycles: 10316574 heartbeat IPC: 3.843 cumulative IPC: 3.247 (Simulation time: 00 hr 02 min 59 sec)
Heartbeat CPU 0 instructions: 34000258 cycles: 10453143 heartbeat IPC: 3.661 cumulative IPC: 3.253 (Simulation time: 00 hr 03 min 02 sec)
Heartbeat CPU 0 instructions: 34500258 cycles: 10611923 heartbeat IPC: 3.149 cumulative IPC: 3.251 (Simulation time: 00 hr 03 min 05 sec)
Heartbeat CPU 0 instructions: 35000264 cycles: 10777365 heartbeat IPC: 3.022 cumulative IPC: 3.248 (Simulation time: 00 hr 03 min 08 sec)
Heartbeat CPU 0 instructions: 35500264 cycles: 10908189 heartbeat IPC: 3.822 cumulative IPC: 3.254 (Simulation time: 00 hr 03 min 10 sec)
Heartbeat CPU 0 instructions: 36000265 cycles: 11036420 heartbeat IPC: 3.899 cumulative IPC: 3.262 (Simulation time: 00 hr 03 min 13 sec)
Heartbeat CPU 0 instructions: 36500271 cycles: 11190842 heartbeat IPC: 3.238 cumulative IPC: 3.262 (Simulation time: 00 hr 03 min 16 sec)
Heartbeat CPU 0 instructions: 37000278 cycles: 11347067 heartbeat IPC: 3.201 cumulative IPC: 3.261 (Simulation time: 00 hr 03 min 19 sec)
Heartbeat CPU 0 instructions: 37500281 cycles: 11511298 heartbeat IPC: 3.045 cumulative IPC: 3.258 (Simulation time: 00 hr 03 min 22 sec)
Heartbeat CPU 0 instructions: 38000283 cycles: 11647953 heartbeat IPC: 3.659 cumulative IPC: 3.262 (Simulation time: 00 hr 03 min 24 sec)
Heartbeat CPU 0 instructions: 38500287 cycles: 11796150 heartbeat IPC: 3.374 cumulative IPC: 3.264 (Simulation time: 00 hr 03 min 27 sec)
Heartbeat CPU 0 instructions: 39000290 cycles: 11927029 heartbeat IPC: 3.82 cumulative IPC: 3.27 (Simulation time: 00 hr 03 min 30 sec)
Heartbeat CPU 0 instructions: 39500292 cycles: 12040245 heartbeat IPC: 4.416 cumulative IPC: 3.281 (Simulation time: 00 hr 03 min 32 sec)
Heartbeat CPU 0 instructions: 40000295 cycles: 12168635 heartbeat IPC: 3.894 cumulative IPC: 3.287 (Simulation time: 00 hr 03 min 34 sec)
Heartbeat CPU 0 instructions: 40500295 cycles: 12291573 heartbeat IPC: 4.067 cumulative IPC: 3.295 (Simulation time: 00 hr 03 min 37 sec)
Heartbeat CPU 0 instructions: 41000301 cycles: 12443991 heartbeat IPC: 3.28 cumulative IPC: 3.295 (Simulation time: 00 hr 03 min 40 sec)
Heartbeat CPU 0 instructions: 41500308 cycles: 12593226 heartbeat IPC: 3.35 cumulative IPC: 3.295 (Simulation time: 00 hr 03 min 43 sec)
Heartbeat CPU 0 instructions: 42000313 cycles: 12748417 heartbeat IPC: 3.222 cumulative IPC: 3.295 (Simulation time: 00 hr 03 min 45 sec)
Heartbeat CPU 0 instructions: 42500316 cycles: 12881663 heartbeat IPC: 3.752 cumulative IPC: 3.299 (Simulation time: 00 hr 03 min 48 sec)
Heartbeat CPU 0 instructions: 43000316 cycles: 13021131 heartbeat IPC: 3.585 cumulative IPC: 3.302 (Simulation time: 00 hr 03 min 51 sec)
Heartbeat CPU 0 instructions: 43500316 cycles: 13156902 heartbeat IPC: 3.683 cumulative IPC: 3.306 (Simulation time: 00 hr 03 min 54 sec)
Heartbeat CPU 0 instructions: 44000317 cycles: 13284057 heartbeat IPC: 3.932 cumulative IPC: 3.312 (Simulation time: 00 hr 03 min 56 sec)
Heartbeat CPU 0 instructions: 44500319 cycles: 13407524 heartbeat IPC: 4.05 cumulative IPC: 3.319 (Simulation time: 00 hr 03 min 59 sec)
Heartbeat CPU 0 instructions: 45000324 cycles: 13529447 heartbeat IPC: 4.101 cumulative IPC: 3.326 (Simulation time: 00 hr 04 min 01 sec)
Heartbeat CPU 0 instructions: 45500324 cycles: 13663021 heartbeat IPC: 3.743 cumulative IPC: 3.33 (Simulation time: 00 hr 04 min 04 sec)
Heartbeat CPU 0 instructions: 46000325 cycles: 13790171 heartbeat IPC: 3.932 cumulative IPC: 3.336 (Simulation time: 00 hr 04 min 07 sec)
Heartbeat CPU 0 instructions: 46500332 cycles: 13914299 heartbeat IPC: 4.028 cumulative IPC: 3.342 (Simulation time: 00 hr 04 min 09 sec)
Heartbeat CPU 0 instructions: 47000332 cycles: 14058500 heartbeat IPC: 3.467 cumulative IPC: 3.343 (Simulation time: 00 hr 04 min 12 sec)
Heartbeat CPU 0 instructions: 47500338 cycles: 14227904 heartbeat IPC: 2.952 cumulative IPC: 3.339 (Simulation time: 00 hr 04 min 15 sec)
Heartbeat CPU 0 instructions: 48000341 cycles: 14338024 heartbeat IPC: 4.541 cumulative IPC: 3.348 (Simulation time: 00 hr 04 min 17 sec)
Heartbeat CPU 0 instructions: 48500346 cycles: 14485766 heartbeat IPC: 3.384 cumulative IPC: 3.348 (Simulation time: 00 hr 04 min 20 sec)
Heartbeat CPU 0 instructions: 49000351 cycles: 14648377 heartbeat IPC: 3.075 cumulative IPC: 3.345 (Simulation time: 00 hr 04 min 23 sec)
Heartbeat CPU 0 instructions: 49500355 cycles: 14807386 heartbeat IPC: 3.145 cumulative IPC: 3.343 (Simulation time: 00 hr 04 min 25 sec)
Warmup finished CPU 0 instructions: 50000002 cycles: 14956100 cumulative IPC: 3.343 (Simulation time: 00 hr 04 min 28 sec)
Warmup complete CPU 0 instructions: 50000002 cycles: 14956100 cumulative IPC: 3.343 (Simulation time: 00 hr 04 min 28 sec)
Heartbeat CPU 0 instructions: 50000356 cycles: 14956184 heartbeat IPC: 3.36 cumulative IPC: 4.214 (Simulation time: 00 hr 04 min 28 sec)
Heartbeat CPU 0 instructions: 50500360 cycles: 16130378 heartbeat IPC: 0.4258 cumulative IPC: 0.4261 (Simulation time: 00 hr 04 min 37 sec)
Heartbeat CPU 0 instructions: 51000362 cycles: 17802837 heartbeat IPC: 0.299 cumulative IPC: 0.3514 (Simulation time: 00 hr 04 min 48 sec)
Heartbeat CPU 0 instructions: 51500363 cycles: 19118788 heartbeat IPC: 0.38 cumulative IPC: 0.3604 (Simulation time: 00 hr 04 min 57 sec)
Heartbeat CPU 0 instructions: 52000363 cycles: 20743997 heartbeat IPC: 0.3077 cumulative IPC: 0.3456 (Simulation time: 00 hr 05 min 08 sec)
Heartbeat CPU 0 instructions: 52500363 cycles: 22342965 heartbeat IPC: 0.3127 cumulative IPC: 0.3385 (Simulation time: 00 hr 05 min 19 sec)
Heartbeat CPU 0 instructions: 53000363 cycles: 23459515 heartbeat IPC: 0.4478 cumulative IPC: 0.3528 (Simulation time: 00 hr 05 min 27 sec)
Heartbeat CPU 0 instructions: 53500365 cycles: 24101787 heartbeat IPC: 0.7785 cumulative IPC: 0.3827 (Simulation time: 00 hr 05 min 32 sec)
Heartbeat CPU 0 instructions: 54000369 cycles: 26226909 heartbeat IPC: 0.2353 cumulative IPC: 0.3549 (Simulation time: 00 hr 05 min 46 sec)
Heartbeat CPU 0 instructions: 54500373 cycles: 28312348 heartbeat IPC: 0.2398 cumulative IPC: 0.3369 (Simulation time: 00 hr 05 min 59 sec)
Heartbeat CPU 0 instructions: 55000376 cycles: 29346059 heartbeat IPC: 0.4837 cumulative IPC: 0.3475 (Simulation time: 00 hr 06 min 07 sec)
Heartbeat CPU 0 instructions: 55500378 cycles: 30657541 heartbeat IPC: 0.3812 cumulative IPC: 0.3503 (Simulation time: 00 hr 06 min 16 sec)
Heartbeat CPU 0 instructions: 56000379 cycles: 31634236 heartbeat IPC: 0.5119 cumulative IPC: 0.3598 (Simulation time: 00 hr 06 min 23 sec)
Heartbeat CPU 0 instructions: 56500379 cycles: 33174097 heartbeat IPC: 0.3247 cumulative IPC: 0.3568 (Simulation time: 00 hr 06 min 34 sec)
Heartbeat CPU 0 instructions: 57000383 cycles: 34476888 heartbeat IPC: 0.3838 cumulative IPC: 0.3586 (Simulation time: 00 hr 06 min 43 sec)
Heartbeat CPU 0 instructions: 57500383 cycles: 35526714 heartbeat IPC: 0.4763 cumulative IPC: 0.3646 (Simulation time: 00 hr 06 min 51 sec)
Heartbeat CPU 0 instructions: 58000388 cycles: 37078672 heartbeat IPC: 0.3222 cumulative IPC: 0.3616 (Simulation time: 00 hr 07 min 02 sec)
Heartbeat CPU 0 instructions: 58500391 cycles: 38165867 heartbeat IPC: 0.4599 cumulative IPC: 0.3662 (Simulation time: 00 hr 07 min 10 sec)
Heartbeat CPU 0 instructions: 59000391 cycles: 39865587 heartbeat IPC: 0.2942 cumulative IPC: 0.3613 (Simulation time: 00 hr 07 min 22 sec)
Heartbeat CPU 0 instructions: 59500391 cycles: 41301535 heartbeat IPC: 0.3482 cumulative IPC: 0.3606 (Simulation time: 00 hr 07 min 32 sec)
Heartbeat CPU 0 instructions: 60000391 cycles: 42622142 heartbeat IPC: 0.3786 cumulative IPC: 0.3615 (Simulation time: 00 hr 07 min 41 sec)
Heartbeat CPU 0 instructions: 60500394 cycles: 43842736 heartbeat IPC: 0.4096 cumulative IPC: 0.3635 (Simulation time: 00 hr 07 min 50 sec)
Heartbeat CPU 0 instructions: 61000398 cycles: 44968706 heartbeat IPC: 0.4441 cumulative IPC: 0.3665 (Simulation time: 00 hr 07 min 58 sec)
Heartbeat CPU 0 instructions: 61500398 cycles: 46869683 heartbeat IPC: 0.263 cumulative IPC: 0.3604 (Simulation time: 00 hr 08 min 10 sec)
Heartbeat CPU 0 instructions: 62000403 cycles: 48563919 heartbeat IPC: 0.2951 cumulative IPC: 0.3571 (Simulation time: 00 hr 08 min 22 sec)
Heartbeat CPU 0 instructions: 62500403 cycles: 49894586 heartbeat IPC: 0.3758 cumulative IPC: 0.3578 (Simulation time: 00 hr 08 min 31 sec)
Heartbeat CPU 0 instructions: 63000407 cycles: 51282142 heartbeat IPC: 0.3603 cumulative IPC: 0.3579 (Simulation time: 00 hr 08 min 40 sec)
Heartbeat CPU 0 instructions: 63500407 cycles: 52657366 heartbeat IPC: 0.3636 cumulative IPC: 0.3581 (Simulation time: 00 hr 08 min 50 sec)
Heartbeat CPU 0 instructions: 64000413 cycles: 53386092 heartbeat IPC: 0.6861 cumulative IPC: 0.3643 (Simulation time: 00 hr 08 min 56 sec)
Heartbeat CPU 0 instructions: 64500416 cycles: 55078908 heartbeat IPC: 0.2954 cumulative IPC: 0.3614 (Simulation time: 00 hr 09 min 07 sec)
Heartbeat CPU 0 instructions: 65000416 cycles: 56434597 heartbeat IPC: 0.3688 cumulative IPC: 0.3616 (Simulation time: 00 hr 09 min 17 sec)
Heartbeat CPU 0 instructions: 65500420 cycles: 57569557 heartbeat IPC: 0.4405 cumulative IPC: 0.3637 (Simulation time: 00 hr 09 min 25 sec)
Heartbeat CPU 0 instructions: 66000424 cycles: 58289803 heartbeat IPC: 0.6942 cumulative IPC: 0.3692 (Simulation time: 00 hr 09 min 31 sec)
Heartbeat CPU 0 instructions: 66500425 cycles: 59209006 heartbeat IPC: 0.544 cumulative IPC: 0.3729 (Simulation time: 00 hr 09 min 38 sec)
Heartbeat CPU 0 instructions: 67000426 cycles: 60067401 heartbeat IPC: 0.5825 cumulative IPC: 0.3769 (Simulation time: 00 hr 09 min 44 sec)
Heartbeat CPU 0 instructions: 67500426 cycles: 61586646 heartbeat IPC: 0.3291 cumulative IPC: 0.3753 (Simulation time: 00 hr 09 min 55 sec)
Heartbeat CPU 0 instructions: 68000426 cycles: 62993455 heartbeat IPC: 0.3554 cumulative IPC: 0.3747 (Simulation time: 00 hr 10 min 05 sec)
Heartbeat CPU 0 instructions: 68500427 cycles: 63548216 heartbeat IPC: 0.9013 cumulative IPC: 0.3807 (Simulation time: 00 hr 10 min 10 sec)
Heartbeat CPU 0 instructions: 69000428 cycles: 64890577 heartbeat IPC: 0.3725 cumulative IPC: 0.3805 (Simulation time: 00 hr 10 min 20 sec)
Heartbeat CPU 0 instructions: 69500429 cycles: 66200346 heartbeat IPC: 0.3817 cumulative IPC: 0.3805 (Simulation time: 00 hr 10 min 29 sec)
Heartbeat CPU 0 instructions: 70000435 cycles: 67290868 heartbeat IPC: 0.4585 cumulative IPC: 0.3822 (Simulation time: 00 hr 10 min 37 sec)
Heartbeat CPU 0 instructions: 70500438 cycles: 69127224 heartbeat IPC: 0.2723 cumulative IPC: 0.3784 (Simulation time: 00 hr 10 min 49 sec)
Heartbeat CPU 0 instructions: 71000441 cycles: 70451316 heartbeat IPC: 0.3776 cumulative IPC: 0.3784 (Simulation time: 00 hr 10 min 58 sec)
Heartbeat CPU 0 instructions: 71500445 cycles: 71808794 heartbeat IPC: 0.3683 cumulative IPC: 0.3782 (Simulation time: 00 hr 11 min 08 sec)
Heartbeat CPU 0 instructions: 72000446 cycles: 72164348 heartbeat IPC: 1.406 cumulative IPC: 0.3846 (Simulation time: 00 hr 11 min 11 sec)
Heartbeat CPU 0 instructions: 72500446 cycles: 72455556 heartbeat IPC: 1.717 cumulative IPC: 0.3913 (Simulation time: 00 hr 11 min 14 sec)
Heartbeat CPU 0 instructions: 73000446 cycles: 72773402 heartbeat IPC: 1.573 cumulative IPC: 0.3978 (Simulation time: 00 hr 11 min 17 sec)
Heartbeat CPU 0 instructions: 73500448 cycles: 73040297 heartbeat IPC: 1.873 cumulative IPC: 0.4046 (Simulation time: 00 hr 11 min 20 sec)
Heartbeat CPU 0 instructions: 74000451 cycles: 73296809 heartbeat IPC: 1.949 cumulative IPC: 0.4114 (Simulation time: 00 hr 11 min 23 sec)
Heartbeat CPU 0 instructions: 74500452 cycles: 73585223 heartbeat IPC: 1.734 cumulative IPC: 0.4179 (Simulation time: 00 hr 11 min 26 sec)
Heartbeat CPU 0 instructions: 75000453 cycles: 73772808 heartbeat IPC: 2.665 cumulative IPC: 0.4251 (Simulation time: 00 hr 11 min 28 sec)
Heartbeat CPU 0 instructions: 75500457 cycles: 74514607 heartbeat IPC: 0.674 cumulative IPC: 0.4282 (Simulation time: 00 hr 11 min 34 sec)
Heartbeat CPU 0 instructions: 76000459 cycles: 75724839 heartbeat IPC: 0.4131 cumulative IPC: 0.4279 (Simulation time: 00 hr 11 min 43 sec)
Heartbeat CPU 0 instructions: 76500459 cycles: 77502691 heartbeat IPC: 0.2812 cumulative IPC: 0.4237 (Simulation time: 00 hr 11 min 54 sec)
Heartbeat CPU 0 instructions: 77000466 cycles: 78604914 heartbeat IPC: 0.4536 cumulative IPC: 0.4242 (Simulation time: 00 hr 12 min 03 sec)
Heartbeat CPU 0 instructions: 77500467 cycles: 79689156 heartbeat IPC: 0.4612 cumulative IPC: 0.4248 (Simulation time: 00 hr 12 min 10 sec)
Heartbeat CPU 0 instructions: 78000468 cycles: 79965053 heartbeat IPC: 1.812 cumulative IPC: 0.4307 (Simulation time: 00 hr 12 min 13 sec)
Heartbeat CPU 0 instructions: 78500470 cycles: 80239571 heartbeat IPC: 1.821 cumulative IPC: 0.4366 (Simulation time: 00 hr 12 min 16 sec)
Heartbeat CPU 0 instructions: 79000470 cycles: 80491809 heartbeat IPC: 1.982 cumulative IPC: 0.4425 (Simulation time: 00 hr 12 min 19 sec)
Heartbeat CPU 0 instructions: 79500472 cycles: 80792934 heartbeat IPC: 1.66 cumulative IPC: 0.4481 (Simulation time: 00 hr 12 min 22 sec)
Heartbeat CPU 0 instructions: 80000472 cycles: 81021472 heartbeat IPC: 2.188 cumulative IPC: 0.4541 (Simulation time: 00 hr 12 min 25 sec)
Heartbeat CPU 0 instructions: 80500475 cycles: 81193567 heartbeat IPC: 2.905 cumulative IPC: 0.4605 (Simulation time: 00 hr 12 min 27 sec)
Heartbeat CPU 0 instructions: 81000477 cycles: 81995488 heartbeat IPC: 0.6235 cumulative IPC: 0.4624 (Simulation time: 00 hr 12 min 33 sec)
Heartbeat CPU 0 instructions: 81500480 cycles: 83771523 heartbeat IPC: 0.2815 cumulative IPC: 0.4578 (Simulation time: 00 hr 12 min 45 sec)
Heartbeat CPU 0 instructions: 82000481 cycles: 85516137 heartbeat IPC: 0.2866 cumulative IPC: 0.4535 (Simulation time: 00 hr 12 min 57 sec)
Heartbeat CPU 0 instructions: 82500487 cycles: 86836139 heartbeat IPC: 0.3788 cumulative IPC: 0.4521 (Simulation time: 00 hr 13 min 06 sec)
Heartbeat CPU 0 instructions: 83000487 cycles: 87985503 heartbeat IPC: 0.435 cumulative IPC: 0.4519 (Simulation time: 00 hr 13 min 14 sec)
Heartbeat CPU 0 instructions: 83500489 cycles: 89217949 heartbeat IPC: 0.4057 cumulative IPC: 0.4511 (Simulation time: 00 hr 13 min 23 sec)
Heartbeat CPU 0 instructions: 84000494 cycles: 90526135 heartbeat IPC: 0.3822 cumulative IPC: 0.4499 (Simulation time: 00 hr 13 min 33 sec)
Heartbeat CPU 0 instructions: 84500499 cycles: 91881241 heartbeat IPC: 0.369 cumulative IPC: 0.4485 (Simulation time: 00 hr 13 min 42 sec)
Heartbeat CPU 0 instructions: 85000499 cycles: 93107434 heartbeat IPC: 0.4078 cumulative IPC: 0.4479 (Simulation time: 00 hr 13 min 51 sec)
Heartbeat CPU 0 instructions: 85500499 cycles: 94396439 heartbeat IPC: 0.3879 cumulative IPC: 0.4469 (Simulation time: 00 hr 14 min 00 sec)
Heartbeat CPU 0 instructions: 86000499 cycles: 95745459 heartbeat IPC: 0.3706 cumulative IPC: 0.4456 (Simulation time: 00 hr 14 min 10 sec)
Heartbeat CPU 0 instructions: 86500499 cycles: 96868458 heartbeat IPC: 0.4452 cumulative IPC: 0.4456 (Simulation time: 00 hr 14 min 19 sec)
Heartbeat CPU 0 instructions: 87000500 cycles: 98926209 heartbeat IPC: 0.243 cumulative IPC: 0.4406 (Simulation time: 00 hr 14 min 33 sec)
Heartbeat CPU 0 instructions: 87500500 cycles: 99522887 heartbeat IPC: 0.838 cumulative IPC: 0.4434 (Simulation time: 00 hr 14 min 38 sec)
Heartbeat CPU 0 instructions: 88000500 cycles: 100692802 heartbeat IPC: 0.4274 cumulative IPC: 0.4432 (Simulation time: 00 hr 14 min 46 sec)
Heartbeat CPU 0 instructions: 88500505 cycles: 101765392 heartbeat IPC: 0.4662 cumulative IPC: 0.4435 (Simulation time: 00 hr 14 min 54 sec)
Heartbeat CPU 0 instructions: 89000505 cycles: 102944057 heartbeat IPC: 0.4242 cumulative IPC: 0.4432 (Simulation time: 00 hr 15 min 02 sec)
Heartbeat CPU 0 instructions: 89500507 cycles: 104482131 heartbeat IPC: 0.3251 cumulative IPC: 0.4412 (Simulation time: 00 hr 15 min 13 sec)
Heartbeat CPU 0 instructions: 90000508 cycles: 105814936 heartbeat IPC: 0.3751 cumulative IPC: 0.4402 (Simulation time: 00 hr 15 min 22 sec)
Heartbeat CPU 0 instructions: 90500508 cycles: 106324882 heartbeat IPC: 0.9805 cumulative IPC: 0.4433 (Simulation time: 00 hr 15 min 27 sec)
Heartbeat CPU 0 instructions: 91000514 cycles: 106656234 heartbeat IPC: 1.509 cumulative IPC: 0.4471 (Simulation time: 00 hr 15 min 30 sec)
Heartbeat CPU 0 instructions: 91500514 cycles: 107835027 heartbeat IPC: 0.4242 cumulative IPC: 0.4468 (Simulation time: 00 hr 15 min 38 sec)
Heartbeat CPU 0 instructions: 92000515 cycles: 108676718 heartbeat IPC: 0.594 cumulative IPC: 0.4481 (Simulation time: 00 hr 15 min 44 sec)
Heartbeat CPU 0 instructions: 92500516 cycles: 109155306 heartbeat IPC: 1.045 cumulative IPC: 0.4512 (Simulation time: 00 hr 15 min 48 sec)
Heartbeat CPU 0 instructions: 93000516 cycles: 109779843 heartbeat IPC: 0.8006 cumulative IPC: 0.4535 (Simulation time: 00 hr 15 min 54 sec)
Heartbeat CPU 0 instructions: 93500517 cycles: 109996396 heartbeat IPC: 2.309 cumulative IPC: 0.4577 (Simulation time: 00 hr 15 min 56 sec)
Heartbeat CPU 0 instructions: 94000521 cycles: 110215188 heartbeat IPC: 2.285 cumulative IPC: 0.4619 (Simulation time: 00 hr 15 min 59 sec)
Heartbeat CPU 0 instructions: 94500521 cycles: 110416323 heartbeat IPC: 2.486 cumulative IPC: 0.4662 (Simulation time: 00 hr 16 min 01 sec)
Heartbeat CPU 0 instructions: 95000521 cycles: 110608024 heartbeat IPC: 2.608 cumulative IPC: 0.4705 (Simulation time: 00 hr 16 min 04 sec)
Heartbeat CPU 0 instructions: 95500522 cycles: 110900486 heartbeat IPC: 1.71 cumulative IPC: 0.4742 (Simulation time: 00 hr 16 min 07 sec)
Heartbeat CPU 0 instructions: 96000526 cycles: 111076166 heartbeat IPC: 2.846 cumulative IPC: 0.4786 (Simulation time: 00 hr 16 min 09 sec)
Heartbeat CPU 0 instructions: 96500528 cycles: 111892977 heartbeat IPC: 0.6121 cumulative IPC: 0.4797 (Simulation time: 00 hr 16 min 15 sec)
Heartbeat CPU 0 instructions: 97000535 cycles: 112774579 heartbeat IPC: 0.5672 cumulative IPC: 0.4805 (Simulation time: 00 hr 16 min 22 sec)
Heartbeat CPU 0 instructions: 97500537 cycles: 113308079 heartbeat IPC: 0.9372 cumulative IPC: 0.483 (Simulation time: 00 hr 16 min 26 sec)
Heartbeat CPU 0 instructions: 98000542 cycles: 115008494 heartbeat IPC: 0.294 cumulative IPC: 0.4798 (Simulation time: 00 hr 16 min 38 sec)
Heartbeat CPU 0 instructions: 98500546 cycles: 116724017 heartbeat IPC: 0.2915 cumulative IPC: 0.4766 (Simulation time: 00 hr 16 min 49 sec)
Heartbeat CPU 0 instructions: 99000547 cycles: 118586111 heartbeat IPC: 0.2685 cumulative IPC: 0.4728 (Simulation time: 00 hr 17 min 02 sec)
Heartbeat CPU 0 instructions: 99500549 cycles: 119959955 heartbeat IPC: 0.3639 cumulative IPC: 0.4714 (Simulation time: 00 hr 17 min 11 sec)
Heartbeat CPU 0 instructions: 100000554 cycles: 121469380 heartbeat IPC: 0.3313 cumulative IPC: 0.4694 (Simulation time: 00 hr 17 min 22 sec)
Heartbeat CPU 0 instructions: 100500559 cycles: 122269137 heartbeat IPC: 0.6252 cumulative IPC: 0.4706 (Simulation time: 00 hr 17 min 28 sec)
Heartbeat CPU 0 instructions: 101000562 cycles: 122623844 heartbeat IPC: 1.41 cumulative IPC: 0.4737 (Simulation time: 00 hr 17 min 31 sec)
Heartbeat CPU 0 instructions: 101500563 cycles: 122924477 heartbeat IPC: 1.663 cumulative IPC: 0.477 (Simulation time: 00 hr 17 min 34 sec)
Heartbeat CPU 0 instructions: 102000570 cycles: 123866824 heartbeat IPC: 0.5306 cumulative IPC: 0.4775 (Simulation time: 00 hr 17 min 41 sec)
Heartbeat CPU 0 instructions: 102500570 cycles: 125217858 heartbeat IPC: 0.3701 cumulative IPC: 0.4761 (Simulation time: 00 hr 17 min 50 sec)
Heartbeat CPU 0 instructions: 103000577 cycles: 126350845 heartbeat IPC: 0.4413 cumulative IPC: 0.4758 (Simulation time: 00 hr 17 min 59 sec)
Heartbeat CPU 0 instructions: 103500577 cycles: 126787441 heartbeat IPC: 1.145 cumulative IPC: 0.4784 (Simulation time: 00 hr 18 min 02 sec)
Heartbeat CPU 0 instructions: 104000578 cycles: 127117789 heartbeat IPC: 1.514 cumulative IPC: 0.4815 (Simulation time: 00 hr 18 min 06 sec)
Heartbeat CPU 0 instructions: 104500583 cycles: 127419923 heartbeat IPC: 1.655 cumulative IPC: 0.4846 (Simulation time: 00 hr 18 min 08 sec)
Heartbeat CPU 0 instructions: 105000584 cycles: 128741723 heartbeat IPC: 0.3783 cumulative IPC: 0.4834 (Simulation time: 00 hr 18 min 17 sec)
Heartbeat CPU 0 instructions: 105500590 cycles: 129805922 heartbeat IPC: 0.4698 cumulative IPC: 0.4832 (Simulation time: 00 hr 18 min 25 sec)
Heartbeat CPU 0 instructions: 106000594 cycles: 130817900 heartbeat IPC: 0.4941 cumulative IPC: 0.4833 (Simulation time: 00 hr 18 min 33 sec)
Heartbeat CPU 0 instructions: 106500594 cycles: 132266875 heartbeat IPC: 0.3451 cumulative IPC: 0.4816 (Simulation time: 00 hr 18 min 43 sec)
Heartbeat CPU 0 instructions: 107000596 cycles: 132669890 heartbeat IPC: 1.241 cumulative IPC: 0.4842 (Simulation time: 00 hr 18 min 46 sec)
Heartbeat CPU 0 instructions: 107500602 cycles: 132929131 heartbeat IPC: 1.929 cumulative IPC: 0.4874 (Simulation time: 00 hr 18 min 49 sec)
Heartbeat CPU 0 instructions: 108000602 cycles: 133208507 heartbeat IPC: 1.79 cumulative IPC: 0.4905 (Simulation time: 00 hr 18 min 52 sec)
Heartbeat CPU 0 instructions: 108500605 cycles: 133544545 heartbeat IPC: 1.488 cumulative IPC: 0.4933 (Simulation time: 00 hr 18 min 55 sec)
Heartbeat CPU 0 instructions: 109000605 cycles: 133884990 heartbeat IPC: 1.469 cumulative IPC: 0.4961 (Simulation time: 00 hr 18 min 59 sec)
Heartbeat CPU 0 instructions: 109500612 cycles: 134159428 heartbeat IPC: 1.822 cumulative IPC: 0.4992 (Simulation time: 00 hr 19 min 02 sec)
Heartbeat CPU 0 instructions: 110000613 cycles: 134423104 heartbeat IPC: 1.896 cumulative IPC: 0.5022 (Simulation time: 00 hr 19 min 04 sec)
Heartbeat CPU 0 instructions: 110500613 cycles: 134597931 heartbeat IPC: 2.86 cumulative IPC: 0.5057 (Simulation time: 00 hr 19 min 07 sec)
Heartbeat CPU 0 instructions: 111000616 cycles: 135161836 heartbeat IPC: 0.8867 cumulative IPC: 0.5075 (Simulation time: 00 hr 19 min 11 sec)
Heartbeat CPU 0 instructions: 111500616 cycles: 136509961 heartbeat IPC: 0.3709 cumulative IPC: 0.506 (Simulation time: 00 hr 19 min 21 sec)
Heartbeat CPU 0 instructions: 112000616 cycles: 137872789 heartbeat IPC: 0.3669 cumulative IPC: 0.5044 (Simulation time: 00 hr 19 min 31 sec)
Heartbeat CPU 0 instructions: 112500616 cycles: 139201775 heartbeat IPC: 0.3762 cumulative IPC: 0.503 (Simulation time: 00 hr 19 min 40 sec)
Heartbeat CPU 0 instructions: 113000619 cycles: 140334466 heartbeat IPC: 0.4414 cumulative IPC: 0.5025 (Simulation time: 00 hr 19 min 49 sec)
Heartbeat CPU 0 instructions: 113500620 cycles: 141279802 heartbeat IPC: 0.5289 cumulative IPC: 0.5027 (Simulation time: 00 hr 19 min 56 sec)
Heartbeat CPU 0 instructions: 114000624 cycles: 142303358 heartbeat IPC: 0.4885 cumulative IPC: 0.5026 (Simulation time: 00 hr 20 min 03 sec)
Heartbeat CPU 0 instructions: 114500626 cycles: 144017216 heartbeat IPC: 0.2917 cumulative IPC: 0.4998 (Simulation time: 00 hr 20 min 15 sec)
Heartbeat CPU 0 instructions: 115000628 cycles: 145076961 heartbeat IPC: 0.4718 cumulative IPC: 0.4995 (Simulation time: 00 hr 20 min 23 sec)
Heartbeat CPU 0 instructions: 115500629 cycles: 146129767 heartbeat IPC: 0.4749 cumulative IPC: 0.4993 (Simulation time: 00 hr 20 min 30 sec)
Heartbeat CPU 0 instructions: 116000630 cycles: 147305040 heartbeat IPC: 0.4254 cumulative IPC: 0.4987 (Simulation time: 00 hr 20 min 38 sec)
Heartbeat CPU 0 instructions: 116500630 cycles: 148280760 heartbeat IPC: 0.5124 cumulative IPC: 0.4988 (Simulation time: 00 hr 20 min 46 sec)
Heartbeat CPU 0 instructions: 117000630 cycles: 148698644 heartbeat IPC: 1.197 cumulative IPC: 0.501 (Simulation time: 00 hr 20 min 49 sec)
Heartbeat CPU 0 instructions: 117500634 cycles: 148965015 heartbeat IPC: 1.877 cumulative IPC: 0.5037 (Simulation time: 00 hr 20 min 52 sec)
Heartbeat CPU 0 instructions: 118000637 cycles: 149313360 heartbeat IPC: 1.435 cumulative IPC: 0.5061 (Simulation time: 00 hr 20 min 56 sec)
Heartbeat CPU 0 instructions: 118500638 cycles: 149555973 heartbeat IPC: 2.061 cumulative IPC: 0.5089 (Simulation time: 00 hr 20 min 58 sec)
Heartbeat CPU 0 instructions: 119000641 cycles: 149792776 heartbeat IPC: 2.111 cumulative IPC: 0.5117 (Simulation time: 00 hr 21 min 01 sec)
Heartbeat CPU 0 instructions: 119500642 cycles: 150053849 heartbeat IPC: 1.915 cumulative IPC: 0.5144 (Simulation time: 00 hr 21 min 04 sec)
Heartbeat CPU 0 instructions: 120000646 cycles: 150358378 heartbeat IPC: 1.642 cumulative IPC: 0.517 (Simulation time: 00 hr 21 min 07 sec)
Heartbeat CPU 0 instructions: 120500646 cycles: 150601553 heartbeat IPC: 2.056 cumulative IPC: 0.5197 (Simulation time: 00 hr 21 min 09 sec)
Heartbeat CPU 0 instructions: 121000646 cycles: 151153875 heartbeat IPC: 0.9053 cumulative IPC: 0.5213 (Simulation time: 00 hr 21 min 14 sec)
Heartbeat CPU 0 instructions: 121500653 cycles: 151329235 heartbeat IPC: 2.851 cumulative IPC: 0.5243 (Simulation time: 00 hr 21 min 16 sec)
Heartbeat CPU 0 instructions: 122000656 cycles: 151498333 heartbeat IPC: 2.957 cumulative IPC: 0.5273 (Simulation time: 00 hr 21 min 18 sec)
Heartbeat CPU 0 instructions: 122500656 cycles: 151704577 heartbeat IPC: 2.424 cumulative IPC: 0.5302 (Simulation time: 00 hr 21 min 20 sec)
Heartbeat CPU 0 instructions: 123000662 cycles: 153308358 heartbeat IPC: 0.3118 cumulative IPC: 0.5276 (Simulation time: 00 hr 21 min 32 sec)
Heartbeat CPU 0 instructions: 123500662 cycles: 155094379 heartbeat IPC: 0.28 cumulative IPC: 0.5245 (Simulation time: 00 hr 21 min 44 sec)
Heartbeat CPU 0 instructions: 124000662 cycles: 156768587 heartbeat IPC: 0.2986 cumulative IPC: 0.5218 (Simulation time: 00 hr 21 min 56 sec)
Heartbeat CPU 0 instructions: 124500665 cycles: 157584454 heartbeat IPC: 0.6128 cumulative IPC: 0.5223 (Simulation time: 00 hr 22 min 03 sec)
Heartbeat CPU 0 instructions: 125000666 cycles: 159162294 heartbeat IPC: 0.3169 cumulative IPC: 0.5201 (Simulation time: 00 hr 22 min 13 sec)
Heartbeat CPU 0 instructions: 125500668 cycles: 160334786 heartbeat IPC: 0.4264 cumulative IPC: 0.5193 (Simulation time: 00 hr 22 min 21 sec)
Heartbeat CPU 0 instructions: 126000668 cycles: 161713657 heartbeat IPC: 0.3626 cumulative IPC: 0.5179 (Simulation time: 00 hr 22 min 31 sec)
Heartbeat CPU 0 instructions: 126500668 cycles: 162384724 heartbeat IPC: 0.7451 cumulative IPC: 0.5189 (Simulation time: 00 hr 22 min 36 sec)
Heartbeat CPU 0 instructions: 127000668 cycles: 162705918 heartbeat IPC: 1.557 cumulative IPC: 0.5212 (Simulation time: 00 hr 22 min 38 sec)
Heartbeat CPU 0 instructions: 127500670 cycles: 162990382 heartbeat IPC: 1.758 cumulative IPC: 0.5235 (Simulation time: 00 hr 22 min 41 sec)
Heartbeat CPU 0 instructions: 128000674 cycles: 163283255 heartbeat IPC: 1.707 cumulative IPC: 0.5259 (Simulation time: 00 hr 22 min 44 sec)
Heartbeat CPU 0 instructions: 128500677 cycles: 163554502 heartbeat IPC: 1.843 cumulative IPC: 0.5283 (Simulation time: 00 hr 22 min 47 sec)
Heartbeat CPU 0 instructions: 129000680 cycles: 163819778 heartbeat IPC: 1.885 cumulative IPC: 0.5307 (Simulation time: 00 hr 22 min 49 sec)
Heartbeat CPU 0 instructions: 129500680 cycles: 164145551 heartbeat IPC: 1.535 cumulative IPC: 0.5329 (Simulation time: 00 hr 22 min 53 sec)
Heartbeat CPU 0 instructions: 130000680 cycles: 164414576 heartbeat IPC: 1.859 cumulative IPC: 0.5353 (Simulation time: 00 hr 22 min 55 sec)
Heartbeat CPU 0 instructions: 130500682 cycles: 165796715 heartbeat IPC: 0.3618 cumulative IPC: 0.5337 (Simulation time: 00 hr 23 min 04 sec)
Heartbeat CPU 0 instructions: 131000684 cycles: 166084474 heartbeat IPC: 1.738 cumulative IPC: 0.536 (Simulation time: 00 hr 23 min 06 sec)
Heartbeat CPU 0 instructions: 131500690 cycles: 166355823 heartbeat IPC: 1.843 cumulative IPC: 0.5383 (Simulation time: 00 hr 23 min 09 sec)
Heartbeat CPU 0 instructions: 132000690 cycles: 166621502 heartbeat IPC: 1.882 cumulative IPC: 0.5407 (Simulation time: 00 hr 23 min 12 sec)
Heartbeat CPU 0 instructions: 132500692 cycles: 167811667 heartbeat IPC: 0.4201 cumulative IPC: 0.5397 (Simulation time: 00 hr 23 min 19 sec)
Heartbeat CPU 0 instructions: 133000692 cycles: 169096476 heartbeat IPC: 0.3892 cumulative IPC: 0.5385 (Simulation time: 00 hr 23 min 28 sec)
Heartbeat CPU 0 instructions: 133500693 cycles: 170227857 heartbeat IPC: 0.4419 cumulative IPC: 0.5378 (Simulation time: 00 hr 23 min 36 sec)
Heartbeat CPU 0 instructions: 134000693 cycles: 171335827 heartbeat IPC: 0.4513 cumulative IPC: 0.5372 (Simulation time: 00 hr 23 min 43 sec)
Heartbeat CPU 0 instructions: 134500693 cycles: 171651327 heartbeat IPC: 1.585 cumulative IPC: 0.5393 (Simulation time: 00 hr 23 min 46 sec)
Heartbeat CPU 0 instructions: 135000698 cycles: 171967971 heartbeat IPC: 1.579 cumulative IPC: 0.5414 (Simulation time: 00 hr 23 min 49 sec)
Heartbeat CPU 0 instructions: 135500701 cycles: 172368285 heartbeat IPC: 1.249 cumulative IPC: 0.5432 (Simulation time: 00 hr 23 min 52 sec)
Heartbeat CPU 0 instructions: 136000703 cycles: 172928498 heartbeat IPC: 0.8925 cumulative IPC: 0.5444 (Simulation time: 00 hr 23 min 56 sec)
Heartbeat CPU 0 instructions: 136500708 cycles: 174788156 heartbeat IPC: 0.2689 cumulative IPC: 0.5412 (Simulation time: 00 hr 24 min 08 sec)
Heartbeat CPU 0 instructions: 137000712 cycles: 175837545 heartbeat IPC: 0.4765 cumulative IPC: 0.5408 (Simulation time: 00 hr 24 min 14 sec)
Heartbeat CPU 0 instructions: 137500713 cycles: 176182346 heartbeat IPC: 1.45 cumulative IPC: 0.5427 (Simulation time: 00 hr 24 min 17 sec)
Heartbeat CPU 0 instructions: 138000716 cycles: 176528641 heartbeat IPC: 1.444 cumulative IPC: 0.5447 (Simulation time: 00 hr 24 min 21 sec)
Heartbeat CPU 0 instructions: 138500716 cycles: 177232119 heartbeat IPC: 0.7108 cumulative IPC: 0.5454 (Simulation time: 00 hr 24 min 25 sec)
Heartbeat CPU 0 instructions: 139000716 cycles: 178660038 heartbeat IPC: 0.3502 cumulative IPC: 0.5437 (Simulation time: 00 hr 24 min 35 sec)
Heartbeat CPU 0 instructions: 139500718 cycles: 179771893 heartbeat IPC: 0.4497 cumulative IPC: 0.543 (Simulation time: 00 hr 24 min 42 sec)
Heartbeat CPU 0 instructions: 140000718 cycles: 181624579 heartbeat IPC: 0.2699 cumulative IPC: 0.54 (Simulation time: 00 hr 24 min 54 sec)
Heartbeat CPU 0 instructions: 140500719 cycles: 182679800 heartbeat IPC: 0.4738 cumulative IPC: 0.5396 (Simulation time: 00 hr 25 min 01 sec)
Heartbeat CPU 0 instructions: 141000720 cycles: 183434852 heartbeat IPC: 0.6622 cumulative IPC: 0.5401 (Simulation time: 00 hr 25 min 07 sec)
Heartbeat CPU 0 instructions: 141500720 cycles: 183769687 heartbeat IPC: 1.493 cumulative IPC: 0.542 (Simulation time: 00 hr 25 min 10 sec)
Heartbeat CPU 0 instructions: 142000722 cycles: 183993783 heartbeat IPC: 2.231 cumulative IPC: 0.5443 (Simulation time: 00 hr 25 min 12 sec)
Heartbeat CPU 0 instructions: 142500724 cycles: 185302166 heartbeat IPC: 0.3822 cumulative IPC: 0.543 (Simulation time: 00 hr 25 min 21 sec)
Heartbeat CPU 0 instructions: 143000724 cycles: 186501812 heartbeat IPC: 0.4168 cumulative IPC: 0.5421 (Simulation time: 00 hr 25 min 29 sec)
Heartbeat CPU 0 instructions: 143500725 cycles: 187408447 heartbeat IPC: 0.5515 cumulative IPC: 0.5422 (Simulation time: 00 hr 25 min 35 sec)
Heartbeat CPU 0 instructions: 144000727 cycles: 188411056 heartbeat IPC: 0.4987 cumulative IPC: 0.5419 (Simulation time: 00 hr 25 min 42 sec)
Heartbeat CPU 0 instructions: 144500730 cycles: 190132209 heartbeat IPC: 0.2905 cumulative IPC: 0.5395 (Simulation time: 00 hr 25 min 53 sec)
Heartbeat CPU 0 instructions: 145000732 cycles: 191318585 heartbeat IPC: 0.4215 cumulative IPC: 0.5387 (Simulation time: 00 hr 26 min 01 sec)
Heartbeat CPU 0 instructions: 145500737 cycles: 192302708 heartbeat IPC: 0.5081 cumulative IPC: 0.5385 (Simulation time: 00 hr 26 min 07 sec)
Heartbeat CPU 0 instructions: 146000737 cycles: 193745287 heartbeat IPC: 0.3466 cumulative IPC: 0.5369 (Simulation time: 00 hr 26 min 17 sec)
Heartbeat CPU 0 instructions: 146500739 cycles: 194764325 heartbeat IPC: 0.4907 cumulative IPC: 0.5367 (Simulation time: 00 hr 26 min 23 sec)
Heartbeat CPU 0 instructions: 147000741 cycles: 196086812 heartbeat IPC: 0.3781 cumulative IPC: 0.5355 (Simulation time: 00 hr 26 min 31 sec)
Heartbeat CPU 0 instructions: 147500741 cycles: 197110943 heartbeat IPC: 0.4882 cumulative IPC: 0.5353 (Simulation time: 00 hr 26 min 38 sec)
Heartbeat CPU 0 instructions: 148000742 cycles: 197815206 heartbeat IPC: 0.71 cumulative IPC: 0.5359 (Simulation time: 00 hr 26 min 43 sec)
Heartbeat CPU 0 instructions: 148500745 cycles: 199002223 heartbeat IPC: 0.4212 cumulative IPC: 0.5352 (Simulation time: 00 hr 26 min 51 sec)
Heartbeat CPU 0 instructions: 149000750 cycles: 199904374 heartbeat IPC: 0.5542 cumulative IPC: 0.5353 (Simulation time: 00 hr 26 min 58 sec)
Heartbeat CPU 0 instructions: 149500754 cycles: 201186950 heartbeat IPC: 0.3898 cumulative IPC: 0.5343 (Simulation time: 00 hr 27 min 09 sec)
Heartbeat CPU 0 instructions: 150000755 cycles: 201773886 heartbeat IPC: 0.8519 cumulative IPC: 0.5353 (Simulation time: 00 hr 27 min 15 sec)
Heartbeat CPU 0 instructions: 150500757 cycles: 202836329 heartbeat IPC: 0.4706 cumulative IPC: 0.5349 (Simulation time: 00 hr 27 min 22 sec)
Heartbeat CPU 0 instructions: 151000757 cycles: 203232383 heartbeat IPC: 1.262 cumulative IPC: 0.5364 (Simulation time: 00 hr 27 min 26 sec)
Heartbeat CPU 0 instructions: 151500759 cycles: 203546767 heartbeat IPC: 1.59 cumulative IPC: 0.5382 (Simulation time: 00 hr 27 min 29 sec)
Heartbeat CPU 0 instructions: 152000759 cycles: 205095027 heartbeat IPC: 0.3229 cumulative IPC: 0.5365 (Simulation time: 00 hr 27 min 38 sec)
Heartbeat CPU 0 instructions: 152500766 cycles: 206467248 heartbeat IPC: 0.3644 cumulative IPC: 0.5352 (Simulation time: 00 hr 27 min 47 sec)
Heartbeat CPU 0 instructions: 153000766 cycles: 208073007 heartbeat IPC: 0.3114 cumulative IPC: 0.5334 (Simulation time: 00 hr 27 min 56 sec)
Heartbeat CPU 0 instructions: 153500768 cycles: 209039064 heartbeat IPC: 0.5176 cumulative IPC: 0.5333 (Simulation time: 00 hr 28 min 03 sec)
Heartbeat CPU 0 instructions: 154000769 cycles: 209586624 heartbeat IPC: 0.9131 cumulative IPC: 0.5343 (Simulation time: 00 hr 28 min 07 sec)
Heartbeat CPU 0 instructions: 154500771 cycles: 209927430 heartbeat IPC: 1.467 cumulative IPC: 0.536 (Simulation time: 00 hr 28 min 10 sec)
Heartbeat CPU 0 instructions: 155000778 cycles: 210242517 heartbeat IPC: 1.587 cumulative IPC: 0.5377 (Simulation time: 00 hr 28 min 13 sec)
Heartbeat CPU 0 instructions: 155500779 cycles: 210647552 heartbeat IPC: 1.234 cumulative IPC: 0.5391 (Simulation time: 00 hr 28 min 17 sec)
Heartbeat CPU 0 instructions: 156000782 cycles: 211781256 heartbeat IPC: 0.441 cumulative IPC: 0.5386 (Simulation time: 00 hr 28 min 24 sec)
Heartbeat CPU 0 instructions: 156500782 cycles: 212676497 heartbeat IPC: 0.5585 cumulative IPC: 0.5386 (Simulation time: 00 hr 28 min 31 sec)
Heartbeat CPU 0 instructions: 157000782 cycles: 213044713 heartbeat IPC: 1.358 cumulative IPC: 0.5402 (Simulation time: 00 hr 28 min 34 sec)
Heartbeat CPU 0 instructions: 157500782 cycles: 213380254 heartbeat IPC: 1.49 cumulative IPC: 0.5418 (Simulation time: 00 hr 28 min 37 sec)
Heartbeat CPU 0 instructions: 158000782 cycles: 213740773 heartbeat IPC: 1.387 cumulative IPC: 0.5433 (Simulation time: 00 hr 28 min 40 sec)
Heartbeat CPU 0 instructions: 158500783 cycles: 214094942 heartbeat IPC: 1.412 cumulative IPC: 0.5448 (Simulation time: 00 hr 28 min 43 sec)
Heartbeat CPU 0 instructions: 159000784 cycles: 214426794 heartbeat IPC: 1.507 cumulative IPC: 0.5465 (Simulation time: 00 hr 28 min 46 sec)
Heartbeat CPU 0 instructions: 159500791 cycles: 214796394 heartbeat IPC: 1.353 cumulative IPC: 0.5479 (Simulation time: 00 hr 28 min 49 sec)
Heartbeat CPU 0 instructions: 160000791 cycles: 215128393 heartbeat IPC: 1.506 cumulative IPC: 0.5495 (Simulation time: 00 hr 28 min 52 sec)
Heartbeat CPU 0 instructions: 160500797 cycles: 215469021 heartbeat IPC: 1.468 cumulative IPC: 0.5511 (Simulation time: 00 hr 28 min 55 sec)
Heartbeat CPU 0 instructions: 161000797 cycles: 215774626 heartbeat IPC: 1.636 cumulative IPC: 0.5527 (Simulation time: 00 hr 28 min 58 sec)
Heartbeat CPU 0 instructions: 161500798 cycles: 216104621 heartbeat IPC: 1.515 cumulative IPC: 0.5543 (Simulation time: 00 hr 29 min 01 sec)
Heartbeat CPU 0 instructions: 162000804 cycles: 217003417 heartbeat IPC: 0.5563 cumulative IPC: 0.5543 (Simulation time: 00 hr 29 min 08 sec)
Heartbeat CPU 0 instructions: 162500805 cycles: 218362212 heartbeat IPC: 0.368 cumulative IPC: 0.5531 (Simulation time: 00 hr 29 min 16 sec)
Heartbeat CPU 0 instructions: 163000805 cycles: 219433253 heartbeat IPC: 0.4668 cumulative IPC: 0.5526 (Simulation time: 00 hr 29 min 23 sec)
Heartbeat CPU 0 instructions: 163500806 cycles: 220974847 heartbeat IPC: 0.3243 cumulative IPC: 0.5509 (Simulation time: 00 hr 29 min 33 sec)
Heartbeat CPU 0 instructions: 164000809 cycles: 222077444 heartbeat IPC: 0.4535 cumulative IPC: 0.5504 (Simulation time: 00 hr 29 min 40 sec)
Heartbeat CPU 0 instructions: 164500815 cycles: 222959248 heartbeat IPC: 0.567 cumulative IPC: 0.5505 (Simulation time: 00 hr 29 min 46 sec)
Heartbeat CPU 0 instructions: 165000820 cycles: 223489217 heartbeat IPC: 0.9435 cumulative IPC: 0.5515 (Simulation time: 00 hr 29 min 50 sec)
Heartbeat CPU 0 instructions: 165500820 cycles: 223817155 heartbeat IPC: 1.525 cumulative IPC: 0.553 (Simulation time: 00 hr 29 min 53 sec)
Heartbeat CPU 0 instructions: 166000821 cycles: 224155260 heartbeat IPC: 1.479 cumulative IPC: 0.5545 (Simulation time: 00 hr 29 min 56 sec)
Heartbeat CPU 0 instructions: 166500821 cycles: 225448410 heartbeat IPC: 0.3867 cumulative IPC: 0.5535 (Simulation time: 00 hr 30 min 04 sec)
Heartbeat CPU 0 instructions: 167000826 cycles: 225771921 heartbeat IPC: 1.546 cumulative IPC: 0.555 (Simulation time: 00 hr 30 min 07 sec)
Heartbeat CPU 0 instructions: 167500826 cycles: 226062511 heartbeat IPC: 1.721 cumulative IPC: 0.5566 (Simulation time: 00 hr 30 min 09 sec)
Heartbeat CPU 0 instructions: 168000830 cycles: 226329063 heartbeat IPC: 1.876 cumulative IPC: 0.5583 (Simulation time: 00 hr 30 min 11 sec)
Heartbeat CPU 0 instructions: 168500830 cycles: 226601274 heartbeat IPC: 1.837 cumulative IPC: 0.5599 (Simulation time: 00 hr 30 min 14 sec)
Heartbeat CPU 0 instructions: 169000832 cycles: 227081265 heartbeat IPC: 1.042 cumulative IPC: 0.561 (Simulation time: 00 hr 30 min 17 sec)
Heartbeat CPU 0 instructions: 169500836 cycles: 228386287 heartbeat IPC: 0.3831 cumulative IPC: 0.5599 (Simulation time: 00 hr 30 min 26 sec)
Heartbeat CPU 0 instructions: 170000838 cycles: 228859148 heartbeat IPC: 1.057 cumulative IPC: 0.561 (Simulation time: 00 hr 30 min 30 sec)
Heartbeat CPU 0 instructions: 170500843 cycles: 229237683 heartbeat IPC: 1.321 cumulative IPC: 0.5623 (Simulation time: 00 hr 30 min 33 sec)
Heartbeat CPU 0 instructions: 171000844 cycles: 229676149 heartbeat IPC: 1.14 cumulative IPC: 0.5635 (Simulation time: 00 hr 30 min 36 sec)
Heartbeat CPU 0 instructions: 171500844 cycles: 229988955 heartbeat IPC: 1.598 cumulative IPC: 0.565 (Simulation time: 00 hr 30 min 39 sec)
Heartbeat CPU 0 instructions: 172000844 cycles: 230314676 heartbeat IPC: 1.535 cumulative IPC: 0.5665 (Simulation time: 00 hr 30 min 42 sec)
Heartbeat CPU 0 instructions: 172500846 cycles: 230632195 heartbeat IPC: 1.575 cumulative IPC: 0.568 (Simulation time: 00 hr 30 min 45 sec)
Heartbeat CPU 0 instructions: 173000846 cycles: 230938454 heartbeat IPC: 1.633 cumulative IPC: 0.5695 (Simulation time: 00 hr 30 min 48 sec)
Heartbeat CPU 0 instructions: 173500847 cycles: 231272946 heartbeat IPC: 1.495 cumulative IPC: 0.5709 (Simulation time: 00 hr 30 min 51 sec)
Heartbeat CPU 0 instructions: 174000847 cycles: 233303430 heartbeat IPC: 0.2462 cumulative IPC: 0.5679 (Simulation time: 00 hr 31 min 06 sec)
Heartbeat CPU 0 instructions: 174500852 cycles: 234148192 heartbeat IPC: 0.5919 cumulative IPC: 0.568 (Simulation time: 00 hr 31 min 13 sec)
Heartbeat CPU 0 instructions: 175000852 cycles: 234488400 heartbeat IPC: 1.47 cumulative IPC: 0.5694 (Simulation time: 00 hr 31 min 16 sec)
Heartbeat CPU 0 instructions: 175500852 cycles: 234790320 heartbeat IPC: 1.656 cumulative IPC: 0.5709 (Simulation time: 00 hr 31 min 19 sec)
Heartbeat CPU 0 instructions: 176000852 cycles: 235440263 heartbeat IPC: 0.7693 cumulative IPC: 0.5715 (Simulation time: 00 hr 31 min 23 sec)
Heartbeat CPU 0 instructions: 176500859 cycles: 237412966 heartbeat IPC: 0.2535 cumulative IPC: 0.5687 (Simulation time: 00 hr 31 min 36 sec)
Heartbeat CPU 0 instructions: 177000860 cycles: 238989832 heartbeat IPC: 0.3171 cumulative IPC: 0.5669 (Simulation time: 00 hr 31 min 46 sec)
Heartbeat CPU 0 instructions: 177500860 cycles: 240035477 heartbeat IPC: 0.4782 cumulative IPC: 0.5665 (Simulation time: 00 hr 31 min 53 sec)
Heartbeat CPU 0 instructions: 178000860 cycles: 241208371 heartbeat IPC: 0.4263 cumulative IPC: 0.5657 (Simulation time: 00 hr 32 min 00 sec)
Heartbeat CPU 0 instructions: 178500863 cycles: 242599316 heartbeat IPC: 0.3595 cumulative IPC: 0.5645 (Simulation time: 00 hr 32 min 09 sec)
Heartbeat CPU 0 instructions: 179000864 cycles: 244037560 heartbeat IPC: 0.3476 cumulative IPC: 0.5631 (Simulation time: 00 hr 32 min 17 sec)
Heartbeat CPU 0 instructions: 179500864 cycles: 245364883 heartbeat IPC: 0.3767 cumulative IPC: 0.562 (Simulation time: 00 hr 32 min 26 sec)
Heartbeat CPU 0 instructions: 180000866 cycles: 246250342 heartbeat IPC: 0.5647 cumulative IPC: 0.5621 (Simulation time: 00 hr 32 min 32 sec)
Heartbeat CPU 0 instructions: 180500866 cycles: 248124005 heartbeat IPC: 0.2669 cumulative IPC: 0.5597 (Simulation time: 00 hr 32 min 43 sec)
Heartbeat CPU 0 instructions: 181000866 cycles: 249313276 heartbeat IPC: 0.4204 cumulative IPC: 0.559 (Simulation time: 00 hr 32 min 51 sec)
Heartbeat CPU 0 instructions: 181500867 cycles: 250635550 heartbeat IPC: 0.3781 cumulative IPC: 0.558 (Simulation time: 00 hr 33 min 00 sec)
Heartbeat CPU 0 instructions: 182000869 cycles: 251872457 heartbeat IPC: 0.4042 cumulative IPC: 0.5572 (Simulation time: 00 hr 33 min 07 sec)
Heartbeat CPU 0 instructions: 182500870 cycles: 253443359 heartbeat IPC: 0.3183 cumulative IPC: 0.5556 (Simulation time: 00 hr 33 min 17 sec)
Heartbeat CPU 0 instructions: 183000871 cycles: 254463958 heartbeat IPC: 0.4899 cumulative IPC: 0.5553 (Simulation time: 00 hr 33 min 24 sec)
Heartbeat CPU 0 instructions: 183500872 cycles: 255308092 heartbeat IPC: 0.5923 cumulative IPC: 0.5554 (Simulation time: 00 hr 33 min 29 sec)
Heartbeat CPU 0 instructions: 184000874 cycles: 256631631 heartbeat IPC: 0.3778 cumulative IPC: 0.5545 (Simulation time: 00 hr 33 min 38 sec)
Heartbeat CPU 0 instructions: 184500881 cycles: 257553015 heartbeat IPC: 0.5427 cumulative IPC: 0.5544 (Simulation time: 00 hr 33 min 44 sec)
Heartbeat CPU 0 instructions: 185000884 cycles: 258005853 heartbeat IPC: 1.104 cumulative IPC: 0.5554 (Simulation time: 00 hr 33 min 47 sec)
Heartbeat CPU 0 instructions: 185500884 cycles: 259348505 heartbeat IPC: 0.3724 cumulative IPC: 0.5544 (Simulation time: 00 hr 33 min 56 sec)
Heartbeat CPU 0 instructions: 186000891 cycles: 260782234 heartbeat IPC: 0.3487 cumulative IPC: 0.5532 (Simulation time: 00 hr 34 min 04 sec)
Heartbeat CPU 0 instructions: 186500891 cycles: 261511948 heartbeat IPC: 0.6852 cumulative IPC: 0.5536 (Simulation time: 00 hr 34 min 10 sec)
Heartbeat CPU 0 instructions: 187000891 cycles: 261823737 heartbeat IPC: 1.604 cumulative IPC: 0.555 (Simulation time: 00 hr 34 min 12 sec)
Heartbeat CPU 0 instructions: 187500895 cycles: 262199997 heartbeat IPC: 1.329 cumulative IPC: 0.5561 (Simulation time: 00 hr 34 min 15 sec)
Heartbeat CPU 0 instructions: 188000896 cycles: 263771545 heartbeat IPC: 0.3182 cumulative IPC: 0.5546 (Simulation time: 00 hr 34 min 25 sec)
Heartbeat CPU 0 instructions: 188500896 cycles: 265247576 heartbeat IPC: 0.3387 cumulative IPC: 0.5534 (Simulation time: 00 hr 34 min 34 sec)
Heartbeat CPU 0 instructions: 189000897 cycles: 266873287 heartbeat IPC: 0.3076 cumulative IPC: 0.5518 (Simulation time: 00 hr 34 min 44 sec)
Heartbeat CPU 0 instructions: 189500899 cycles: 268102833 heartbeat IPC: 0.4067 cumulative IPC: 0.5511 (Simulation time: 00 hr 34 min 52 sec)
Heartbeat CPU 0 instructions: 190000906 cycles: 269509245 heartbeat IPC: 0.3555 cumulative IPC: 0.55 (Simulation time: 00 hr 35 min 00 sec)
Heartbeat CPU 0 instructions: 190500908 cycles: 271260337 heartbeat IPC: 0.2855 cumulative IPC: 0.5482 (Simulation time: 00 hr 35 min 10 sec)
Heartbeat CPU 0 instructions: 191000908 cycles: 272595393 heartbeat IPC: 0.3745 cumulative IPC: 0.5473 (Simulation time: 00 hr 35 min 18 sec)
Heartbeat CPU 0 instructions: 191500914 cycles: 273493122 heartbeat IPC: 0.557 cumulative IPC: 0.5473 (Simulation time: 00 hr 35 min 24 sec)
Heartbeat CPU 0 instructions: 192000916 cycles: 274778300 heartbeat IPC: 0.3891 cumulative IPC: 0.5465 (Simulation time: 00 hr 35 min 32 sec)
Heartbeat CPU 0 instructions: 192500920 cycles: 276140140 heartbeat IPC: 0.3672 cumulative IPC: 0.5456 (Simulation time: 00 hr 35 min 41 sec)
Heartbeat CPU 0 instructions: 193000921 cycles: 277702619 heartbeat IPC: 0.32 cumulative IPC: 0.5443 (Simulation time: 00 hr 35 min 50 sec)
Heartbeat CPU 0 instructions: 193500926 cycles: 278988035 heartbeat IPC: 0.389 cumulative IPC: 0.5435 (Simulation time: 00 hr 35 min 58 sec)
Heartbeat CPU 0 instructions: 194000926 cycles: 280070316 heartbeat IPC: 0.462 cumulative IPC: 0.5432 (Simulation time: 00 hr 36 min 05 sec)
Heartbeat CPU 0 instructions: 194500926 cycles: 281042239 heartbeat IPC: 0.5144 cumulative IPC: 0.5431 (Simulation time: 00 hr 36 min 12 sec)
Heartbeat CPU 0 instructions: 195000930 cycles: 282162032 heartbeat IPC: 0.4465 cumulative IPC: 0.5427 (Simulation time: 00 hr 36 min 19 sec)
Heartbeat CPU 0 instructions: 195500931 cycles: 283352994 heartbeat IPC: 0.4198 cumulative IPC: 0.5421 (Simulation time: 00 hr 36 min 26 sec)
Heartbeat CPU 0 instructions: 196000937 cycles: 285073570 heartbeat IPC: 0.2906 cumulative IPC: 0.5405 (Simulation time: 00 hr 36 min 37 sec)
Heartbeat CPU 0 instructions: 196500938 cycles: 286104375 heartbeat IPC: 0.4851 cumulative IPC: 0.5403 (Simulation time: 00 hr 36 min 43 sec)
Heartbeat CPU 0 instructions: 197000938 cycles: 286470354 heartbeat IPC: 1.366 cumulative IPC: 0.5414 (Simulation time: 00 hr 36 min 46 sec)
Heartbeat CPU 0 instructions: 197500941 cycles: 286763489 heartbeat IPC: 1.706 cumulative IPC: 0.5427 (Simulation time: 00 hr 36 min 49 sec)
Heartbeat CPU 0 instructions: 198000945 cycles: 287110715 heartbeat IPC: 1.44 cumulative IPC: 0.5438 (Simulation time: 00 hr 36 min 52 sec)
Heartbeat CPU 0 instructions: 198500952 cycles: 287372968 heartbeat IPC: 1.907 cumulative IPC: 0.5451 (Simulation time: 00 hr 36 min 54 sec)
Heartbeat CPU 0 instructions: 199000952 cycles: 288019421 heartbeat IPC: 0.7735 cumulative IPC: 0.5457 (Simulation time: 00 hr 36 min 59 sec)
Heartbeat CPU 0 instructions: 199500953 cycles: 289410333 heartbeat IPC: 0.3595 cumulative IPC: 0.5447 (Simulation time: 00 hr 37 min 08 sec)
Heartbeat CPU 0 instructions: 200000953 cycles: 290366147 heartbeat IPC: 0.5231 cumulative IPC: 0.5446 (Simulation time: 00 hr 37 min 14 sec)
Heartbeat CPU 0 instructions: 200500957 cycles: 291496858 heartbeat IPC: 0.4422 cumulative IPC: 0.5442 (Simulation time: 00 hr 37 min 21 sec)
Heartbeat CPU 0 instructions: 201000961 cycles: 292649534 heartbeat IPC: 0.4338 cumulative IPC: 0.5438 (Simulation time: 00 hr 37 min 28 sec)
Heartbeat CPU 0 instructions: 201500967 cycles: 293804663 heartbeat IPC: 0.4329 cumulative IPC: 0.5433 (Simulation time: 00 hr 37 min 36 sec)
Heartbeat CPU 0 instructions: 202000967 cycles: 294790723 heartbeat IPC: 0.5071 cumulative IPC: 0.5432 (Simulation time: 00 hr 37 min 42 sec)
Heartbeat CPU 0 instructions: 202500968 cycles: 295779200 heartbeat IPC: 0.5058 cumulative IPC: 0.543 (Simulation time: 00 hr 37 min 49 sec)
Heartbeat CPU 0 instructions: 203000971 cycles: 296824770 heartbeat IPC: 0.4782 cumulative IPC: 0.5428 (Simulation time: 00 hr 37 min 56 sec)
Heartbeat CPU 0 instructions: 203500978 cycles: 298242418 heartbeat IPC: 0.3527 cumulative IPC: 0.5419 (Simulation time: 00 hr 38 min 05 sec)
Heartbeat CPU 0 instructions: 204000979 cycles: 299454789 heartbeat IPC: 0.4124 cumulative IPC: 0.5413 (Simulation time: 00 hr 38 min 12 sec)
Heartbeat CPU 0 instructions: 204500986 cycles: 300578099 heartbeat IPC: 0.4451 cumulative IPC: 0.5409 (Simulation time: 00 hr 38 min 19 sec)
Heartbeat CPU 0 instructions: 205000987 cycles: 301547317 heartbeat IPC: 0.5159 cumulative IPC: 0.5408 (Simulation time: 00 hr 38 min 26 sec)
Heartbeat CPU 0 instructions: 205500989 cycles: 302437943 heartbeat IPC: 0.5614 cumulative IPC: 0.5409 (Simulation time: 00 hr 38 min 32 sec)
Heartbeat CPU 0 instructions: 206000996 cycles: 303639256 heartbeat IPC: 0.4162 cumulative IPC: 0.5404 (Simulation time: 00 hr 38 min 39 sec)
Heartbeat CPU 0 instructions: 206500998 cycles: 304705561 heartbeat IPC: 0.4689 cumulative IPC: 0.5401 (Simulation time: 00 hr 38 min 46 sec)
Heartbeat CPU 0 instructions: 207000998 cycles: 305702086 heartbeat IPC: 0.5017 cumulative IPC: 0.54 (Simulation time: 00 hr 38 min 52 sec)
Heartbeat CPU 0 instructions: 207501004 cycles: 306871518 heartbeat IPC: 0.4276 cumulative IPC: 0.5395 (Simulation time: 00 hr 39 min 00 sec)
Heartbeat CPU 0 instructions: 208001004 cycles: 307834753 heartbeat IPC: 0.5191 cumulative IPC: 0.5395 (Simulation time: 00 hr 39 min 06 sec)
Heartbeat CPU 0 instructions: 208501004 cycles: 308839588 heartbeat IPC: 0.4976 cumulative IPC: 0.5393 (Simulation time: 00 hr 39 min 13 sec)
Heartbeat CPU 0 instructions: 209001009 cycles: 309598354 heartbeat IPC: 0.659 cumulative IPC: 0.5396 (Simulation time: 00 hr 39 min 18 sec)
Heartbeat CPU 0 instructions: 209501011 cycles: 309928493 heartbeat IPC: 1.515 cumulative IPC: 0.5407 (Simulation time: 00 hr 39 min 21 sec)
Heartbeat CPU 0 instructions: 210001018 cycles: 310247131 heartbeat IPC: 1.569 cumulative IPC: 0.5418 (Simulation time: 00 hr 39 min 24 sec)
Heartbeat CPU 0 instructions: 210501018 cycles: 310566987 heartbeat IPC: 1.563 cumulative IPC: 0.5429 (Simulation time: 00 hr 39 min 27 sec)
Heartbeat CPU 0 instructions: 211001020 cycles: 311152100 heartbeat IPC: 0.8545 cumulative IPC: 0.5436 (Simulation time: 00 hr 39 min 31 sec)
Heartbeat CPU 0 instructions: 211501022 cycles: 312890789 heartbeat IPC: 0.2876 cumulative IPC: 0.5421 (Simulation time: 00 hr 39 min 42 sec)
Heartbeat CPU 0 instructions: 212001022 cycles: 314755826 heartbeat IPC: 0.2681 cumulative IPC: 0.5404 (Simulation time: 00 hr 39 min 53 sec)
Heartbeat CPU 0 instructions: 212501025 cycles: 315972630 heartbeat IPC: 0.4109 cumulative IPC: 0.5398 (Simulation time: 00 hr 40 min 01 sec)
Heartbeat CPU 0 instructions: 213001030 cycles: 316702046 heartbeat IPC: 0.6855 cumulative IPC: 0.5402 (Simulation time: 00 hr 40 min 06 sec)
Heartbeat CPU 0 instructions: 213501030 cycles: 317016811 heartbeat IPC: 1.588 cumulative IPC: 0.5413 (Simulation time: 00 hr 40 min 09 sec)
Heartbeat CPU 0 instructions: 214001036 cycles: 318475072 heartbeat IPC: 0.3429 cumulative IPC: 0.5403 (Simulation time: 00 hr 40 min 18 sec)
Heartbeat CPU 0 instructions: 214501041 cycles: 320207523 heartbeat IPC: 0.2886 cumulative IPC: 0.5389 (Simulation time: 00 hr 40 min 29 sec)
Heartbeat CPU 0 instructions: 215001041 cycles: 321646314 heartbeat IPC: 0.3475 cumulative IPC: 0.538 (Simulation time: 00 hr 40 min 37 sec)
Heartbeat CPU 0 instructions: 215501048 cycles: 322287803 heartbeat IPC: 0.7794 cumulative IPC: 0.5385 (Simulation time: 00 hr 40 min 41 sec)
Heartbeat CPU 0 instructions: 216001048 cycles: 323570957 heartbeat IPC: 0.3897 cumulative IPC: 0.5379 (Simulation time: 00 hr 40 min 49 sec)
Heartbeat CPU 0 instructions: 216501048 cycles: 324776326 heartbeat IPC: 0.4148 cumulative IPC: 0.5374 (Simulation time: 00 hr 40 min 57 sec)
Heartbeat CPU 0 instructions: 217001054 cycles: 325892916 heartbeat IPC: 0.4478 cumulative IPC: 0.5371 (Simulation time: 00 hr 41 min 04 sec)
Heartbeat CPU 0 instructions: 217501056 cycles: 327067746 heartbeat IPC: 0.4256 cumulative IPC: 0.5367 (Simulation time: 00 hr 41 min 11 sec)
Heartbeat CPU 0 instructions: 218001061 cycles: 328704713 heartbeat IPC: 0.3054 cumulative IPC: 0.5355 (Simulation time: 00 hr 41 min 21 sec)
Heartbeat CPU 0 instructions: 218501061 cycles: 330183632 heartbeat IPC: 0.3381 cumulative IPC: 0.5345 (Simulation time: 00 hr 41 min 30 sec)
Heartbeat CPU 0 instructions: 219001065 cycles: 331306703 heartbeat IPC: 0.4452 cumulative IPC: 0.5342 (Simulation time: 00 hr 41 min 37 sec)
Heartbeat CPU 0 instructions: 219501067 cycles: 332421318 heartbeat IPC: 0.4486 cumulative IPC: 0.5339 (Simulation time: 00 hr 41 min 44 sec)
Heartbeat CPU 0 instructions: 220001068 cycles: 333197927 heartbeat IPC: 0.6438 cumulative IPC: 0.5342 (Simulation time: 00 hr 41 min 50 sec)
Heartbeat CPU 0 instructions: 220501071 cycles: 333379055 heartbeat IPC: 2.76 cumulative IPC: 0.5355 (Simulation time: 00 hr 41 min 52 sec)
Heartbeat CPU 0 instructions: 221001072 cycles: 333791330 heartbeat IPC: 1.213 cumulative IPC: 0.5363 (Simulation time: 00 hr 41 min 55 sec)
Heartbeat CPU 0 instructions: 221501074 cycles: 333973124 heartbeat IPC: 2.75 cumulative IPC: 0.5376 (Simulation time: 00 hr 41 min 57 sec)
Heartbeat CPU 0 instructions: 222001075 cycles: 334338880 heartbeat IPC: 1.367 cumulative IPC: 0.5385 (Simulation time: 00 hr 42 min 00 sec)
Heartbeat CPU 0 instructions: 222501077 cycles: 335963089 heartbeat IPC: 0.3078 cumulative IPC: 0.5374 (Simulation time: 00 hr 42 min 11 sec)
Heartbeat CPU 0 instructions: 223001080 cycles: 336695656 heartbeat IPC: 0.6825 cumulative IPC: 0.5377 (Simulation time: 00 hr 42 min 16 sec)
Heartbeat CPU 0 instructions: 223501081 cycles: 337105077 heartbeat IPC: 1.221 cumulative IPC: 0.5386 (Simulation time: 00 hr 42 min 20 sec)
Heartbeat CPU 0 instructions: 224001081 cycles: 337581394 heartbeat IPC: 1.05 cumulative IPC: 0.5393 (Simulation time: 00 hr 42 min 25 sec)
Heartbeat CPU 0 instructions: 224501083 cycles: 337965632 heartbeat IPC: 1.301 cumulative IPC: 0.5402 (Simulation time: 00 hr 42 min 29 sec)
Heartbeat CPU 0 instructions: 225001090 cycles: 338362205 heartbeat IPC: 1.261 cumulative IPC: 0.5411 (Simulation time: 00 hr 42 min 33 sec)
Heartbeat CPU 0 instructions: 225501095 cycles: 338805601 heartbeat IPC: 1.128 cumulative IPC: 0.5419 (Simulation time: 00 hr 42 min 38 sec)
Heartbeat CPU 0 instructions: 226001098 cycles: 339219489 heartbeat IPC: 1.208 cumulative IPC: 0.5428 (Simulation time: 00 hr 42 min 42 sec)
Heartbeat CPU 0 instructions: 226501099 cycles: 339650815 heartbeat IPC: 1.159 cumulative IPC: 0.5436 (Simulation time: 00 hr 42 min 47 sec)
Heartbeat CPU 0 instructions: 227001103 cycles: 340104172 heartbeat IPC: 1.103 cumulative IPC: 0.5444 (Simulation time: 00 hr 42 min 52 sec)
Heartbeat CPU 0 instructions: 227501104 cycles: 340540485 heartbeat IPC: 1.146 cumulative IPC: 0.5452 (Simulation time: 00 hr 42 min 56 sec)
Heartbeat CPU 0 instructions: 228001109 cycles: 340942155 heartbeat IPC: 1.245 cumulative IPC: 0.546 (Simulation time: 00 hr 43 min 01 sec)
Heartbeat CPU 0 instructions: 228501111 cycles: 341349617 heartbeat IPC: 1.227 cumulative IPC: 0.5469 (Simulation time: 00 hr 43 min 05 sec)
Heartbeat CPU 0 instructions: 229001112 cycles: 341741133 heartbeat IPC: 1.277 cumulative IPC: 0.5478 (Simulation time: 00 hr 43 min 10 sec)
Heartbeat CPU 0 instructions: 229501113 cycles: 342132104 heartbeat IPC: 1.279 cumulative IPC: 0.5486 (Simulation time: 00 hr 43 min 14 sec)
Heartbeat CPU 0 instructions: 230001113 cycles: 342689298 heartbeat IPC: 0.8974 cumulative IPC: 0.5492 (Simulation time: 00 hr 43 min 20 sec)
Heartbeat CPU 0 instructions: 230501113 cycles: 343752255 heartbeat IPC: 0.4704 cumulative IPC: 0.549 (Simulation time: 00 hr 43 min 33 sec)
Heartbeat CPU 0 instructions: 231001119 cycles: 344928292 heartbeat IPC: 0.4252 cumulative IPC: 0.5485 (Simulation time: 00 hr 43 min 48 sec)
Heartbeat CPU 0 instructions: 231501123 cycles: 345953903 heartbeat IPC: 0.4875 cumulative IPC: 0.5483 (Simulation time: 00 hr 44 min 00 sec)
Heartbeat CPU 0 instructions: 232001123 cycles: 346456892 heartbeat IPC: 0.9941 cumulative IPC: 0.549 (Simulation time: 00 hr 44 min 06 sec)
Heartbeat CPU 0 instructions: 232501130 cycles: 346963771 heartbeat IPC: 0.9864 cumulative IPC: 0.5497 (Simulation time: 00 hr 44 min 11 sec)
Heartbeat CPU 0 instructions: 233001133 cycles: 347442235 heartbeat IPC: 1.045 cumulative IPC: 0.5504 (Simulation time: 00 hr 44 min 16 sec)
Heartbeat CPU 0 instructions: 233501137 cycles: 347825483 heartbeat IPC: 1.305 cumulative IPC: 0.5513 (Simulation time: 00 hr 44 min 19 sec)
Heartbeat CPU 0 instructions: 234001139 cycles: 348867124 heartbeat IPC: 0.48 cumulative IPC: 0.551 (Simulation time: 00 hr 44 min 26 sec)
Heartbeat CPU 0 instructions: 234501141 cycles: 349335615 heartbeat IPC: 1.067 cumulative IPC: 0.5518 (Simulation time: 00 hr 44 min 30 sec)
Heartbeat CPU 0 instructions: 235001145 cycles: 349554611 heartbeat IPC: 2.283 cumulative IPC: 0.5529 (Simulation time: 00 hr 44 min 33 sec)
Heartbeat CPU 0 instructions: 235501145 cycles: 349949211 heartbeat IPC: 1.267 cumulative IPC: 0.5537 (Simulation time: 00 hr 44 min 36 sec)
Heartbeat CPU 0 instructions: 236001149 cycles: 351854102 heartbeat IPC: 0.2625 cumulative IPC: 0.5521 (Simulation time: 00 hr 44 min 47 sec)
Heartbeat CPU 0 instructions: 236501150 cycles: 352265493 heartbeat IPC: 1.215 cumulative IPC: 0.5529 (Simulation time: 00 hr 44 min 51 sec)
Heartbeat CPU 0 instructions: 237001152 cycles: 353734847 heartbeat IPC: 0.3403 cumulative IPC: 0.552 (Simulation time: 00 hr 45 min 00 sec)
Heartbeat CPU 0 instructions: 237501159 cycles: 354931723 heartbeat IPC: 0.4178 cumulative IPC: 0.5515 (Simulation time: 00 hr 45 min 07 sec)
Heartbeat CPU 0 instructions: 238001159 cycles: 356191521 heartbeat IPC: 0.3969 cumulative IPC: 0.5509 (Simulation time: 00 hr 45 min 15 sec)
Heartbeat CPU 0 instructions: 238501159 cycles: 357819075 heartbeat IPC: 0.3072 cumulative IPC: 0.5498 (Simulation time: 00 hr 45 min 25 sec)
Heartbeat CPU 0 instructions: 239001160 cycles: 359031302 heartbeat IPC: 0.4125 cumulative IPC: 0.5493 (Simulation time: 00 hr 45 min 33 sec)
Heartbeat CPU 0 instructions: 239501166 cycles: 360607238 heartbeat IPC: 0.3173 cumulative IPC: 0.5482 (Simulation time: 00 hr 45 min 42 sec)
Heartbeat CPU 0 instructions: 240001167 cycles: 361671551 heartbeat IPC: 0.4698 cumulative IPC: 0.548 (Simulation time: 00 hr 45 min 49 sec)
Heartbeat CPU 0 instructions: 240501174 cycles: 363283266 heartbeat IPC: 0.3102 cumulative IPC: 0.5469 (Simulation time: 00 hr 46 min 00 sec)
Heartbeat CPU 0 instructions: 241001175 cycles: 364834668 heartbeat IPC: 0.3223 cumulative IPC: 0.5459 (Simulation time: 00 hr 46 min 09 sec)
Heartbeat CPU 0 instructions: 241501175 cycles: 366007695 heartbeat IPC: 0.4262 cumulative IPC: 0.5455 (Simulation time: 00 hr 46 min 16 sec)
Heartbeat CPU 0 instructions: 242001175 cycles: 366665641 heartbeat IPC: 0.7599 cumulative IPC: 0.5459 (Simulation time: 00 hr 46 min 21 sec)
Heartbeat CPU 0 instructions: 242501180 cycles: 367918931 heartbeat IPC: 0.399 cumulative IPC: 0.5454 (Simulation time: 00 hr 46 min 29 sec)
Heartbeat CPU 0 instructions: 243001183 cycles: 369118984 heartbeat IPC: 0.4167 cumulative IPC: 0.545 (Simulation time: 00 hr 46 min 37 sec)
Heartbeat CPU 0 instructions: 243501190 cycles: 370529728 heartbeat IPC: 0.3544 cumulative IPC: 0.5442 (Simulation time: 00 hr 46 min 46 sec)
Heartbeat CPU 0 instructions: 244001190 cycles: 371821899 heartbeat IPC: 0.3869 cumulative IPC: 0.5436 (Simulation time: 00 hr 46 min 54 sec)
Heartbeat CPU 0 instructions: 244501191 cycles: 373142818 heartbeat IPC: 0.3785 cumulative IPC: 0.543 (Simulation time: 00 hr 47 min 02 sec)
Heartbeat CPU 0 instructions: 245001191 cycles: 374364158 heartbeat IPC: 0.4094 cumulative IPC: 0.5426 (Simulation time: 00 hr 47 min 10 sec)
Heartbeat CPU 0 instructions: 245501194 cycles: 375904210 heartbeat IPC: 0.3247 cumulative IPC: 0.5416 (Simulation time: 00 hr 47 min 19 sec)
Heartbeat CPU 0 instructions: 246001194 cycles: 376567945 heartbeat IPC: 0.7533 cumulative IPC: 0.542 (Simulation time: 00 hr 47 min 24 sec)
Heartbeat CPU 0 instructions: 246501194 cycles: 377005999 heartbeat IPC: 1.141 cumulative IPC: 0.5427 (Simulation time: 00 hr 47 min 28 sec)
Heartbeat CPU 0 instructions: 247001194 cycles: 377349274 heartbeat IPC: 1.457 cumulative IPC: 0.5436 (Simulation time: 00 hr 47 min 31 sec)
Heartbeat CPU 0 instructions: 247501197 cycles: 377667412 heartbeat IPC: 1.572 cumulative IPC: 0.5445 (Simulation time: 00 hr 47 min 34 sec)
Heartbeat CPU 0 instructions: 248001204 cycles: 378005365 heartbeat IPC: 1.48 cumulative IPC: 0.5454 (Simulation time: 00 hr 47 min 37 sec)
Heartbeat CPU 0 instructions: 248501204 cycles: 378977330 heartbeat IPC: 0.5144 cumulative IPC: 0.5453 (Simulation time: 00 hr 47 min 44 sec)
Heartbeat CPU 0 instructions: 249001206 cycles: 380827744 heartbeat IPC: 0.2702 cumulative IPC: 0.5439 (Simulation time: 00 hr 47 min 56 sec)
Heartbeat CPU 0 instructions: 249501211 cycles: 382421822 heartbeat IPC: 0.3137 cumulative IPC: 0.5429 (Simulation time: 00 hr 48 min 06 sec)
Simulation finished CPU 0 instructions: 200000004 cycles: 368748574 cumulative IPC: 0.5424 (Simulation time: 00 hr 48 min 14 sec)
Simulation complete CPU 0 instructions: 200000004 cycles: 368748574 cumulative IPC: 0.5424 (Simulation time: 00 hr 48 min 14 sec)

ChampSim completed all CPUs

=== Simulation ===
CPU 0 runs /local-ssd/ben/dpc4-traces/gtraces_v2/sierra.a.3_0003.champsim.gz

Region of Interest Statistics

CPU 0 cumulative IPC: 0.5424 instructions: 200000004 cycles: 368748574
CPU 0 Branch Prediction Accuracy: 85.73% MPKI: 22.43 Average ROB Occupancy at Mispredict: 24.08
Branch type MPKI
BRANCH_DIRECT_JUMP: 1.983
BRANCH_INDIRECT: 0.2217
BRANCH_CONDITIONAL: 17.2
BRANCH_DIRECT_CALL: 1.55
BRANCH_INDIRECT_CALL: 0.3654
BRANCH_RETURN: 1.116

cpu0->cpu0_STLB TOTAL        ACCESS:    2758491 HIT:    2117168 MISS:     641323 MSHR_MERGE:          0
cpu0->cpu0_STLB LOAD         ACCESS:    2758491 HIT:    2117168 MISS:     641323 MSHR_MERGE:          0
cpu0->cpu0_STLB RFO          ACCESS:          0 HIT:          0 MISS:          0 MSHR_MERGE:          0
cpu0->cpu0_STLB PREFETCH     ACCESS:          0 HIT:          0 MISS:          0 MSHR_MERGE:          0
cpu0->cpu0_STLB WRITE        ACCESS:          0 HIT:          0 MISS:          0 MSHR_MERGE:          0
cpu0->cpu0_STLB TRANSLATION  ACCESS:          0 HIT:          0 MISS:          0 MSHR_MERGE:          0
cpu0->cpu0_STLB PREFETCH REQUESTED:          0 ISSUED:          0 USEFUL:          0 USELESS:          0
cpu0->cpu0_STLB AVERAGE MISS LATENCY: 159.9 cycles
cpu0->cpu0_L2C TOTAL        ACCESS:   40698780 HIT:   31672765 MISS:    9026015 MSHR_MERGE:    3460303
cpu0->cpu0_L2C LOAD         ACCESS:    5836826 HIT:    4651463 MISS:    1185363 MSHR_MERGE:     143680
cpu0->cpu0_L2C RFO          ACCESS:    1497399 HIT:     840490 MISS:     656909 MSHR_MERGE:       2988
cpu0->cpu0_L2C PREFETCH     ACCESS:   30338440 HIT:   23475034 MISS:    6863406 MSHR_MERGE:    3313635
cpu0->cpu0_L2C WRITE        ACCESS:    2333144 HIT:    2333016 MISS:        128 MSHR_MERGE:          0
cpu0->cpu0_L2C TRANSLATION  ACCESS:     692971 HIT:     372762 MISS:     320209 MSHR_MERGE:          0
cpu0->cpu0_L2C PREFETCH REQUESTED:   32734563 ISSUED:   26484744 USEFUL:    1618076 USELESS:    1253063
cpu0->cpu0_L2C AVERAGE MISS LATENCY: 214.8 cycles
cpu0->cpu0_L1I TOTAL        ACCESS:   41838673 HIT:   31100472 MISS:   10738201 MSHR_MERGE:    4955435
cpu0->cpu0_L1I LOAD         ACCESS:   21518509 HIT:   16838284 MISS:    4680225 MSHR_MERGE:    1358496
cpu0->cpu0_L1I RFO          ACCESS:          0 HIT:          0 MISS:          0 MSHR_MERGE:          0
cpu0->cpu0_L1I PREFETCH     ACCESS:   20320164 HIT:   14262188 MISS:    6057976 MSHR_MERGE:    3596939
cpu0->cpu0_L1I WRITE        ACCESS:          0 HIT:          0 MISS:          0 MSHR_MERGE:          0
cpu0->cpu0_L1I TRANSLATION  ACCESS:          0 HIT:          0 MISS:          0 MSHR_MERGE:          0
cpu0->cpu0_L1I PREFETCH REQUESTED:   21533392 ISSUED:   20320132 USEFUL:    1739709 USELESS:     721239
cpu0->cpu0_L1I AVERAGE MISS LATENCY: 34.46 cycles
cpu0->cpu0_L1D TOTAL        ACCESS:   64531472 HIT:   55237538 MISS:    9293934 MSHR_MERGE:    3195706
cpu0->cpu0_L1D LOAD         ACCESS:   35459766 HIT:   32254530 MISS:    3205236 MSHR_MERGE:     690084
cpu0->cpu0_L1D RFO          ACCESS:          0 HIT:          0 MISS:          0 MSHR_MERGE:          0
cpu0->cpu0_L1D PREFETCH     ACCESS:    3023294 HIT:    1559521 MISS:    1463773 MSHR_MERGE:      71104
cpu0->cpu0_L1D WRITE        ACCESS:   24391230 HIT:   20464798 MISS:    3926432 MSHR_MERGE:    2428996
cpu0->cpu0_L1D TRANSLATION  ACCESS:    1657182 HIT:     958689 MISS:     698493 MSHR_MERGE:       5522
cpu0->cpu0_L1D PREFETCH REQUESTED:    3502742 ISSUED:    3023288 USEFUL:     714961 USELESS:     677736
cpu0->cpu0_L1D AVERAGE MISS LATENCY: 90.9 cycles
cpu0->cpu0_ITLB TOTAL        ACCESS:   30011073 HIT:   29235120 MISS:     775953 MSHR_MERGE:     361933
cpu0->cpu0_ITLB LOAD         ACCESS:   30011073 HIT:   29235120 MISS:     775953 MSHR_MERGE:     361933
cpu0->cpu0_ITLB RFO          ACCESS:          0 HIT:          0 MISS:          0 MSHR_MERGE:          0
cpu0->cpu0_ITLB PREFETCH     ACCESS:          0 HIT:          0 MISS:          0 MSHR_MERGE:          0
cpu0->cpu0_ITLB WRITE        ACCESS:          0 HIT:          0 MISS:          0 MSHR_MERGE:          0
cpu0->cpu0_ITLB TRANSLATION  ACCESS:          0 HIT:          0 MISS:          0 MSHR_MERGE:          0
cpu0->cpu0_ITLB PREFETCH REQUESTED:          0 ISSUED:          0 USEFUL:          0 USELESS:          0
cpu0->cpu0_ITLB AVERAGE MISS LATENCY: 30.16 cycles
cpu0->cpu0_DTLB TOTAL        ACCESS:   59482528 HIT:   55660184 MISS:    3822344 MSHR_MERGE:    1477873
cpu0->cpu0_DTLB LOAD         ACCESS:   59482528 HIT:   55660184 MISS:    3822344 MSHR_MERGE:    1477873
cpu0->cpu0_DTLB RFO          ACCESS:          0 HIT:          0 MISS:          0 MSHR_MERGE:          0
cpu0->cpu0_DTLB PREFETCH     ACCESS:          0 HIT:          0 MISS:          0 MSHR_MERGE:          0
cpu0->cpu0_DTLB WRITE        ACCESS:          0 HIT:          0 MISS:          0 MSHR_MERGE:          0
cpu0->cpu0_DTLB TRANSLATION  ACCESS:          0 HIT:          0 MISS:          0 MSHR_MERGE:          0
cpu0->cpu0_DTLB PREFETCH REQUESTED:          0 ISSUED:          0 USEFUL:          0 USELESS:          0
cpu0->cpu0_DTLB AVERAGE MISS LATENCY: 44.58 cycles
cpu0->LLC TOTAL        ACCESS:    8414212 HIT:    2320512 MISS:    6093700 MSHR_MERGE:     332880
cpu0->LLC LOAD         ACCESS:    1041682 HIT:     268387 MISS:     773295 MSHR_MERGE:       6771
cpu0->LLC RFO          ACCESS:     653921 HIT:      61011 MISS:     592910 MSHR_MERGE:        253
cpu0->LLC PREFETCH     ACCESS:    5357656 HIT:    1553841 MISS:    3803815 MSHR_MERGE:     325856
cpu0->LLC WRITE        ACCESS:    1040744 HIT:     396914 MISS:     643830 MSHR_MERGE:          0
cpu0->LLC TRANSLATION  ACCESS:     320209 HIT:      40359 MISS:     279850 MSHR_MERGE:          0
cpu0->LLC PREFETCH REQUESTED:    1834315 ISSUED:    1807885 USEFUL:     322739 USELESS:     797169
cpu0->LLC AVERAGE MISS LATENCY: 177.7 cycles

DRAM Statistics

Channel 0 RQ ROW_BUFFER_HIT:     231677
  ROW_BUFFER_MISS:    4885137
  AVG DBUS CONGESTED CYCLE: 16.92
Channel 0 WQ ROW_BUFFER_HIT:     215672
  ROW_BUFFER_MISS:     736925
  FULL:       5128
Channel 0 REFRESHES ISSUED:      30727
