[VMEM] WARNING: physical memory size is smaller than virtual memory size.

*** ChampSim Multicore Out-of-Order Simulator ***
Warmup Instructions: 50000000
Simulation Instructions: 200000000
Number of CPUs: 1
Page size: 4096
Core 0: /local-ssd/ben/dpc4-traces/ai-ml/llama2.c-stories15M.3.champsimtrace.gz
 L1D Berti prefetcher
Off-chip DRAM Size: 64 GiB Channels: 1 Width: 64-bit Data Rate: 800 MT/s
Heartbeat CPU 0 instructions: 500001 cycles: 128950 heartbeat IPC: 3.877 cumulative IPC: 3.877 (Simulation time: 00 hr 00 min 03 sec)
Heartbeat CPU 0 instructions: 1000004 cycles: 256224 heartbeat IPC: 3.929 cumulative IPC: 3.903 (Simulation time: 00 hr 00 min 05 sec)
Heartbeat CPU 0 instructions: 1500007 cycles: 383308 heartbeat IPC: 3.934 cumulative IPC: 3.913 (Simulation time: 00 hr 00 min 06 sec)
Heartbeat CPU 0 instructions: 2000014 cycles: 510317 heartbeat IPC: 3.937 cumulative IPC: 3.919 (Simulation time: 00 hr 00 min 08 sec)
Heartbeat CPU 0 instructions: 2500019 cycles: 613811 heartbeat IPC: 4.831 cumulative IPC: 4.073 (Simulation time: 00 hr 00 min 10 sec)
Heartbeat CPU 0 instructions: 3000021 cycles: 758280 heartbeat IPC: 3.461 cumulative IPC: 3.956 (Simulation time: 00 hr 00 min 11 sec)
Heartbeat CPU 0 instructions: 3500021 cycles: 884559 heartbeat IPC: 3.959 cumulative IPC: 3.957 (Simulation time: 00 hr 00 min 13 sec)
Heartbeat CPU 0 instructions: 4000022 cycles: 1011699 heartbeat IPC: 3.933 cumulative IPC: 3.954 (Simulation time: 00 hr 00 min 15 sec)
Heartbeat CPU 0 instructions: 4500022 cycles: 1138485 heartbeat IPC: 3.944 cumulative IPC: 3.953 (Simulation time: 00 hr 00 min 17 sec)
Heartbeat CPU 0 instructions: 5000023 cycles: 1265069 heartbeat IPC: 3.95 cumulative IPC: 3.952 (Simulation time: 00 hr 00 min 19 sec)
Heartbeat CPU 0 instructions: 5500028 cycles: 1390128 heartbeat IPC: 3.998 cumulative IPC: 3.956 (Simulation time: 00 hr 00 min 21 sec)
Heartbeat CPU 0 instructions: 6000028 cycles: 1517128 heartbeat IPC: 3.937 cumulative IPC: 3.955 (Simulation time: 00 hr 00 min 22 sec)
Heartbeat CPU 0 instructions: 6500030 cycles: 1643431 heartbeat IPC: 3.959 cumulative IPC: 3.955 (Simulation time: 00 hr 00 min 24 sec)
Heartbeat CPU 0 instructions: 7000032 cycles: 1768367 heartbeat IPC: 4.002 cumulative IPC: 3.958 (Simulation time: 00 hr 00 min 26 sec)
Heartbeat CPU 0 instructions: 7500038 cycles: 1895077 heartbeat IPC: 3.946 cumulative IPC: 3.958 (Simulation time: 00 hr 00 min 28 sec)
Heartbeat CPU 0 instructions: 8000042 cycles: 2021230 heartbeat IPC: 3.963 cumulative IPC: 3.958 (Simulation time: 00 hr 00 min 30 sec)
Heartbeat CPU 0 instructions: 8500049 cycles: 2148257 heartbeat IPC: 3.936 cumulative IPC: 3.957 (Simulation time: 00 hr 00 min 32 sec)
Heartbeat CPU 0 instructions: 9000053 cycles: 2272994 heartbeat IPC: 4.008 cumulative IPC: 3.96 (Simulation time: 00 hr 00 min 34 sec)
Heartbeat CPU 0 instructions: 9500060 cycles: 2399715 heartbeat IPC: 3.946 cumulative IPC: 3.959 (Simulation time: 00 hr 00 min 36 sec)
Heartbeat CPU 0 instructions: 10000061 cycles: 2525986 heartbeat IPC: 3.96 cumulative IPC: 3.959 (Simulation time: 00 hr 00 min 38 sec)
Heartbeat CPU 0 instructions: 10500068 cycles: 2652794 heartbeat IPC: 3.943 cumulative IPC: 3.958 (Simulation time: 00 hr 00 min 40 sec)
Heartbeat CPU 0 instructions: 11000069 cycles: 2777492 heartbeat IPC: 4.01 cumulative IPC: 3.96 (Simulation time: 00 hr 00 min 42 sec)
Heartbeat CPU 0 instructions: 11500071 cycles: 2904481 heartbeat IPC: 3.937 cumulative IPC: 3.959 (Simulation time: 00 hr 00 min 44 sec)
Heartbeat CPU 0 instructions: 12000072 cycles: 3030883 heartbeat IPC: 3.956 cumulative IPC: 3.959 (Simulation time: 00 hr 00 min 46 sec)
Heartbeat CPU 0 instructions: 12500076 cycles: 3157374 heartbeat IPC: 3.953 cumulative IPC: 3.959 (Simulation time: 00 hr 00 min 48 sec)
Heartbeat CPU 0 instructions: 13000076 cycles: 3281906 heartbeat IPC: 4.015 cumulative IPC: 3.961 (Simulation time: 00 hr 00 min 50 sec)
Heartbeat CPU 0 instructions: 13500077 cycles: 3408603 heartbeat IPC: 3.946 cumulative IPC: 3.961 (Simulation time: 00 hr 00 min 52 sec)
Heartbeat CPU 0 instructions: 14000078 cycles: 3534789 heartbeat IPC: 3.962 cumulative IPC: 3.961 (Simulation time: 00 hr 00 min 54 sec)
Heartbeat CPU 0 instructions: 14500080 cycles: 3661933 heartbeat IPC: 3.933 cumulative IPC: 3.96 (Simulation time: 00 hr 00 min 56 sec)
Heartbeat CPU 0 instructions: 15000082 cycles: 3788914 heartbeat IPC: 3.938 cumulative IPC: 3.959 (Simulation time: 00 hr 00 min 58 sec)
Heartbeat CPU 0 instructions: 15500084 cycles: 3915975 heartbeat IPC: 3.935 cumulative IPC: 3.958 (Simulation time: 00 hr 01 min 00 sec)
Heartbeat CPU 0 instructions: 16000091 cycles: 4043055 heartbeat IPC: 3.935 cumulative IPC: 3.957 (Simulation time: 00 hr 01 min 02 sec)
Heartbeat CPU 0 instructions: 16500094 cycles: 4170349 heartbeat IPC: 3.928 cumulative IPC: 3.957 (Simulation time: 00 hr 01 min 04 sec)
Heartbeat CPU 0 instructions: 17000097 cycles: 4297433 heartbeat IPC: 3.934 cumulative IPC: 3.956 (Simulation time: 00 hr 01 min 06 sec)
Heartbeat CPU 0 instructions: 17500099 cycles: 4424714 heartbeat IPC: 3.928 cumulative IPC: 3.955 (Simulation time: 00 hr 01 min 08 sec)
Heartbeat CPU 0 instructions: 18000102 cycles: 4551798 heartbeat IPC: 3.934 cumulative IPC: 3.955 (Simulation time: 00 hr 01 min 10 sec)
Heartbeat CPU 0 instructions: 18500105 cycles: 4678874 heartbeat IPC: 3.935 cumulative IPC: 3.954 (Simulation time: 00 hr 01 min 12 sec)
Heartbeat CPU 0 instructions: 19000111 cycles: 4805939 heartbeat IPC: 3.935 cumulative IPC: 3.953 (Simulation time: 00 hr 01 min 14 sec)
Heartbeat CPU 0 instructions: 19500114 cycles: 4933233 heartbeat IPC: 3.928 cumulative IPC: 3.953 (Simulation time: 00 hr 01 min 16 sec)
Heartbeat CPU 0 instructions: 20000116 cycles: 5060534 heartbeat IPC: 3.928 cumulative IPC: 3.952 (Simulation time: 00 hr 01 min 18 sec)
Heartbeat CPU 0 instructions: 20500119 cycles: 5187608 heartbeat IPC: 3.935 cumulative IPC: 3.952 (Simulation time: 00 hr 01 min 20 sec)
Heartbeat CPU 0 instructions: 21000122 cycles: 5314892 heartbeat IPC: 3.928 cumulative IPC: 3.951 (Simulation time: 00 hr 01 min 22 sec)
Heartbeat CPU 0 instructions: 21500128 cycles: 5441767 heartbeat IPC: 3.941 cumulative IPC: 3.951 (Simulation time: 00 hr 01 min 24 sec)
Heartbeat CPU 0 instructions: 22000131 cycles: 5569045 heartbeat IPC: 3.928 cumulative IPC: 3.95 (Simulation time: 00 hr 01 min 26 sec)
Heartbeat CPU 0 instructions: 22500133 cycles: 5696114 heartbeat IPC: 3.935 cumulative IPC: 3.95 (Simulation time: 00 hr 01 min 28 sec)
Heartbeat CPU 0 instructions: 23000136 cycles: 5823418 heartbeat IPC: 3.928 cumulative IPC: 3.95 (Simulation time: 00 hr 01 min 30 sec)
Heartbeat CPU 0 instructions: 23500138 cycles: 5950499 heartbeat IPC: 3.935 cumulative IPC: 3.949 (Simulation time: 00 hr 01 min 32 sec)
Heartbeat CPU 0 instructions: 24000141 cycles: 6077793 heartbeat IPC: 3.928 cumulative IPC: 3.949 (Simulation time: 00 hr 01 min 34 sec)
Heartbeat CPU 0 instructions: 24500144 cycles: 6204877 heartbeat IPC: 3.934 cumulative IPC: 3.949 (Simulation time: 00 hr 01 min 36 sec)
Heartbeat CPU 0 instructions: 25000151 cycles: 6331948 heartbeat IPC: 3.935 cumulative IPC: 3.948 (Simulation time: 00 hr 01 min 38 sec)
Heartbeat CPU 0 instructions: 25500153 cycles: 6459018 heartbeat IPC: 3.935 cumulative IPC: 3.948 (Simulation time: 00 hr 01 min 40 sec)
Heartbeat CPU 0 instructions: 26000155 cycles: 6586299 heartbeat IPC: 3.928 cumulative IPC: 3.948 (Simulation time: 00 hr 01 min 42 sec)
Heartbeat CPU 0 instructions: 26500158 cycles: 6713383 heartbeat IPC: 3.934 cumulative IPC: 3.947 (Simulation time: 00 hr 01 min 44 sec)
Heartbeat CPU 0 instructions: 27000161 cycles: 6840677 heartbeat IPC: 3.928 cumulative IPC: 3.947 (Simulation time: 00 hr 01 min 46 sec)
Heartbeat CPU 0 instructions: 27500163 cycles: 6967768 heartbeat IPC: 3.934 cumulative IPC: 3.947 (Simulation time: 00 hr 01 min 48 sec)
Heartbeat CPU 0 instructions: 28000166 cycles: 7094839 heartbeat IPC: 3.935 cumulative IPC: 3.947 (Simulation time: 00 hr 01 min 50 sec)
Heartbeat CPU 0 instructions: 28500172 cycles: 7221909 heartbeat IPC: 3.935 cumulative IPC: 3.946 (Simulation time: 00 hr 01 min 52 sec)
Heartbeat CPU 0 instructions: 29000173 cycles: 7347439 heartbeat IPC: 3.983 cumulative IPC: 3.947 (Simulation time: 00 hr 01 min 54 sec)
Heartbeat CPU 0 instructions: 29500176 cycles: 7447440 heartbeat IPC: 5 cumulative IPC: 3.961 (Simulation time: 00 hr 01 min 55 sec)
Heartbeat CPU 0 instructions: 30000179 cycles: 7547439 heartbeat IPC: 5 cumulative IPC: 3.975 (Simulation time: 00 hr 01 min 57 sec)
Heartbeat CPU 0 instructions: 30500186 cycles: 7647441 heartbeat IPC: 5 cumulative IPC: 3.988 (Simulation time: 00 hr 01 min 58 sec)
Heartbeat CPU 0 instructions: 31000192 cycles: 7747822 heartbeat IPC: 4.981 cumulative IPC: 4.001 (Simulation time: 00 hr 02 min 00 sec)
Heartbeat CPU 0 instructions: 31500192 cycles: 7854709 heartbeat IPC: 4.678 cumulative IPC: 4.01 (Simulation time: 00 hr 02 min 01 sec)
Heartbeat CPU 0 instructions: 32000192 cycles: 7974615 heartbeat IPC: 4.17 cumulative IPC: 4.013 (Simulation time: 00 hr 02 min 03 sec)
Heartbeat CPU 0 instructions: 32500192 cycles: 8074663 heartbeat IPC: 4.998 cumulative IPC: 4.025 (Simulation time: 00 hr 02 min 04 sec)
Heartbeat CPU 0 instructions: 33000197 cycles: 8174664 heartbeat IPC: 5 cumulative IPC: 4.037 (Simulation time: 00 hr 02 min 06 sec)
Heartbeat CPU 0 instructions: 33500201 cycles: 8274667 heartbeat IPC: 5 cumulative IPC: 4.049 (Simulation time: 00 hr 02 min 07 sec)
Heartbeat CPU 0 instructions: 34000205 cycles: 8374711 heartbeat IPC: 4.998 cumulative IPC: 4.06 (Simulation time: 00 hr 02 min 09 sec)
Heartbeat CPU 0 instructions: 34500208 cycles: 8474713 heartbeat IPC: 5 cumulative IPC: 4.071 (Simulation time: 00 hr 02 min 10 sec)
Heartbeat CPU 0 instructions: 35000212 cycles: 8574714 heartbeat IPC: 5 cumulative IPC: 4.082 (Simulation time: 00 hr 02 min 11 sec)
Heartbeat CPU 0 instructions: 35500216 cycles: 8674713 heartbeat IPC: 5 cumulative IPC: 4.092 (Simulation time: 00 hr 02 min 13 sec)
Heartbeat CPU 0 instructions: 36000216 cycles: 8774766 heartbeat IPC: 4.997 cumulative IPC: 4.103 (Simulation time: 00 hr 02 min 14 sec)
Heartbeat CPU 0 instructions: 36500223 cycles: 8874772 heartbeat IPC: 5 cumulative IPC: 4.113 (Simulation time: 00 hr 02 min 16 sec)
Heartbeat CPU 0 instructions: 37000223 cycles: 8974762 heartbeat IPC: 5.001 cumulative IPC: 4.123 (Simulation time: 00 hr 02 min 17 sec)
Heartbeat CPU 0 instructions: 37500224 cycles: 9074761 heartbeat IPC: 5 cumulative IPC: 4.132 (Simulation time: 00 hr 02 min 19 sec)
Heartbeat CPU 0 instructions: 38000227 cycles: 9174808 heartbeat IPC: 4.998 cumulative IPC: 4.142 (Simulation time: 00 hr 02 min 20 sec)
Heartbeat CPU 0 instructions: 38500234 cycles: 9274810 heartbeat IPC: 5 cumulative IPC: 4.151 (Simulation time: 00 hr 02 min 22 sec)
Heartbeat CPU 0 instructions: 39000238 cycles: 9374811 heartbeat IPC: 5 cumulative IPC: 4.16 (Simulation time: 00 hr 02 min 23 sec)
Heartbeat CPU 0 instructions: 39500239 cycles: 9474822 heartbeat IPC: 4.999 cumulative IPC: 4.169 (Simulation time: 00 hr 02 min 24 sec)
Heartbeat CPU 0 instructions: 40000245 cycles: 9574866 heartbeat IPC: 4.998 cumulative IPC: 4.178 (Simulation time: 00 hr 02 min 26 sec)
Heartbeat CPU 0 instructions: 40500245 cycles: 9674858 heartbeat IPC: 5 cumulative IPC: 4.186 (Simulation time: 00 hr 02 min 27 sec)
Heartbeat CPU 0 instructions: 41000250 cycles: 9774859 heartbeat IPC: 5 cumulative IPC: 4.194 (Simulation time: 00 hr 02 min 29 sec)
Heartbeat CPU 0 instructions: 41500253 cycles: 9874906 heartbeat IPC: 4.998 cumulative IPC: 4.203 (Simulation time: 00 hr 02 min 30 sec)
Heartbeat CPU 0 instructions: 42000253 cycles: 9974907 heartbeat IPC: 5 cumulative IPC: 4.211 (Simulation time: 00 hr 02 min 32 sec)
Heartbeat CPU 0 instructions: 42500257 cycles: 10074908 heartbeat IPC: 5 cumulative IPC: 4.218 (Simulation time: 00 hr 02 min 33 sec)
Heartbeat CPU 0 instructions: 43000261 cycles: 10174907 heartbeat IPC: 5 cumulative IPC: 4.226 (Simulation time: 00 hr 02 min 35 sec)
Heartbeat CPU 0 instructions: 43500264 cycles: 10274908 heartbeat IPC: 5 cumulative IPC: 4.234 (Simulation time: 00 hr 02 min 36 sec)
Heartbeat CPU 0 instructions: 44000267 cycles: 10374909 heartbeat IPC: 5 cumulative IPC: 4.241 (Simulation time: 00 hr 02 min 37 sec)
Heartbeat CPU 0 instructions: 44500273 cycles: 10474910 heartbeat IPC: 5 cumulative IPC: 4.248 (Simulation time: 00 hr 02 min 39 sec)
Heartbeat CPU 0 instructions: 45000274 cycles: 10574916 heartbeat IPC: 5 cumulative IPC: 4.255 (Simulation time: 00 hr 02 min 40 sec)
Heartbeat CPU 0 instructions: 45500277 cycles: 10674911 heartbeat IPC: 5 cumulative IPC: 4.262 (Simulation time: 00 hr 02 min 42 sec)
Heartbeat CPU 0 instructions: 46000284 cycles: 10774918 heartbeat IPC: 5 cumulative IPC: 4.269 (Simulation time: 00 hr 02 min 43 sec)
Heartbeat CPU 0 instructions: 46500287 cycles: 10874912 heartbeat IPC: 5 cumulative IPC: 4.276 (Simulation time: 00 hr 02 min 45 sec)
Heartbeat CPU 0 instructions: 47000287 cycles: 10974913 heartbeat IPC: 5 cumulative IPC: 4.283 (Simulation time: 00 hr 02 min 46 sec)
Heartbeat CPU 0 instructions: 47500294 cycles: 11074914 heartbeat IPC: 5 cumulative IPC: 4.289 (Simulation time: 00 hr 02 min 47 sec)
Heartbeat CPU 0 instructions: 48000297 cycles: 11174914 heartbeat IPC: 5 cumulative IPC: 4.295 (Simulation time: 00 hr 02 min 49 sec)
Heartbeat CPU 0 instructions: 48500300 cycles: 11274916 heartbeat IPC: 5 cumulative IPC: 4.302 (Simulation time: 00 hr 02 min 50 sec)
Heartbeat CPU 0 instructions: 49000304 cycles: 11374916 heartbeat IPC: 5 cumulative IPC: 4.308 (Simulation time: 00 hr 02 min 52 sec)
Heartbeat CPU 0 instructions: 49500307 cycles: 11474917 heartbeat IPC: 5 cumulative IPC: 4.314 (Simulation time: 00 hr 02 min 53 sec)
Warmup finished CPU 0 instructions: 50000003 cycles: 11574859 cumulative IPC: 4.32 (Simulation time: 00 hr 02 min 55 sec)
Warmup complete CPU 0 instructions: 50000003 cycles: 11574859 cumulative IPC: 4.32 (Simulation time: 00 hr 02 min 55 sec)
Heartbeat CPU 0 instructions: 50000312 cycles: 11575430 heartbeat IPC: 4.975 cumulative IPC: 0.5412 (Simulation time: 00 hr 02 min 55 sec)
Heartbeat CPU 0 instructions: 50500313 cycles: 12320381 heartbeat IPC: 0.6712 cumulative IPC: 0.6711 (Simulation time: 00 hr 03 min 01 sec)
Heartbeat CPU 0 instructions: 51000313 cycles: 13063545 heartbeat IPC: 0.6728 cumulative IPC: 0.6719 (Simulation time: 00 hr 03 min 08 sec)
Heartbeat CPU 0 instructions: 51500314 cycles: 13806432 heartbeat IPC: 0.6731 cumulative IPC: 0.6723 (Simulation time: 00 hr 03 min 15 sec)
Heartbeat CPU 0 instructions: 52000319 cycles: 14549306 heartbeat IPC: 0.6731 cumulative IPC: 0.6725 (Simulation time: 00 hr 03 min 22 sec)
Heartbeat CPU 0 instructions: 52500323 cycles: 15296529 heartbeat IPC: 0.6691 cumulative IPC: 0.6718 (Simulation time: 00 hr 03 min 29 sec)
Heartbeat CPU 0 instructions: 53000327 cycles: 16039854 heartbeat IPC: 0.6727 cumulative IPC: 0.672 (Simulation time: 00 hr 03 min 36 sec)
Heartbeat CPU 0 instructions: 53500329 cycles: 16785796 heartbeat IPC: 0.6703 cumulative IPC: 0.6717 (Simulation time: 00 hr 03 min 42 sec)
Heartbeat CPU 0 instructions: 54000333 cycles: 17524571 heartbeat IPC: 0.6768 cumulative IPC: 0.6724 (Simulation time: 00 hr 03 min 49 sec)
Heartbeat CPU 0 instructions: 54500337 cycles: 18266854 heartbeat IPC: 0.6736 cumulative IPC: 0.6725 (Simulation time: 00 hr 03 min 56 sec)
Heartbeat CPU 0 instructions: 55000342 cycles: 19010563 heartbeat IPC: 0.6723 cumulative IPC: 0.6725 (Simulation time: 00 hr 04 min 03 sec)
Heartbeat CPU 0 instructions: 55500345 cycles: 19756434 heartbeat IPC: 0.6704 cumulative IPC: 0.6723 (Simulation time: 00 hr 04 min 10 sec)
Heartbeat CPU 0 instructions: 56000347 cycles: 20497344 heartbeat IPC: 0.6748 cumulative IPC: 0.6725 (Simulation time: 00 hr 04 min 16 sec)
Heartbeat CPU 0 instructions: 56500348 cycles: 21243387 heartbeat IPC: 0.6702 cumulative IPC: 0.6723 (Simulation time: 00 hr 04 min 23 sec)
Heartbeat CPU 0 instructions: 57000348 cycles: 21985865 heartbeat IPC: 0.6734 cumulative IPC: 0.6724 (Simulation time: 00 hr 04 min 30 sec)
Heartbeat CPU 0 instructions: 57500352 cycles: 22726124 heartbeat IPC: 0.6754 cumulative IPC: 0.6726 (Simulation time: 00 hr 04 min 37 sec)
Heartbeat CPU 0 instructions: 58000354 cycles: 23468326 heartbeat IPC: 0.6737 cumulative IPC: 0.6727 (Simulation time: 00 hr 04 min 44 sec)
Heartbeat CPU 0 instructions: 58500358 cycles: 24016143 heartbeat IPC: 0.9127 cumulative IPC: 0.6832 (Simulation time: 00 hr 04 min 49 sec)
Heartbeat CPU 0 instructions: 59000362 cycles: 24459578 heartbeat IPC: 1.128 cumulative IPC: 0.6985 (Simulation time: 00 hr 04 min 53 sec)
Heartbeat CPU 0 instructions: 59500363 cycles: 24870477 heartbeat IPC: 1.217 cumulative IPC: 0.7145 (Simulation time: 00 hr 04 min 57 sec)
Heartbeat CPU 0 instructions: 60000363 cycles: 25234868 heartbeat IPC: 1.372 cumulative IPC: 0.7321 (Simulation time: 00 hr 05 min 01 sec)
Heartbeat CPU 0 instructions: 60500364 cycles: 25677560 heartbeat IPC: 1.129 cumulative IPC: 0.7446 (Simulation time: 00 hr 05 min 07 sec)
Heartbeat CPU 0 instructions: 61000366 cycles: 26231298 heartbeat IPC: 0.903 cumulative IPC: 0.7505 (Simulation time: 00 hr 05 min 12 sec)
Heartbeat CPU 0 instructions: 61500366 cycles: 26949294 heartbeat IPC: 0.6964 cumulative IPC: 0.748 (Simulation time: 00 hr 05 min 18 sec)
Heartbeat CPU 0 instructions: 62000368 cycles: 27695527 heartbeat IPC: 0.67 cumulative IPC: 0.7444 (Simulation time: 00 hr 05 min 25 sec)
Heartbeat CPU 0 instructions: 62500370 cycles: 28447770 heartbeat IPC: 0.6647 cumulative IPC: 0.7409 (Simulation time: 00 hr 05 min 32 sec)
Heartbeat CPU 0 instructions: 63000376 cycles: 29214272 heartbeat IPC: 0.6523 cumulative IPC: 0.737 (Simulation time: 00 hr 05 min 39 sec)
Heartbeat CPU 0 instructions: 63500376 cycles: 29938326 heartbeat IPC: 0.6906 cumulative IPC: 0.7352 (Simulation time: 00 hr 05 min 45 sec)
Heartbeat CPU 0 instructions: 64000381 cycles: 30687435 heartbeat IPC: 0.6675 cumulative IPC: 0.7325 (Simulation time: 00 hr 05 min 52 sec)
Heartbeat CPU 0 instructions: 64500386 cycles: 31449281 heartbeat IPC: 0.6563 cumulative IPC: 0.7296 (Simulation time: 00 hr 05 min 59 sec)
Heartbeat CPU 0 instructions: 65000390 cycles: 32179967 heartbeat IPC: 0.6843 cumulative IPC: 0.728 (Simulation time: 00 hr 06 min 05 sec)
Heartbeat CPU 0 instructions: 65500393 cycles: 32924099 heartbeat IPC: 0.6719 cumulative IPC: 0.726 (Simulation time: 00 hr 06 min 12 sec)
Heartbeat CPU 0 instructions: 66000396 cycles: 33663907 heartbeat IPC: 0.6759 cumulative IPC: 0.7244 (Simulation time: 00 hr 06 min 18 sec)
Heartbeat CPU 0 instructions: 66500396 cycles: 34425043 heartbeat IPC: 0.6569 cumulative IPC: 0.7221 (Simulation time: 00 hr 06 min 26 sec)
Heartbeat CPU 0 instructions: 67000402 cycles: 35158098 heartbeat IPC: 0.6821 cumulative IPC: 0.7209 (Simulation time: 00 hr 06 min 32 sec)
Heartbeat CPU 0 instructions: 67500405 cycles: 35905946 heartbeat IPC: 0.6686 cumulative IPC: 0.7193 (Simulation time: 00 hr 06 min 39 sec)
Heartbeat CPU 0 instructions: 68000406 cycles: 36649345 heartbeat IPC: 0.6726 cumulative IPC: 0.7179 (Simulation time: 00 hr 06 min 46 sec)
Heartbeat CPU 0 instructions: 68500410 cycles: 37404256 heartbeat IPC: 0.6623 cumulative IPC: 0.7163 (Simulation time: 00 hr 06 min 52 sec)
Heartbeat CPU 0 instructions: 69000410 cycles: 38132897 heartbeat IPC: 0.6862 cumulative IPC: 0.7154 (Simulation time: 00 hr 06 min 59 sec)
Heartbeat CPU 0 instructions: 69500414 cycles: 38878581 heartbeat IPC: 0.6705 cumulative IPC: 0.7142 (Simulation time: 00 hr 07 min 06 sec)
Heartbeat CPU 0 instructions: 70000416 cycles: 39630531 heartbeat IPC: 0.6649 cumulative IPC: 0.7129 (Simulation time: 00 hr 07 min 12 sec)
Heartbeat CPU 0 instructions: 70500418 cycles: 40388134 heartbeat IPC: 0.66 cumulative IPC: 0.7115 (Simulation time: 00 hr 07 min 19 sec)
Heartbeat CPU 0 instructions: 71000418 cycles: 41111580 heartbeat IPC: 0.6911 cumulative IPC: 0.711 (Simulation time: 00 hr 07 min 26 sec)
Heartbeat CPU 0 instructions: 71500422 cycles: 41858064 heartbeat IPC: 0.6698 cumulative IPC: 0.71 (Simulation time: 00 hr 07 min 32 sec)
Heartbeat CPU 0 instructions: 72000428 cycles: 42609412 heartbeat IPC: 0.6655 cumulative IPC: 0.7089 (Simulation time: 00 hr 07 min 39 sec)
Heartbeat CPU 0 instructions: 72500431 cycles: 43362692 heartbeat IPC: 0.6638 cumulative IPC: 0.7078 (Simulation time: 00 hr 07 min 46 sec)
Heartbeat CPU 0 instructions: 73000433 cycles: 44117666 heartbeat IPC: 0.6623 cumulative IPC: 0.7068 (Simulation time: 00 hr 07 min 53 sec)
Heartbeat CPU 0 instructions: 73500437 cycles: 44872329 heartbeat IPC: 0.6626 cumulative IPC: 0.7058 (Simulation time: 00 hr 07 min 59 sec)
Heartbeat CPU 0 instructions: 74000441 cycles: 45630304 heartbeat IPC: 0.6597 cumulative IPC: 0.7047 (Simulation time: 00 hr 08 min 06 sec)
Heartbeat CPU 0 instructions: 74500445 cycles: 46385111 heartbeat IPC: 0.6624 cumulative IPC: 0.7038 (Simulation time: 00 hr 08 min 12 sec)
Heartbeat CPU 0 instructions: 75000449 cycles: 47138074 heartbeat IPC: 0.664 cumulative IPC: 0.703 (Simulation time: 00 hr 08 min 19 sec)
Heartbeat CPU 0 instructions: 75500451 cycles: 47894844 heartbeat IPC: 0.6607 cumulative IPC: 0.7021 (Simulation time: 00 hr 08 min 25 sec)
Heartbeat CPU 0 instructions: 76000452 cycles: 48654987 heartbeat IPC: 0.6578 cumulative IPC: 0.7012 (Simulation time: 00 hr 08 min 32 sec)
Heartbeat CPU 0 instructions: 76500452 cycles: 49409585 heartbeat IPC: 0.6626 cumulative IPC: 0.7004 (Simulation time: 00 hr 08 min 39 sec)
Heartbeat CPU 0 instructions: 77000456 cycles: 50170334 heartbeat IPC: 0.6573 cumulative IPC: 0.6996 (Simulation time: 00 hr 08 min 45 sec)
Heartbeat CPU 0 instructions: 77500458 cycles: 50931986 heartbeat IPC: 0.6565 cumulative IPC: 0.6987 (Simulation time: 00 hr 08 min 52 sec)
Heartbeat CPU 0 instructions: 78000462 cycles: 51692915 heartbeat IPC: 0.6571 cumulative IPC: 0.698 (Simulation time: 00 hr 08 min 58 sec)
Heartbeat CPU 0 instructions: 78500466 cycles: 52450204 heartbeat IPC: 0.6603 cumulative IPC: 0.6973 (Simulation time: 00 hr 09 min 05 sec)
Heartbeat CPU 0 instructions: 79000470 cycles: 53204987 heartbeat IPC: 0.6624 cumulative IPC: 0.6966 (Simulation time: 00 hr 09 min 12 sec)
Heartbeat CPU 0 instructions: 79500470 cycles: 53970040 heartbeat IPC: 0.6535 cumulative IPC: 0.6958 (Simulation time: 00 hr 09 min 18 sec)
Heartbeat CPU 0 instructions: 80000476 cycles: 54723318 heartbeat IPC: 0.6638 cumulative IPC: 0.6953 (Simulation time: 00 hr 09 min 25 sec)
Heartbeat CPU 0 instructions: 80500480 cycles: 55486427 heartbeat IPC: 0.6552 cumulative IPC: 0.6946 (Simulation time: 00 hr 09 min 31 sec)
Heartbeat CPU 0 instructions: 81000484 cycles: 56239832 heartbeat IPC: 0.6637 cumulative IPC: 0.6941 (Simulation time: 00 hr 09 min 38 sec)
Heartbeat CPU 0 instructions: 81500488 cycles: 57001225 heartbeat IPC: 0.6567 cumulative IPC: 0.6934 (Simulation time: 00 hr 09 min 44 sec)
Heartbeat CPU 0 instructions: 82000490 cycles: 57758965 heartbeat IPC: 0.6599 cumulative IPC: 0.6929 (Simulation time: 00 hr 09 min 51 sec)
Heartbeat CPU 0 instructions: 82500494 cycles: 58517446 heartbeat IPC: 0.6592 cumulative IPC: 0.6923 (Simulation time: 00 hr 09 min 58 sec)
Heartbeat CPU 0 instructions: 83000498 cycles: 59274755 heartbeat IPC: 0.6602 cumulative IPC: 0.6918 (Simulation time: 00 hr 10 min 04 sec)
Heartbeat CPU 0 instructions: 83500502 cycles: 60031554 heartbeat IPC: 0.6607 cumulative IPC: 0.6913 (Simulation time: 00 hr 10 min 11 sec)
Heartbeat CPU 0 instructions: 84000504 cycles: 60787066 heartbeat IPC: 0.6618 cumulative IPC: 0.6909 (Simulation time: 00 hr 10 min 17 sec)
Heartbeat CPU 0 instructions: 84500508 cycles: 61547031 heartbeat IPC: 0.6579 cumulative IPC: 0.6904 (Simulation time: 00 hr 10 min 24 sec)
Heartbeat CPU 0 instructions: 85000512 cycles: 62303144 heartbeat IPC: 0.6613 cumulative IPC: 0.69 (Simulation time: 00 hr 10 min 30 sec)
Heartbeat CPU 0 instructions: 85500516 cycles: 63059707 heartbeat IPC: 0.6609 cumulative IPC: 0.6895 (Simulation time: 00 hr 10 min 37 sec)
Heartbeat CPU 0 instructions: 86000520 cycles: 63814394 heartbeat IPC: 0.6625 cumulative IPC: 0.6891 (Simulation time: 00 hr 10 min 44 sec)
Heartbeat CPU 0 instructions: 86500522 cycles: 64572614 heartbeat IPC: 0.6594 cumulative IPC: 0.6887 (Simulation time: 00 hr 10 min 50 sec)
Heartbeat CPU 0 instructions: 87000523 cycles: 65328607 heartbeat IPC: 0.6614 cumulative IPC: 0.6883 (Simulation time: 00 hr 10 min 57 sec)
Heartbeat CPU 0 instructions: 87500523 cycles: 65902325 heartbeat IPC: 0.8715 cumulative IPC: 0.6903 (Simulation time: 00 hr 11 min 02 sec)
Heartbeat CPU 0 instructions: 88000527 cycles: 66373642 heartbeat IPC: 1.061 cumulative IPC: 0.6935 (Simulation time: 00 hr 11 min 06 sec)
Heartbeat CPU 0 instructions: 88500529 cycles: 66796110 heartbeat IPC: 1.184 cumulative IPC: 0.6972 (Simulation time: 00 hr 11 min 10 sec)
Heartbeat CPU 0 instructions: 89000530 cycles: 67184249 heartbeat IPC: 1.288 cumulative IPC: 0.7013 (Simulation time: 00 hr 11 min 14 sec)
Heartbeat CPU 0 instructions: 89500531 cycles: 67632269 heartbeat IPC: 1.116 cumulative IPC: 0.7046 (Simulation time: 00 hr 11 min 20 sec)
Heartbeat CPU 0 instructions: 90000535 cycles: 68182470 heartbeat IPC: 0.9088 cumulative IPC: 0.7066 (Simulation time: 00 hr 11 min 25 sec)
Heartbeat CPU 0 instructions: 90500541 cycles: 68904123 heartbeat IPC: 0.6929 cumulative IPC: 0.7065 (Simulation time: 00 hr 11 min 31 sec)
Heartbeat CPU 0 instructions: 91000546 cycles: 69647594 heartbeat IPC: 0.6725 cumulative IPC: 0.706 (Simulation time: 00 hr 11 min 38 sec)
Heartbeat CPU 0 instructions: 91500552 cycles: 70399421 heartbeat IPC: 0.6651 cumulative IPC: 0.7055 (Simulation time: 00 hr 11 min 45 sec)
Heartbeat CPU 0 instructions: 92000558 cycles: 71165214 heartbeat IPC: 0.6529 cumulative IPC: 0.7048 (Simulation time: 00 hr 11 min 52 sec)
Heartbeat CPU 0 instructions: 92500561 cycles: 71889717 heartbeat IPC: 0.6901 cumulative IPC: 0.7046 (Simulation time: 00 hr 11 min 58 sec)
Heartbeat CPU 0 instructions: 93000562 cycles: 72637945 heartbeat IPC: 0.6682 cumulative IPC: 0.7042 (Simulation time: 00 hr 12 min 05 sec)
Heartbeat CPU 0 instructions: 93500562 cycles: 73400714 heartbeat IPC: 0.6555 cumulative IPC: 0.7036 (Simulation time: 00 hr 12 min 12 sec)
Heartbeat CPU 0 instructions: 94000566 cycles: 74134114 heartbeat IPC: 0.6818 cumulative IPC: 0.7033 (Simulation time: 00 hr 12 min 18 sec)
Heartbeat CPU 0 instructions: 94500566 cycles: 74878186 heartbeat IPC: 0.672 cumulative IPC: 0.703 (Simulation time: 00 hr 12 min 25 sec)
Heartbeat CPU 0 instructions: 95000572 cycles: 75618346 heartbeat IPC: 0.6755 cumulative IPC: 0.7027 (Simulation time: 00 hr 12 min 32 sec)
Heartbeat CPU 0 instructions: 95500576 cycles: 76377599 heartbeat IPC: 0.6585 cumulative IPC: 0.7021 (Simulation time: 00 hr 12 min 39 sec)
Heartbeat CPU 0 instructions: 96000578 cycles: 77105041 heartbeat IPC: 0.6873 cumulative IPC: 0.702 (Simulation time: 00 hr 12 min 45 sec)
Heartbeat CPU 0 instructions: 96500584 cycles: 77852869 heartbeat IPC: 0.6686 cumulative IPC: 0.7016 (Simulation time: 00 hr 12 min 52 sec)
Heartbeat CPU 0 instructions: 97000589 cycles: 78598666 heartbeat IPC: 0.6704 cumulative IPC: 0.7013 (Simulation time: 00 hr 12 min 59 sec)
Heartbeat CPU 0 instructions: 97500592 cycles: 79359766 heartbeat IPC: 0.6569 cumulative IPC: 0.7008 (Simulation time: 00 hr 13 min 06 sec)
Heartbeat CPU 0 instructions: 98000593 cycles: 80090524 heartbeat IPC: 0.6842 cumulative IPC: 0.7006 (Simulation time: 00 hr 13 min 12 sec)
Heartbeat CPU 0 instructions: 98500593 cycles: 80836664 heartbeat IPC: 0.6701 cumulative IPC: 0.7003 (Simulation time: 00 hr 13 min 19 sec)
Heartbeat CPU 0 instructions: 99000599 cycles: 81584769 heartbeat IPC: 0.6684 cumulative IPC: 0.6999 (Simulation time: 00 hr 13 min 26 sec)
Heartbeat CPU 0 instructions: 99500605 cycles: 82341591 heartbeat IPC: 0.6607 cumulative IPC: 0.6995 (Simulation time: 00 hr 13 min 33 sec)
Heartbeat CPU 0 instructions: 100000608 cycles: 83066765 heartbeat IPC: 0.6895 cumulative IPC: 0.6994 (Simulation time: 00 hr 13 min 39 sec)
Heartbeat CPU 0 instructions: 100500609 cycles: 83812315 heartbeat IPC: 0.6706 cumulative IPC: 0.6991 (Simulation time: 00 hr 13 min 46 sec)
Heartbeat CPU 0 instructions: 101000609 cycles: 84563248 heartbeat IPC: 0.6658 cumulative IPC: 0.6987 (Simulation time: 00 hr 13 min 53 sec)
Heartbeat CPU 0 instructions: 101500615 cycles: 85317880 heartbeat IPC: 0.6626 cumulative IPC: 0.6984 (Simulation time: 00 hr 13 min 59 sec)
Heartbeat CPU 0 instructions: 102000615 cycles: 86071707 heartbeat IPC: 0.6633 cumulative IPC: 0.698 (Simulation time: 00 hr 14 min 06 sec)
Heartbeat CPU 0 instructions: 102500618 cycles: 86828227 heartbeat IPC: 0.6609 cumulative IPC: 0.6977 (Simulation time: 00 hr 14 min 13 sec)
Heartbeat CPU 0 instructions: 103000618 cycles: 87584825 heartbeat IPC: 0.6609 cumulative IPC: 0.6973 (Simulation time: 00 hr 14 min 19 sec)
Heartbeat CPU 0 instructions: 103500622 cycles: 88340940 heartbeat IPC: 0.6613 cumulative IPC: 0.6969 (Simulation time: 00 hr 14 min 26 sec)
Heartbeat CPU 0 instructions: 104000623 cycles: 89101849 heartbeat IPC: 0.6571 cumulative IPC: 0.6965 (Simulation time: 00 hr 14 min 32 sec)
Heartbeat CPU 0 instructions: 104500628 cycles: 89859045 heartbeat IPC: 0.6603 cumulative IPC: 0.6962 (Simulation time: 00 hr 14 min 39 sec)
Heartbeat CPU 0 instructions: 105000632 cycles: 90617384 heartbeat IPC: 0.6593 cumulative IPC: 0.6958 (Simulation time: 00 hr 14 min 46 sec)
Heartbeat CPU 0 instructions: 105500636 cycles: 91375675 heartbeat IPC: 0.6594 cumulative IPC: 0.6955 (Simulation time: 00 hr 14 min 52 sec)
Heartbeat CPU 0 instructions: 106000640 cycles: 92132636 heartbeat IPC: 0.6605 cumulative IPC: 0.6952 (Simulation time: 00 hr 14 min 59 sec)
Heartbeat CPU 0 instructions: 106500642 cycles: 92888510 heartbeat IPC: 0.6615 cumulative IPC: 0.6948 (Simulation time: 00 hr 15 min 05 sec)
Heartbeat CPU 0 instructions: 107000643 cycles: 93646957 heartbeat IPC: 0.6592 cumulative IPC: 0.6945 (Simulation time: 00 hr 15 min 12 sec)
Heartbeat CPU 0 instructions: 107500643 cycles: 94406615 heartbeat IPC: 0.6582 cumulative IPC: 0.6942 (Simulation time: 00 hr 15 min 19 sec)
Heartbeat CPU 0 instructions: 108000647 cycles: 95161664 heartbeat IPC: 0.6622 cumulative IPC: 0.6939 (Simulation time: 00 hr 15 min 25 sec)
Heartbeat CPU 0 instructions: 108500648 cycles: 95917751 heartbeat IPC: 0.6613 cumulative IPC: 0.6936 (Simulation time: 00 hr 15 min 32 sec)
Heartbeat CPU 0 instructions: 109000653 cycles: 96674965 heartbeat IPC: 0.6603 cumulative IPC: 0.6933 (Simulation time: 00 hr 15 min 38 sec)
Heartbeat CPU 0 instructions: 109500657 cycles: 97428678 heartbeat IPC: 0.6634 cumulative IPC: 0.693 (Simulation time: 00 hr 15 min 45 sec)
Heartbeat CPU 0 instructions: 110000658 cycles: 98187487 heartbeat IPC: 0.6589 cumulative IPC: 0.6927 (Simulation time: 00 hr 15 min 52 sec)
Heartbeat CPU 0 instructions: 110500658 cycles: 98940175 heartbeat IPC: 0.6643 cumulative IPC: 0.6925 (Simulation time: 00 hr 15 min 58 sec)
Heartbeat CPU 0 instructions: 111000660 cycles: 99697527 heartbeat IPC: 0.6602 cumulative IPC: 0.6922 (Simulation time: 00 hr 16 min 05 sec)
Heartbeat CPU 0 instructions: 111500664 cycles: 100455464 heartbeat IPC: 0.6597 cumulative IPC: 0.6919 (Simulation time: 00 hr 16 min 11 sec)
Heartbeat CPU 0 instructions: 112000668 cycles: 101210515 heartbeat IPC: 0.6622 cumulative IPC: 0.6917 (Simulation time: 00 hr 16 min 18 sec)
Heartbeat CPU 0 instructions: 112500672 cycles: 101966624 heartbeat IPC: 0.6613 cumulative IPC: 0.6914 (Simulation time: 00 hr 16 min 24 sec)
Heartbeat CPU 0 instructions: 113000674 cycles: 102720596 heartbeat IPC: 0.6632 cumulative IPC: 0.6912 (Simulation time: 00 hr 16 min 31 sec)
Heartbeat CPU 0 instructions: 113500678 cycles: 103479809 heartbeat IPC: 0.6586 cumulative IPC: 0.6909 (Simulation time: 00 hr 16 min 38 sec)
Heartbeat CPU 0 instructions: 114000682 cycles: 104241434 heartbeat IPC: 0.6565 cumulative IPC: 0.6907 (Simulation time: 00 hr 16 min 44 sec)
Heartbeat CPU 0 instructions: 114500683 cycles: 104995947 heartbeat IPC: 0.6627 cumulative IPC: 0.6904 (Simulation time: 00 hr 16 min 51 sec)
Heartbeat CPU 0 instructions: 115000690 cycles: 105752554 heartbeat IPC: 0.6609 cumulative IPC: 0.6902 (Simulation time: 00 hr 16 min 57 sec)
Heartbeat CPU 0 instructions: 115500692 cycles: 106508524 heartbeat IPC: 0.6614 cumulative IPC: 0.69 (Simulation time: 00 hr 17 min 04 sec)
Heartbeat CPU 0 instructions: 116000693 cycles: 107267181 heartbeat IPC: 0.6591 cumulative IPC: 0.6897 (Simulation time: 00 hr 17 min 11 sec)
Heartbeat CPU 0 instructions: 116500700 cycles: 107842241 heartbeat IPC: 0.8695 cumulative IPC: 0.6908 (Simulation time: 00 hr 17 min 16 sec)
Heartbeat CPU 0 instructions: 117000703 cycles: 108315390 heartbeat IPC: 1.057 cumulative IPC: 0.6926 (Simulation time: 00 hr 17 min 20 sec)
Heartbeat CPU 0 instructions: 117500703 cycles: 108733907 heartbeat IPC: 1.195 cumulative IPC: 0.6947 (Simulation time: 00 hr 17 min 24 sec)
Heartbeat CPU 0 instructions: 118000707 cycles: 109123166 heartbeat IPC: 1.285 cumulative IPC: 0.6971 (Simulation time: 00 hr 17 min 28 sec)
Heartbeat CPU 0 instructions: 118500709 cycles: 109575664 heartbeat IPC: 1.105 cumulative IPC: 0.699 (Simulation time: 00 hr 17 min 34 sec)
Heartbeat CPU 0 instructions: 119000714 cycles: 110056765 heartbeat IPC: 1.039 cumulative IPC: 0.7006 (Simulation time: 00 hr 17 min 38 sec)
Heartbeat CPU 0 instructions: 119500720 cycles: 110800794 heartbeat IPC: 0.672 cumulative IPC: 0.7004 (Simulation time: 00 hr 17 min 44 sec)
Heartbeat CPU 0 instructions: 120000725 cycles: 111561702 heartbeat IPC: 0.6571 cumulative IPC: 0.7001 (Simulation time: 00 hr 17 min 51 sec)
Heartbeat CPU 0 instructions: 120500730 cycles: 112314664 heartbeat IPC: 0.6641 cumulative IPC: 0.6998 (Simulation time: 00 hr 17 min 58 sec)
Heartbeat CPU 0 instructions: 121000737 cycles: 113079468 heartbeat IPC: 0.6538 cumulative IPC: 0.6995 (Simulation time: 00 hr 18 min 05 sec)
Heartbeat CPU 0 instructions: 121500743 cycles: 113807115 heartbeat IPC: 0.6872 cumulative IPC: 0.6994 (Simulation time: 00 hr 18 min 12 sec)
Heartbeat CPU 0 instructions: 122000748 cycles: 114554938 heartbeat IPC: 0.6686 cumulative IPC: 0.6992 (Simulation time: 00 hr 18 min 18 sec)
Heartbeat CPU 0 instructions: 122500751 cycles: 115311766 heartbeat IPC: 0.6607 cumulative IPC: 0.6989 (Simulation time: 00 hr 18 min 25 sec)
Heartbeat CPU 0 instructions: 123000753 cycles: 116069855 heartbeat IPC: 0.6596 cumulative IPC: 0.6986 (Simulation time: 00 hr 18 min 32 sec)
Heartbeat CPU 0 instructions: 123500759 cycles: 116814245 heartbeat IPC: 0.6717 cumulative IPC: 0.6984 (Simulation time: 00 hr 18 min 43 sec)
Heartbeat CPU 0 instructions: 124000764 cycles: 117562884 heartbeat IPC: 0.6679 cumulative IPC: 0.6982 (Simulation time: 00 hr 18 min 55 sec)
Heartbeat CPU 0 instructions: 124500765 cycles: 118316756 heartbeat IPC: 0.6632 cumulative IPC: 0.698 (Simulation time: 00 hr 19 min 07 sec)
Heartbeat CPU 0 instructions: 125000767 cycles: 119050416 heartbeat IPC: 0.6815 cumulative IPC: 0.6978 (Simulation time: 00 hr 19 min 18 sec)
Heartbeat CPU 0 instructions: 125500771 cycles: 119794052 heartbeat IPC: 0.6724 cumulative IPC: 0.6977 (Simulation time: 00 hr 19 min 30 sec)
Heartbeat CPU 0 instructions: 126000775 cycles: 120535914 heartbeat IPC: 0.674 cumulative IPC: 0.6975 (Simulation time: 00 hr 19 min 42 sec)
Heartbeat CPU 0 instructions: 126500777 cycles: 121296587 heartbeat IPC: 0.6573 cumulative IPC: 0.6972 (Simulation time: 00 hr 19 min 54 sec)
Heartbeat CPU 0 instructions: 127000779 cycles: 122041836 heartbeat IPC: 0.6709 cumulative IPC: 0.697 (Simulation time: 00 hr 20 min 05 sec)
Heartbeat CPU 0 instructions: 127500782 cycles: 122787114 heartbeat IPC: 0.6709 cumulative IPC: 0.6969 (Simulation time: 00 hr 20 min 17 sec)
Heartbeat CPU 0 instructions: 128000785 cycles: 123534566 heartbeat IPC: 0.6689 cumulative IPC: 0.6967 (Simulation time: 00 hr 20 min 26 sec)
Heartbeat CPU 0 instructions: 128500790 cycles: 124291406 heartbeat IPC: 0.6606 cumulative IPC: 0.6964 (Simulation time: 00 hr 20 min 33 sec)
Heartbeat CPU 0 instructions: 129000796 cycles: 125038297 heartbeat IPC: 0.6694 cumulative IPC: 0.6963 (Simulation time: 00 hr 20 min 39 sec)
Heartbeat CPU 0 instructions: 129500797 cycles: 125787532 heartbeat IPC: 0.6673 cumulative IPC: 0.6961 (Simulation time: 00 hr 20 min 46 sec)
Heartbeat CPU 0 instructions: 130000799 cycles: 126536735 heartbeat IPC: 0.6674 cumulative IPC: 0.6959 (Simulation time: 00 hr 20 min 53 sec)
Heartbeat CPU 0 instructions: 130500800 cycles: 127289946 heartbeat IPC: 0.6638 cumulative IPC: 0.6957 (Simulation time: 00 hr 20 min 59 sec)
Heartbeat CPU 0 instructions: 131000804 cycles: 128044255 heartbeat IPC: 0.6629 cumulative IPC: 0.6955 (Simulation time: 00 hr 21 min 06 sec)
Heartbeat CPU 0 instructions: 131500806 cycles: 128804389 heartbeat IPC: 0.6578 cumulative IPC: 0.6952 (Simulation time: 00 hr 21 min 12 sec)
Heartbeat CPU 0 instructions: 132000810 cycles: 129561436 heartbeat IPC: 0.6605 cumulative IPC: 0.695 (Simulation time: 00 hr 21 min 19 sec)
Heartbeat CPU 0 instructions: 132500814 cycles: 130314889 heartbeat IPC: 0.6636 cumulative IPC: 0.6948 (Simulation time: 00 hr 21 min 25 sec)
Heartbeat CPU 0 instructions: 133000818 cycles: 131066284 heartbeat IPC: 0.6654 cumulative IPC: 0.6946 (Simulation time: 00 hr 21 min 31 sec)
Heartbeat CPU 0 instructions: 133500820 cycles: 131820746 heartbeat IPC: 0.6627 cumulative IPC: 0.6944 (Simulation time: 00 hr 21 min 38 sec)
Heartbeat CPU 0 instructions: 134000824 cycles: 132577865 heartbeat IPC: 0.6604 cumulative IPC: 0.6942 (Simulation time: 00 hr 21 min 44 sec)
Heartbeat CPU 0 instructions: 134500828 cycles: 133331474 heartbeat IPC: 0.6635 cumulative IPC: 0.694 (Simulation time: 00 hr 21 min 51 sec)
Heartbeat CPU 0 instructions: 135000829 cycles: 134083927 heartbeat IPC: 0.6645 cumulative IPC: 0.6938 (Simulation time: 00 hr 21 min 57 sec)
Heartbeat CPU 0 instructions: 135500836 cycles: 134842434 heartbeat IPC: 0.6592 cumulative IPC: 0.6936 (Simulation time: 00 hr 22 min 03 sec)
Heartbeat CPU 0 instructions: 136000838 cycles: 135604828 heartbeat IPC: 0.6558 cumulative IPC: 0.6934 (Simulation time: 00 hr 22 min 10 sec)
Heartbeat CPU 0 instructions: 136500839 cycles: 136361337 heartbeat IPC: 0.6609 cumulative IPC: 0.6932 (Simulation time: 00 hr 22 min 16 sec)
Heartbeat CPU 0 instructions: 137000839 cycles: 137118739 heartbeat IPC: 0.6602 cumulative IPC: 0.693 (Simulation time: 00 hr 22 min 23 sec)
Heartbeat CPU 0 instructions: 137500841 cycles: 137875201 heartbeat IPC: 0.661 cumulative IPC: 0.6928 (Simulation time: 00 hr 22 min 29 sec)
Heartbeat CPU 0 instructions: 138000845 cycles: 138634726 heartbeat IPC: 0.6583 cumulative IPC: 0.6926 (Simulation time: 00 hr 22 min 36 sec)
Heartbeat CPU 0 instructions: 138500849 cycles: 139395375 heartbeat IPC: 0.6573 cumulative IPC: 0.6924 (Simulation time: 00 hr 22 min 42 sec)
Heartbeat CPU 0 instructions: 139000853 cycles: 140150998 heartbeat IPC: 0.6617 cumulative IPC: 0.6922 (Simulation time: 00 hr 22 min 49 sec)
Heartbeat CPU 0 instructions: 139500854 cycles: 140912387 heartbeat IPC: 0.6567 cumulative IPC: 0.692 (Simulation time: 00 hr 22 min 55 sec)
Heartbeat CPU 0 instructions: 140000854 cycles: 141669899 heartbeat IPC: 0.6601 cumulative IPC: 0.6918 (Simulation time: 00 hr 23 min 01 sec)
Heartbeat CPU 0 instructions: 140500855 cycles: 142427062 heartbeat IPC: 0.6604 cumulative IPC: 0.6916 (Simulation time: 00 hr 23 min 08 sec)
Heartbeat CPU 0 instructions: 141000860 cycles: 143187616 heartbeat IPC: 0.6574 cumulative IPC: 0.6914 (Simulation time: 00 hr 23 min 14 sec)
Heartbeat CPU 0 instructions: 141500864 cycles: 143944795 heartbeat IPC: 0.6604 cumulative IPC: 0.6913 (Simulation time: 00 hr 23 min 21 sec)
Heartbeat CPU 0 instructions: 142000870 cycles: 144700038 heartbeat IPC: 0.662 cumulative IPC: 0.6911 (Simulation time: 00 hr 23 min 27 sec)
Heartbeat CPU 0 instructions: 142500870 cycles: 145461090 heartbeat IPC: 0.657 cumulative IPC: 0.6909 (Simulation time: 00 hr 23 min 34 sec)
Heartbeat CPU 0 instructions: 143000874 cycles: 146219395 heartbeat IPC: 0.6594 cumulative IPC: 0.6907 (Simulation time: 00 hr 23 min 40 sec)
Heartbeat CPU 0 instructions: 143500878 cycles: 146973054 heartbeat IPC: 0.6634 cumulative IPC: 0.6906 (Simulation time: 00 hr 23 min 46 sec)
Heartbeat CPU 0 instructions: 144000879 cycles: 147728604 heartbeat IPC: 0.6618 cumulative IPC: 0.6904 (Simulation time: 00 hr 23 min 53 sec)
Heartbeat CPU 0 instructions: 144500884 cycles: 148486499 heartbeat IPC: 0.6597 cumulative IPC: 0.6902 (Simulation time: 00 hr 23 min 59 sec)
Heartbeat CPU 0 instructions: 145000888 cycles: 149243498 heartbeat IPC: 0.6605 cumulative IPC: 0.6901 (Simulation time: 00 hr 24 min 06 sec)
Heartbeat CPU 0 instructions: 145500889 cycles: 149860467 heartbeat IPC: 0.8104 cumulative IPC: 0.6906 (Simulation time: 00 hr 24 min 11 sec)
Heartbeat CPU 0 instructions: 146000896 cycles: 150332778 heartbeat IPC: 1.059 cumulative IPC: 0.6919 (Simulation time: 00 hr 24 min 15 sec)
Heartbeat CPU 0 instructions: 146500899 cycles: 150746895 heartbeat IPC: 1.207 cumulative IPC: 0.6934 (Simulation time: 00 hr 24 min 19 sec)
Heartbeat CPU 0 instructions: 147000906 cycles: 151190627 heartbeat IPC: 1.127 cumulative IPC: 0.6948 (Simulation time: 00 hr 24 min 23 sec)
Heartbeat CPU 0 instructions: 147500909 cycles: 151654183 heartbeat IPC: 1.079 cumulative IPC: 0.696 (Simulation time: 00 hr 24 min 29 sec)
Heartbeat CPU 0 instructions: 148000915 cycles: 152100385 heartbeat IPC: 1.121 cumulative IPC: 0.6974 (Simulation time: 00 hr 24 min 33 sec)
Heartbeat CPU 0 instructions: 148500916 cycles: 152834664 heartbeat IPC: 0.6809 cumulative IPC: 0.6973 (Simulation time: 00 hr 24 min 39 sec)
Heartbeat CPU 0 instructions: 149000918 cycles: 153574987 heartbeat IPC: 0.6754 cumulative IPC: 0.6972 (Simulation time: 00 hr 24 min 45 sec)
Heartbeat CPU 0 instructions: 149500924 cycles: 154325715 heartbeat IPC: 0.666 cumulative IPC: 0.697 (Simulation time: 00 hr 24 min 52 sec)
Heartbeat CPU 0 instructions: 150000926 cycles: 155091676 heartbeat IPC: 0.6528 cumulative IPC: 0.6968 (Simulation time: 00 hr 24 min 59 sec)
Heartbeat CPU 0 instructions: 150500930 cycles: 155823408 heartbeat IPC: 0.6833 cumulative IPC: 0.6967 (Simulation time: 00 hr 25 min 05 sec)
Heartbeat CPU 0 instructions: 151000932 cycles: 156572037 heartbeat IPC: 0.6679 cumulative IPC: 0.6966 (Simulation time: 00 hr 25 min 12 sec)
Heartbeat CPU 0 instructions: 151500933 cycles: 157328622 heartbeat IPC: 0.6609 cumulative IPC: 0.6964 (Simulation time: 00 hr 25 min 19 sec)
Heartbeat CPU 0 instructions: 152000937 cycles: 158087116 heartbeat IPC: 0.6592 cumulative IPC: 0.6962 (Simulation time: 00 hr 25 min 25 sec)
Heartbeat CPU 0 instructions: 152500941 cycles: 158816336 heartbeat IPC: 0.6857 cumulative IPC: 0.6961 (Simulation time: 00 hr 25 min 31 sec)
Heartbeat CPU 0 instructions: 153000943 cycles: 159559321 heartbeat IPC: 0.673 cumulative IPC: 0.696 (Simulation time: 00 hr 25 min 38 sec)
Heartbeat CPU 0 instructions: 153500947 cycles: 160312374 heartbeat IPC: 0.664 cumulative IPC: 0.6959 (Simulation time: 00 hr 25 min 45 sec)
Heartbeat CPU 0 instructions: 154000952 cycles: 161042165 heartbeat IPC: 0.6851 cumulative IPC: 0.6958 (Simulation time: 00 hr 25 min 51 sec)
Heartbeat CPU 0 instructions: 154500955 cycles: 161796214 heartbeat IPC: 0.6631 cumulative IPC: 0.6956 (Simulation time: 00 hr 25 min 57 sec)
Heartbeat CPU 0 instructions: 155000960 cycles: 162536926 heartbeat IPC: 0.675 cumulative IPC: 0.6955 (Simulation time: 00 hr 26 min 04 sec)
Heartbeat CPU 0 instructions: 155500965 cycles: 163298236 heartbeat IPC: 0.6568 cumulative IPC: 0.6954 (Simulation time: 00 hr 26 min 11 sec)
Heartbeat CPU 0 instructions: 156000966 cycles: 164033724 heartbeat IPC: 0.6798 cumulative IPC: 0.6953 (Simulation time: 00 hr 26 min 17 sec)
Heartbeat CPU 0 instructions: 156500968 cycles: 164784395 heartbeat IPC: 0.6661 cumulative IPC: 0.6951 (Simulation time: 00 hr 26 min 23 sec)
Heartbeat CPU 0 instructions: 157000973 cycles: 165527480 heartbeat IPC: 0.6729 cumulative IPC: 0.695 (Simulation time: 00 hr 26 min 30 sec)
Heartbeat CPU 0 instructions: 157500976 cycles: 166284685 heartbeat IPC: 0.6603 cumulative IPC: 0.6949 (Simulation time: 00 hr 26 min 36 sec)
Heartbeat CPU 0 instructions: 158000977 cycles: 167018226 heartbeat IPC: 0.6816 cumulative IPC: 0.6948 (Simulation time: 00 hr 26 min 43 sec)
Heartbeat CPU 0 instructions: 158500982 cycles: 167768669 heartbeat IPC: 0.6663 cumulative IPC: 0.6947 (Simulation time: 00 hr 26 min 49 sec)
Heartbeat CPU 0 instructions: 159000983 cycles: 168515090 heartbeat IPC: 0.6699 cumulative IPC: 0.6945 (Simulation time: 00 hr 26 min 56 sec)
Heartbeat CPU 0 instructions: 159500990 cycles: 169275142 heartbeat IPC: 0.6579 cumulative IPC: 0.6944 (Simulation time: 00 hr 27 min 02 sec)
Heartbeat CPU 0 instructions: 160000994 cycles: 170032934 heartbeat IPC: 0.6598 cumulative IPC: 0.6942 (Simulation time: 00 hr 27 min 09 sec)
Heartbeat CPU 0 instructions: 160500998 cycles: 170787415 heartbeat IPC: 0.6627 cumulative IPC: 0.694 (Simulation time: 00 hr 27 min 15 sec)
Heartbeat CPU 0 instructions: 161001002 cycles: 171544172 heartbeat IPC: 0.6607 cumulative IPC: 0.6939 (Simulation time: 00 hr 27 min 21 sec)
Heartbeat CPU 0 instructions: 161501003 cycles: 172295897 heartbeat IPC: 0.6651 cumulative IPC: 0.6938 (Simulation time: 00 hr 27 min 27 sec)
Heartbeat CPU 0 instructions: 162001008 cycles: 173051225 heartbeat IPC: 0.662 cumulative IPC: 0.6936 (Simulation time: 00 hr 27 min 34 sec)
Heartbeat CPU 0 instructions: 162501012 cycles: 173808434 heartbeat IPC: 0.6603 cumulative IPC: 0.6935 (Simulation time: 00 hr 27 min 40 sec)
Heartbeat CPU 0 instructions: 163001016 cycles: 174568151 heartbeat IPC: 0.6581 cumulative IPC: 0.6933 (Simulation time: 00 hr 27 min 46 sec)
Heartbeat CPU 0 instructions: 163501020 cycles: 175325336 heartbeat IPC: 0.6603 cumulative IPC: 0.6931 (Simulation time: 00 hr 27 min 53 sec)
Heartbeat CPU 0 instructions: 164001020 cycles: 176079545 heartbeat IPC: 0.6629 cumulative IPC: 0.693 (Simulation time: 00 hr 27 min 59 sec)
Heartbeat CPU 0 instructions: 164501023 cycles: 176838487 heartbeat IPC: 0.6588 cumulative IPC: 0.6928 (Simulation time: 00 hr 28 min 05 sec)
Heartbeat CPU 0 instructions: 165001023 cycles: 177595925 heartbeat IPC: 0.6601 cumulative IPC: 0.6927 (Simulation time: 00 hr 28 min 12 sec)
Heartbeat CPU 0 instructions: 165501027 cycles: 178358504 heartbeat IPC: 0.6557 cumulative IPC: 0.6925 (Simulation time: 00 hr 28 min 18 sec)
Heartbeat CPU 0 instructions: 166001032 cycles: 179111815 heartbeat IPC: 0.6637 cumulative IPC: 0.6924 (Simulation time: 00 hr 28 min 24 sec)
Heartbeat CPU 0 instructions: 166501033 cycles: 179871107 heartbeat IPC: 0.6585 cumulative IPC: 0.6922 (Simulation time: 00 hr 28 min 30 sec)
Heartbeat CPU 0 instructions: 167001037 cycles: 180626064 heartbeat IPC: 0.6623 cumulative IPC: 0.6921 (Simulation time: 00 hr 28 min 37 sec)
Heartbeat CPU 0 instructions: 167501038 cycles: 181381587 heartbeat IPC: 0.6618 cumulative IPC: 0.692 (Simulation time: 00 hr 28 min 43 sec)
Heartbeat CPU 0 instructions: 168001038 cycles: 182138375 heartbeat IPC: 0.6607 cumulative IPC: 0.6918 (Simulation time: 00 hr 28 min 49 sec)
Heartbeat CPU 0 instructions: 168501040 cycles: 182897247 heartbeat IPC: 0.6589 cumulative IPC: 0.6917 (Simulation time: 00 hr 28 min 56 sec)
Heartbeat CPU 0 instructions: 169001044 cycles: 183654644 heartbeat IPC: 0.6602 cumulative IPC: 0.6915 (Simulation time: 00 hr 29 min 02 sec)
Heartbeat CPU 0 instructions: 169501048 cycles: 184416019 heartbeat IPC: 0.6567 cumulative IPC: 0.6914 (Simulation time: 00 hr 29 min 08 sec)
Heartbeat CPU 0 instructions: 170001052 cycles: 185173606 heartbeat IPC: 0.66 cumulative IPC: 0.6913 (Simulation time: 00 hr 29 min 14 sec)
Heartbeat CPU 0 instructions: 170501053 cycles: 185928371 heartbeat IPC: 0.6625 cumulative IPC: 0.6911 (Simulation time: 00 hr 29 min 20 sec)
Heartbeat CPU 0 instructions: 171001058 cycles: 186689767 heartbeat IPC: 0.6567 cumulative IPC: 0.691 (Simulation time: 00 hr 29 min 27 sec)
Heartbeat CPU 0 instructions: 171501062 cycles: 187449364 heartbeat IPC: 0.6582 cumulative IPC: 0.6908 (Simulation time: 00 hr 29 min 33 sec)
Heartbeat CPU 0 instructions: 172001063 cycles: 188213938 heartbeat IPC: 0.654 cumulative IPC: 0.6907 (Simulation time: 00 hr 29 min 40 sec)
Heartbeat CPU 0 instructions: 172501063 cycles: 188971915 heartbeat IPC: 0.6597 cumulative IPC: 0.6905 (Simulation time: 00 hr 29 min 48 sec)
Heartbeat CPU 0 instructions: 173001064 cycles: 189729752 heartbeat IPC: 0.6598 cumulative IPC: 0.6904 (Simulation time: 00 hr 29 min 55 sec)
Heartbeat CPU 0 instructions: 173501069 cycles: 190486766 heartbeat IPC: 0.6605 cumulative IPC: 0.6903 (Simulation time: 00 hr 30 min 03 sec)
Heartbeat CPU 0 instructions: 174001073 cycles: 191241425 heartbeat IPC: 0.6626 cumulative IPC: 0.6902 (Simulation time: 00 hr 30 min 10 sec)
Heartbeat CPU 0 instructions: 174501077 cycles: 191860214 heartbeat IPC: 0.808 cumulative IPC: 0.6906 (Simulation time: 00 hr 30 min 16 sec)
Heartbeat CPU 0 instructions: 175001079 cycles: 192343896 heartbeat IPC: 1.034 cumulative IPC: 0.6915 (Simulation time: 00 hr 30 min 21 sec)
Heartbeat CPU 0 instructions: 175501083 cycles: 192766303 heartbeat IPC: 1.184 cumulative IPC: 0.6926 (Simulation time: 00 hr 30 min 26 sec)
Heartbeat CPU 0 instructions: 176001087 cycles: 193212032 heartbeat IPC: 1.122 cumulative IPC: 0.6937 (Simulation time: 00 hr 30 min 31 sec)
Heartbeat CPU 0 instructions: 176501091 cycles: 193669954 heartbeat IPC: 1.092 cumulative IPC: 0.6947 (Simulation time: 00 hr 30 min 37 sec)
Heartbeat CPU 0 instructions: 177001094 cycles: 194108223 heartbeat IPC: 1.141 cumulative IPC: 0.6958 (Simulation time: 00 hr 30 min 42 sec)
Heartbeat CPU 0 instructions: 177501095 cycles: 194837706 heartbeat IPC: 0.6854 cumulative IPC: 0.6957 (Simulation time: 00 hr 30 min 49 sec)
Heartbeat CPU 0 instructions: 178001095 cycles: 195579023 heartbeat IPC: 0.6745 cumulative IPC: 0.6956 (Simulation time: 00 hr 30 min 56 sec)
Heartbeat CPU 0 instructions: 178501096 cycles: 196330565 heartbeat IPC: 0.6653 cumulative IPC: 0.6955 (Simulation time: 00 hr 31 min 04 sec)
Heartbeat CPU 0 instructions: 179001102 cycles: 197097502 heartbeat IPC: 0.652 cumulative IPC: 0.6953 (Simulation time: 00 hr 31 min 12 sec)
Heartbeat CPU 0 instructions: 179501109 cycles: 197834032 heartbeat IPC: 0.6789 cumulative IPC: 0.6953 (Simulation time: 00 hr 31 min 19 sec)
Heartbeat CPU 0 instructions: 180001111 cycles: 198580776 heartbeat IPC: 0.6696 cumulative IPC: 0.6952 (Simulation time: 00 hr 31 min 27 sec)
Heartbeat CPU 0 instructions: 180501113 cycles: 199334788 heartbeat IPC: 0.6631 cumulative IPC: 0.695 (Simulation time: 00 hr 31 min 35 sec)
Heartbeat CPU 0 instructions: 181001116 cycles: 200092885 heartbeat IPC: 0.6596 cumulative IPC: 0.6949 (Simulation time: 00 hr 31 min 43 sec)
Heartbeat CPU 0 instructions: 181501120 cycles: 200828134 heartbeat IPC: 0.68 cumulative IPC: 0.6948 (Simulation time: 00 hr 31 min 50 sec)
Heartbeat CPU 0 instructions: 182001122 cycles: 201567987 heartbeat IPC: 0.6758 cumulative IPC: 0.6948 (Simulation time: 00 hr 31 min 57 sec)
Heartbeat CPU 0 instructions: 182501123 cycles: 202321787 heartbeat IPC: 0.6633 cumulative IPC: 0.6946 (Simulation time: 00 hr 32 min 05 sec)
Heartbeat CPU 0 instructions: 183001123 cycles: 203050695 heartbeat IPC: 0.686 cumulative IPC: 0.6946 (Simulation time: 00 hr 32 min 13 sec)
Heartbeat CPU 0 instructions: 183501127 cycles: 203806482 heartbeat IPC: 0.6616 cumulative IPC: 0.6945 (Simulation time: 00 hr 32 min 20 sec)
Heartbeat CPU 0 instructions: 184001131 cycles: 204548233 heartbeat IPC: 0.6741 cumulative IPC: 0.6944 (Simulation time: 00 hr 32 min 28 sec)
Heartbeat CPU 0 instructions: 184501131 cycles: 205307604 heartbeat IPC: 0.6584 cumulative IPC: 0.6943 (Simulation time: 00 hr 32 min 36 sec)
Heartbeat CPU 0 instructions: 185001131 cycles: 206050096 heartbeat IPC: 0.6734 cumulative IPC: 0.6942 (Simulation time: 00 hr 32 min 43 sec)
Heartbeat CPU 0 instructions: 185501136 cycles: 206801475 heartbeat IPC: 0.6654 cumulative IPC: 0.6941 (Simulation time: 00 hr 32 min 50 sec)
Heartbeat CPU 0 instructions: 186001138 cycles: 207543196 heartbeat IPC: 0.6741 cumulative IPC: 0.694 (Simulation time: 00 hr 32 min 58 sec)
Heartbeat CPU 0 instructions: 186501144 cycles: 208304411 heartbeat IPC: 0.6569 cumulative IPC: 0.6939 (Simulation time: 00 hr 33 min 06 sec)
Heartbeat CPU 0 instructions: 187001144 cycles: 209039272 heartbeat IPC: 0.6804 cumulative IPC: 0.6938 (Simulation time: 00 hr 33 min 13 sec)
Heartbeat CPU 0 instructions: 187501150 cycles: 209787316 heartbeat IPC: 0.6684 cumulative IPC: 0.6937 (Simulation time: 00 hr 33 min 21 sec)
Heartbeat CPU 0 instructions: 188001152 cycles: 210535424 heartbeat IPC: 0.6684 cumulative IPC: 0.6936 (Simulation time: 00 hr 33 min 29 sec)
Heartbeat CPU 0 instructions: 188501153 cycles: 211291875 heartbeat IPC: 0.661 cumulative IPC: 0.6935 (Simulation time: 00 hr 33 min 36 sec)
Heartbeat CPU 0 instructions: 189001157 cycles: 212047714 heartbeat IPC: 0.6615 cumulative IPC: 0.6934 (Simulation time: 00 hr 33 min 44 sec)
Heartbeat CPU 0 instructions: 189501158 cycles: 212804007 heartbeat IPC: 0.6611 cumulative IPC: 0.6932 (Simulation time: 00 hr 33 min 51 sec)
Heartbeat CPU 0 instructions: 190001163 cycles: 213562425 heartbeat IPC: 0.6593 cumulative IPC: 0.6931 (Simulation time: 00 hr 33 min 59 sec)
Heartbeat CPU 0 instructions: 190501167 cycles: 214315754 heartbeat IPC: 0.6637 cumulative IPC: 0.693 (Simulation time: 00 hr 34 min 06 sec)
Heartbeat CPU 0 instructions: 191001171 cycles: 215074837 heartbeat IPC: 0.6587 cumulative IPC: 0.6929 (Simulation time: 00 hr 34 min 14 sec)
Heartbeat CPU 0 instructions: 191501175 cycles: 215829686 heartbeat IPC: 0.6624 cumulative IPC: 0.6928 (Simulation time: 00 hr 34 min 21 sec)
Heartbeat CPU 0 instructions: 192001178 cycles: 216582943 heartbeat IPC: 0.6638 cumulative IPC: 0.6927 (Simulation time: 00 hr 34 min 29 sec)
Heartbeat CPU 0 instructions: 192501181 cycles: 217338091 heartbeat IPC: 0.6621 cumulative IPC: 0.6925 (Simulation time: 00 hr 34 min 36 sec)
Heartbeat CPU 0 instructions: 193001185 cycles: 218099886 heartbeat IPC: 0.6563 cumulative IPC: 0.6924 (Simulation time: 00 hr 34 min 44 sec)
Heartbeat CPU 0 instructions: 193501189 cycles: 218856315 heartbeat IPC: 0.661 cumulative IPC: 0.6923 (Simulation time: 00 hr 34 min 51 sec)
Heartbeat CPU 0 instructions: 194001191 cycles: 219619653 heartbeat IPC: 0.655 cumulative IPC: 0.6922 (Simulation time: 00 hr 34 min 59 sec)
Heartbeat CPU 0 instructions: 194501195 cycles: 220373256 heartbeat IPC: 0.6635 cumulative IPC: 0.6921 (Simulation time: 00 hr 35 min 06 sec)
Heartbeat CPU 0 instructions: 195001199 cycles: 221129907 heartbeat IPC: 0.6608 cumulative IPC: 0.6919 (Simulation time: 00 hr 35 min 13 sec)
Heartbeat CPU 0 instructions: 195501203 cycles: 221890314 heartbeat IPC: 0.6575 cumulative IPC: 0.6918 (Simulation time: 00 hr 35 min 21 sec)
Heartbeat CPU 0 instructions: 196001204 cycles: 222648377 heartbeat IPC: 0.6596 cumulative IPC: 0.6917 (Simulation time: 00 hr 35 min 28 sec)
Heartbeat CPU 0 instructions: 196501204 cycles: 223405913 heartbeat IPC: 0.66 cumulative IPC: 0.6916 (Simulation time: 00 hr 35 min 36 sec)
Heartbeat CPU 0 instructions: 197001205 cycles: 224161742 heartbeat IPC: 0.6615 cumulative IPC: 0.6915 (Simulation time: 00 hr 35 min 43 sec)
Heartbeat CPU 0 instructions: 197501210 cycles: 224923020 heartbeat IPC: 0.6568 cumulative IPC: 0.6914 (Simulation time: 00 hr 35 min 51 sec)
Heartbeat CPU 0 instructions: 198001214 cycles: 225680641 heartbeat IPC: 0.66 cumulative IPC: 0.6913 (Simulation time: 00 hr 35 min 58 sec)
Heartbeat CPU 0 instructions: 198501220 cycles: 226437910 heartbeat IPC: 0.6603 cumulative IPC: 0.6911 (Simulation time: 00 hr 36 min 06 sec)
Heartbeat CPU 0 instructions: 199001220 cycles: 227196316 heartbeat IPC: 0.6593 cumulative IPC: 0.691 (Simulation time: 00 hr 36 min 13 sec)
Heartbeat CPU 0 instructions: 199501224 cycles: 227957555 heartbeat IPC: 0.6568 cumulative IPC: 0.6909 (Simulation time: 00 hr 36 min 21 sec)
Heartbeat CPU 0 instructions: 200001228 cycles: 228714608 heartbeat IPC: 0.6605 cumulative IPC: 0.6908 (Simulation time: 00 hr 36 min 28 sec)
Heartbeat CPU 0 instructions: 200501233 cycles: 229474090 heartbeat IPC: 0.6584 cumulative IPC: 0.6907 (Simulation time: 00 hr 36 min 36 sec)
Heartbeat CPU 0 instructions: 201001234 cycles: 230240025 heartbeat IPC: 0.6528 cumulative IPC: 0.6906 (Simulation time: 00 hr 36 min 43 sec)
Heartbeat CPU 0 instructions: 201501238 cycles: 230995752 heartbeat IPC: 0.6616 cumulative IPC: 0.6905 (Simulation time: 00 hr 36 min 51 sec)
Heartbeat CPU 0 instructions: 202001239 cycles: 231753581 heartbeat IPC: 0.6598 cumulative IPC: 0.6904 (Simulation time: 00 hr 36 min 58 sec)
Heartbeat CPU 0 instructions: 202501239 cycles: 232513465 heartbeat IPC: 0.658 cumulative IPC: 0.6902 (Simulation time: 00 hr 37 min 06 sec)
Heartbeat CPU 0 instructions: 203001241 cycles: 233266112 heartbeat IPC: 0.6643 cumulative IPC: 0.6902 (Simulation time: 00 hr 37 min 13 sec)
Heartbeat CPU 0 instructions: 203501245 cycles: 233894494 heartbeat IPC: 0.7957 cumulative IPC: 0.6905 (Simulation time: 00 hr 37 min 20 sec)
Heartbeat CPU 0 instructions: 204001249 cycles: 234389969 heartbeat IPC: 1.009 cumulative IPC: 0.6912 (Simulation time: 00 hr 37 min 25 sec)
Heartbeat CPU 0 instructions: 204501251 cycles: 234810425 heartbeat IPC: 1.189 cumulative IPC: 0.6921 (Simulation time: 00 hr 37 min 29 sec)
Heartbeat CPU 0 instructions: 205001254 cycles: 235257877 heartbeat IPC: 1.117 cumulative IPC: 0.693 (Simulation time: 00 hr 37 min 34 sec)
Heartbeat CPU 0 instructions: 205501254 cycles: 235708832 heartbeat IPC: 1.109 cumulative IPC: 0.6938 (Simulation time: 00 hr 37 min 40 sec)
Heartbeat CPU 0 instructions: 206001257 cycles: 236118834 heartbeat IPC: 1.22 cumulative IPC: 0.6947 (Simulation time: 00 hr 37 min 45 sec)
Heartbeat CPU 0 instructions: 206501258 cycles: 236842642 heartbeat IPC: 0.6908 cumulative IPC: 0.6947 (Simulation time: 00 hr 37 min 52 sec)
Heartbeat CPU 0 instructions: 207001259 cycles: 237588584 heartbeat IPC: 0.6703 cumulative IPC: 0.6947 (Simulation time: 00 hr 38 min 00 sec)
Heartbeat CPU 0 instructions: 207501261 cycles: 238336406 heartbeat IPC: 0.6686 cumulative IPC: 0.6946 (Simulation time: 00 hr 38 min 07 sec)
Heartbeat CPU 0 instructions: 208001267 cycles: 239099156 heartbeat IPC: 0.6555 cumulative IPC: 0.6944 (Simulation time: 00 hr 38 min 15 sec)
Heartbeat CPU 0 instructions: 208501271 cycles: 239838134 heartbeat IPC: 0.6766 cumulative IPC: 0.6944 (Simulation time: 00 hr 38 min 23 sec)
Heartbeat CPU 0 instructions: 209001273 cycles: 240584377 heartbeat IPC: 0.67 cumulative IPC: 0.6943 (Simulation time: 00 hr 38 min 30 sec)
Heartbeat CPU 0 instructions: 209501276 cycles: 241338467 heartbeat IPC: 0.6631 cumulative IPC: 0.6942 (Simulation time: 00 hr 38 min 38 sec)
Heartbeat CPU 0 instructions: 210001281 cycles: 242094276 heartbeat IPC: 0.6615 cumulative IPC: 0.6941 (Simulation time: 00 hr 38 min 46 sec)
Heartbeat CPU 0 instructions: 210501281 cycles: 242824096 heartbeat IPC: 0.6851 cumulative IPC: 0.6941 (Simulation time: 00 hr 38 min 53 sec)
Heartbeat CPU 0 instructions: 211001286 cycles: 243564245 heartbeat IPC: 0.6755 cumulative IPC: 0.694 (Simulation time: 00 hr 39 min 01 sec)
Heartbeat CPU 0 instructions: 211501286 cycles: 244318836 heartbeat IPC: 0.6626 cumulative IPC: 0.6939 (Simulation time: 00 hr 39 min 09 sec)
Heartbeat CPU 0 instructions: 212001286 cycles: 245067486 heartbeat IPC: 0.6679 cumulative IPC: 0.6938 (Simulation time: 00 hr 39 min 16 sec)
Heartbeat CPU 0 instructions: 212501291 cycles: 245804914 heartbeat IPC: 0.678 cumulative IPC: 0.6938 (Simulation time: 00 hr 39 min 24 sec)
Heartbeat CPU 0 instructions: 213001296 cycles: 246548397 heartbeat IPC: 0.6725 cumulative IPC: 0.6937 (Simulation time: 00 hr 39 min 31 sec)
Heartbeat CPU 0 instructions: 213501301 cycles: 247305074 heartbeat IPC: 0.6608 cumulative IPC: 0.6936 (Simulation time: 00 hr 39 min 39 sec)
Heartbeat CPU 0 instructions: 214001305 cycles: 248033748 heartbeat IPC: 0.6862 cumulative IPC: 0.6936 (Simulation time: 00 hr 39 min 47 sec)
Heartbeat CPU 0 instructions: 214501308 cycles: 248783276 heartbeat IPC: 0.6671 cumulative IPC: 0.6935 (Simulation time: 00 hr 39 min 54 sec)
Heartbeat CPU 0 instructions: 215001308 cycles: 249523487 heartbeat IPC: 0.6755 cumulative IPC: 0.6934 (Simulation time: 00 hr 40 min 02 sec)
Heartbeat CPU 0 instructions: 215501311 cycles: 250287285 heartbeat IPC: 0.6546 cumulative IPC: 0.6933 (Simulation time: 00 hr 40 min 10 sec)
Heartbeat CPU 0 instructions: 216001317 cycles: 251014149 heartbeat IPC: 0.6879 cumulative IPC: 0.6933 (Simulation time: 00 hr 40 min 17 sec)
Heartbeat CPU 0 instructions: 216501320 cycles: 251763514 heartbeat IPC: 0.6672 cumulative IPC: 0.6932 (Simulation time: 00 hr 40 min 24 sec)
Heartbeat CPU 0 instructions: 217001326 cycles: 252506026 heartbeat IPC: 0.6734 cumulative IPC: 0.6931 (Simulation time: 00 hr 40 min 32 sec)
Heartbeat CPU 0 instructions: 217501330 cycles: 253263772 heartbeat IPC: 0.6599 cumulative IPC: 0.693 (Simulation time: 00 hr 40 min 40 sec)
Heartbeat CPU 0 instructions: 218001332 cycles: 254019724 heartbeat IPC: 0.6614 cumulative IPC: 0.6929 (Simulation time: 00 hr 40 min 47 sec)
Heartbeat CPU 0 instructions: 218501333 cycles: 254777047 heartbeat IPC: 0.6602 cumulative IPC: 0.6928 (Simulation time: 00 hr 40 min 54 sec)
Heartbeat CPU 0 instructions: 219001333 cycles: 255534055 heartbeat IPC: 0.6605 cumulative IPC: 0.6927 (Simulation time: 00 hr 41 min 02 sec)
Heartbeat CPU 0 instructions: 219501337 cycles: 256291524 heartbeat IPC: 0.6601 cumulative IPC: 0.6926 (Simulation time: 00 hr 41 min 09 sec)
Heartbeat CPU 0 instructions: 220001338 cycles: 257050625 heartbeat IPC: 0.6587 cumulative IPC: 0.6925 (Simulation time: 00 hr 41 min 17 sec)
Heartbeat CPU 0 instructions: 220501343 cycles: 257807105 heartbeat IPC: 0.661 cumulative IPC: 0.6924 (Simulation time: 00 hr 41 min 24 sec)
Heartbeat CPU 0 instructions: 221001347 cycles: 258561804 heartbeat IPC: 0.6625 cumulative IPC: 0.6923 (Simulation time: 00 hr 41 min 31 sec)
Heartbeat CPU 0 instructions: 221501348 cycles: 259320557 heartbeat IPC: 0.659 cumulative IPC: 0.6922 (Simulation time: 00 hr 41 min 39 sec)
Heartbeat CPU 0 instructions: 222001351 cycles: 260080253 heartbeat IPC: 0.6582 cumulative IPC: 0.6921 (Simulation time: 00 hr 41 min 46 sec)
Heartbeat CPU 0 instructions: 222501357 cycles: 260836826 heartbeat IPC: 0.6609 cumulative IPC: 0.692 (Simulation time: 00 hr 41 min 54 sec)
Heartbeat CPU 0 instructions: 223001361 cycles: 261594501 heartbeat IPC: 0.6599 cumulative IPC: 0.692 (Simulation time: 00 hr 42 min 01 sec)
Heartbeat CPU 0 instructions: 223501365 cycles: 262350608 heartbeat IPC: 0.6613 cumulative IPC: 0.6919 (Simulation time: 00 hr 42 min 09 sec)
Heartbeat CPU 0 instructions: 224001369 cycles: 263107155 heartbeat IPC: 0.6609 cumulative IPC: 0.6918 (Simulation time: 00 hr 42 min 16 sec)
Heartbeat CPU 0 instructions: 224501370 cycles: 263860852 heartbeat IPC: 0.6634 cumulative IPC: 0.6917 (Simulation time: 00 hr 42 min 24 sec)
Heartbeat CPU 0 instructions: 225001375 cycles: 264618476 heartbeat IPC: 0.66 cumulative IPC: 0.6916 (Simulation time: 00 hr 42 min 31 sec)
Heartbeat CPU 0 instructions: 225501379 cycles: 265372755 heartbeat IPC: 0.6629 cumulative IPC: 0.6915 (Simulation time: 00 hr 42 min 39 sec)
Heartbeat CPU 0 instructions: 226001383 cycles: 266129934 heartbeat IPC: 0.6604 cumulative IPC: 0.6914 (Simulation time: 00 hr 42 min 46 sec)
Heartbeat CPU 0 instructions: 226501388 cycles: 266885895 heartbeat IPC: 0.6614 cumulative IPC: 0.6913 (Simulation time: 00 hr 42 min 54 sec)
Heartbeat CPU 0 instructions: 227001389 cycles: 267641505 heartbeat IPC: 0.6617 cumulative IPC: 0.6912 (Simulation time: 00 hr 43 min 01 sec)
Heartbeat CPU 0 instructions: 227501393 cycles: 268395468 heartbeat IPC: 0.6632 cumulative IPC: 0.6911 (Simulation time: 00 hr 43 min 08 sec)
Heartbeat CPU 0 instructions: 228001398 cycles: 269151494 heartbeat IPC: 0.6614 cumulative IPC: 0.6911 (Simulation time: 00 hr 43 min 16 sec)
Heartbeat CPU 0 instructions: 228501401 cycles: 269907745 heartbeat IPC: 0.6612 cumulative IPC: 0.691 (Simulation time: 00 hr 43 min 23 sec)
Heartbeat CPU 0 instructions: 229001403 cycles: 270662158 heartbeat IPC: 0.6628 cumulative IPC: 0.6909 (Simulation time: 00 hr 43 min 31 sec)
Heartbeat CPU 0 instructions: 229501404 cycles: 271414167 heartbeat IPC: 0.6649 cumulative IPC: 0.6908 (Simulation time: 00 hr 43 min 38 sec)
Heartbeat CPU 0 instructions: 230001404 cycles: 272170785 heartbeat IPC: 0.6608 cumulative IPC: 0.6907 (Simulation time: 00 hr 43 min 46 sec)
Heartbeat CPU 0 instructions: 230501408 cycles: 272930694 heartbeat IPC: 0.658 cumulative IPC: 0.6906 (Simulation time: 00 hr 43 min 53 sec)
Heartbeat CPU 0 instructions: 231001409 cycles: 273689041 heartbeat IPC: 0.6593 cumulative IPC: 0.6905 (Simulation time: 00 hr 44 min 01 sec)
Heartbeat CPU 0 instructions: 231501414 cycles: 274450577 heartbeat IPC: 0.6566 cumulative IPC: 0.6904 (Simulation time: 00 hr 44 min 08 sec)
Heartbeat CPU 0 instructions: 232001418 cycles: 275210174 heartbeat IPC: 0.6582 cumulative IPC: 0.6904 (Simulation time: 00 hr 44 min 16 sec)
Heartbeat CPU 0 instructions: 232501419 cycles: 275867117 heartbeat IPC: 0.7611 cumulative IPC: 0.6905 (Simulation time: 00 hr 44 min 22 sec)
Heartbeat CPU 0 instructions: 233001419 cycles: 276380355 heartbeat IPC: 0.9742 cumulative IPC: 0.6911 (Simulation time: 00 hr 44 min 28 sec)
Heartbeat CPU 0 instructions: 233501421 cycles: 276798913 heartbeat IPC: 1.195 cumulative IPC: 0.6919 (Simulation time: 00 hr 44 min 32 sec)
Heartbeat CPU 0 instructions: 234001425 cycles: 277245846 heartbeat IPC: 1.119 cumulative IPC: 0.6926 (Simulation time: 00 hr 44 min 37 sec)
Heartbeat CPU 0 instructions: 234501430 cycles: 277684025 heartbeat IPC: 1.141 cumulative IPC: 0.6933 (Simulation time: 00 hr 44 min 43 sec)
Heartbeat CPU 0 instructions: 235001436 cycles: 278079546 heartbeat IPC: 1.264 cumulative IPC: 0.6942 (Simulation time: 00 hr 44 min 47 sec)
Heartbeat CPU 0 instructions: 235501437 cycles: 278793894 heartbeat IPC: 0.6999 cumulative IPC: 0.6942 (Simulation time: 00 hr 44 min 55 sec)
Heartbeat CPU 0 instructions: 236001442 cycles: 279536954 heartbeat IPC: 0.6729 cumulative IPC: 0.6941 (Simulation time: 00 hr 45 min 02 sec)
Heartbeat CPU 0 instructions: 236501445 cycles: 280287464 heartbeat IPC: 0.6662 cumulative IPC: 0.6941 (Simulation time: 00 hr 45 min 10 sec)
Heartbeat CPU 0 instructions: 237001450 cycles: 281048146 heartbeat IPC: 0.6573 cumulative IPC: 0.694 (Simulation time: 00 hr 45 min 18 sec)
Heartbeat CPU 0 instructions: 237501453 cycles: 281788477 heartbeat IPC: 0.6754 cumulative IPC: 0.6939 (Simulation time: 00 hr 45 min 25 sec)
Heartbeat CPU 0 instructions: 238001458 cycles: 282536156 heartbeat IPC: 0.6687 cumulative IPC: 0.6938 (Simulation time: 00 hr 45 min 33 sec)
Heartbeat CPU 0 instructions: 238501459 cycles: 283287074 heartbeat IPC: 0.6659 cumulative IPC: 0.6938 (Simulation time: 00 hr 45 min 40 sec)
Heartbeat CPU 0 instructions: 239001463 cycles: 284049905 heartbeat IPC: 0.6555 cumulative IPC: 0.6936 (Simulation time: 00 hr 45 min 48 sec)
Heartbeat CPU 0 instructions: 239501467 cycles: 284789407 heartbeat IPC: 0.6761 cumulative IPC: 0.6936 (Simulation time: 00 hr 45 min 56 sec)
Heartbeat CPU 0 instructions: 240001471 cycles: 285532928 heartbeat IPC: 0.6725 cumulative IPC: 0.6935 (Simulation time: 00 hr 46 min 03 sec)
Heartbeat CPU 0 instructions: 240501477 cycles: 286286525 heartbeat IPC: 0.6635 cumulative IPC: 0.6935 (Simulation time: 00 hr 46 min 11 sec)
Heartbeat CPU 0 instructions: 241001483 cycles: 287042664 heartbeat IPC: 0.6613 cumulative IPC: 0.6934 (Simulation time: 00 hr 46 min 19 sec)
Heartbeat CPU 0 instructions: 241501489 cycles: 287786476 heartbeat IPC: 0.6722 cumulative IPC: 0.6933 (Simulation time: 00 hr 46 min 26 sec)
Heartbeat CPU 0 instructions: 242001494 cycles: 288527357 heartbeat IPC: 0.6749 cumulative IPC: 0.6933 (Simulation time: 00 hr 46 min 34 sec)
Heartbeat CPU 0 instructions: 242501497 cycles: 289283475 heartbeat IPC: 0.6613 cumulative IPC: 0.6932 (Simulation time: 00 hr 46 min 42 sec)
Heartbeat CPU 0 instructions: 243001501 cycles: 290023946 heartbeat IPC: 0.6753 cumulative IPC: 0.6931 (Simulation time: 00 hr 46 min 49 sec)
Heartbeat CPU 0 instructions: 243501502 cycles: 290769126 heartbeat IPC: 0.671 cumulative IPC: 0.6931 (Simulation time: 00 hr 46 min 57 sec)
Heartbeat CPU 0 instructions: 244001505 cycles: 291505904 heartbeat IPC: 0.6786 cumulative IPC: 0.693 (Simulation time: 00 hr 47 min 04 sec)
Heartbeat CPU 0 instructions: 244501511 cycles: 292270678 heartbeat IPC: 0.6538 cumulative IPC: 0.6929 (Simulation time: 00 hr 47 min 12 sec)
Heartbeat CPU 0 instructions: 245001516 cycles: 293010963 heartbeat IPC: 0.6754 cumulative IPC: 0.6929 (Simulation time: 00 hr 47 min 20 sec)
Heartbeat CPU 0 instructions: 245501520 cycles: 293765435 heartbeat IPC: 0.6627 cumulative IPC: 0.6928 (Simulation time: 00 hr 47 min 27 sec)
Heartbeat CPU 0 instructions: 246001526 cycles: 294509381 heartbeat IPC: 0.6721 cumulative IPC: 0.6927 (Simulation time: 00 hr 47 min 35 sec)
Heartbeat CPU 0 instructions: 246501530 cycles: 295269960 heartbeat IPC: 0.6574 cumulative IPC: 0.6927 (Simulation time: 00 hr 47 min 43 sec)
Heartbeat CPU 0 instructions: 247001534 cycles: 296026545 heartbeat IPC: 0.6609 cumulative IPC: 0.6926 (Simulation time: 00 hr 47 min 50 sec)
Heartbeat CPU 0 instructions: 247501538 cycles: 296783524 heartbeat IPC: 0.6605 cumulative IPC: 0.6925 (Simulation time: 00 hr 47 min 58 sec)
Heartbeat CPU 0 instructions: 248001543 cycles: 297542813 heartbeat IPC: 0.6585 cumulative IPC: 0.6924 (Simulation time: 00 hr 48 min 05 sec)
Heartbeat CPU 0 instructions: 248501544 cycles: 298299219 heartbeat IPC: 0.661 cumulative IPC: 0.6923 (Simulation time: 00 hr 48 min 12 sec)
Heartbeat CPU 0 instructions: 249001548 cycles: 299058678 heartbeat IPC: 0.6584 cumulative IPC: 0.6922 (Simulation time: 00 hr 48 min 20 sec)
Heartbeat CPU 0 instructions: 249501552 cycles: 299815587 heartbeat IPC: 0.6606 cumulative IPC: 0.6921 (Simulation time: 00 hr 48 min 27 sec)
Simulation finished CPU 0 instructions: 200000000 cycles: 288995791 cumulative IPC: 0.6921 (Simulation time: 00 hr 48 min 35 sec)
Simulation complete CPU 0 instructions: 200000000 cycles: 288995791 cumulative IPC: 0.6921 (Simulation time: 00 hr 48 min 35 sec)

ChampSim completed all CPUs

=== Simulation ===
CPU 0 runs /local-ssd/ben/dpc4-traces/ai-ml/llama2.c-stories15M.3.champsimtrace.gz

Region of Interest Statistics

CPU 0 cumulative IPC: 0.6921 instructions: 200000000 cycles: 288995791
CPU 0 Branch Prediction Accuracy: 98.73% MPKI: 1.825 Average ROB Occupancy at Mispredict: 478.3
Branch type MPKI
BRANCH_DIRECT_JUMP: 0
BRANCH_INDIRECT: 0
BRANCH_CONDITIONAL: 1.825
BRANCH_DIRECT_CALL: 1e-05
BRANCH_INDIRECT_CALL: 0.000145
BRANCH_RETURN: 8e-05

cpu0->cpu0_STLB TOTAL        ACCESS:     105166 HIT:       1441 MISS:     103725 MSHR_MERGE:          0
cpu0->cpu0_STLB LOAD         ACCESS:     105166 HIT:       1441 MISS:     103725 MSHR_MERGE:          0
cpu0->cpu0_STLB RFO          ACCESS:          0 HIT:          0 MISS:          0 MSHR_MERGE:          0
cpu0->cpu0_STLB PREFETCH     ACCESS:          0 HIT:          0 MISS:          0 MSHR_MERGE:          0
cpu0->cpu0_STLB WRITE        ACCESS:          0 HIT:          0 MISS:          0 MSHR_MERGE:          0
cpu0->cpu0_STLB TRANSLATION  ACCESS:          0 HIT:          0 MISS:          0 MSHR_MERGE:          0
cpu0->cpu0_STLB PREFETCH REQUESTED:          0 ISSUED:          0 USEFUL:          0 USELESS:          0
cpu0->cpu0_STLB AVERAGE MISS LATENCY: 54.39 cycles
cpu0->cpu0_L2C TOTAL        ACCESS:   36297575 HIT:    2102838 MISS:   34194737 MSHR_MERGE:   27548870
cpu0->cpu0_L2C LOAD         ACCESS:     802743 HIT:     136021 MISS:     666722 MSHR_MERGE:     343242
cpu0->cpu0_L2C RFO          ACCESS:      23369 HIT:       2176 MISS:      21193 MSHR_MERGE:          7
cpu0->cpu0_L2C PREFETCH     ACCESS:   35384362 HIT:    1892038 MISS:   33492324 MSHR_MERGE:   27205621
cpu0->cpu0_L2C WRITE        ACCESS:      73144 HIT:      72243 MISS:        901 MSHR_MERGE:          0
cpu0->cpu0_L2C TRANSLATION  ACCESS:      13957 HIT:        360 MISS:      13597 MSHR_MERGE:          0
cpu0->cpu0_L2C PREFETCH REQUESTED:   31355625 ISSUED:   29505323 USEFUL:     761568 USELESS:    4789967
cpu0->cpu0_L2C AVERAGE MISS LATENCY: 396.8 cycles
cpu0->cpu0_L1I TOTAL        ACCESS:   17924565 HIT:   17924565 MISS:          0 MSHR_MERGE:          0
cpu0->cpu0_L1I LOAD         ACCESS:   17924565 HIT:   17924565 MISS:          0 MSHR_MERGE:          0
cpu0->cpu0_L1I RFO          ACCESS:          0 HIT:          0 MISS:          0 MSHR_MERGE:          0
cpu0->cpu0_L1I PREFETCH     ACCESS:          0 HIT:          0 MISS:          0 MSHR_MERGE:          0
cpu0->cpu0_L1I WRITE        ACCESS:          0 HIT:          0 MISS:          0 MSHR_MERGE:          0
cpu0->cpu0_L1I TRANSLATION  ACCESS:          0 HIT:          0 MISS:          0 MSHR_MERGE:          0
cpu0->cpu0_L1I PREFETCH REQUESTED:          0 ISSUED:          0 USEFUL:          0 USELESS:          0
cpu0->cpu0_L1I AVERAGE MISS LATENCY: - cycles
cpu0->cpu0_L1D TOTAL        ACCESS:   42711922 HIT:   22978331 MISS:   19733591 MSHR_MERGE:   13014493
cpu0->cpu0_L1D LOAD         ACCESS:   35124951 HIT:   21786308 MISS:   13338643 MSHR_MERGE:   12535900
cpu0->cpu0_L1D RFO          ACCESS:          0 HIT:          0 MISS:          0 MSHR_MERGE:          0
cpu0->cpu0_L1D PREFETCH     ACCESS:    6468768 HIT:     115494 MISS:    6353274 MSHR_MERGE:     474246
cpu0->cpu0_L1D WRITE        ACCESS:     910582 HIT:     882868 MISS:      27714 MSHR_MERGE:       4344
cpu0->cpu0_L1D TRANSLATION  ACCESS:     207621 HIT:     193661 MISS:      13960 MSHR_MERGE:          3
cpu0->cpu0_L1D PREFETCH REQUESTED:    6669001 ISSUED:    6468762 USEFUL:    5869585 USELESS:       9436
cpu0->cpu0_L1D AVERAGE MISS LATENCY: 265.6 cycles
cpu0->cpu0_ITLB TOTAL        ACCESS:   16914434 HIT:   16914434 MISS:          0 MSHR_MERGE:          0
cpu0->cpu0_ITLB LOAD         ACCESS:   16914434 HIT:   16914434 MISS:          0 MSHR_MERGE:          0
cpu0->cpu0_ITLB RFO          ACCESS:          0 HIT:          0 MISS:          0 MSHR_MERGE:          0
cpu0->cpu0_ITLB PREFETCH     ACCESS:          0 HIT:          0 MISS:          0 MSHR_MERGE:          0
cpu0->cpu0_ITLB WRITE        ACCESS:          0 HIT:          0 MISS:          0 MSHR_MERGE:          0
cpu0->cpu0_ITLB TRANSLATION  ACCESS:          0 HIT:          0 MISS:          0 MSHR_MERGE:          0
cpu0->cpu0_ITLB PREFETCH REQUESTED:          0 ISSUED:          0 USEFUL:          0 USELESS:          0
cpu0->cpu0_ITLB AVERAGE MISS LATENCY: - cycles
cpu0->cpu0_DTLB TOTAL        ACCESS:   38972909 HIT:   38472469 MISS:     500440 MSHR_MERGE:     395274
cpu0->cpu0_DTLB LOAD         ACCESS:   38972909 HIT:   38472469 MISS:     500440 MSHR_MERGE:     395274
cpu0->cpu0_DTLB RFO          ACCESS:          0 HIT:          0 MISS:          0 MSHR_MERGE:          0
cpu0->cpu0_DTLB PREFETCH     ACCESS:          0 HIT:          0 MISS:          0 MSHR_MERGE:          0
cpu0->cpu0_DTLB WRITE        ACCESS:          0 HIT:          0 MISS:          0 MSHR_MERGE:          0
cpu0->cpu0_DTLB TRANSLATION  ACCESS:          0 HIT:          0 MISS:          0 MSHR_MERGE:          0
cpu0->cpu0_DTLB PREFETCH REQUESTED:          0 ISSUED:          0 USEFUL:          0 USELESS:          0
cpu0->cpu0_DTLB AVERAGE MISS LATENCY: 59.63 cycles
cpu0->LLC TOTAL        ACCESS:    6682113 HIT:     328611 MISS:    6353502 MSHR_MERGE:          0
cpu0->LLC LOAD         ACCESS:     323480 HIT:      25049 MISS:     298431 MSHR_MERGE:          0
cpu0->LLC RFO          ACCESS:      21186 HIT:      17026 MISS:       4160 MSHR_MERGE:          0
cpu0->LLC PREFETCH     ACCESS:    6286703 HIT:     251182 MISS:    6035521 MSHR_MERGE:          0
cpu0->LLC WRITE        ACCESS:      37147 HIT:      34671 MISS:       2476 MSHR_MERGE:          0
cpu0->LLC TRANSLATION  ACCESS:      13597 HIT:        683 MISS:      12914 MSHR_MERGE:          0
cpu0->LLC PREFETCH REQUESTED:          0 ISSUED:          0 USEFUL:          0 USELESS:          0
cpu0->LLC AVERAGE MISS LATENCY: 504.9 cycles

DRAM Statistics

Channel 0 RQ ROW_BUFFER_HIT:    2802337
  ROW_BUFFER_MISS:    3548417
  AVG DBUS CONGESTED CYCLE: 4.034
Channel 0 WQ ROW_BUFFER_HIT:        290
  ROW_BUFFER_MISS:       5519
  FULL:          0
Channel 0 REFRESHES ISSUED:      24083
