[VMEM] WARNING: physical memory size is smaller than virtual memory size.

*** ChampSim Multicore Out-of-Order Simulator ***
Warmup Instructions: 50000000
Simulation Instructions: 200000000
Number of CPUs: 1
Page size: 4096
Core 0: /local-ssd/ben/dpc4-traces/ai-ml/clip_trace_1.champsimtrace.gz
 L1D Berti prefetcher
Off-chip DRAM Size: 64 GiB Channels: 1 Width: 64-bit Data Rate: 800 MT/s
Heartbeat CPU 0 instructions: 500005 cycles: 129747 heartbeat IPC: 3.854 cumulative IPC: 3.854 (Simulation time: 00 hr 00 min 03 sec)
Heartbeat CPU 0 instructions: 1000005 cycles: 253495 heartbeat IPC: 4.04 cumulative IPC: 3.945 (Simulation time: 00 hr 00 min 05 sec)
Heartbeat CPU 0 instructions: 1500008 cycles: 378445 heartbeat IPC: 4.002 cumulative IPC: 3.964 (Simulation time: 00 hr 00 min 07 sec)
Heartbeat CPU 0 instructions: 2000012 cycles: 503437 heartbeat IPC: 4 cumulative IPC: 3.973 (Simulation time: 00 hr 00 min 09 sec)
Heartbeat CPU 0 instructions: 2500013 cycles: 628595 heartbeat IPC: 3.995 cumulative IPC: 3.977 (Simulation time: 00 hr 00 min 11 sec)
Heartbeat CPU 0 instructions: 3000013 cycles: 754051 heartbeat IPC: 3.985 cumulative IPC: 3.979 (Simulation time: 00 hr 00 min 13 sec)
Heartbeat CPU 0 instructions: 3500016 cycles: 879313 heartbeat IPC: 3.992 cumulative IPC: 3.98 (Simulation time: 00 hr 00 min 16 sec)
Heartbeat CPU 0 instructions: 4000021 cycles: 1003267 heartbeat IPC: 4.034 cumulative IPC: 3.987 (Simulation time: 00 hr 00 min 18 sec)
Heartbeat CPU 0 instructions: 4500021 cycles: 1128215 heartbeat IPC: 4.002 cumulative IPC: 3.989 (Simulation time: 00 hr 00 min 20 sec)
Heartbeat CPU 0 instructions: 5000022 cycles: 1253366 heartbeat IPC: 3.995 cumulative IPC: 3.989 (Simulation time: 00 hr 00 min 22 sec)
Heartbeat CPU 0 instructions: 5500026 cycles: 1378442 heartbeat IPC: 3.998 cumulative IPC: 3.99 (Simulation time: 00 hr 00 min 24 sec)
Heartbeat CPU 0 instructions: 6000030 cycles: 1503697 heartbeat IPC: 3.992 cumulative IPC: 3.99 (Simulation time: 00 hr 00 min 26 sec)
Heartbeat CPU 0 instructions: 6500031 cycles: 1629089 heartbeat IPC: 3.988 cumulative IPC: 3.99 (Simulation time: 00 hr 00 min 29 sec)
Heartbeat CPU 0 instructions: 7000038 cycles: 1753882 heartbeat IPC: 4.007 cumulative IPC: 3.991 (Simulation time: 00 hr 00 min 31 sec)
Heartbeat CPU 0 instructions: 7500038 cycles: 1878821 heartbeat IPC: 4.002 cumulative IPC: 3.992 (Simulation time: 00 hr 00 min 33 sec)
Heartbeat CPU 0 instructions: 8000043 cycles: 2003799 heartbeat IPC: 4.001 cumulative IPC: 3.992 (Simulation time: 00 hr 00 min 35 sec)
Heartbeat CPU 0 instructions: 8500043 cycles: 2128979 heartbeat IPC: 3.994 cumulative IPC: 3.993 (Simulation time: 00 hr 00 min 38 sec)
Heartbeat CPU 0 instructions: 9000047 cycles: 2253751 heartbeat IPC: 4.007 cumulative IPC: 3.993 (Simulation time: 00 hr 00 min 40 sec)
Heartbeat CPU 0 instructions: 9500052 cycles: 2378957 heartbeat IPC: 3.993 cumulative IPC: 3.993 (Simulation time: 00 hr 00 min 42 sec)
Heartbeat CPU 0 instructions: 10000055 cycles: 2503973 heartbeat IPC: 4 cumulative IPC: 3.994 (Simulation time: 00 hr 00 min 44 sec)
Heartbeat CPU 0 instructions: 10500059 cycles: 2628101 heartbeat IPC: 4.028 cumulative IPC: 3.995 (Simulation time: 00 hr 00 min 47 sec)
Heartbeat CPU 0 instructions: 11000060 cycles: 2753371 heartbeat IPC: 3.991 cumulative IPC: 3.995 (Simulation time: 00 hr 00 min 49 sec)
Heartbeat CPU 0 instructions: 11500060 cycles: 2878264 heartbeat IPC: 4.003 cumulative IPC: 3.995 (Simulation time: 00 hr 00 min 51 sec)
Heartbeat CPU 0 instructions: 12000066 cycles: 3003622 heartbeat IPC: 3.989 cumulative IPC: 3.995 (Simulation time: 00 hr 00 min 53 sec)
Heartbeat CPU 0 instructions: 12500069 cycles: 3129134 heartbeat IPC: 3.984 cumulative IPC: 3.995 (Simulation time: 00 hr 00 min 56 sec)
Heartbeat CPU 0 instructions: 13000069 cycles: 3254098 heartbeat IPC: 4.001 cumulative IPC: 3.995 (Simulation time: 00 hr 00 min 58 sec)
Heartbeat CPU 0 instructions: 13500072 cycles: 3378113 heartbeat IPC: 4.032 cumulative IPC: 3.996 (Simulation time: 00 hr 01 min 00 sec)
Heartbeat CPU 0 instructions: 14000078 cycles: 3503306 heartbeat IPC: 3.994 cumulative IPC: 3.996 (Simulation time: 00 hr 01 min 03 sec)
Heartbeat CPU 0 instructions: 14500078 cycles: 3628539 heartbeat IPC: 3.993 cumulative IPC: 3.996 (Simulation time: 00 hr 01 min 05 sec)
Heartbeat CPU 0 instructions: 15000082 cycles: 3753472 heartbeat IPC: 4.002 cumulative IPC: 3.996 (Simulation time: 00 hr 01 min 07 sec)
Heartbeat CPU 0 instructions: 15500086 cycles: 3878596 heartbeat IPC: 3.996 cumulative IPC: 3.996 (Simulation time: 00 hr 01 min 09 sec)
Heartbeat CPU 0 instructions: 16000087 cycles: 4003730 heartbeat IPC: 3.996 cumulative IPC: 3.996 (Simulation time: 00 hr 01 min 12 sec)
Heartbeat CPU 0 instructions: 16500087 cycles: 4127558 heartbeat IPC: 4.038 cumulative IPC: 3.998 (Simulation time: 00 hr 01 min 14 sec)
Heartbeat CPU 0 instructions: 17000090 cycles: 4252780 heartbeat IPC: 3.993 cumulative IPC: 3.997 (Simulation time: 00 hr 01 min 16 sec)
Heartbeat CPU 0 instructions: 17500097 cycles: 4378051 heartbeat IPC: 3.991 cumulative IPC: 3.997 (Simulation time: 00 hr 01 min 19 sec)
Heartbeat CPU 0 instructions: 18000098 cycles: 4503095 heartbeat IPC: 3.999 cumulative IPC: 3.997 (Simulation time: 00 hr 01 min 21 sec)
Heartbeat CPU 0 instructions: 18500099 cycles: 4628173 heartbeat IPC: 3.998 cumulative IPC: 3.997 (Simulation time: 00 hr 01 min 23 sec)
Heartbeat CPU 0 instructions: 19000104 cycles: 4753470 heartbeat IPC: 3.991 cumulative IPC: 3.997 (Simulation time: 00 hr 01 min 25 sec)
Heartbeat CPU 0 instructions: 19500107 cycles: 4877250 heartbeat IPC: 4.039 cumulative IPC: 3.998 (Simulation time: 00 hr 01 min 28 sec)
Heartbeat CPU 0 instructions: 20000111 cycles: 5002329 heartbeat IPC: 3.998 cumulative IPC: 3.998 (Simulation time: 00 hr 01 min 30 sec)
Heartbeat CPU 0 instructions: 20500111 cycles: 5127503 heartbeat IPC: 3.994 cumulative IPC: 3.998 (Simulation time: 00 hr 01 min 32 sec)
Heartbeat CPU 0 instructions: 21000112 cycles: 5252496 heartbeat IPC: 4 cumulative IPC: 3.998 (Simulation time: 00 hr 01 min 35 sec)
Heartbeat CPU 0 instructions: 21500116 cycles: 5377788 heartbeat IPC: 3.991 cumulative IPC: 3.998 (Simulation time: 00 hr 01 min 37 sec)
Heartbeat CPU 0 instructions: 22000116 cycles: 5503290 heartbeat IPC: 3.984 cumulative IPC: 3.998 (Simulation time: 00 hr 01 min 39 sec)
Heartbeat CPU 0 instructions: 22500123 cycles: 5628299 heartbeat IPC: 4 cumulative IPC: 3.998 (Simulation time: 00 hr 01 min 42 sec)
Heartbeat CPU 0 instructions: 23000123 cycles: 5753289 heartbeat IPC: 4 cumulative IPC: 3.998 (Simulation time: 00 hr 01 min 44 sec)
Heartbeat CPU 0 instructions: 23500124 cycles: 5878812 heartbeat IPC: 3.983 cumulative IPC: 3.997 (Simulation time: 00 hr 01 min 46 sec)
Heartbeat CPU 0 instructions: 24000131 cycles: 6003395 heartbeat IPC: 4.013 cumulative IPC: 3.998 (Simulation time: 00 hr 01 min 48 sec)
Heartbeat CPU 0 instructions: 24500132 cycles: 6128611 heartbeat IPC: 3.993 cumulative IPC: 3.998 (Simulation time: 00 hr 01 min 51 sec)
Heartbeat CPU 0 instructions: 25000136 cycles: 6253627 heartbeat IPC: 4 cumulative IPC: 3.998 (Simulation time: 00 hr 01 min 53 sec)
Heartbeat CPU 0 instructions: 25500137 cycles: 6378386 heartbeat IPC: 4.008 cumulative IPC: 3.998 (Simulation time: 00 hr 01 min 55 sec)
Heartbeat CPU 0 instructions: 26000144 cycles: 6502693 heartbeat IPC: 4.022 cumulative IPC: 3.998 (Simulation time: 00 hr 01 min 58 sec)
Heartbeat CPU 0 instructions: 26500148 cycles: 6627932 heartbeat IPC: 3.992 cumulative IPC: 3.998 (Simulation time: 00 hr 02 min 00 sec)
Heartbeat CPU 0 instructions: 27000148 cycles: 6753202 heartbeat IPC: 3.991 cumulative IPC: 3.998 (Simulation time: 00 hr 02 min 02 sec)
Heartbeat CPU 0 instructions: 27500153 cycles: 6878547 heartbeat IPC: 3.989 cumulative IPC: 3.998 (Simulation time: 00 hr 02 min 04 sec)
Heartbeat CPU 0 instructions: 28000154 cycles: 7003628 heartbeat IPC: 3.997 cumulative IPC: 3.998 (Simulation time: 00 hr 02 min 07 sec)
Heartbeat CPU 0 instructions: 28500157 cycles: 7129028 heartbeat IPC: 3.987 cumulative IPC: 3.998 (Simulation time: 00 hr 02 min 09 sec)
Heartbeat CPU 0 instructions: 29000162 cycles: 7252902 heartbeat IPC: 4.036 cumulative IPC: 3.998 (Simulation time: 00 hr 02 min 11 sec)
Heartbeat CPU 0 instructions: 29500162 cycles: 7377950 heartbeat IPC: 3.998 cumulative IPC: 3.998 (Simulation time: 00 hr 02 min 14 sec)
Heartbeat CPU 0 instructions: 30000166 cycles: 7502887 heartbeat IPC: 4.002 cumulative IPC: 3.998 (Simulation time: 00 hr 02 min 16 sec)
Heartbeat CPU 0 instructions: 30500171 cycles: 7628002 heartbeat IPC: 3.996 cumulative IPC: 3.998 (Simulation time: 00 hr 02 min 18 sec)
Heartbeat CPU 0 instructions: 31000178 cycles: 7753272 heartbeat IPC: 3.991 cumulative IPC: 3.998 (Simulation time: 00 hr 02 min 20 sec)
Heartbeat CPU 0 instructions: 31500182 cycles: 7878540 heartbeat IPC: 3.991 cumulative IPC: 3.998 (Simulation time: 00 hr 02 min 23 sec)
Heartbeat CPU 0 instructions: 32000186 cycles: 8002614 heartbeat IPC: 4.03 cumulative IPC: 3.999 (Simulation time: 00 hr 02 min 25 sec)
Heartbeat CPU 0 instructions: 32500193 cycles: 8128180 heartbeat IPC: 3.982 cumulative IPC: 3.998 (Simulation time: 00 hr 02 min 27 sec)
Heartbeat CPU 0 instructions: 33000199 cycles: 8253539 heartbeat IPC: 3.989 cumulative IPC: 3.998 (Simulation time: 00 hr 02 min 30 sec)
Heartbeat CPU 0 instructions: 33500203 cycles: 8379033 heartbeat IPC: 3.984 cumulative IPC: 3.998 (Simulation time: 00 hr 02 min 32 sec)
Heartbeat CPU 0 instructions: 34000207 cycles: 8503955 heartbeat IPC: 4.003 cumulative IPC: 3.998 (Simulation time: 00 hr 02 min 34 sec)
Heartbeat CPU 0 instructions: 34500207 cycles: 8629246 heartbeat IPC: 3.991 cumulative IPC: 3.998 (Simulation time: 00 hr 02 min 36 sec)
Heartbeat CPU 0 instructions: 35000211 cycles: 8753159 heartbeat IPC: 4.035 cumulative IPC: 3.999 (Simulation time: 00 hr 02 min 39 sec)
Heartbeat CPU 0 instructions: 35500212 cycles: 8878331 heartbeat IPC: 3.995 cumulative IPC: 3.999 (Simulation time: 00 hr 02 min 41 sec)
Heartbeat CPU 0 instructions: 36000214 cycles: 9003813 heartbeat IPC: 3.985 cumulative IPC: 3.998 (Simulation time: 00 hr 02 min 43 sec)
Heartbeat CPU 0 instructions: 36500215 cycles: 9129070 heartbeat IPC: 3.992 cumulative IPC: 3.998 (Simulation time: 00 hr 02 min 46 sec)
Heartbeat CPU 0 instructions: 37000220 cycles: 9253844 heartbeat IPC: 4.007 cumulative IPC: 3.998 (Simulation time: 00 hr 02 min 48 sec)
Heartbeat CPU 0 instructions: 37500222 cycles: 9379151 heartbeat IPC: 3.99 cumulative IPC: 3.998 (Simulation time: 00 hr 02 min 50 sec)
Heartbeat CPU 0 instructions: 38000224 cycles: 9503210 heartbeat IPC: 4.03 cumulative IPC: 3.999 (Simulation time: 00 hr 02 min 52 sec)
Heartbeat CPU 0 instructions: 38500224 cycles: 9627977 heartbeat IPC: 4.007 cumulative IPC: 3.999 (Simulation time: 00 hr 02 min 55 sec)
Heartbeat CPU 0 instructions: 39000230 cycles: 9753189 heartbeat IPC: 3.993 cumulative IPC: 3.999 (Simulation time: 00 hr 02 min 57 sec)
Heartbeat CPU 0 instructions: 39500237 cycles: 9878172 heartbeat IPC: 4.001 cumulative IPC: 3.999 (Simulation time: 00 hr 02 min 59 sec)
Heartbeat CPU 0 instructions: 40000238 cycles: 10003578 heartbeat IPC: 3.987 cumulative IPC: 3.999 (Simulation time: 00 hr 03 min 01 sec)
Heartbeat CPU 0 instructions: 40500239 cycles: 10129042 heartbeat IPC: 3.985 cumulative IPC: 3.998 (Simulation time: 00 hr 03 min 04 sec)
Heartbeat CPU 0 instructions: 41000245 cycles: 10253531 heartbeat IPC: 4.016 cumulative IPC: 3.999 (Simulation time: 00 hr 03 min 06 sec)
Heartbeat CPU 0 instructions: 41500251 cycles: 10377809 heartbeat IPC: 4.023 cumulative IPC: 3.999 (Simulation time: 00 hr 03 min 08 sec)
Heartbeat CPU 0 instructions: 42000254 cycles: 10502791 heartbeat IPC: 4.001 cumulative IPC: 3.999 (Simulation time: 00 hr 03 min 11 sec)
Heartbeat CPU 0 instructions: 42500258 cycles: 10627856 heartbeat IPC: 3.998 cumulative IPC: 3.999 (Simulation time: 00 hr 03 min 13 sec)
Heartbeat CPU 0 instructions: 43000259 cycles: 10752871 heartbeat IPC: 4 cumulative IPC: 3.999 (Simulation time: 00 hr 03 min 15 sec)
Heartbeat CPU 0 instructions: 43500263 cycles: 10878149 heartbeat IPC: 3.991 cumulative IPC: 3.999 (Simulation time: 00 hr 03 min 17 sec)
Heartbeat CPU 0 instructions: 44000267 cycles: 11002748 heartbeat IPC: 4.013 cumulative IPC: 3.999 (Simulation time: 00 hr 03 min 20 sec)
Heartbeat CPU 0 instructions: 44500269 cycles: 11126545 heartbeat IPC: 4.039 cumulative IPC: 3.999 (Simulation time: 00 hr 03 min 22 sec)
Heartbeat CPU 0 instructions: 45000271 cycles: 11251365 heartbeat IPC: 4.006 cumulative IPC: 4 (Simulation time: 00 hr 03 min 24 sec)
Heartbeat CPU 0 instructions: 45500271 cycles: 11376352 heartbeat IPC: 4 cumulative IPC: 4 (Simulation time: 00 hr 03 min 27 sec)
Heartbeat CPU 0 instructions: 46000272 cycles: 11501499 heartbeat IPC: 3.995 cumulative IPC: 4 (Simulation time: 00 hr 03 min 29 sec)
Heartbeat CPU 0 instructions: 46500276 cycles: 11626275 heartbeat IPC: 4.007 cumulative IPC: 4 (Simulation time: 00 hr 03 min 31 sec)
Heartbeat CPU 0 instructions: 47000276 cycles: 11751583 heartbeat IPC: 3.99 cumulative IPC: 3.999 (Simulation time: 00 hr 03 min 33 sec)
Heartbeat CPU 0 instructions: 47500279 cycles: 11875360 heartbeat IPC: 4.04 cumulative IPC: 4 (Simulation time: 00 hr 03 min 36 sec)
Heartbeat CPU 0 instructions: 48000284 cycles: 12000301 heartbeat IPC: 4.002 cumulative IPC: 4 (Simulation time: 00 hr 03 min 38 sec)
Heartbeat CPU 0 instructions: 48500284 cycles: 12125734 heartbeat IPC: 3.986 cumulative IPC: 4 (Simulation time: 00 hr 03 min 40 sec)
Heartbeat CPU 0 instructions: 49000289 cycles: 12251039 heartbeat IPC: 3.99 cumulative IPC: 4 (Simulation time: 00 hr 03 min 43 sec)
Heartbeat CPU 0 instructions: 49500289 cycles: 12376038 heartbeat IPC: 4 cumulative IPC: 4 (Simulation time: 00 hr 03 min 45 sec)
Warmup finished CPU 0 instructions: 50000002 cycles: 12500878 cumulative IPC: 4 (Simulation time: 00 hr 03 min 47 sec)
Warmup complete CPU 0 instructions: 50000002 cycles: 12500878 cumulative IPC: 4 (Simulation time: 00 hr 03 min 47 sec)
Heartbeat CPU 0 instructions: 50000293 cycles: 12500977 heartbeat IPC: 4.002 cumulative IPC: 2.939 (Simulation time: 00 hr 03 min 47 sec)
Heartbeat CPU 0 instructions: 50500293 cycles: 12680143 heartbeat IPC: 2.791 cumulative IPC: 2.791 (Simulation time: 00 hr 03 min 50 sec)
Heartbeat CPU 0 instructions: 51000297 cycles: 12883574 heartbeat IPC: 2.458 cumulative IPC: 2.614 (Simulation time: 00 hr 03 min 52 sec)
Heartbeat CPU 0 instructions: 51500298 cycles: 13087177 heartbeat IPC: 2.456 cumulative IPC: 2.559 (Simulation time: 00 hr 03 min 55 sec)
Heartbeat CPU 0 instructions: 52000302 cycles: 13292579 heartbeat IPC: 2.434 cumulative IPC: 2.527 (Simulation time: 00 hr 03 min 57 sec)
Heartbeat CPU 0 instructions: 52500302 cycles: 13494094 heartbeat IPC: 2.481 cumulative IPC: 2.517 (Simulation time: 00 hr 04 min 00 sec)
Heartbeat CPU 0 instructions: 53000305 cycles: 13699148 heartbeat IPC: 2.438 cumulative IPC: 2.504 (Simulation time: 00 hr 04 min 03 sec)
Heartbeat CPU 0 instructions: 53500311 cycles: 13877258 heartbeat IPC: 2.807 cumulative IPC: 2.543 (Simulation time: 00 hr 04 min 05 sec)
Heartbeat CPU 0 instructions: 54000318 cycles: 14080175 heartbeat IPC: 2.464 cumulative IPC: 2.533 (Simulation time: 00 hr 04 min 07 sec)
Heartbeat CPU 0 instructions: 54500325 cycles: 14285838 heartbeat IPC: 2.431 cumulative IPC: 2.521 (Simulation time: 00 hr 04 min 10 sec)
Heartbeat CPU 0 instructions: 55000326 cycles: 14488690 heartbeat IPC: 2.465 cumulative IPC: 2.515 (Simulation time: 00 hr 04 min 13 sec)
Heartbeat CPU 0 instructions: 55500327 cycles: 14692231 heartbeat IPC: 2.457 cumulative IPC: 2.51 (Simulation time: 00 hr 04 min 15 sec)
Heartbeat CPU 0 instructions: 56000332 cycles: 14896466 heartbeat IPC: 2.448 cumulative IPC: 2.505 (Simulation time: 00 hr 04 min 18 sec)
Heartbeat CPU 0 instructions: 56500332 cycles: 15087363 heartbeat IPC: 2.619 cumulative IPC: 2.513 (Simulation time: 00 hr 04 min 20 sec)
Heartbeat CPU 0 instructions: 57000339 cycles: 15273624 heartbeat IPC: 2.684 cumulative IPC: 2.525 (Simulation time: 00 hr 04 min 23 sec)
Heartbeat CPU 0 instructions: 57500340 cycles: 15471319 heartbeat IPC: 2.529 cumulative IPC: 2.525 (Simulation time: 00 hr 04 min 25 sec)
Heartbeat CPU 0 instructions: 58000343 cycles: 15668433 heartbeat IPC: 2.537 cumulative IPC: 2.526 (Simulation time: 00 hr 04 min 28 sec)
Heartbeat CPU 0 instructions: 58500346 cycles: 15861497 heartbeat IPC: 2.59 cumulative IPC: 2.529 (Simulation time: 00 hr 04 min 30 sec)
Heartbeat CPU 0 instructions: 59000349 cycles: 16056250 heartbeat IPC: 2.567 cumulative IPC: 2.531 (Simulation time: 00 hr 04 min 33 sec)
Heartbeat CPU 0 instructions: 59500351 cycles: 16248697 heartbeat IPC: 2.598 cumulative IPC: 2.535 (Simulation time: 00 hr 04 min 35 sec)
Heartbeat CPU 0 instructions: 60000352 cycles: 16420298 heartbeat IPC: 2.914 cumulative IPC: 2.551 (Simulation time: 00 hr 04 min 38 sec)
Heartbeat CPU 0 instructions: 60500357 cycles: 16614254 heartbeat IPC: 2.578 cumulative IPC: 2.553 (Simulation time: 00 hr 04 min 40 sec)
Heartbeat CPU 0 instructions: 61000361 cycles: 16808649 heartbeat IPC: 2.572 cumulative IPC: 2.554 (Simulation time: 00 hr 04 min 43 sec)
Heartbeat CPU 0 instructions: 61500361 cycles: 17001068 heartbeat IPC: 2.598 cumulative IPC: 2.556 (Simulation time: 00 hr 04 min 45 sec)
Heartbeat CPU 0 instructions: 62000363 cycles: 17195099 heartbeat IPC: 2.577 cumulative IPC: 2.556 (Simulation time: 00 hr 04 min 48 sec)
Heartbeat CPU 0 instructions: 62500366 cycles: 17387122 heartbeat IPC: 2.604 cumulative IPC: 2.558 (Simulation time: 00 hr 04 min 50 sec)
Heartbeat CPU 0 instructions: 63000373 cycles: 17557150 heartbeat IPC: 2.941 cumulative IPC: 2.571 (Simulation time: 00 hr 04 min 52 sec)
Heartbeat CPU 0 instructions: 63500374 cycles: 17749789 heartbeat IPC: 2.596 cumulative IPC: 2.572 (Simulation time: 00 hr 04 min 55 sec)
Heartbeat CPU 0 instructions: 64000378 cycles: 17941197 heartbeat IPC: 2.612 cumulative IPC: 2.573 (Simulation time: 00 hr 04 min 57 sec)
Heartbeat CPU 0 instructions: 64500381 cycles: 18135394 heartbeat IPC: 2.575 cumulative IPC: 2.573 (Simulation time: 00 hr 05 min 00 sec)
Heartbeat CPU 0 instructions: 65000384 cycles: 18328642 heartbeat IPC: 2.587 cumulative IPC: 2.574 (Simulation time: 00 hr 05 min 03 sec)
Heartbeat CPU 0 instructions: 65500387 cycles: 18522007 heartbeat IPC: 2.586 cumulative IPC: 2.574 (Simulation time: 00 hr 05 min 05 sec)
Heartbeat CPU 0 instructions: 66000394 cycles: 18693954 heartbeat IPC: 2.908 cumulative IPC: 2.584 (Simulation time: 00 hr 05 min 07 sec)
Heartbeat CPU 0 instructions: 66500396 cycles: 18887417 heartbeat IPC: 2.584 cumulative IPC: 2.584 (Simulation time: 00 hr 05 min 10 sec)
Heartbeat CPU 0 instructions: 67000403 cycles: 19083908 heartbeat IPC: 2.545 cumulative IPC: 2.582 (Simulation time: 00 hr 05 min 12 sec)
Heartbeat CPU 0 instructions: 67500403 cycles: 19279128 heartbeat IPC: 2.561 cumulative IPC: 2.582 (Simulation time: 00 hr 05 min 15 sec)
Heartbeat CPU 0 instructions: 68000404 cycles: 19474455 heartbeat IPC: 2.56 cumulative IPC: 2.581 (Simulation time: 00 hr 05 min 17 sec)
Heartbeat CPU 0 instructions: 68500408 cycles: 19670976 heartbeat IPC: 2.544 cumulative IPC: 2.58 (Simulation time: 00 hr 05 min 20 sec)
Heartbeat CPU 0 instructions: 69000408 cycles: 19845445 heartbeat IPC: 2.866 cumulative IPC: 2.587 (Simulation time: 00 hr 05 min 22 sec)
Heartbeat CPU 0 instructions: 69500414 cycles: 20040755 heartbeat IPC: 2.56 cumulative IPC: 2.586 (Simulation time: 00 hr 05 min 25 sec)
Heartbeat CPU 0 instructions: 70000420 cycles: 20239129 heartbeat IPC: 2.521 cumulative IPC: 2.585 (Simulation time: 00 hr 05 min 27 sec)
Heartbeat CPU 0 instructions: 70500422 cycles: 20437013 heartbeat IPC: 2.527 cumulative IPC: 2.583 (Simulation time: 00 hr 05 min 30 sec)
Heartbeat CPU 0 instructions: 71000425 cycles: 20633460 heartbeat IPC: 2.545 cumulative IPC: 2.582 (Simulation time: 00 hr 05 min 32 sec)
Heartbeat CPU 0 instructions: 71500429 cycles: 20832008 heartbeat IPC: 2.518 cumulative IPC: 2.581 (Simulation time: 00 hr 05 min 35 sec)
Heartbeat CPU 0 instructions: 72000432 cycles: 21013311 heartbeat IPC: 2.758 cumulative IPC: 2.585 (Simulation time: 00 hr 05 min 37 sec)
Heartbeat CPU 0 instructions: 72500437 cycles: 21202614 heartbeat IPC: 2.641 cumulative IPC: 2.586 (Simulation time: 00 hr 05 min 40 sec)
Heartbeat CPU 0 instructions: 73000441 cycles: 21402607 heartbeat IPC: 2.5 cumulative IPC: 2.584 (Simulation time: 00 hr 05 min 42 sec)
Heartbeat CPU 0 instructions: 73500442 cycles: 21602458 heartbeat IPC: 2.502 cumulative IPC: 2.582 (Simulation time: 00 hr 05 min 45 sec)
Heartbeat CPU 0 instructions: 74000446 cycles: 21801224 heartbeat IPC: 2.516 cumulative IPC: 2.581 (Simulation time: 00 hr 05 min 48 sec)
Heartbeat CPU 0 instructions: 74500450 cycles: 22001787 heartbeat IPC: 2.493 cumulative IPC: 2.579 (Simulation time: 00 hr 05 min 50 sec)
Heartbeat CPU 0 instructions: 75000451 cycles: 22200350 heartbeat IPC: 2.518 cumulative IPC: 2.578 (Simulation time: 00 hr 05 min 53 sec)
Heartbeat CPU 0 instructions: 75500456 cycles: 22379412 heartbeat IPC: 2.792 cumulative IPC: 2.581 (Simulation time: 00 hr 05 min 55 sec)
Heartbeat CPU 0 instructions: 76000462 cycles: 22580737 heartbeat IPC: 2.484 cumulative IPC: 2.579 (Simulation time: 00 hr 05 min 58 sec)
Heartbeat CPU 0 instructions: 76500467 cycles: 22781739 heartbeat IPC: 2.488 cumulative IPC: 2.578 (Simulation time: 00 hr 06 min 00 sec)
Heartbeat CPU 0 instructions: 77000467 cycles: 22982138 heartbeat IPC: 2.495 cumulative IPC: 2.576 (Simulation time: 00 hr 06 min 03 sec)
Heartbeat CPU 0 instructions: 77500471 cycles: 23183754 heartbeat IPC: 2.48 cumulative IPC: 2.574 (Simulation time: 00 hr 06 min 05 sec)
Heartbeat CPU 0 instructions: 78000472 cycles: 23384026 heartbeat IPC: 2.497 cumulative IPC: 2.573 (Simulation time: 00 hr 06 min 08 sec)
Heartbeat CPU 0 instructions: 78500472 cycles: 23561426 heartbeat IPC: 2.818 cumulative IPC: 2.577 (Simulation time: 00 hr 06 min 10 sec)
Heartbeat CPU 0 instructions: 79000478 cycles: 23789428 heartbeat IPC: 2.193 cumulative IPC: 2.569 (Simulation time: 00 hr 06 min 13 sec)
Heartbeat CPU 0 instructions: 79500483 cycles: 23990652 heartbeat IPC: 2.485 cumulative IPC: 2.568 (Simulation time: 00 hr 06 min 16 sec)
Heartbeat CPU 0 instructions: 80000487 cycles: 24190573 heartbeat IPC: 2.501 cumulative IPC: 2.566 (Simulation time: 00 hr 06 min 18 sec)
Heartbeat CPU 0 instructions: 80500491 cycles: 24391142 heartbeat IPC: 2.493 cumulative IPC: 2.565 (Simulation time: 00 hr 06 min 21 sec)
Heartbeat CPU 0 instructions: 81000494 cycles: 24590703 heartbeat IPC: 2.506 cumulative IPC: 2.564 (Simulation time: 00 hr 06 min 23 sec)
Heartbeat CPU 0 instructions: 81500495 cycles: 24765832 heartbeat IPC: 2.855 cumulative IPC: 2.568 (Simulation time: 00 hr 06 min 26 sec)
Heartbeat CPU 0 instructions: 82000495 cycles: 24966312 heartbeat IPC: 2.494 cumulative IPC: 2.567 (Simulation time: 00 hr 06 min 28 sec)
Heartbeat CPU 0 instructions: 82500500 cycles: 25165413 heartbeat IPC: 2.511 cumulative IPC: 2.566 (Simulation time: 00 hr 06 min 31 sec)
Heartbeat CPU 0 instructions: 83000500 cycles: 25366050 heartbeat IPC: 2.492 cumulative IPC: 2.565 (Simulation time: 00 hr 06 min 33 sec)
Heartbeat CPU 0 instructions: 83500502 cycles: 25562296 heartbeat IPC: 2.548 cumulative IPC: 2.565 (Simulation time: 00 hr 06 min 36 sec)
Heartbeat CPU 0 instructions: 84000503 cycles: 25756758 heartbeat IPC: 2.571 cumulative IPC: 2.565 (Simulation time: 00 hr 06 min 38 sec)
Heartbeat CPU 0 instructions: 84500508 cycles: 25927242 heartbeat IPC: 2.933 cumulative IPC: 2.57 (Simulation time: 00 hr 06 min 41 sec)
Heartbeat CPU 0 instructions: 85000512 cycles: 26118213 heartbeat IPC: 2.618 cumulative IPC: 2.57 (Simulation time: 00 hr 06 min 43 sec)
Heartbeat CPU 0 instructions: 85500517 cycles: 26310519 heartbeat IPC: 2.6 cumulative IPC: 2.571 (Simulation time: 00 hr 06 min 46 sec)
Heartbeat CPU 0 instructions: 86000519 cycles: 26511642 heartbeat IPC: 2.486 cumulative IPC: 2.569 (Simulation time: 00 hr 06 min 48 sec)
Heartbeat CPU 0 instructions: 86500525 cycles: 26712587 heartbeat IPC: 2.488 cumulative IPC: 2.568 (Simulation time: 00 hr 06 min 51 sec)
Heartbeat CPU 0 instructions: 87000526 cycles: 26909730 heartbeat IPC: 2.536 cumulative IPC: 2.568 (Simulation time: 00 hr 06 min 53 sec)
Heartbeat CPU 0 instructions: 87500530 cycles: 27091719 heartbeat IPC: 2.747 cumulative IPC: 2.57 (Simulation time: 00 hr 06 min 56 sec)
Heartbeat CPU 0 instructions: 88000537 cycles: 27278246 heartbeat IPC: 2.681 cumulative IPC: 2.572 (Simulation time: 00 hr 06 min 58 sec)
Heartbeat CPU 0 instructions: 88500542 cycles: 27474736 heartbeat IPC: 2.545 cumulative IPC: 2.571 (Simulation time: 00 hr 07 min 01 sec)
Heartbeat CPU 0 instructions: 89000548 cycles: 27663562 heartbeat IPC: 2.648 cumulative IPC: 2.572 (Simulation time: 00 hr 07 min 03 sec)
Heartbeat CPU 0 instructions: 89500552 cycles: 27848723 heartbeat IPC: 2.7 cumulative IPC: 2.574 (Simulation time: 00 hr 07 min 06 sec)
Heartbeat CPU 0 instructions: 90000555 cycles: 28032978 heartbeat IPC: 2.714 cumulative IPC: 2.575 (Simulation time: 00 hr 07 min 08 sec)
Heartbeat CPU 0 instructions: 90500559 cycles: 28218443 heartbeat IPC: 2.696 cumulative IPC: 2.577 (Simulation time: 00 hr 07 min 10 sec)
Heartbeat CPU 0 instructions: 91000564 cycles: 28385492 heartbeat IPC: 2.993 cumulative IPC: 2.581 (Simulation time: 00 hr 07 min 13 sec)
Heartbeat CPU 0 instructions: 91500567 cycles: 28573865 heartbeat IPC: 2.654 cumulative IPC: 2.582 (Simulation time: 00 hr 07 min 15 sec)
Heartbeat CPU 0 instructions: 92000569 cycles: 28755682 heartbeat IPC: 2.75 cumulative IPC: 2.584 (Simulation time: 00 hr 07 min 18 sec)
Heartbeat CPU 0 instructions: 92500575 cycles: 28956271 heartbeat IPC: 2.493 cumulative IPC: 2.583 (Simulation time: 00 hr 07 min 20 sec)
Heartbeat CPU 0 instructions: 93000576 cycles: 29156850 heartbeat IPC: 2.493 cumulative IPC: 2.582 (Simulation time: 00 hr 07 min 23 sec)
Heartbeat CPU 0 instructions: 93500580 cycles: 29348167 heartbeat IPC: 2.613 cumulative IPC: 2.582 (Simulation time: 00 hr 07 min 25 sec)
Heartbeat CPU 0 instructions: 94000585 cycles: 29524824 heartbeat IPC: 2.83 cumulative IPC: 2.585 (Simulation time: 00 hr 07 min 28 sec)
Heartbeat CPU 0 instructions: 94500588 cycles: 29719732 heartbeat IPC: 2.565 cumulative IPC: 2.584 (Simulation time: 00 hr 07 min 30 sec)
Heartbeat CPU 0 instructions: 95000592 cycles: 29920610 heartbeat IPC: 2.489 cumulative IPC: 2.583 (Simulation time: 00 hr 07 min 33 sec)
Heartbeat CPU 0 instructions: 95500592 cycles: 30112847 heartbeat IPC: 2.601 cumulative IPC: 2.584 (Simulation time: 00 hr 07 min 35 sec)
Heartbeat CPU 0 instructions: 96000597 cycles: 30306144 heartbeat IPC: 2.587 cumulative IPC: 2.584 (Simulation time: 00 hr 07 min 38 sec)
Heartbeat CPU 0 instructions: 96500601 cycles: 30505562 heartbeat IPC: 2.507 cumulative IPC: 2.583 (Simulation time: 00 hr 07 min 40 sec)
Heartbeat CPU 0 instructions: 97000608 cycles: 30662845 heartbeat IPC: 3.179 cumulative IPC: 2.588 (Simulation time: 00 hr 07 min 42 sec)
Heartbeat CPU 0 instructions: 97500613 cycles: 30864609 heartbeat IPC: 2.478 cumulative IPC: 2.587 (Simulation time: 00 hr 07 min 45 sec)
Heartbeat CPU 0 instructions: 98000613 cycles: 31065690 heartbeat IPC: 2.487 cumulative IPC: 2.586 (Simulation time: 00 hr 07 min 48 sec)
Heartbeat CPU 0 instructions: 98500617 cycles: 31248306 heartbeat IPC: 2.738 cumulative IPC: 2.587 (Simulation time: 00 hr 07 min 50 sec)
Heartbeat CPU 0 instructions: 99000618 cycles: 31447106 heartbeat IPC: 2.515 cumulative IPC: 2.586 (Simulation time: 00 hr 07 min 52 sec)
Heartbeat CPU 0 instructions: 99500622 cycles: 31641168 heartbeat IPC: 2.577 cumulative IPC: 2.586 (Simulation time: 00 hr 07 min 55 sec)
Heartbeat CPU 0 instructions: 100000628 cycles: 31815398 heartbeat IPC: 2.87 cumulative IPC: 2.589 (Simulation time: 00 hr 07 min 57 sec)
Heartbeat CPU 0 instructions: 100500630 cycles: 32006912 heartbeat IPC: 2.611 cumulative IPC: 2.589 (Simulation time: 00 hr 08 min 00 sec)
Heartbeat CPU 0 instructions: 101000634 cycles: 32199468 heartbeat IPC: 2.597 cumulative IPC: 2.589 (Simulation time: 00 hr 08 min 02 sec)
Heartbeat CPU 0 instructions: 101500634 cycles: 32393298 heartbeat IPC: 2.58 cumulative IPC: 2.589 (Simulation time: 00 hr 08 min 05 sec)
Heartbeat CPU 0 instructions: 102000639 cycles: 32565197 heartbeat IPC: 2.909 cumulative IPC: 2.592 (Simulation time: 00 hr 08 min 07 sec)
Heartbeat CPU 0 instructions: 102500643 cycles: 32735897 heartbeat IPC: 2.929 cumulative IPC: 2.595 (Simulation time: 00 hr 08 min 09 sec)
Heartbeat CPU 0 instructions: 103000646 cycles: 32897488 heartbeat IPC: 3.094 cumulative IPC: 2.599 (Simulation time: 00 hr 08 min 12 sec)
Heartbeat CPU 0 instructions: 103500651 cycles: 33058961 heartbeat IPC: 3.097 cumulative IPC: 2.602 (Simulation time: 00 hr 08 min 14 sec)
Heartbeat CPU 0 instructions: 104000655 cycles: 33225700 heartbeat IPC: 2.999 cumulative IPC: 2.606 (Simulation time: 00 hr 08 min 16 sec)
Heartbeat CPU 0 instructions: 104500659 cycles: 33383178 heartbeat IPC: 3.175 cumulative IPC: 2.61 (Simulation time: 00 hr 08 min 18 sec)
Heartbeat CPU 0 instructions: 105000660 cycles: 33537645 heartbeat IPC: 3.237 cumulative IPC: 2.615 (Simulation time: 00 hr 08 min 21 sec)
Heartbeat CPU 0 instructions: 105500664 cycles: 33699474 heartbeat IPC: 3.09 cumulative IPC: 2.618 (Simulation time: 00 hr 08 min 23 sec)
Heartbeat CPU 0 instructions: 106000668 cycles: 33883043 heartbeat IPC: 2.724 cumulative IPC: 2.619 (Simulation time: 00 hr 08 min 25 sec)
Heartbeat CPU 0 instructions: 106500672 cycles: 34049618 heartbeat IPC: 3.002 cumulative IPC: 2.622 (Simulation time: 00 hr 08 min 27 sec)
Heartbeat CPU 0 instructions: 107000677 cycles: 34207544 heartbeat IPC: 3.166 cumulative IPC: 2.626 (Simulation time: 00 hr 08 min 30 sec)
Heartbeat CPU 0 instructions: 107500683 cycles: 34358697 heartbeat IPC: 3.308 cumulative IPC: 2.631 (Simulation time: 00 hr 08 min 32 sec)
Heartbeat CPU 0 instructions: 108000687 cycles: 34507897 heartbeat IPC: 3.351 cumulative IPC: 2.636 (Simulation time: 00 hr 08 min 34 sec)
Heartbeat CPU 0 instructions: 108500689 cycles: 34694555 heartbeat IPC: 2.679 cumulative IPC: 2.636 (Simulation time: 00 hr 08 min 36 sec)
Heartbeat CPU 0 instructions: 109000694 cycles: 34895005 heartbeat IPC: 2.494 cumulative IPC: 2.635 (Simulation time: 00 hr 08 min 39 sec)
Heartbeat CPU 0 instructions: 109500694 cycles: 35071414 heartbeat IPC: 2.834 cumulative IPC: 2.636 (Simulation time: 00 hr 08 min 41 sec)
Heartbeat CPU 0 instructions: 110000697 cycles: 35225581 heartbeat IPC: 3.243 cumulative IPC: 2.64 (Simulation time: 00 hr 08 min 43 sec)
Heartbeat CPU 0 instructions: 110500698 cycles: 35381354 heartbeat IPC: 3.21 cumulative IPC: 2.644 (Simulation time: 00 hr 08 min 46 sec)
Heartbeat CPU 0 instructions: 111000700 cycles: 35536496 heartbeat IPC: 3.223 cumulative IPC: 2.648 (Simulation time: 00 hr 08 min 48 sec)
Heartbeat CPU 0 instructions: 111500704 cycles: 35689524 heartbeat IPC: 3.267 cumulative IPC: 2.652 (Simulation time: 00 hr 08 min 50 sec)
Heartbeat CPU 0 instructions: 112000707 cycles: 35844746 heartbeat IPC: 3.221 cumulative IPC: 2.656 (Simulation time: 00 hr 08 min 52 sec)
Heartbeat CPU 0 instructions: 112500714 cycles: 35990083 heartbeat IPC: 3.44 cumulative IPC: 2.661 (Simulation time: 00 hr 08 min 54 sec)
Heartbeat CPU 0 instructions: 113000719 cycles: 36143957 heartbeat IPC: 3.249 cumulative IPC: 2.665 (Simulation time: 00 hr 08 min 56 sec)
Heartbeat CPU 0 instructions: 113500721 cycles: 36342455 heartbeat IPC: 2.519 cumulative IPC: 2.663 (Simulation time: 00 hr 08 min 59 sec)
Heartbeat CPU 0 instructions: 114000723 cycles: 36540556 heartbeat IPC: 2.524 cumulative IPC: 2.662 (Simulation time: 00 hr 09 min 01 sec)
Heartbeat CPU 0 instructions: 114500727 cycles: 36736546 heartbeat IPC: 2.551 cumulative IPC: 2.661 (Simulation time: 00 hr 09 min 04 sec)
Heartbeat CPU 0 instructions: 115000728 cycles: 36930206 heartbeat IPC: 2.582 cumulative IPC: 2.661 (Simulation time: 00 hr 09 min 06 sec)
Heartbeat CPU 0 instructions: 115500735 cycles: 37102170 heartbeat IPC: 2.908 cumulative IPC: 2.662 (Simulation time: 00 hr 09 min 09 sec)
Heartbeat CPU 0 instructions: 116000739 cycles: 37294579 heartbeat IPC: 2.599 cumulative IPC: 2.662 (Simulation time: 00 hr 09 min 11 sec)
Heartbeat CPU 0 instructions: 116500744 cycles: 37488011 heartbeat IPC: 2.585 cumulative IPC: 2.661 (Simulation time: 00 hr 09 min 14 sec)
Heartbeat CPU 0 instructions: 117000744 cycles: 37682301 heartbeat IPC: 2.573 cumulative IPC: 2.661 (Simulation time: 00 hr 09 min 16 sec)
Heartbeat CPU 0 instructions: 117500744 cycles: 37875860 heartbeat IPC: 2.583 cumulative IPC: 2.66 (Simulation time: 00 hr 09 min 19 sec)
Heartbeat CPU 0 instructions: 118000750 cycles: 38068859 heartbeat IPC: 2.591 cumulative IPC: 2.66 (Simulation time: 00 hr 09 min 21 sec)
Heartbeat CPU 0 instructions: 118500753 cycles: 38242299 heartbeat IPC: 2.883 cumulative IPC: 2.661 (Simulation time: 00 hr 09 min 24 sec)
Heartbeat CPU 0 instructions: 119000760 cycles: 38432171 heartbeat IPC: 2.633 cumulative IPC: 2.661 (Simulation time: 00 hr 09 min 26 sec)
Heartbeat CPU 0 instructions: 119500763 cycles: 38624497 heartbeat IPC: 2.6 cumulative IPC: 2.66 (Simulation time: 00 hr 09 min 29 sec)
Heartbeat CPU 0 instructions: 120000765 cycles: 38817235 heartbeat IPC: 2.594 cumulative IPC: 2.66 (Simulation time: 00 hr 09 min 31 sec)
Heartbeat CPU 0 instructions: 120500769 cycles: 39009621 heartbeat IPC: 2.599 cumulative IPC: 2.66 (Simulation time: 00 hr 09 min 34 sec)
Heartbeat CPU 0 instructions: 121000770 cycles: 39203439 heartbeat IPC: 2.58 cumulative IPC: 2.659 (Simulation time: 00 hr 09 min 36 sec)
Heartbeat CPU 0 instructions: 121500772 cycles: 39388562 heartbeat IPC: 2.701 cumulative IPC: 2.659 (Simulation time: 00 hr 09 min 38 sec)
Heartbeat CPU 0 instructions: 122000774 cycles: 39567324 heartbeat IPC: 2.797 cumulative IPC: 2.66 (Simulation time: 00 hr 09 min 41 sec)
Heartbeat CPU 0 instructions: 122500775 cycles: 39763839 heartbeat IPC: 2.544 cumulative IPC: 2.659 (Simulation time: 00 hr 09 min 43 sec)
Heartbeat CPU 0 instructions: 123000778 cycles: 39958342 heartbeat IPC: 2.571 cumulative IPC: 2.659 (Simulation time: 00 hr 09 min 46 sec)
Heartbeat CPU 0 instructions: 123500782 cycles: 40153614 heartbeat IPC: 2.561 cumulative IPC: 2.658 (Simulation time: 00 hr 09 min 48 sec)
Heartbeat CPU 0 instructions: 124000783 cycles: 40349273 heartbeat IPC: 2.555 cumulative IPC: 2.657 (Simulation time: 00 hr 09 min 51 sec)
Heartbeat CPU 0 instructions: 124500787 cycles: 40545933 heartbeat IPC: 2.542 cumulative IPC: 2.656 (Simulation time: 00 hr 09 min 53 sec)
Heartbeat CPU 0 instructions: 125000787 cycles: 40720916 heartbeat IPC: 2.857 cumulative IPC: 2.658 (Simulation time: 00 hr 09 min 56 sec)
Heartbeat CPU 0 instructions: 125500787 cycles: 40918423 heartbeat IPC: 2.532 cumulative IPC: 2.657 (Simulation time: 00 hr 09 min 58 sec)
Heartbeat CPU 0 instructions: 126000787 cycles: 41114422 heartbeat IPC: 2.551 cumulative IPC: 2.656 (Simulation time: 00 hr 10 min 01 sec)
Heartbeat CPU 0 instructions: 126500787 cycles: 41311292 heartbeat IPC: 2.54 cumulative IPC: 2.655 (Simulation time: 00 hr 10 min 03 sec)
Heartbeat CPU 0 instructions: 127000788 cycles: 41508527 heartbeat IPC: 2.535 cumulative IPC: 2.654 (Simulation time: 00 hr 10 min 06 sec)
Heartbeat CPU 0 instructions: 127500791 cycles: 41706776 heartbeat IPC: 2.522 cumulative IPC: 2.654 (Simulation time: 00 hr 10 min 08 sec)
Heartbeat CPU 0 instructions: 128000798 cycles: 41882391 heartbeat IPC: 2.847 cumulative IPC: 2.655 (Simulation time: 00 hr 10 min 11 sec)
Heartbeat CPU 0 instructions: 128500800 cycles: 42078990 heartbeat IPC: 2.543 cumulative IPC: 2.654 (Simulation time: 00 hr 10 min 13 sec)
Heartbeat CPU 0 instructions: 129000802 cycles: 42277574 heartbeat IPC: 2.518 cumulative IPC: 2.653 (Simulation time: 00 hr 10 min 16 sec)
Heartbeat CPU 0 instructions: 129500808 cycles: 42477350 heartbeat IPC: 2.503 cumulative IPC: 2.652 (Simulation time: 00 hr 10 min 18 sec)
Heartbeat CPU 0 instructions: 130000809 cycles: 42675820 heartbeat IPC: 2.519 cumulative IPC: 2.651 (Simulation time: 00 hr 10 min 21 sec)
Heartbeat CPU 0 instructions: 130500813 cycles: 42874753 heartbeat IPC: 2.513 cumulative IPC: 2.65 (Simulation time: 00 hr 10 min 24 sec)
Heartbeat CPU 0 instructions: 131000820 cycles: 43051759 heartbeat IPC: 2.825 cumulative IPC: 2.651 (Simulation time: 00 hr 10 min 26 sec)
Heartbeat CPU 0 instructions: 131500821 cycles: 43252852 heartbeat IPC: 2.486 cumulative IPC: 2.65 (Simulation time: 00 hr 10 min 28 sec)
Heartbeat CPU 0 instructions: 132000825 cycles: 43455003 heartbeat IPC: 2.473 cumulative IPC: 2.649 (Simulation time: 00 hr 10 min 31 sec)
Heartbeat CPU 0 instructions: 132500829 cycles: 43656900 heartbeat IPC: 2.477 cumulative IPC: 2.648 (Simulation time: 00 hr 10 min 34 sec)
Heartbeat CPU 0 instructions: 133000830 cycles: 43860621 heartbeat IPC: 2.454 cumulative IPC: 2.647 (Simulation time: 00 hr 10 min 36 sec)
Heartbeat CPU 0 instructions: 133500834 cycles: 44060578 heartbeat IPC: 2.501 cumulative IPC: 2.646 (Simulation time: 00 hr 10 min 39 sec)
Heartbeat CPU 0 instructions: 134000836 cycles: 44239054 heartbeat IPC: 2.802 cumulative IPC: 2.647 (Simulation time: 00 hr 10 min 41 sec)
Heartbeat CPU 0 instructions: 134500838 cycles: 44439472 heartbeat IPC: 2.495 cumulative IPC: 2.646 (Simulation time: 00 hr 10 min 44 sec)
Heartbeat CPU 0 instructions: 135000840 cycles: 44640577 heartbeat IPC: 2.486 cumulative IPC: 2.645 (Simulation time: 00 hr 10 min 46 sec)
Heartbeat CPU 0 instructions: 135500842 cycles: 44865245 heartbeat IPC: 2.226 cumulative IPC: 2.642 (Simulation time: 00 hr 10 min 49 sec)
Heartbeat CPU 0 instructions: 136000842 cycles: 45065843 heartbeat IPC: 2.493 cumulative IPC: 2.641 (Simulation time: 00 hr 10 min 52 sec)
Heartbeat CPU 0 instructions: 136500846 cycles: 45267534 heartbeat IPC: 2.479 cumulative IPC: 2.64 (Simulation time: 00 hr 10 min 54 sec)
Heartbeat CPU 0 instructions: 137000847 cycles: 45459588 heartbeat IPC: 2.603 cumulative IPC: 2.64 (Simulation time: 00 hr 10 min 57 sec)
Heartbeat CPU 0 instructions: 137500854 cycles: 45646971 heartbeat IPC: 2.668 cumulative IPC: 2.64 (Simulation time: 00 hr 10 min 59 sec)
Heartbeat CPU 0 instructions: 138000859 cycles: 45848449 heartbeat IPC: 2.482 cumulative IPC: 2.639 (Simulation time: 00 hr 11 min 02 sec)
Heartbeat CPU 0 instructions: 138500860 cycles: 46047639 heartbeat IPC: 2.51 cumulative IPC: 2.638 (Simulation time: 00 hr 11 min 04 sec)
Heartbeat CPU 0 instructions: 139000867 cycles: 46247889 heartbeat IPC: 2.497 cumulative IPC: 2.637 (Simulation time: 00 hr 11 min 07 sec)
Heartbeat CPU 0 instructions: 139500867 cycles: 46447514 heartbeat IPC: 2.505 cumulative IPC: 2.637 (Simulation time: 00 hr 11 min 09 sec)
Heartbeat CPU 0 instructions: 140000868 cycles: 46642690 heartbeat IPC: 2.562 cumulative IPC: 2.636 (Simulation time: 00 hr 11 min 12 sec)
Heartbeat CPU 0 instructions: 140500873 cycles: 46814213 heartbeat IPC: 2.915 cumulative IPC: 2.637 (Simulation time: 00 hr 11 min 14 sec)
Heartbeat CPU 0 instructions: 141000879 cycles: 47006871 heartbeat IPC: 2.595 cumulative IPC: 2.637 (Simulation time: 00 hr 11 min 17 sec)
Heartbeat CPU 0 instructions: 141500883 cycles: 47197271 heartbeat IPC: 2.626 cumulative IPC: 2.637 (Simulation time: 00 hr 11 min 19 sec)
Heartbeat CPU 0 instructions: 142000884 cycles: 47391186 heartbeat IPC: 2.578 cumulative IPC: 2.637 (Simulation time: 00 hr 11 min 22 sec)
Heartbeat CPU 0 instructions: 142500886 cycles: 47592974 heartbeat IPC: 2.478 cumulative IPC: 2.636 (Simulation time: 00 hr 11 min 24 sec)
Heartbeat CPU 0 instructions: 143000888 cycles: 47795344 heartbeat IPC: 2.471 cumulative IPC: 2.635 (Simulation time: 00 hr 11 min 27 sec)
Heartbeat CPU 0 instructions: 143500889 cycles: 47969292 heartbeat IPC: 2.874 cumulative IPC: 2.636 (Simulation time: 00 hr 11 min 29 sec)
Heartbeat CPU 0 instructions: 144000892 cycles: 48166355 heartbeat IPC: 2.537 cumulative IPC: 2.636 (Simulation time: 00 hr 11 min 32 sec)
Heartbeat CPU 0 instructions: 144500893 cycles: 48361337 heartbeat IPC: 2.564 cumulative IPC: 2.635 (Simulation time: 00 hr 11 min 34 sec)
Heartbeat CPU 0 instructions: 145000897 cycles: 48553048 heartbeat IPC: 2.608 cumulative IPC: 2.635 (Simulation time: 00 hr 11 min 37 sec)
Heartbeat CPU 0 instructions: 145500897 cycles: 48744075 heartbeat IPC: 2.617 cumulative IPC: 2.635 (Simulation time: 00 hr 11 min 39 sec)
Heartbeat CPU 0 instructions: 146000904 cycles: 48931951 heartbeat IPC: 2.661 cumulative IPC: 2.635 (Simulation time: 00 hr 11 min 42 sec)
Heartbeat CPU 0 instructions: 146500909 cycles: 49095621 heartbeat IPC: 3.055 cumulative IPC: 2.637 (Simulation time: 00 hr 11 min 44 sec)
Heartbeat CPU 0 instructions: 147000909 cycles: 49284222 heartbeat IPC: 2.651 cumulative IPC: 2.637 (Simulation time: 00 hr 11 min 46 sec)
Heartbeat CPU 0 instructions: 147500915 cycles: 49465659 heartbeat IPC: 2.756 cumulative IPC: 2.638 (Simulation time: 00 hr 11 min 49 sec)
Heartbeat CPU 0 instructions: 148000918 cycles: 49656414 heartbeat IPC: 2.621 cumulative IPC: 2.638 (Simulation time: 00 hr 11 min 51 sec)
Heartbeat CPU 0 instructions: 148500918 cycles: 49844804 heartbeat IPC: 2.654 cumulative IPC: 2.638 (Simulation time: 00 hr 11 min 54 sec)
Heartbeat CPU 0 instructions: 149000923 cycles: 50047593 heartbeat IPC: 2.466 cumulative IPC: 2.637 (Simulation time: 00 hr 11 min 56 sec)
Heartbeat CPU 0 instructions: 149500923 cycles: 50222938 heartbeat IPC: 2.852 cumulative IPC: 2.638 (Simulation time: 00 hr 11 min 59 sec)
Heartbeat CPU 0 instructions: 150000926 cycles: 50415557 heartbeat IPC: 2.596 cumulative IPC: 2.638 (Simulation time: 00 hr 12 min 01 sec)
Heartbeat CPU 0 instructions: 150500929 cycles: 50616046 heartbeat IPC: 2.494 cumulative IPC: 2.637 (Simulation time: 00 hr 12 min 04 sec)
Heartbeat CPU 0 instructions: 151000931 cycles: 50812185 heartbeat IPC: 2.549 cumulative IPC: 2.636 (Simulation time: 00 hr 12 min 06 sec)
Heartbeat CPU 0 instructions: 151500935 cycles: 51006758 heartbeat IPC: 2.57 cumulative IPC: 2.636 (Simulation time: 00 hr 12 min 09 sec)
Heartbeat CPU 0 instructions: 152000936 cycles: 51199901 heartbeat IPC: 2.589 cumulative IPC: 2.636 (Simulation time: 00 hr 12 min 11 sec)
Heartbeat CPU 0 instructions: 152500938 cycles: 51387794 heartbeat IPC: 2.661 cumulative IPC: 2.636 (Simulation time: 00 hr 12 min 14 sec)
Heartbeat CPU 0 instructions: 153000939 cycles: 51575796 heartbeat IPC: 2.66 cumulative IPC: 2.636 (Simulation time: 00 hr 12 min 16 sec)
Heartbeat CPU 0 instructions: 153500946 cycles: 51756698 heartbeat IPC: 2.764 cumulative IPC: 2.637 (Simulation time: 00 hr 12 min 19 sec)
Heartbeat CPU 0 instructions: 154000952 cycles: 51959025 heartbeat IPC: 2.471 cumulative IPC: 2.636 (Simulation time: 00 hr 12 min 21 sec)
Heartbeat CPU 0 instructions: 154500954 cycles: 52159194 heartbeat IPC: 2.498 cumulative IPC: 2.635 (Simulation time: 00 hr 12 min 24 sec)
Heartbeat CPU 0 instructions: 155000957 cycles: 52342657 heartbeat IPC: 2.725 cumulative IPC: 2.635 (Simulation time: 00 hr 12 min 26 sec)
Heartbeat CPU 0 instructions: 155500961 cycles: 52540883 heartbeat IPC: 2.522 cumulative IPC: 2.635 (Simulation time: 00 hr 12 min 29 sec)
Heartbeat CPU 0 instructions: 156000968 cycles: 52713790 heartbeat IPC: 2.892 cumulative IPC: 2.636 (Simulation time: 00 hr 12 min 31 sec)
Heartbeat CPU 0 instructions: 156500969 cycles: 52906077 heartbeat IPC: 2.6 cumulative IPC: 2.636 (Simulation time: 00 hr 12 min 33 sec)
Heartbeat CPU 0 instructions: 157000973 cycles: 53106827 heartbeat IPC: 2.491 cumulative IPC: 2.635 (Simulation time: 00 hr 12 min 36 sec)
Heartbeat CPU 0 instructions: 157500977 cycles: 53299799 heartbeat IPC: 2.591 cumulative IPC: 2.635 (Simulation time: 00 hr 12 min 39 sec)
Heartbeat CPU 0 instructions: 158000984 cycles: 53487810 heartbeat IPC: 2.659 cumulative IPC: 2.635 (Simulation time: 00 hr 12 min 41 sec)
Heartbeat CPU 0 instructions: 158500991 cycles: 53661512 heartbeat IPC: 2.879 cumulative IPC: 2.636 (Simulation time: 00 hr 12 min 43 sec)
Heartbeat CPU 0 instructions: 159000997 cycles: 53815898 heartbeat IPC: 3.239 cumulative IPC: 2.638 (Simulation time: 00 hr 12 min 45 sec)
Heartbeat CPU 0 instructions: 159500998 cycles: 53987991 heartbeat IPC: 2.905 cumulative IPC: 2.639 (Simulation time: 00 hr 12 min 48 sec)
Heartbeat CPU 0 instructions: 160001002 cycles: 54149328 heartbeat IPC: 3.099 cumulative IPC: 2.641 (Simulation time: 00 hr 12 min 50 sec)
Heartbeat CPU 0 instructions: 160501007 cycles: 54315601 heartbeat IPC: 3.007 cumulative IPC: 2.643 (Simulation time: 00 hr 12 min 52 sec)
Heartbeat CPU 0 instructions: 161001013 cycles: 54469672 heartbeat IPC: 3.245 cumulative IPC: 2.645 (Simulation time: 00 hr 12 min 54 sec)
Heartbeat CPU 0 instructions: 161501019 cycles: 54630352 heartbeat IPC: 3.112 cumulative IPC: 2.647 (Simulation time: 00 hr 12 min 57 sec)
Heartbeat CPU 0 instructions: 162001026 cycles: 54780782 heartbeat IPC: 3.324 cumulative IPC: 2.649 (Simulation time: 00 hr 12 min 59 sec)
Heartbeat CPU 0 instructions: 162501027 cycles: 54969864 heartbeat IPC: 2.644 cumulative IPC: 2.649 (Simulation time: 00 hr 13 min 01 sec)
Heartbeat CPU 0 instructions: 163001031 cycles: 55142392 heartbeat IPC: 2.898 cumulative IPC: 2.65 (Simulation time: 00 hr 13 min 04 sec)
Heartbeat CPU 0 instructions: 163501035 cycles: 55297160 heartbeat IPC: 3.231 cumulative IPC: 2.652 (Simulation time: 00 hr 13 min 06 sec)
Heartbeat CPU 0 instructions: 164001042 cycles: 55447558 heartbeat IPC: 3.325 cumulative IPC: 2.654 (Simulation time: 00 hr 13 min 08 sec)
Heartbeat CPU 0 instructions: 164501048 cycles: 55598775 heartbeat IPC: 3.307 cumulative IPC: 2.657 (Simulation time: 00 hr 13 min 10 sec)
Heartbeat CPU 0 instructions: 165001055 cycles: 55775073 heartbeat IPC: 2.836 cumulative IPC: 2.657 (Simulation time: 00 hr 13 min 12 sec)
Heartbeat CPU 0 instructions: 165501062 cycles: 55981127 heartbeat IPC: 2.427 cumulative IPC: 2.656 (Simulation time: 00 hr 13 min 15 sec)
Heartbeat CPU 0 instructions: 166001068 cycles: 56166471 heartbeat IPC: 2.698 cumulative IPC: 2.657 (Simulation time: 00 hr 13 min 17 sec)
Heartbeat CPU 0 instructions: 166501072 cycles: 56320069 heartbeat IPC: 3.255 cumulative IPC: 2.659 (Simulation time: 00 hr 13 min 20 sec)
Heartbeat CPU 0 instructions: 167001073 cycles: 56476551 heartbeat IPC: 3.195 cumulative IPC: 2.661 (Simulation time: 00 hr 13 min 22 sec)
Heartbeat CPU 0 instructions: 167501077 cycles: 56632260 heartbeat IPC: 3.211 cumulative IPC: 2.663 (Simulation time: 00 hr 13 min 24 sec)
Heartbeat CPU 0 instructions: 168001079 cycles: 56782052 heartbeat IPC: 3.338 cumulative IPC: 2.665 (Simulation time: 00 hr 13 min 26 sec)
Heartbeat CPU 0 instructions: 168501085 cycles: 56933998 heartbeat IPC: 3.291 cumulative IPC: 2.667 (Simulation time: 00 hr 13 min 28 sec)
Heartbeat CPU 0 instructions: 169001089 cycles: 57088354 heartbeat IPC: 3.239 cumulative IPC: 2.669 (Simulation time: 00 hr 13 min 30 sec)
Heartbeat CPU 0 instructions: 169501093 cycles: 57258695 heartbeat IPC: 2.935 cumulative IPC: 2.67 (Simulation time: 00 hr 13 min 33 sec)
Heartbeat CPU 0 instructions: 170001094 cycles: 57457780 heartbeat IPC: 2.511 cumulative IPC: 2.669 (Simulation time: 00 hr 13 min 35 sec)
Heartbeat CPU 0 instructions: 170501098 cycles: 57656490 heartbeat IPC: 2.516 cumulative IPC: 2.669 (Simulation time: 00 hr 13 min 38 sec)
Heartbeat CPU 0 instructions: 171001102 cycles: 57849023 heartbeat IPC: 2.597 cumulative IPC: 2.668 (Simulation time: 00 hr 13 min 40 sec)
Heartbeat CPU 0 instructions: 171501106 cycles: 58024444 heartbeat IPC: 2.85 cumulative IPC: 2.669 (Simulation time: 00 hr 13 min 43 sec)
Heartbeat CPU 0 instructions: 172001106 cycles: 58217929 heartbeat IPC: 2.584 cumulative IPC: 2.669 (Simulation time: 00 hr 13 min 45 sec)
Heartbeat CPU 0 instructions: 172501106 cycles: 58410899 heartbeat IPC: 2.591 cumulative IPC: 2.668 (Simulation time: 00 hr 13 min 48 sec)
Heartbeat CPU 0 instructions: 173001107 cycles: 58603876 heartbeat IPC: 2.591 cumulative IPC: 2.668 (Simulation time: 00 hr 13 min 50 sec)
Heartbeat CPU 0 instructions: 173501111 cycles: 58798393 heartbeat IPC: 2.57 cumulative IPC: 2.668 (Simulation time: 00 hr 13 min 53 sec)
Heartbeat CPU 0 instructions: 174001111 cycles: 58992784 heartbeat IPC: 2.572 cumulative IPC: 2.667 (Simulation time: 00 hr 13 min 55 sec)
Heartbeat CPU 0 instructions: 174501111 cycles: 59163563 heartbeat IPC: 2.928 cumulative IPC: 2.668 (Simulation time: 00 hr 13 min 57 sec)
Heartbeat CPU 0 instructions: 175001115 cycles: 59355200 heartbeat IPC: 2.609 cumulative IPC: 2.668 (Simulation time: 00 hr 14 min 00 sec)
Heartbeat CPU 0 instructions: 175501115 cycles: 59548114 heartbeat IPC: 2.592 cumulative IPC: 2.668 (Simulation time: 00 hr 14 min 02 sec)
Heartbeat CPU 0 instructions: 176001120 cycles: 59740295 heartbeat IPC: 2.602 cumulative IPC: 2.667 (Simulation time: 00 hr 14 min 05 sec)
Heartbeat CPU 0 instructions: 176501122 cycles: 59932168 heartbeat IPC: 2.606 cumulative IPC: 2.667 (Simulation time: 00 hr 14 min 07 sec)
Heartbeat CPU 0 instructions: 177001128 cycles: 60125205 heartbeat IPC: 2.59 cumulative IPC: 2.667 (Simulation time: 00 hr 14 min 10 sec)
Heartbeat CPU 0 instructions: 177501128 cycles: 60297759 heartbeat IPC: 2.898 cumulative IPC: 2.668 (Simulation time: 00 hr 14 min 12 sec)
Heartbeat CPU 0 instructions: 178001128 cycles: 60490679 heartbeat IPC: 2.592 cumulative IPC: 2.667 (Simulation time: 00 hr 14 min 15 sec)
Heartbeat CPU 0 instructions: 178501130 cycles: 60683738 heartbeat IPC: 2.59 cumulative IPC: 2.667 (Simulation time: 00 hr 14 min 17 sec)
Heartbeat CPU 0 instructions: 179001133 cycles: 60877263 heartbeat IPC: 2.584 cumulative IPC: 2.667 (Simulation time: 00 hr 14 min 20 sec)
Heartbeat CPU 0 instructions: 179501138 cycles: 61072104 heartbeat IPC: 2.566 cumulative IPC: 2.666 (Simulation time: 00 hr 14 min 22 sec)
Heartbeat CPU 0 instructions: 180001145 cycles: 61268275 heartbeat IPC: 2.549 cumulative IPC: 2.666 (Simulation time: 00 hr 14 min 25 sec)
Heartbeat CPU 0 instructions: 180501145 cycles: 61440386 heartbeat IPC: 2.905 cumulative IPC: 2.667 (Simulation time: 00 hr 14 min 27 sec)
Heartbeat CPU 0 instructions: 181001149 cycles: 61637069 heartbeat IPC: 2.542 cumulative IPC: 2.666 (Simulation time: 00 hr 14 min 30 sec)
Heartbeat CPU 0 instructions: 181501153 cycles: 61834392 heartbeat IPC: 2.534 cumulative IPC: 2.666 (Simulation time: 00 hr 14 min 32 sec)
Heartbeat CPU 0 instructions: 182001154 cycles: 62030866 heartbeat IPC: 2.545 cumulative IPC: 2.665 (Simulation time: 00 hr 14 min 35 sec)
Heartbeat CPU 0 instructions: 182501158 cycles: 62226484 heartbeat IPC: 2.556 cumulative IPC: 2.665 (Simulation time: 00 hr 14 min 37 sec)
Heartbeat CPU 0 instructions: 183001161 cycles: 62425310 heartbeat IPC: 2.515 cumulative IPC: 2.664 (Simulation time: 00 hr 14 min 40 sec)
Heartbeat CPU 0 instructions: 183501163 cycles: 62605866 heartbeat IPC: 2.769 cumulative IPC: 2.664 (Simulation time: 00 hr 14 min 42 sec)
Heartbeat CPU 0 instructions: 184001170 cycles: 62797721 heartbeat IPC: 2.606 cumulative IPC: 2.664 (Simulation time: 00 hr 14 min 45 sec)
Heartbeat CPU 0 instructions: 184501171 cycles: 62992279 heartbeat IPC: 2.57 cumulative IPC: 2.664 (Simulation time: 00 hr 14 min 47 sec)
Heartbeat CPU 0 instructions: 185001175 cycles: 63191701 heartbeat IPC: 2.507 cumulative IPC: 2.663 (Simulation time: 00 hr 14 min 50 sec)
Heartbeat CPU 0 instructions: 185501177 cycles: 63390646 heartbeat IPC: 2.513 cumulative IPC: 2.663 (Simulation time: 00 hr 14 min 52 sec)
Heartbeat CPU 0 instructions: 186001180 cycles: 63590693 heartbeat IPC: 2.499 cumulative IPC: 2.662 (Simulation time: 00 hr 14 min 55 sec)
Heartbeat CPU 0 instructions: 186501184 cycles: 63785243 heartbeat IPC: 2.57 cumulative IPC: 2.662 (Simulation time: 00 hr 14 min 57 sec)
Heartbeat CPU 0 instructions: 187001191 cycles: 63964888 heartbeat IPC: 2.783 cumulative IPC: 2.662 (Simulation time: 00 hr 15 min 00 sec)
Heartbeat CPU 0 instructions: 187501193 cycles: 64166573 heartbeat IPC: 2.479 cumulative IPC: 2.661 (Simulation time: 00 hr 15 min 02 sec)
Heartbeat CPU 0 instructions: 188001196 cycles: 64368910 heartbeat IPC: 2.471 cumulative IPC: 2.661 (Simulation time: 00 hr 15 min 05 sec)
Heartbeat CPU 0 instructions: 188501198 cycles: 64569183 heartbeat IPC: 2.497 cumulative IPC: 2.66 (Simulation time: 00 hr 15 min 07 sec)
Heartbeat CPU 0 instructions: 189001201 cycles: 64772205 heartbeat IPC: 2.463 cumulative IPC: 2.659 (Simulation time: 00 hr 15 min 10 sec)
Heartbeat CPU 0 instructions: 189501205 cycles: 64973198 heartbeat IPC: 2.488 cumulative IPC: 2.659 (Simulation time: 00 hr 15 min 13 sec)
Heartbeat CPU 0 instructions: 190001212 cycles: 65150017 heartbeat IPC: 2.828 cumulative IPC: 2.659 (Simulation time: 00 hr 15 min 15 sec)
Heartbeat CPU 0 instructions: 190501213 cycles: 65350778 heartbeat IPC: 2.491 cumulative IPC: 2.658 (Simulation time: 00 hr 15 min 18 sec)
Heartbeat CPU 0 instructions: 191001215 cycles: 65551837 heartbeat IPC: 2.487 cumulative IPC: 2.658 (Simulation time: 00 hr 15 min 20 sec)
Heartbeat CPU 0 instructions: 191501216 cycles: 65764733 heartbeat IPC: 2.349 cumulative IPC: 2.657 (Simulation time: 00 hr 15 min 23 sec)
Heartbeat CPU 0 instructions: 192001221 cycles: 65978425 heartbeat IPC: 2.34 cumulative IPC: 2.655 (Simulation time: 00 hr 15 min 25 sec)
Heartbeat CPU 0 instructions: 192501223 cycles: 66179466 heartbeat IPC: 2.487 cumulative IPC: 2.655 (Simulation time: 00 hr 15 min 28 sec)
Heartbeat CPU 0 instructions: 193001224 cycles: 66356719 heartbeat IPC: 2.821 cumulative IPC: 2.655 (Simulation time: 00 hr 15 min 30 sec)
Heartbeat CPU 0 instructions: 193501225 cycles: 66557103 heartbeat IPC: 2.495 cumulative IPC: 2.655 (Simulation time: 00 hr 15 min 33 sec)
Heartbeat CPU 0 instructions: 194001229 cycles: 66756640 heartbeat IPC: 2.506 cumulative IPC: 2.654 (Simulation time: 00 hr 15 min 35 sec)
Heartbeat CPU 0 instructions: 194501231 cycles: 66957997 heartbeat IPC: 2.483 cumulative IPC: 2.653 (Simulation time: 00 hr 15 min 38 sec)
Heartbeat CPU 0 instructions: 195001234 cycles: 67156881 heartbeat IPC: 2.514 cumulative IPC: 2.653 (Simulation time: 00 hr 15 min 41 sec)
Heartbeat CPU 0 instructions: 195501234 cycles: 67357916 heartbeat IPC: 2.487 cumulative IPC: 2.652 (Simulation time: 00 hr 15 min 43 sec)
Heartbeat CPU 0 instructions: 196001237 cycles: 67533629 heartbeat IPC: 2.846 cumulative IPC: 2.653 (Simulation time: 00 hr 15 min 45 sec)
Heartbeat CPU 0 instructions: 196501238 cycles: 67728545 heartbeat IPC: 2.565 cumulative IPC: 2.653 (Simulation time: 00 hr 15 min 48 sec)
Heartbeat CPU 0 instructions: 197001242 cycles: 67921846 heartbeat IPC: 2.587 cumulative IPC: 2.652 (Simulation time: 00 hr 15 min 51 sec)
Heartbeat CPU 0 instructions: 197501246 cycles: 68116346 heartbeat IPC: 2.571 cumulative IPC: 2.652 (Simulation time: 00 hr 15 min 53 sec)
Heartbeat CPU 0 instructions: 198001247 cycles: 68307481 heartbeat IPC: 2.616 cumulative IPC: 2.652 (Simulation time: 00 hr 15 min 55 sec)
Heartbeat CPU 0 instructions: 198501251 cycles: 68505819 heartbeat IPC: 2.521 cumulative IPC: 2.652 (Simulation time: 00 hr 15 min 58 sec)
Heartbeat CPU 0 instructions: 199001255 cycles: 68689863 heartbeat IPC: 2.717 cumulative IPC: 2.652 (Simulation time: 00 hr 16 min 00 sec)
Heartbeat CPU 0 instructions: 199501259 cycles: 68887203 heartbeat IPC: 2.534 cumulative IPC: 2.651 (Simulation time: 00 hr 16 min 03 sec)
Heartbeat CPU 0 instructions: 200001263 cycles: 69082521 heartbeat IPC: 2.56 cumulative IPC: 2.651 (Simulation time: 00 hr 16 min 06 sec)
Heartbeat CPU 0 instructions: 200501265 cycles: 69278601 heartbeat IPC: 2.55 cumulative IPC: 2.651 (Simulation time: 00 hr 16 min 08 sec)
Heartbeat CPU 0 instructions: 201001268 cycles: 69474431 heartbeat IPC: 2.553 cumulative IPC: 2.65 (Simulation time: 00 hr 16 min 11 sec)
Heartbeat CPU 0 instructions: 201501272 cycles: 69664531 heartbeat IPC: 2.63 cumulative IPC: 2.65 (Simulation time: 00 hr 16 min 13 sec)
Heartbeat CPU 0 instructions: 202001274 cycles: 69846406 heartbeat IPC: 2.749 cumulative IPC: 2.651 (Simulation time: 00 hr 16 min 15 sec)
Heartbeat CPU 0 instructions: 202501280 cycles: 70020951 heartbeat IPC: 2.865 cumulative IPC: 2.651 (Simulation time: 00 hr 16 min 18 sec)
Heartbeat CPU 0 instructions: 203001284 cycles: 70203446 heartbeat IPC: 2.74 cumulative IPC: 2.652 (Simulation time: 00 hr 16 min 20 sec)
Heartbeat CPU 0 instructions: 203501286 cycles: 70394661 heartbeat IPC: 2.615 cumulative IPC: 2.651 (Simulation time: 00 hr 16 min 23 sec)
Heartbeat CPU 0 instructions: 204001293 cycles: 70577049 heartbeat IPC: 2.741 cumulative IPC: 2.652 (Simulation time: 00 hr 16 min 25 sec)
Heartbeat CPU 0 instructions: 204501299 cycles: 70764792 heartbeat IPC: 2.663 cumulative IPC: 2.652 (Simulation time: 00 hr 16 min 27 sec)
Heartbeat CPU 0 instructions: 205001306 cycles: 70959749 heartbeat IPC: 2.565 cumulative IPC: 2.651 (Simulation time: 00 hr 16 min 30 sec)
Heartbeat CPU 0 instructions: 205501309 cycles: 71136938 heartbeat IPC: 2.822 cumulative IPC: 2.652 (Simulation time: 00 hr 16 min 32 sec)
Heartbeat CPU 0 instructions: 206001311 cycles: 71336501 heartbeat IPC: 2.505 cumulative IPC: 2.651 (Simulation time: 00 hr 16 min 35 sec)
Heartbeat CPU 0 instructions: 206501317 cycles: 71528759 heartbeat IPC: 2.601 cumulative IPC: 2.651 (Simulation time: 00 hr 16 min 37 sec)
Heartbeat CPU 0 instructions: 207001324 cycles: 71727498 heartbeat IPC: 2.516 cumulative IPC: 2.651 (Simulation time: 00 hr 16 min 40 sec)
Heartbeat CPU 0 instructions: 207501328 cycles: 71925624 heartbeat IPC: 2.524 cumulative IPC: 2.65 (Simulation time: 00 hr 16 min 42 sec)
Heartbeat CPU 0 instructions: 208001332 cycles: 72118350 heartbeat IPC: 2.594 cumulative IPC: 2.65 (Simulation time: 00 hr 16 min 45 sec)
Heartbeat CPU 0 instructions: 208501338 cycles: 72288406 heartbeat IPC: 2.94 cumulative IPC: 2.651 (Simulation time: 00 hr 16 min 47 sec)
Heartbeat CPU 0 instructions: 209001342 cycles: 72488546 heartbeat IPC: 2.498 cumulative IPC: 2.651 (Simulation time: 00 hr 16 min 50 sec)
Heartbeat CPU 0 instructions: 209501346 cycles: 72676760 heartbeat IPC: 2.657 cumulative IPC: 2.651 (Simulation time: 00 hr 16 min 52 sec)
Heartbeat CPU 0 instructions: 210001347 cycles: 72872282 heartbeat IPC: 2.557 cumulative IPC: 2.65 (Simulation time: 00 hr 16 min 55 sec)
Heartbeat CPU 0 instructions: 210501351 cycles: 73073588 heartbeat IPC: 2.484 cumulative IPC: 2.65 (Simulation time: 00 hr 16 min 57 sec)
Heartbeat CPU 0 instructions: 211001356 cycles: 73269128 heartbeat IPC: 2.557 cumulative IPC: 2.649 (Simulation time: 00 hr 17 min 00 sec)
Heartbeat CPU 0 instructions: 211501360 cycles: 73436504 heartbeat IPC: 2.987 cumulative IPC: 2.65 (Simulation time: 00 hr 17 min 02 sec)
Heartbeat CPU 0 instructions: 212001363 cycles: 73636247 heartbeat IPC: 2.503 cumulative IPC: 2.65 (Simulation time: 00 hr 17 min 05 sec)
Heartbeat CPU 0 instructions: 212501367 cycles: 73829092 heartbeat IPC: 2.593 cumulative IPC: 2.65 (Simulation time: 00 hr 17 min 07 sec)
Heartbeat CPU 0 instructions: 213001368 cycles: 74022444 heartbeat IPC: 2.586 cumulative IPC: 2.649 (Simulation time: 00 hr 17 min 10 sec)
Heartbeat CPU 0 instructions: 213501368 cycles: 74219278 heartbeat IPC: 2.54 cumulative IPC: 2.649 (Simulation time: 00 hr 17 min 12 sec)
Heartbeat CPU 0 instructions: 214001374 cycles: 74416391 heartbeat IPC: 2.537 cumulative IPC: 2.649 (Simulation time: 00 hr 17 min 15 sec)
Heartbeat CPU 0 instructions: 214501375 cycles: 74579890 heartbeat IPC: 3.058 cumulative IPC: 2.65 (Simulation time: 00 hr 17 min 17 sec)
Heartbeat CPU 0 instructions: 215001376 cycles: 74753110 heartbeat IPC: 2.887 cumulative IPC: 2.651 (Simulation time: 00 hr 17 min 19 sec)
Heartbeat CPU 0 instructions: 215501380 cycles: 74923004 heartbeat IPC: 2.943 cumulative IPC: 2.651 (Simulation time: 00 hr 17 min 22 sec)
Heartbeat CPU 0 instructions: 216001381 cycles: 75090224 heartbeat IPC: 2.99 cumulative IPC: 2.652 (Simulation time: 00 hr 17 min 24 sec)
Heartbeat CPU 0 instructions: 216501385 cycles: 75253684 heartbeat IPC: 3.059 cumulative IPC: 2.653 (Simulation time: 00 hr 17 min 26 sec)
Heartbeat CPU 0 instructions: 217001389 cycles: 75416614 heartbeat IPC: 3.069 cumulative IPC: 2.654 (Simulation time: 00 hr 17 min 28 sec)
Heartbeat CPU 0 instructions: 217501389 cycles: 75566563 heartbeat IPC: 3.334 cumulative IPC: 2.656 (Simulation time: 00 hr 17 min 31 sec)
Heartbeat CPU 0 instructions: 218001389 cycles: 75722669 heartbeat IPC: 3.203 cumulative IPC: 2.657 (Simulation time: 00 hr 17 min 33 sec)
Heartbeat CPU 0 instructions: 218501393 cycles: 75896452 heartbeat IPC: 2.877 cumulative IPC: 2.658 (Simulation time: 00 hr 17 min 35 sec)
Heartbeat CPU 0 instructions: 219001398 cycles: 76088401 heartbeat IPC: 2.605 cumulative IPC: 2.658 (Simulation time: 00 hr 17 min 38 sec)
Heartbeat CPU 0 instructions: 219501398 cycles: 76246427 heartbeat IPC: 3.164 cumulative IPC: 2.659 (Simulation time: 00 hr 17 min 40 sec)
Heartbeat CPU 0 instructions: 220001401 cycles: 76399209 heartbeat IPC: 3.273 cumulative IPC: 2.66 (Simulation time: 00 hr 17 min 42 sec)
Heartbeat CPU 0 instructions: 220501403 cycles: 76548329 heartbeat IPC: 3.353 cumulative IPC: 2.662 (Simulation time: 00 hr 17 min 44 sec)
Heartbeat CPU 0 instructions: 221001410 cycles: 76693516 heartbeat IPC: 3.444 cumulative IPC: 2.664 (Simulation time: 00 hr 17 min 46 sec)
Heartbeat CPU 0 instructions: 221501414 cycles: 76895161 heartbeat IPC: 2.48 cumulative IPC: 2.663 (Simulation time: 00 hr 17 min 49 sec)
Heartbeat CPU 0 instructions: 222001415 cycles: 77097621 heartbeat IPC: 2.47 cumulative IPC: 2.663 (Simulation time: 00 hr 17 min 51 sec)
Heartbeat CPU 0 instructions: 222501417 cycles: 77266881 heartbeat IPC: 2.954 cumulative IPC: 2.663 (Simulation time: 00 hr 17 min 54 sec)
Heartbeat CPU 0 instructions: 223001422 cycles: 77420849 heartbeat IPC: 3.247 cumulative IPC: 2.665 (Simulation time: 00 hr 17 min 56 sec)
Heartbeat CPU 0 instructions: 223501425 cycles: 77576744 heartbeat IPC: 3.207 cumulative IPC: 2.666 (Simulation time: 00 hr 17 min 58 sec)
Heartbeat CPU 0 instructions: 224001431 cycles: 77723551 heartbeat IPC: 3.406 cumulative IPC: 2.668 (Simulation time: 00 hr 18 min 00 sec)
Heartbeat CPU 0 instructions: 224501438 cycles: 77876737 heartbeat IPC: 3.264 cumulative IPC: 2.669 (Simulation time: 00 hr 18 min 02 sec)
Heartbeat CPU 0 instructions: 225001444 cycles: 78032664 heartbeat IPC: 3.207 cumulative IPC: 2.67 (Simulation time: 00 hr 18 min 04 sec)
Heartbeat CPU 0 instructions: 225501448 cycles: 78185922 heartbeat IPC: 3.262 cumulative IPC: 2.672 (Simulation time: 00 hr 18 min 07 sec)
Heartbeat CPU 0 instructions: 226001452 cycles: 78368329 heartbeat IPC: 2.741 cumulative IPC: 2.672 (Simulation time: 00 hr 18 min 09 sec)
Heartbeat CPU 0 instructions: 226501453 cycles: 78566650 heartbeat IPC: 2.521 cumulative IPC: 2.672 (Simulation time: 00 hr 18 min 12 sec)
Heartbeat CPU 0 instructions: 227001460 cycles: 78740283 heartbeat IPC: 2.88 cumulative IPC: 2.672 (Simulation time: 00 hr 18 min 14 sec)
Heartbeat CPU 0 instructions: 227501462 cycles: 78933595 heartbeat IPC: 2.587 cumulative IPC: 2.672 (Simulation time: 00 hr 18 min 16 sec)
Heartbeat CPU 0 instructions: 228001465 cycles: 79128200 heartbeat IPC: 2.569 cumulative IPC: 2.672 (Simulation time: 00 hr 18 min 19 sec)
Heartbeat CPU 0 instructions: 228501469 cycles: 79322081 heartbeat IPC: 2.579 cumulative IPC: 2.671 (Simulation time: 00 hr 18 min 21 sec)
Heartbeat CPU 0 instructions: 229001472 cycles: 79517335 heartbeat IPC: 2.561 cumulative IPC: 2.671 (Simulation time: 00 hr 18 min 24 sec)
Heartbeat CPU 0 instructions: 229501472 cycles: 79710597 heartbeat IPC: 2.587 cumulative IPC: 2.671 (Simulation time: 00 hr 18 min 26 sec)
Heartbeat CPU 0 instructions: 230001478 cycles: 79883356 heartbeat IPC: 2.894 cumulative IPC: 2.671 (Simulation time: 00 hr 18 min 29 sec)
Heartbeat CPU 0 instructions: 230501478 cycles: 80075694 heartbeat IPC: 2.6 cumulative IPC: 2.671 (Simulation time: 00 hr 18 min 31 sec)
Heartbeat CPU 0 instructions: 231001478 cycles: 80269677 heartbeat IPC: 2.578 cumulative IPC: 2.671 (Simulation time: 00 hr 18 min 35 sec)
Heartbeat CPU 0 instructions: 231501481 cycles: 80461946 heartbeat IPC: 2.601 cumulative IPC: 2.671 (Simulation time: 00 hr 18 min 39 sec)
Heartbeat CPU 0 instructions: 232001483 cycles: 80653917 heartbeat IPC: 2.605 cumulative IPC: 2.67 (Simulation time: 00 hr 18 min 44 sec)
Heartbeat CPU 0 instructions: 232501483 cycles: 80847187 heartbeat IPC: 2.587 cumulative IPC: 2.67 (Simulation time: 00 hr 18 min 48 sec)
Heartbeat CPU 0 instructions: 233001483 cycles: 81028804 heartbeat IPC: 2.753 cumulative IPC: 2.67 (Simulation time: 00 hr 18 min 53 sec)
Heartbeat CPU 0 instructions: 233501489 cycles: 81211841 heartbeat IPC: 2.732 cumulative IPC: 2.671 (Simulation time: 00 hr 18 min 57 sec)
Heartbeat CPU 0 instructions: 234001491 cycles: 81406329 heartbeat IPC: 2.571 cumulative IPC: 2.67 (Simulation time: 00 hr 19 min 02 sec)
Heartbeat CPU 0 instructions: 234501493 cycles: 81599224 heartbeat IPC: 2.592 cumulative IPC: 2.67 (Simulation time: 00 hr 19 min 07 sec)
Heartbeat CPU 0 instructions: 235001497 cycles: 81793075 heartbeat IPC: 2.579 cumulative IPC: 2.67 (Simulation time: 00 hr 19 min 11 sec)
Heartbeat CPU 0 instructions: 235501500 cycles: 81987211 heartbeat IPC: 2.576 cumulative IPC: 2.67 (Simulation time: 00 hr 19 min 16 sec)
Heartbeat CPU 0 instructions: 236001502 cycles: 82182112 heartbeat IPC: 2.565 cumulative IPC: 2.669 (Simulation time: 00 hr 19 min 20 sec)
Heartbeat CPU 0 instructions: 236501509 cycles: 82356328 heartbeat IPC: 2.87 cumulative IPC: 2.67 (Simulation time: 00 hr 19 min 25 sec)
Heartbeat CPU 0 instructions: 237001512 cycles: 82549924 heartbeat IPC: 2.583 cumulative IPC: 2.67 (Simulation time: 00 hr 19 min 29 sec)
Heartbeat CPU 0 instructions: 237501512 cycles: 82745603 heartbeat IPC: 2.555 cumulative IPC: 2.669 (Simulation time: 00 hr 19 min 34 sec)
Heartbeat CPU 0 instructions: 238001513 cycles: 82944528 heartbeat IPC: 2.514 cumulative IPC: 2.669 (Simulation time: 00 hr 19 min 39 sec)
Heartbeat CPU 0 instructions: 238501513 cycles: 83140464 heartbeat IPC: 2.552 cumulative IPC: 2.668 (Simulation time: 00 hr 19 min 44 sec)
Heartbeat CPU 0 instructions: 239001515 cycles: 83336775 heartbeat IPC: 2.547 cumulative IPC: 2.668 (Simulation time: 00 hr 19 min 48 sec)
Heartbeat CPU 0 instructions: 239501521 cycles: 83510368 heartbeat IPC: 2.88 cumulative IPC: 2.669 (Simulation time: 00 hr 19 min 53 sec)
Heartbeat CPU 0 instructions: 240001521 cycles: 83707399 heartbeat IPC: 2.538 cumulative IPC: 2.668 (Simulation time: 00 hr 19 min 57 sec)
Heartbeat CPU 0 instructions: 240501521 cycles: 83905981 heartbeat IPC: 2.518 cumulative IPC: 2.668 (Simulation time: 00 hr 20 min 02 sec)
Heartbeat CPU 0 instructions: 241001523 cycles: 84102882 heartbeat IPC: 2.539 cumulative IPC: 2.668 (Simulation time: 00 hr 20 min 07 sec)
Heartbeat CPU 0 instructions: 241501526 cycles: 84303178 heartbeat IPC: 2.496 cumulative IPC: 2.667 (Simulation time: 00 hr 20 min 11 sec)
Heartbeat CPU 0 instructions: 242001530 cycles: 84503084 heartbeat IPC: 2.501 cumulative IPC: 2.667 (Simulation time: 00 hr 20 min 16 sec)
Heartbeat CPU 0 instructions: 242501534 cycles: 84679247 heartbeat IPC: 2.838 cumulative IPC: 2.667 (Simulation time: 00 hr 20 min 21 sec)
Heartbeat CPU 0 instructions: 243001536 cycles: 84878492 heartbeat IPC: 2.509 cumulative IPC: 2.667 (Simulation time: 00 hr 20 min 24 sec)
Heartbeat CPU 0 instructions: 243501541 cycles: 85077199 heartbeat IPC: 2.516 cumulative IPC: 2.666 (Simulation time: 00 hr 20 min 27 sec)
Heartbeat CPU 0 instructions: 244001543 cycles: 85279290 heartbeat IPC: 2.474 cumulative IPC: 2.666 (Simulation time: 00 hr 20 min 29 sec)
Heartbeat CPU 0 instructions: 244501547 cycles: 85479701 heartbeat IPC: 2.495 cumulative IPC: 2.665 (Simulation time: 00 hr 20 min 32 sec)
Heartbeat CPU 0 instructions: 245001551 cycles: 85682221 heartbeat IPC: 2.469 cumulative IPC: 2.665 (Simulation time: 00 hr 20 min 34 sec)
Heartbeat CPU 0 instructions: 245501555 cycles: 85858168 heartbeat IPC: 2.842 cumulative IPC: 2.665 (Simulation time: 00 hr 20 min 37 sec)
Heartbeat CPU 0 instructions: 246001557 cycles: 86060055 heartbeat IPC: 2.477 cumulative IPC: 2.665 (Simulation time: 00 hr 20 min 39 sec)
Heartbeat CPU 0 instructions: 246501563 cycles: 86261987 heartbeat IPC: 2.476 cumulative IPC: 2.664 (Simulation time: 00 hr 20 min 42 sec)
Heartbeat CPU 0 instructions: 247001564 cycles: 86461326 heartbeat IPC: 2.508 cumulative IPC: 2.664 (Simulation time: 00 hr 20 min 44 sec)
Heartbeat CPU 0 instructions: 247501564 cycles: 86663215 heartbeat IPC: 2.477 cumulative IPC: 2.663 (Simulation time: 00 hr 20 min 47 sec)
Heartbeat CPU 0 instructions: 248001569 cycles: 86887421 heartbeat IPC: 2.23 cumulative IPC: 2.662 (Simulation time: 00 hr 20 min 49 sec)
Heartbeat CPU 0 instructions: 248501570 cycles: 87075074 heartbeat IPC: 2.664 cumulative IPC: 2.662 (Simulation time: 00 hr 20 min 52 sec)
Heartbeat CPU 0 instructions: 249001577 cycles: 87265627 heartbeat IPC: 2.624 cumulative IPC: 2.662 (Simulation time: 00 hr 20 min 54 sec)
Heartbeat CPU 0 instructions: 249501582 cycles: 87467333 heartbeat IPC: 2.479 cumulative IPC: 2.661 (Simulation time: 00 hr 20 min 57 sec)
Simulation finished CPU 0 instructions: 200000006 cycles: 75168560 cumulative IPC: 2.661 (Simulation time: 00 hr 20 min 59 sec)
Simulation complete CPU 0 instructions: 200000006 cycles: 75168560 cumulative IPC: 2.661 (Simulation time: 00 hr 20 min 59 sec)

ChampSim completed all CPUs

=== Simulation ===
CPU 0 runs /local-ssd/ben/dpc4-traces/ai-ml/clip_trace_1.champsimtrace.gz

Region of Interest Statistics

CPU 0 cumulative IPC: 2.661 instructions: 200000006 cycles: 75168560
CPU 0 Branch Prediction Accuracy: 97.71% MPKI: 1.55 Average ROB Occupancy at Mispredict: 286.1
Branch type MPKI
BRANCH_DIRECT_JUMP: 0
BRANCH_INDIRECT: 0
BRANCH_CONDITIONAL: 1.55
BRANCH_DIRECT_CALL: 0
BRANCH_INDIRECT_CALL: 0
BRANCH_RETURN: 0

cpu0->cpu0_STLB TOTAL        ACCESS:      15187 HIT:       3437 MISS:      11750 MSHR_MERGE:          0
cpu0->cpu0_STLB LOAD         ACCESS:      15187 HIT:       3437 MISS:      11750 MSHR_MERGE:          0
cpu0->cpu0_STLB RFO          ACCESS:          0 HIT:          0 MISS:          0 MSHR_MERGE:          0
cpu0->cpu0_STLB PREFETCH     ACCESS:          0 HIT:          0 MISS:          0 MSHR_MERGE:          0
cpu0->cpu0_STLB WRITE        ACCESS:          0 HIT:          0 MISS:          0 MSHR_MERGE:          0
cpu0->cpu0_STLB TRANSLATION  ACCESS:          0 HIT:          0 MISS:          0 MSHR_MERGE:          0
cpu0->cpu0_STLB PREFETCH REQUESTED:          0 ISSUED:          0 USEFUL:          0 USELESS:          0
cpu0->cpu0_STLB AVERAGE MISS LATENCY: 78.79 cycles
cpu0->cpu0_L2C TOTAL        ACCESS:    9881963 HIT:    6184012 MISS:    3697951 MSHR_MERGE:    2949004
cpu0->cpu0_L2C LOAD         ACCESS:     681130 HIT:     568780 MISS:     112350 MSHR_MERGE:      53246
cpu0->cpu0_L2C RFO          ACCESS:      29753 HIT:      11587 MISS:      18166 MSHR_MERGE:          0
cpu0->cpu0_L2C PREFETCH     ACCESS:    9137409 HIT:    5571549 MISS:    3565860 MSHR_MERGE:    2895758
cpu0->cpu0_L2C WRITE        ACCESS:      31124 HIT:      31115 MISS:          9 MSHR_MERGE:          0
cpu0->cpu0_L2C TRANSLATION  ACCESS:       2547 HIT:        981 MISS:       1566 MSHR_MERGE:          0
cpu0->cpu0_L2C PREFETCH REQUESTED:   10306772 ISSUED:    7541391 USEFUL:     251948 USELESS:     323954
cpu0->cpu0_L2C AVERAGE MISS LATENCY: 431.9 cycles
cpu0->cpu0_L1I TOTAL        ACCESS:   22909185 HIT:   22909185 MISS:          0 MSHR_MERGE:          0
cpu0->cpu0_L1I LOAD         ACCESS:   22909185 HIT:   22909185 MISS:          0 MSHR_MERGE:          0
cpu0->cpu0_L1I RFO          ACCESS:          0 HIT:          0 MISS:          0 MSHR_MERGE:          0
cpu0->cpu0_L1I PREFETCH     ACCESS:          0 HIT:          0 MISS:          0 MSHR_MERGE:          0
cpu0->cpu0_L1I WRITE        ACCESS:          0 HIT:          0 MISS:          0 MSHR_MERGE:          0
cpu0->cpu0_L1I TRANSLATION  ACCESS:          0 HIT:          0 MISS:          0 MSHR_MERGE:          0
cpu0->cpu0_L1I PREFETCH REQUESTED:          0 ISSUED:          0 USEFUL:          0 USELESS:          0
cpu0->cpu0_L1I AVERAGE MISS LATENCY: - cycles
cpu0->cpu0_L1D TOTAL        ACCESS:   59552957 HIT:   55403061 MISS:    4149896 MSHR_MERGE:    1840447
cpu0->cpu0_L1D LOAD         ACCESS:   48265122 HIT:   45954744 MISS:    2310378 MSHR_MERGE:    1629248
cpu0->cpu0_L1D RFO          ACCESS:          0 HIT:          0 MISS:          0 MSHR_MERGE:          0
cpu0->cpu0_L1D PREFETCH     ACCESS:   10510406 HIT:    8721355 MISS:    1789051 MSHR_MERGE:     193033
cpu0->cpu0_L1D WRITE        ACCESS:     753928 HIT:     706008 MISS:      47920 MSHR_MERGE:      18166
cpu0->cpu0_L1D TRANSLATION  ACCESS:      23501 HIT:      20954 MISS:       2547 MSHR_MERGE:          0
cpu0->cpu0_L1D PREFETCH REQUESTED:   11908272 ISSUED:   10510398 USEFUL:    1577056 USELESS:      18954
cpu0->cpu0_L1D AVERAGE MISS LATENCY: 204.6 cycles
cpu0->cpu0_ITLB TOTAL        ACCESS:   22804792 HIT:   22804792 MISS:          0 MSHR_MERGE:          0
cpu0->cpu0_ITLB LOAD         ACCESS:   22804792 HIT:   22804792 MISS:          0 MSHR_MERGE:          0
cpu0->cpu0_ITLB RFO          ACCESS:          0 HIT:          0 MISS:          0 MSHR_MERGE:          0
cpu0->cpu0_ITLB PREFETCH     ACCESS:          0 HIT:          0 MISS:          0 MSHR_MERGE:          0
cpu0->cpu0_ITLB WRITE        ACCESS:          0 HIT:          0 MISS:          0 MSHR_MERGE:          0
cpu0->cpu0_ITLB TRANSLATION  ACCESS:          0 HIT:          0 MISS:          0 MSHR_MERGE:          0
cpu0->cpu0_ITLB PREFETCH REQUESTED:          0 ISSUED:          0 USEFUL:          0 USELESS:          0
cpu0->cpu0_ITLB AVERAGE MISS LATENCY: - cycles
cpu0->cpu0_DTLB TOTAL        ACCESS:   49897907 HIT:   49833438 MISS:      64469 MSHR_MERGE:      49282
cpu0->cpu0_DTLB LOAD         ACCESS:   49897907 HIT:   49833438 MISS:      64469 MSHR_MERGE:      49282
cpu0->cpu0_DTLB RFO          ACCESS:          0 HIT:          0 MISS:          0 MSHR_MERGE:          0
cpu0->cpu0_DTLB PREFETCH     ACCESS:          0 HIT:          0 MISS:          0 MSHR_MERGE:          0
cpu0->cpu0_DTLB WRITE        ACCESS:          0 HIT:          0 MISS:          0 MSHR_MERGE:          0
cpu0->cpu0_DTLB TRANSLATION  ACCESS:          0 HIT:          0 MISS:          0 MSHR_MERGE:          0
cpu0->cpu0_DTLB PREFETCH REQUESTED:          0 ISSUED:          0 USEFUL:          0 USELESS:          0
cpu0->cpu0_DTLB AVERAGE MISS LATENCY: 66.74 cycles
cpu0->LLC TOTAL        ACCESS:     767212 HIT:     110958 MISS:     656254 MSHR_MERGE:          0
cpu0->LLC LOAD         ACCESS:      59104 HIT:      10917 MISS:      48187 MSHR_MERGE:          0
cpu0->LLC RFO          ACCESS:      18166 HIT:          0 MISS:      18166 MSHR_MERGE:          0
cpu0->LLC PREFETCH     ACCESS:     670102 HIT:      96642 MISS:     573460 MSHR_MERGE:          0
cpu0->LLC WRITE        ACCESS:      18274 HIT:       3124 MISS:      15150 MSHR_MERGE:          0
cpu0->LLC TRANSLATION  ACCESS:       1566 HIT:        275 MISS:       1291 MSHR_MERGE:          0
cpu0->LLC PREFETCH REQUESTED:          0 ISSUED:          0 USEFUL:          0 USELESS:          0
cpu0->LLC AVERAGE MISS LATENCY: 367 cycles

DRAM Statistics

Channel 0 RQ ROW_BUFFER_HIT:     231532
  ROW_BUFFER_MISS:     409572
  AVG DBUS CONGESTED CYCLE: 4.026
Channel 0 WQ ROW_BUFFER_HIT:        320
  ROW_BUFFER_MISS:      14171
  FULL:          0
Channel 0 REFRESHES ISSUED:       6264
