[VMEM] WARNING: physical memory size is smaller than virtual memory size.

*** ChampSim Multicore Out-of-Order Simulator ***
Warmup Instructions: 50000000
Simulation Instructions: 200000000
Number of CPUs: 1
Page size: 4096
Core 0: /local-ssd/ben/dpc4-traces/ai-ml/llama2.c-stories110M.1.champsimtrace.gz
 L1D Berti prefetcher
Off-chip DRAM Size: 64 GiB Channels: 1 Width: 64-bit Data Rate: 800 MT/s
Heartbeat CPU 0 instructions: 500006 cycles: 129665 heartbeat IPC: 3.856 cumulative IPC: 3.856 (Simulation time: 00 hr 00 min 04 sec)
Heartbeat CPU 0 instructions: 1000011 cycles: 257019 heartbeat IPC: 3.926 cumulative IPC: 3.891 (Simulation time: 00 hr 00 min 06 sec)
Heartbeat CPU 0 instructions: 1500018 cycles: 384152 heartbeat IPC: 3.933 cumulative IPC: 3.905 (Simulation time: 00 hr 00 min 08 sec)
Heartbeat CPU 0 instructions: 2000022 cycles: 511995 heartbeat IPC: 3.911 cumulative IPC: 3.906 (Simulation time: 00 hr 00 min 11 sec)
Heartbeat CPU 0 instructions: 2500026 cycles: 639618 heartbeat IPC: 3.918 cumulative IPC: 3.909 (Simulation time: 00 hr 00 min 13 sec)
Heartbeat CPU 0 instructions: 3000027 cycles: 766947 heartbeat IPC: 3.927 cumulative IPC: 3.912 (Simulation time: 00 hr 00 min 15 sec)
Heartbeat CPU 0 instructions: 3500032 cycles: 894428 heartbeat IPC: 3.922 cumulative IPC: 3.913 (Simulation time: 00 hr 00 min 17 sec)
Heartbeat CPU 0 instructions: 4000038 cycles: 1021709 heartbeat IPC: 3.928 cumulative IPC: 3.915 (Simulation time: 00 hr 00 min 19 sec)
Heartbeat CPU 0 instructions: 4500043 cycles: 1149196 heartbeat IPC: 3.922 cumulative IPC: 3.916 (Simulation time: 00 hr 00 min 21 sec)
Heartbeat CPU 0 instructions: 5000048 cycles: 1276667 heartbeat IPC: 3.923 cumulative IPC: 3.916 (Simulation time: 00 hr 00 min 23 sec)
Heartbeat CPU 0 instructions: 5500053 cycles: 1404175 heartbeat IPC: 3.921 cumulative IPC: 3.917 (Simulation time: 00 hr 00 min 25 sec)
Heartbeat CPU 0 instructions: 6000058 cycles: 1531652 heartbeat IPC: 3.922 cumulative IPC: 3.917 (Simulation time: 00 hr 00 min 27 sec)
Heartbeat CPU 0 instructions: 6500063 cycles: 1658923 heartbeat IPC: 3.929 cumulative IPC: 3.918 (Simulation time: 00 hr 00 min 29 sec)
Heartbeat CPU 0 instructions: 7000069 cycles: 1786414 heartbeat IPC: 3.922 cumulative IPC: 3.919 (Simulation time: 00 hr 00 min 31 sec)
Heartbeat CPU 0 instructions: 7500074 cycles: 1913698 heartbeat IPC: 3.928 cumulative IPC: 3.919 (Simulation time: 00 hr 00 min 33 sec)
Heartbeat CPU 0 instructions: 8000075 cycles: 2040962 heartbeat IPC: 3.929 cumulative IPC: 3.92 (Simulation time: 00 hr 00 min 36 sec)
Heartbeat CPU 0 instructions: 8500079 cycles: 2167225 heartbeat IPC: 3.96 cumulative IPC: 3.922 (Simulation time: 00 hr 00 min 38 sec)
Heartbeat CPU 0 instructions: 9000081 cycles: 2294876 heartbeat IPC: 3.917 cumulative IPC: 3.922 (Simulation time: 00 hr 00 min 40 sec)
Heartbeat CPU 0 instructions: 9500084 cycles: 2422314 heartbeat IPC: 3.924 cumulative IPC: 3.922 (Simulation time: 00 hr 00 min 42 sec)
Heartbeat CPU 0 instructions: 10000086 cycles: 2549965 heartbeat IPC: 3.917 cumulative IPC: 3.922 (Simulation time: 00 hr 00 min 44 sec)
Heartbeat CPU 0 instructions: 10500089 cycles: 2677403 heartbeat IPC: 3.924 cumulative IPC: 3.922 (Simulation time: 00 hr 00 min 46 sec)
Heartbeat CPU 0 instructions: 11000089 cycles: 2805778 heartbeat IPC: 3.895 cumulative IPC: 3.921 (Simulation time: 00 hr 00 min 48 sec)
Heartbeat CPU 0 instructions: 11500089 cycles: 2933401 heartbeat IPC: 3.918 cumulative IPC: 3.92 (Simulation time: 00 hr 00 min 50 sec)
Heartbeat CPU 0 instructions: 12000093 cycles: 3061024 heartbeat IPC: 3.918 cumulative IPC: 3.92 (Simulation time: 00 hr 00 min 52 sec)
Heartbeat CPU 0 instructions: 12500094 cycles: 3188514 heartbeat IPC: 3.922 cumulative IPC: 3.92 (Simulation time: 00 hr 00 min 54 sec)
Heartbeat CPU 0 instructions: 13000098 cycles: 3315894 heartbeat IPC: 3.925 cumulative IPC: 3.921 (Simulation time: 00 hr 00 min 56 sec)
Heartbeat CPU 0 instructions: 13500105 cycles: 3443179 heartbeat IPC: 3.928 cumulative IPC: 3.921 (Simulation time: 00 hr 00 min 58 sec)
Heartbeat CPU 0 instructions: 14000110 cycles: 3570550 heartbeat IPC: 3.926 cumulative IPC: 3.921 (Simulation time: 00 hr 01 min 00 sec)
Heartbeat CPU 0 instructions: 14500117 cycles: 3695373 heartbeat IPC: 4.006 cumulative IPC: 3.924 (Simulation time: 00 hr 01 min 02 sec)
Heartbeat CPU 0 instructions: 15000121 cycles: 3822996 heartbeat IPC: 3.918 cumulative IPC: 3.924 (Simulation time: 00 hr 01 min 04 sec)
Heartbeat CPU 0 instructions: 15500121 cycles: 3950501 heartbeat IPC: 3.921 cumulative IPC: 3.924 (Simulation time: 00 hr 01 min 06 sec)
Heartbeat CPU 0 instructions: 16000126 cycles: 4077988 heartbeat IPC: 3.922 cumulative IPC: 3.924 (Simulation time: 00 hr 01 min 08 sec)
Heartbeat CPU 0 instructions: 16500131 cycles: 4205259 heartbeat IPC: 3.929 cumulative IPC: 3.924 (Simulation time: 00 hr 01 min 10 sec)
Heartbeat CPU 0 instructions: 17000137 cycles: 4332750 heartbeat IPC: 3.922 cumulative IPC: 3.924 (Simulation time: 00 hr 01 min 12 sec)
Heartbeat CPU 0 instructions: 17500142 cycles: 4460034 heartbeat IPC: 3.928 cumulative IPC: 3.924 (Simulation time: 00 hr 01 min 14 sec)
Heartbeat CPU 0 instructions: 18000147 cycles: 4587518 heartbeat IPC: 3.922 cumulative IPC: 3.924 (Simulation time: 00 hr 01 min 16 sec)
Heartbeat CPU 0 instructions: 18500152 cycles: 4714796 heartbeat IPC: 3.928 cumulative IPC: 3.924 (Simulation time: 00 hr 01 min 18 sec)
Heartbeat CPU 0 instructions: 19000157 cycles: 4842283 heartbeat IPC: 3.922 cumulative IPC: 3.924 (Simulation time: 00 hr 01 min 20 sec)
Heartbeat CPU 0 instructions: 19500162 cycles: 4969564 heartbeat IPC: 3.928 cumulative IPC: 3.924 (Simulation time: 00 hr 01 min 22 sec)
Heartbeat CPU 0 instructions: 20000168 cycles: 5097055 heartbeat IPC: 3.922 cumulative IPC: 3.924 (Simulation time: 00 hr 01 min 24 sec)
Heartbeat CPU 0 instructions: 20500173 cycles: 5224539 heartbeat IPC: 3.922 cumulative IPC: 3.924 (Simulation time: 00 hr 01 min 26 sec)
Heartbeat CPU 0 instructions: 21000178 cycles: 5349986 heartbeat IPC: 3.986 cumulative IPC: 3.925 (Simulation time: 00 hr 01 min 28 sec)
Heartbeat CPU 0 instructions: 21500181 cycles: 5477634 heartbeat IPC: 3.917 cumulative IPC: 3.925 (Simulation time: 00 hr 01 min 30 sec)
Heartbeat CPU 0 instructions: 22000183 cycles: 5605075 heartbeat IPC: 3.923 cumulative IPC: 3.925 (Simulation time: 00 hr 01 min 32 sec)
Heartbeat CPU 0 instructions: 22500186 cycles: 5732723 heartbeat IPC: 3.917 cumulative IPC: 3.925 (Simulation time: 00 hr 01 min 34 sec)
Heartbeat CPU 0 instructions: 23000188 cycles: 5860164 heartbeat IPC: 3.923 cumulative IPC: 3.925 (Simulation time: 00 hr 01 min 36 sec)
Heartbeat CPU 0 instructions: 23500191 cycles: 5987812 heartbeat IPC: 3.917 cumulative IPC: 3.925 (Simulation time: 00 hr 01 min 38 sec)
Heartbeat CPU 0 instructions: 24000196 cycles: 6115460 heartbeat IPC: 3.917 cumulative IPC: 3.925 (Simulation time: 00 hr 01 min 40 sec)
Heartbeat CPU 0 instructions: 24500200 cycles: 6243093 heartbeat IPC: 3.918 cumulative IPC: 3.924 (Simulation time: 00 hr 01 min 42 sec)
Heartbeat CPU 0 instructions: 25000203 cycles: 6370470 heartbeat IPC: 3.925 cumulative IPC: 3.924 (Simulation time: 00 hr 01 min 44 sec)
Heartbeat CPU 0 instructions: 25500207 cycles: 6497626 heartbeat IPC: 3.932 cumulative IPC: 3.925 (Simulation time: 00 hr 01 min 46 sec)
Heartbeat CPU 0 instructions: 26000207 cycles: 6625124 heartbeat IPC: 3.922 cumulative IPC: 3.924 (Simulation time: 00 hr 01 min 48 sec)
Heartbeat CPU 0 instructions: 26500212 cycles: 6752498 heartbeat IPC: 3.925 cumulative IPC: 3.925 (Simulation time: 00 hr 01 min 50 sec)
Heartbeat CPU 0 instructions: 27000212 cycles: 6877022 heartbeat IPC: 4.015 cumulative IPC: 3.926 (Simulation time: 00 hr 01 min 52 sec)
Heartbeat CPU 0 instructions: 27500216 cycles: 7004655 heartbeat IPC: 3.918 cumulative IPC: 3.926 (Simulation time: 00 hr 01 min 54 sec)
Heartbeat CPU 0 instructions: 28000222 cycles: 7132172 heartbeat IPC: 3.921 cumulative IPC: 3.926 (Simulation time: 00 hr 01 min 56 sec)
Heartbeat CPU 0 instructions: 28500228 cycles: 7259653 heartbeat IPC: 3.922 cumulative IPC: 3.926 (Simulation time: 00 hr 01 min 58 sec)
Heartbeat CPU 0 instructions: 29000233 cycles: 7386930 heartbeat IPC: 3.928 cumulative IPC: 3.926 (Simulation time: 00 hr 02 min 00 sec)
Heartbeat CPU 0 instructions: 29500238 cycles: 7514421 heartbeat IPC: 3.922 cumulative IPC: 3.926 (Simulation time: 00 hr 02 min 02 sec)
Heartbeat CPU 0 instructions: 30000244 cycles: 7641702 heartbeat IPC: 3.928 cumulative IPC: 3.926 (Simulation time: 00 hr 02 min 04 sec)
Heartbeat CPU 0 instructions: 30500249 cycles: 7769189 heartbeat IPC: 3.922 cumulative IPC: 3.926 (Simulation time: 00 hr 02 min 06 sec)
Heartbeat CPU 0 instructions: 31000253 cycles: 7896457 heartbeat IPC: 3.929 cumulative IPC: 3.926 (Simulation time: 00 hr 02 min 08 sec)
Heartbeat CPU 0 instructions: 31500259 cycles: 8023948 heartbeat IPC: 3.922 cumulative IPC: 3.926 (Simulation time: 00 hr 02 min 10 sec)
Heartbeat CPU 0 instructions: 32000264 cycles: 8151225 heartbeat IPC: 3.928 cumulative IPC: 3.926 (Simulation time: 00 hr 02 min 12 sec)
Heartbeat CPU 0 instructions: 32500269 cycles: 8278706 heartbeat IPC: 3.922 cumulative IPC: 3.926 (Simulation time: 00 hr 02 min 14 sec)
Heartbeat CPU 0 instructions: 33000275 cycles: 8405987 heartbeat IPC: 3.928 cumulative IPC: 3.926 (Simulation time: 00 hr 02 min 16 sec)
Heartbeat CPU 0 instructions: 33500275 cycles: 8532588 heartbeat IPC: 3.949 cumulative IPC: 3.926 (Simulation time: 00 hr 02 min 18 sec)
Heartbeat CPU 0 instructions: 34000280 cycles: 8659035 heartbeat IPC: 3.954 cumulative IPC: 3.927 (Simulation time: 00 hr 02 min 20 sec)
Heartbeat CPU 0 instructions: 34500283 cycles: 8786683 heartbeat IPC: 3.917 cumulative IPC: 3.926 (Simulation time: 00 hr 02 min 22 sec)
Heartbeat CPU 0 instructions: 35000285 cycles: 8914124 heartbeat IPC: 3.923 cumulative IPC: 3.926 (Simulation time: 00 hr 02 min 24 sec)
Heartbeat CPU 0 instructions: 35500288 cycles: 9041772 heartbeat IPC: 3.917 cumulative IPC: 3.926 (Simulation time: 00 hr 02 min 26 sec)
Heartbeat CPU 0 instructions: 36000290 cycles: 9169423 heartbeat IPC: 3.917 cumulative IPC: 3.926 (Simulation time: 00 hr 02 min 28 sec)
Heartbeat CPU 0 instructions: 36500291 cycles: 9296859 heartbeat IPC: 3.924 cumulative IPC: 3.926 (Simulation time: 00 hr 02 min 30 sec)
Heartbeat CPU 0 instructions: 37000291 cycles: 9424694 heartbeat IPC: 3.911 cumulative IPC: 3.926 (Simulation time: 00 hr 02 min 32 sec)
Heartbeat CPU 0 instructions: 37500297 cycles: 9552160 heartbeat IPC: 3.923 cumulative IPC: 3.926 (Simulation time: 00 hr 02 min 34 sec)
Heartbeat CPU 0 instructions: 38000301 cycles: 9679316 heartbeat IPC: 3.932 cumulative IPC: 3.926 (Simulation time: 00 hr 02 min 36 sec)
Heartbeat CPU 0 instructions: 38500308 cycles: 9806815 heartbeat IPC: 3.922 cumulative IPC: 3.926 (Simulation time: 00 hr 02 min 38 sec)
Heartbeat CPU 0 instructions: 39000314 cycles: 9934186 heartbeat IPC: 3.926 cumulative IPC: 3.926 (Simulation time: 00 hr 02 min 40 sec)
Heartbeat CPU 0 instructions: 39500315 cycles: 10058632 heartbeat IPC: 4.018 cumulative IPC: 3.927 (Simulation time: 00 hr 02 min 42 sec)
Heartbeat CPU 0 instructions: 40000315 cycles: 10186257 heartbeat IPC: 3.918 cumulative IPC: 3.927 (Simulation time: 00 hr 02 min 44 sec)
Heartbeat CPU 0 instructions: 40500319 cycles: 10314100 heartbeat IPC: 3.911 cumulative IPC: 3.927 (Simulation time: 00 hr 02 min 46 sec)
Heartbeat CPU 0 instructions: 41000321 cycles: 10441113 heartbeat IPC: 3.937 cumulative IPC: 3.927 (Simulation time: 00 hr 02 min 48 sec)
Heartbeat CPU 0 instructions: 41500327 cycles: 10568614 heartbeat IPC: 3.922 cumulative IPC: 3.927 (Simulation time: 00 hr 02 min 50 sec)
Heartbeat CPU 0 instructions: 42000332 cycles: 10695891 heartbeat IPC: 3.928 cumulative IPC: 3.927 (Simulation time: 00 hr 02 min 52 sec)
Heartbeat CPU 0 instructions: 42500337 cycles: 10823362 heartbeat IPC: 3.923 cumulative IPC: 3.927 (Simulation time: 00 hr 02 min 54 sec)
Heartbeat CPU 0 instructions: 43000343 cycles: 10950643 heartbeat IPC: 3.928 cumulative IPC: 3.927 (Simulation time: 00 hr 02 min 56 sec)
Heartbeat CPU 0 instructions: 43500347 cycles: 11078124 heartbeat IPC: 3.922 cumulative IPC: 3.927 (Simulation time: 00 hr 02 min 58 sec)
Heartbeat CPU 0 instructions: 44000352 cycles: 11205608 heartbeat IPC: 3.922 cumulative IPC: 3.927 (Simulation time: 00 hr 03 min 00 sec)
Heartbeat CPU 0 instructions: 44500358 cycles: 11332889 heartbeat IPC: 3.928 cumulative IPC: 3.927 (Simulation time: 00 hr 03 min 02 sec)
Heartbeat CPU 0 instructions: 45000363 cycles: 11460376 heartbeat IPC: 3.922 cumulative IPC: 3.927 (Simulation time: 00 hr 03 min 04 sec)
Heartbeat CPU 0 instructions: 45500368 cycles: 11587657 heartbeat IPC: 3.928 cumulative IPC: 3.927 (Simulation time: 00 hr 03 min 06 sec)
Heartbeat CPU 0 instructions: 46000374 cycles: 11715138 heartbeat IPC: 3.922 cumulative IPC: 3.927 (Simulation time: 00 hr 03 min 08 sec)
Heartbeat CPU 0 instructions: 46500380 cycles: 11840643 heartbeat IPC: 3.984 cumulative IPC: 3.927 (Simulation time: 00 hr 03 min 10 sec)
Heartbeat CPU 0 instructions: 47000382 cycles: 11968294 heartbeat IPC: 3.917 cumulative IPC: 3.927 (Simulation time: 00 hr 03 min 12 sec)
Heartbeat CPU 0 instructions: 47500385 cycles: 12095732 heartbeat IPC: 3.924 cumulative IPC: 3.927 (Simulation time: 00 hr 03 min 14 sec)
Heartbeat CPU 0 instructions: 48000387 cycles: 12223383 heartbeat IPC: 3.917 cumulative IPC: 3.927 (Simulation time: 00 hr 03 min 16 sec)
Heartbeat CPU 0 instructions: 48500390 cycles: 12350821 heartbeat IPC: 3.924 cumulative IPC: 3.927 (Simulation time: 00 hr 03 min 18 sec)
Heartbeat CPU 0 instructions: 49000390 cycles: 12478381 heartbeat IPC: 3.92 cumulative IPC: 3.927 (Simulation time: 00 hr 03 min 20 sec)
Heartbeat CPU 0 instructions: 49500390 cycles: 12606004 heartbeat IPC: 3.918 cumulative IPC: 3.927 (Simulation time: 00 hr 03 min 22 sec)
Warmup finished CPU 0 instructions: 50000006 cycles: 12733557 cumulative IPC: 3.927 (Simulation time: 00 hr 03 min 24 sec)
Warmup complete CPU 0 instructions: 50000006 cycles: 12733557 cumulative IPC: 3.927 (Simulation time: 00 hr 03 min 24 sec)
Heartbeat CPU 0 instructions: 50000392 cycles: 12734251 heartbeat IPC: 3.899 cumulative IPC: 0.5562 (Simulation time: 00 hr 03 min 24 sec)
Heartbeat CPU 0 instructions: 50500397 cycles: 13539816 heartbeat IPC: 0.6207 cumulative IPC: 0.6206 (Simulation time: 00 hr 03 min 32 sec)
Heartbeat CPU 0 instructions: 51000397 cycles: 14343295 heartbeat IPC: 0.6223 cumulative IPC: 0.6215 (Simulation time: 00 hr 03 min 40 sec)
Heartbeat CPU 0 instructions: 51500401 cycles: 15144476 heartbeat IPC: 0.6241 cumulative IPC: 0.6223 (Simulation time: 00 hr 03 min 47 sec)
Heartbeat CPU 0 instructions: 52000405 cycles: 15947014 heartbeat IPC: 0.623 cumulative IPC: 0.6225 (Simulation time: 00 hr 03 min 55 sec)
Heartbeat CPU 0 instructions: 52500407 cycles: 16731274 heartbeat IPC: 0.6375 cumulative IPC: 0.6255 (Simulation time: 00 hr 04 min 02 sec)
Heartbeat CPU 0 instructions: 53000408 cycles: 17555295 heartbeat IPC: 0.6068 cumulative IPC: 0.6223 (Simulation time: 00 hr 04 min 10 sec)
Heartbeat CPU 0 instructions: 53500412 cycles: 18375280 heartbeat IPC: 0.6098 cumulative IPC: 0.6204 (Simulation time: 00 hr 04 min 17 sec)
Heartbeat CPU 0 instructions: 54000412 cycles: 19196727 heartbeat IPC: 0.6087 cumulative IPC: 0.619 (Simulation time: 00 hr 04 min 25 sec)
Heartbeat CPU 0 instructions: 54500416 cycles: 20018865 heartbeat IPC: 0.6082 cumulative IPC: 0.6177 (Simulation time: 00 hr 04 min 33 sec)
Heartbeat CPU 0 instructions: 55000416 cycles: 20840206 heartbeat IPC: 0.6088 cumulative IPC: 0.6168 (Simulation time: 00 hr 04 min 40 sec)
Heartbeat CPU 0 instructions: 55500416 cycles: 21662551 heartbeat IPC: 0.608 cumulative IPC: 0.616 (Simulation time: 00 hr 04 min 48 sec)
Heartbeat CPU 0 instructions: 56000416 cycles: 22483814 heartbeat IPC: 0.6088 cumulative IPC: 0.6154 (Simulation time: 00 hr 04 min 55 sec)
Heartbeat CPU 0 instructions: 56500421 cycles: 23306329 heartbeat IPC: 0.6079 cumulative IPC: 0.6148 (Simulation time: 00 hr 05 min 03 sec)
Heartbeat CPU 0 instructions: 57000422 cycles: 24127830 heartbeat IPC: 0.6086 cumulative IPC: 0.6144 (Simulation time: 00 hr 05 min 11 sec)
Heartbeat CPU 0 instructions: 57500422 cycles: 24949759 heartbeat IPC: 0.6083 cumulative IPC: 0.614 (Simulation time: 00 hr 05 min 18 sec)
Heartbeat CPU 0 instructions: 58000422 cycles: 25771042 heartbeat IPC: 0.6088 cumulative IPC: 0.6136 (Simulation time: 00 hr 05 min 26 sec)
Heartbeat CPU 0 instructions: 58500426 cycles: 26593424 heartbeat IPC: 0.608 cumulative IPC: 0.6133 (Simulation time: 00 hr 05 min 34 sec)
Heartbeat CPU 0 instructions: 59000430 cycles: 27397391 heartbeat IPC: 0.6219 cumulative IPC: 0.6138 (Simulation time: 00 hr 05 min 41 sec)
Heartbeat CPU 0 instructions: 59500430 cycles: 28228786 heartbeat IPC: 0.6014 cumulative IPC: 0.6131 (Simulation time: 00 hr 05 min 49 sec)
Heartbeat CPU 0 instructions: 60000433 cycles: 29059439 heartbeat IPC: 0.6019 cumulative IPC: 0.6126 (Simulation time: 00 hr 05 min 57 sec)
Heartbeat CPU 0 instructions: 60500438 cycles: 29890537 heartbeat IPC: 0.6016 cumulative IPC: 0.612 (Simulation time: 00 hr 06 min 05 sec)
Heartbeat CPU 0 instructions: 61000444 cycles: 30723768 heartbeat IPC: 0.6001 cumulative IPC: 0.6115 (Simulation time: 00 hr 06 min 13 sec)
Heartbeat CPU 0 instructions: 61500446 cycles: 31553284 heartbeat IPC: 0.6028 cumulative IPC: 0.6111 (Simulation time: 00 hr 06 min 21 sec)
Heartbeat CPU 0 instructions: 62000447 cycles: 32375195 heartbeat IPC: 0.6083 cumulative IPC: 0.611 (Simulation time: 00 hr 06 min 28 sec)
Heartbeat CPU 0 instructions: 62500447 cycles: 33200773 heartbeat IPC: 0.6056 cumulative IPC: 0.6108 (Simulation time: 00 hr 06 min 36 sec)
Heartbeat CPU 0 instructions: 63000449 cycles: 34023434 heartbeat IPC: 0.6078 cumulative IPC: 0.6106 (Simulation time: 00 hr 06 min 44 sec)
Heartbeat CPU 0 instructions: 63500449 cycles: 34844775 heartbeat IPC: 0.6088 cumulative IPC: 0.6106 (Simulation time: 00 hr 06 min 51 sec)
Heartbeat CPU 0 instructions: 64000453 cycles: 35666994 heartbeat IPC: 0.6081 cumulative IPC: 0.6105 (Simulation time: 00 hr 06 min 59 sec)
Heartbeat CPU 0 instructions: 64500453 cycles: 36489001 heartbeat IPC: 0.6083 cumulative IPC: 0.6104 (Simulation time: 00 hr 07 min 07 sec)
Heartbeat CPU 0 instructions: 65000455 cycles: 37268039 heartbeat IPC: 0.6418 cumulative IPC: 0.6114 (Simulation time: 00 hr 07 min 14 sec)
Heartbeat CPU 0 instructions: 65500455 cycles: 38092989 heartbeat IPC: 0.6061 cumulative IPC: 0.6112 (Simulation time: 00 hr 07 min 22 sec)
Heartbeat CPU 0 instructions: 66000456 cycles: 38916102 heartbeat IPC: 0.6075 cumulative IPC: 0.6111 (Simulation time: 00 hr 07 min 29 sec)
Heartbeat CPU 0 instructions: 66500457 cycles: 39738554 heartbeat IPC: 0.6079 cumulative IPC: 0.611 (Simulation time: 00 hr 07 min 37 sec)
Heartbeat CPU 0 instructions: 67000457 cycles: 40559355 heartbeat IPC: 0.6092 cumulative IPC: 0.611 (Simulation time: 00 hr 07 min 45 sec)
Heartbeat CPU 0 instructions: 67500461 cycles: 41381826 heartbeat IPC: 0.6079 cumulative IPC: 0.6109 (Simulation time: 00 hr 07 min 52 sec)
Heartbeat CPU 0 instructions: 68000461 cycles: 42203618 heartbeat IPC: 0.6084 cumulative IPC: 0.6108 (Simulation time: 00 hr 08 min 00 sec)
Heartbeat CPU 0 instructions: 68500461 cycles: 43025375 heartbeat IPC: 0.6085 cumulative IPC: 0.6107 (Simulation time: 00 hr 08 min 07 sec)
Heartbeat CPU 0 instructions: 69000463 cycles: 43846567 heartbeat IPC: 0.6089 cumulative IPC: 0.6107 (Simulation time: 00 hr 08 min 15 sec)
Heartbeat CPU 0 instructions: 69500464 cycles: 44669515 heartbeat IPC: 0.6076 cumulative IPC: 0.6106 (Simulation time: 00 hr 08 min 23 sec)
Heartbeat CPU 0 instructions: 70000467 cycles: 45490796 heartbeat IPC: 0.6088 cumulative IPC: 0.6106 (Simulation time: 00 hr 08 min 30 sec)
Heartbeat CPU 0 instructions: 70500467 cycles: 46312583 heartbeat IPC: 0.6084 cumulative IPC: 0.6105 (Simulation time: 00 hr 08 min 38 sec)
Heartbeat CPU 0 instructions: 71000467 cycles: 47133702 heartbeat IPC: 0.6089 cumulative IPC: 0.6105 (Simulation time: 00 hr 08 min 46 sec)
Heartbeat CPU 0 instructions: 71500467 cycles: 47956025 heartbeat IPC: 0.608 cumulative IPC: 0.6104 (Simulation time: 00 hr 08 min 53 sec)
Heartbeat CPU 0 instructions: 72000468 cycles: 48765992 heartbeat IPC: 0.6173 cumulative IPC: 0.6106 (Simulation time: 00 hr 09 min 01 sec)
Heartbeat CPU 0 instructions: 72500474 cycles: 49597584 heartbeat IPC: 0.6013 cumulative IPC: 0.6104 (Simulation time: 00 hr 09 min 09 sec)
Heartbeat CPU 0 instructions: 73000480 cycles: 50428781 heartbeat IPC: 0.6015 cumulative IPC: 0.6102 (Simulation time: 00 hr 09 min 17 sec)
Heartbeat CPU 0 instructions: 73500482 cycles: 51260099 heartbeat IPC: 0.6015 cumulative IPC: 0.61 (Simulation time: 00 hr 09 min 25 sec)
Heartbeat CPU 0 instructions: 74000488 cycles: 52090386 heartbeat IPC: 0.6022 cumulative IPC: 0.6098 (Simulation time: 00 hr 09 min 33 sec)
Heartbeat CPU 0 instructions: 74500488 cycles: 52918656 heartbeat IPC: 0.6037 cumulative IPC: 0.6097 (Simulation time: 00 hr 09 min 41 sec)
Heartbeat CPU 0 instructions: 75000488 cycles: 53744163 heartbeat IPC: 0.6057 cumulative IPC: 0.6096 (Simulation time: 00 hr 09 min 48 sec)
Heartbeat CPU 0 instructions: 75500490 cycles: 54567484 heartbeat IPC: 0.6073 cumulative IPC: 0.6096 (Simulation time: 00 hr 09 min 56 sec)
Heartbeat CPU 0 instructions: 76000494 cycles: 55389116 heartbeat IPC: 0.6085 cumulative IPC: 0.6095 (Simulation time: 00 hr 10 min 04 sec)
Heartbeat CPU 0 instructions: 76500498 cycles: 56211043 heartbeat IPC: 0.6083 cumulative IPC: 0.6095 (Simulation time: 00 hr 10 min 11 sec)
Heartbeat CPU 0 instructions: 77000498 cycles: 57032896 heartbeat IPC: 0.6084 cumulative IPC: 0.6095 (Simulation time: 00 hr 10 min 19 sec)
Heartbeat CPU 0 instructions: 77500499 cycles: 57820487 heartbeat IPC: 0.6348 cumulative IPC: 0.6099 (Simulation time: 00 hr 10 min 26 sec)
Heartbeat CPU 0 instructions: 78000503 cycles: 58636142 heartbeat IPC: 0.613 cumulative IPC: 0.61 (Simulation time: 00 hr 10 min 34 sec)
Heartbeat CPU 0 instructions: 78500503 cycles: 59460252 heartbeat IPC: 0.6067 cumulative IPC: 0.6099 (Simulation time: 00 hr 10 min 42 sec)
Heartbeat CPU 0 instructions: 79000509 cycles: 60282000 heartbeat IPC: 0.6085 cumulative IPC: 0.6099 (Simulation time: 00 hr 10 min 49 sec)
Heartbeat CPU 0 instructions: 79500509 cycles: 61103587 heartbeat IPC: 0.6086 cumulative IPC: 0.6099 (Simulation time: 00 hr 10 min 57 sec)
Heartbeat CPU 0 instructions: 80000509 cycles: 61925548 heartbeat IPC: 0.6083 cumulative IPC: 0.6099 (Simulation time: 00 hr 11 min 04 sec)
Heartbeat CPU 0 instructions: 80500511 cycles: 62747248 heartbeat IPC: 0.6085 cumulative IPC: 0.6098 (Simulation time: 00 hr 11 min 12 sec)
Heartbeat CPU 0 instructions: 81000512 cycles: 63569182 heartbeat IPC: 0.6083 cumulative IPC: 0.6098 (Simulation time: 00 hr 11 min 20 sec)
Heartbeat CPU 0 instructions: 81500515 cycles: 64390885 heartbeat IPC: 0.6085 cumulative IPC: 0.6098 (Simulation time: 00 hr 11 min 27 sec)
Heartbeat CPU 0 instructions: 82000515 cycles: 65213048 heartbeat IPC: 0.6082 cumulative IPC: 0.6098 (Simulation time: 00 hr 11 min 35 sec)
Heartbeat CPU 0 instructions: 82500515 cycles: 66034471 heartbeat IPC: 0.6087 cumulative IPC: 0.6098 (Simulation time: 00 hr 11 min 43 sec)
Heartbeat CPU 0 instructions: 83000519 cycles: 66856675 heartbeat IPC: 0.6081 cumulative IPC: 0.6097 (Simulation time: 00 hr 11 min 50 sec)
Heartbeat CPU 0 instructions: 83500519 cycles: 67677984 heartbeat IPC: 0.6088 cumulative IPC: 0.6097 (Simulation time: 00 hr 11 min 58 sec)
Heartbeat CPU 0 instructions: 84000519 cycles: 68499723 heartbeat IPC: 0.6085 cumulative IPC: 0.6097 (Simulation time: 00 hr 12 min 06 sec)
Heartbeat CPU 0 instructions: 84500521 cycles: 69306397 heartbeat IPC: 0.6198 cumulative IPC: 0.6098 (Simulation time: 00 hr 12 min 13 sec)
Heartbeat CPU 0 instructions: 85000522 cycles: 70138015 heartbeat IPC: 0.6012 cumulative IPC: 0.6097 (Simulation time: 00 hr 12 min 21 sec)
Heartbeat CPU 0 instructions: 85500522 cycles: 70969817 heartbeat IPC: 0.6011 cumulative IPC: 0.6096 (Simulation time: 00 hr 12 min 29 sec)
Heartbeat CPU 0 instructions: 86000523 cycles: 71800472 heartbeat IPC: 0.6019 cumulative IPC: 0.6095 (Simulation time: 00 hr 12 min 37 sec)
Heartbeat CPU 0 instructions: 86500526 cycles: 72631801 heartbeat IPC: 0.6015 cumulative IPC: 0.6094 (Simulation time: 00 hr 12 min 45 sec)
Heartbeat CPU 0 instructions: 87000528 cycles: 73461616 heartbeat IPC: 0.6025 cumulative IPC: 0.6093 (Simulation time: 00 hr 12 min 53 sec)
Heartbeat CPU 0 instructions: 87500529 cycles: 74286363 heartbeat IPC: 0.6062 cumulative IPC: 0.6092 (Simulation time: 00 hr 13 min 01 sec)
Heartbeat CPU 0 instructions: 88000529 cycles: 75111445 heartbeat IPC: 0.606 cumulative IPC: 0.6092 (Simulation time: 00 hr 13 min 09 sec)
Heartbeat CPU 0 instructions: 88500535 cycles: 75933200 heartbeat IPC: 0.6085 cumulative IPC: 0.6092 (Simulation time: 00 hr 13 min 16 sec)
Heartbeat CPU 0 instructions: 89000535 cycles: 76755161 heartbeat IPC: 0.6083 cumulative IPC: 0.6092 (Simulation time: 00 hr 13 min 24 sec)
Heartbeat CPU 0 instructions: 89500536 cycles: 77576426 heartbeat IPC: 0.6088 cumulative IPC: 0.6092 (Simulation time: 00 hr 13 min 32 sec)
Heartbeat CPU 0 instructions: 90000536 cycles: 78398683 heartbeat IPC: 0.6081 cumulative IPC: 0.6092 (Simulation time: 00 hr 13 min 39 sec)
Heartbeat CPU 0 instructions: 90500537 cycles: 79179005 heartbeat IPC: 0.6408 cumulative IPC: 0.6095 (Simulation time: 00 hr 13 min 47 sec)
Heartbeat CPU 0 instructions: 91000537 cycles: 80003085 heartbeat IPC: 0.6067 cumulative IPC: 0.6095 (Simulation time: 00 hr 13 min 54 sec)
Heartbeat CPU 0 instructions: 91500537 cycles: 80823148 heartbeat IPC: 0.6097 cumulative IPC: 0.6095 (Simulation time: 00 hr 14 min 02 sec)
Heartbeat CPU 0 instructions: 92000540 cycles: 81644446 heartbeat IPC: 0.6088 cumulative IPC: 0.6095 (Simulation time: 00 hr 14 min 10 sec)
Heartbeat CPU 0 instructions: 92500540 cycles: 82466887 heartbeat IPC: 0.6079 cumulative IPC: 0.6095 (Simulation time: 00 hr 14 min 17 sec)
Heartbeat CPU 0 instructions: 93000540 cycles: 83288124 heartbeat IPC: 0.6088 cumulative IPC: 0.6095 (Simulation time: 00 hr 14 min 25 sec)
Heartbeat CPU 0 instructions: 93500540 cycles: 84110685 heartbeat IPC: 0.6079 cumulative IPC: 0.6094 (Simulation time: 00 hr 14 min 32 sec)
Heartbeat CPU 0 instructions: 94000543 cycles: 84931816 heartbeat IPC: 0.6089 cumulative IPC: 0.6094 (Simulation time: 00 hr 14 min 40 sec)
Heartbeat CPU 0 instructions: 94500546 cycles: 85753957 heartbeat IPC: 0.6082 cumulative IPC: 0.6094 (Simulation time: 00 hr 14 min 48 sec)
Heartbeat CPU 0 instructions: 95000546 cycles: 86575840 heartbeat IPC: 0.6084 cumulative IPC: 0.6094 (Simulation time: 00 hr 14 min 55 sec)
Heartbeat CPU 0 instructions: 95500546 cycles: 87398093 heartbeat IPC: 0.6081 cumulative IPC: 0.6094 (Simulation time: 00 hr 15 min 03 sec)
Heartbeat CPU 0 instructions: 96000547 cycles: 88219520 heartbeat IPC: 0.6087 cumulative IPC: 0.6094 (Simulation time: 00 hr 15 min 11 sec)
Heartbeat CPU 0 instructions: 96500550 cycles: 89040376 heartbeat IPC: 0.6091 cumulative IPC: 0.6094 (Simulation time: 00 hr 15 min 19 sec)
Heartbeat CPU 0 instructions: 97000552 cycles: 89844077 heartbeat IPC: 0.6221 cumulative IPC: 0.6095 (Simulation time: 00 hr 15 min 26 sec)
Heartbeat CPU 0 instructions: 97500553 cycles: 90676052 heartbeat IPC: 0.601 cumulative IPC: 0.6094 (Simulation time: 00 hr 15 min 34 sec)
Heartbeat CPU 0 instructions: 98000560 cycles: 91506976 heartbeat IPC: 0.6017 cumulative IPC: 0.6093 (Simulation time: 00 hr 15 min 42 sec)
Heartbeat CPU 0 instructions: 98500562 cycles: 92338184 heartbeat IPC: 0.6015 cumulative IPC: 0.6093 (Simulation time: 00 hr 15 min 50 sec)
Heartbeat CPU 0 instructions: 99000568 cycles: 93171579 heartbeat IPC: 0.6 cumulative IPC: 0.6092 (Simulation time: 00 hr 15 min 58 sec)
Heartbeat CPU 0 instructions: 99500570 cycles: 94001063 heartbeat IPC: 0.6028 cumulative IPC: 0.6091 (Simulation time: 00 hr 16 min 06 sec)
Heartbeat CPU 0 instructions: 100000576 cycles: 94826665 heartbeat IPC: 0.6056 cumulative IPC: 0.6091 (Simulation time: 00 hr 16 min 14 sec)
Heartbeat CPU 0 instructions: 100500577 cycles: 95651356 heartbeat IPC: 0.6063 cumulative IPC: 0.609 (Simulation time: 00 hr 16 min 21 sec)
Heartbeat CPU 0 instructions: 101000579 cycles: 96474092 heartbeat IPC: 0.6077 cumulative IPC: 0.609 (Simulation time: 00 hr 16 min 29 sec)
Heartbeat CPU 0 instructions: 101500580 cycles: 97295424 heartbeat IPC: 0.6088 cumulative IPC: 0.609 (Simulation time: 00 hr 16 min 37 sec)
Heartbeat CPU 0 instructions: 102000580 cycles: 98117647 heartbeat IPC: 0.6081 cumulative IPC: 0.609 (Simulation time: 00 hr 16 min 45 sec)
Heartbeat CPU 0 instructions: 102500581 cycles: 98939504 heartbeat IPC: 0.6084 cumulative IPC: 0.609 (Simulation time: 00 hr 16 min 52 sec)
Heartbeat CPU 0 instructions: 103000585 cycles: 99722558 heartbeat IPC: 0.6385 cumulative IPC: 0.6093 (Simulation time: 00 hr 17 min 00 sec)
Heartbeat CPU 0 instructions: 103500585 cycles: 100546638 heartbeat IPC: 0.6067 cumulative IPC: 0.6093 (Simulation time: 00 hr 17 min 07 sec)
Heartbeat CPU 0 instructions: 104000588 cycles: 101367716 heartbeat IPC: 0.609 cumulative IPC: 0.6093 (Simulation time: 00 hr 17 min 15 sec)
Heartbeat CPU 0 instructions: 104500588 cycles: 102189737 heartbeat IPC: 0.6083 cumulative IPC: 0.6092 (Simulation time: 00 hr 17 min 23 sec)
Heartbeat CPU 0 instructions: 105000592 cycles: 103010769 heartbeat IPC: 0.609 cumulative IPC: 0.6092 (Simulation time: 00 hr 17 min 30 sec)
Heartbeat CPU 0 instructions: 105500592 cycles: 103832536 heartbeat IPC: 0.6084 cumulative IPC: 0.6092 (Simulation time: 00 hr 17 min 38 sec)
Heartbeat CPU 0 instructions: 106000592 cycles: 104654583 heartbeat IPC: 0.6082 cumulative IPC: 0.6092 (Simulation time: 00 hr 17 min 45 sec)
Heartbeat CPU 0 instructions: 106500592 cycles: 105475856 heartbeat IPC: 0.6088 cumulative IPC: 0.6092 (Simulation time: 00 hr 17 min 53 sec)
Heartbeat CPU 0 instructions: 107000593 cycles: 106298338 heartbeat IPC: 0.6079 cumulative IPC: 0.6092 (Simulation time: 00 hr 18 min 01 sec)
Heartbeat CPU 0 instructions: 107500598 cycles: 107119658 heartbeat IPC: 0.6088 cumulative IPC: 0.6092 (Simulation time: 00 hr 18 min 08 sec)
Heartbeat CPU 0 instructions: 108000598 cycles: 107941919 heartbeat IPC: 0.6081 cumulative IPC: 0.6092 (Simulation time: 00 hr 18 min 16 sec)
Heartbeat CPU 0 instructions: 108500598 cycles: 108763208 heartbeat IPC: 0.6088 cumulative IPC: 0.6092 (Simulation time: 00 hr 18 min 24 sec)
Heartbeat CPU 0 instructions: 109000598 cycles: 109584073 heartbeat IPC: 0.6091 cumulative IPC: 0.6092 (Simulation time: 00 hr 18 min 32 sec)
Heartbeat CPU 0 instructions: 109500602 cycles: 110406325 heartbeat IPC: 0.6081 cumulative IPC: 0.6092 (Simulation time: 00 hr 18 min 45 sec)
Heartbeat CPU 0 instructions: 110000606 cycles: 111216036 heartbeat IPC: 0.6175 cumulative IPC: 0.6093 (Simulation time: 00 hr 18 min 59 sec)
Heartbeat CPU 0 instructions: 110500609 cycles: 112047627 heartbeat IPC: 0.6013 cumulative IPC: 0.6092 (Simulation time: 00 hr 19 min 13 sec)
Heartbeat CPU 0 instructions: 111000614 cycles: 112879059 heartbeat IPC: 0.6014 cumulative IPC: 0.6091 (Simulation time: 00 hr 19 min 28 sec)
Heartbeat CPU 0 instructions: 111500620 cycles: 113710408 heartbeat IPC: 0.6014 cumulative IPC: 0.6091 (Simulation time: 00 hr 19 min 42 sec)
Heartbeat CPU 0 instructions: 112000626 cycles: 114542203 heartbeat IPC: 0.6011 cumulative IPC: 0.609 (Simulation time: 00 hr 19 min 57 sec)
Heartbeat CPU 0 instructions: 112500631 cycles: 115369897 heartbeat IPC: 0.6041 cumulative IPC: 0.609 (Simulation time: 00 hr 20 min 11 sec)
Heartbeat CPU 0 instructions: 113000632 cycles: 116194764 heartbeat IPC: 0.6062 cumulative IPC: 0.6089 (Simulation time: 00 hr 20 min 24 sec)
Heartbeat CPU 0 instructions: 113500632 cycles: 117018245 heartbeat IPC: 0.6072 cumulative IPC: 0.6089 (Simulation time: 00 hr 20 min 32 sec)
Heartbeat CPU 0 instructions: 114000632 cycles: 117839696 heartbeat IPC: 0.6087 cumulative IPC: 0.6089 (Simulation time: 00 hr 20 min 39 sec)
Heartbeat CPU 0 instructions: 114500636 cycles: 118662045 heartbeat IPC: 0.608 cumulative IPC: 0.6089 (Simulation time: 00 hr 20 min 47 sec)
Heartbeat CPU 0 instructions: 115000636 cycles: 119483580 heartbeat IPC: 0.6086 cumulative IPC: 0.6089 (Simulation time: 00 hr 20 min 55 sec)
Heartbeat CPU 0 instructions: 115500636 cycles: 120285417 heartbeat IPC: 0.6236 cumulative IPC: 0.609 (Simulation time: 00 hr 21 min 02 sec)
Heartbeat CPU 0 instructions: 116000640 cycles: 121089294 heartbeat IPC: 0.622 cumulative IPC: 0.6091 (Simulation time: 00 hr 21 min 10 sec)
Heartbeat CPU 0 instructions: 116500640 cycles: 121914228 heartbeat IPC: 0.6061 cumulative IPC: 0.6091 (Simulation time: 00 hr 21 min 17 sec)
Heartbeat CPU 0 instructions: 117000640 cycles: 122732445 heartbeat IPC: 0.6111 cumulative IPC: 0.6091 (Simulation time: 00 hr 21 min 25 sec)
Heartbeat CPU 0 instructions: 117500640 cycles: 123554786 heartbeat IPC: 0.608 cumulative IPC: 0.6091 (Simulation time: 00 hr 21 min 33 sec)
Heartbeat CPU 0 instructions: 118000640 cycles: 124377923 heartbeat IPC: 0.6074 cumulative IPC: 0.6091 (Simulation time: 00 hr 21 min 40 sec)
Heartbeat CPU 0 instructions: 118500644 cycles: 125198495 heartbeat IPC: 0.6093 cumulative IPC: 0.6091 (Simulation time: 00 hr 21 min 48 sec)
Heartbeat CPU 0 instructions: 119000644 cycles: 126019884 heartbeat IPC: 0.6087 cumulative IPC: 0.6091 (Simulation time: 00 hr 21 min 55 sec)
Heartbeat CPU 0 instructions: 119500646 cycles: 126843308 heartbeat IPC: 0.6072 cumulative IPC: 0.6091 (Simulation time: 00 hr 22 min 03 sec)
Heartbeat CPU 0 instructions: 120000646 cycles: 127664005 heartbeat IPC: 0.6092 cumulative IPC: 0.6091 (Simulation time: 00 hr 22 min 10 sec)
Heartbeat CPU 0 instructions: 120500650 cycles: 128485827 heartbeat IPC: 0.6084 cumulative IPC: 0.6091 (Simulation time: 00 hr 22 min 18 sec)
Heartbeat CPU 0 instructions: 121000650 cycles: 129307000 heartbeat IPC: 0.6089 cumulative IPC: 0.6091 (Simulation time: 00 hr 22 min 26 sec)
Heartbeat CPU 0 instructions: 121500650 cycles: 130128095 heartbeat IPC: 0.6089 cumulative IPC: 0.6091 (Simulation time: 00 hr 22 min 33 sec)
Heartbeat CPU 0 instructions: 122000650 cycles: 130950326 heartbeat IPC: 0.6081 cumulative IPC: 0.6091 (Simulation time: 00 hr 22 min 41 sec)
Heartbeat CPU 0 instructions: 122500655 cycles: 131757235 heartbeat IPC: 0.6197 cumulative IPC: 0.6091 (Simulation time: 00 hr 22 min 48 sec)
Heartbeat CPU 0 instructions: 123000657 cycles: 132587765 heartbeat IPC: 0.602 cumulative IPC: 0.6091 (Simulation time: 00 hr 22 min 56 sec)
Heartbeat CPU 0 instructions: 123500663 cycles: 133419706 heartbeat IPC: 0.601 cumulative IPC: 0.609 (Simulation time: 00 hr 23 min 04 sec)
Heartbeat CPU 0 instructions: 124000668 cycles: 134251112 heartbeat IPC: 0.6014 cumulative IPC: 0.609 (Simulation time: 00 hr 23 min 12 sec)
Heartbeat CPU 0 instructions: 124500671 cycles: 135082307 heartbeat IPC: 0.6015 cumulative IPC: 0.6089 (Simulation time: 00 hr 23 min 20 sec)
Heartbeat CPU 0 instructions: 125000671 cycles: 135912592 heartbeat IPC: 0.6022 cumulative IPC: 0.6089 (Simulation time: 00 hr 23 min 27 sec)
Heartbeat CPU 0 instructions: 125500671 cycles: 136736902 heartbeat IPC: 0.6066 cumulative IPC: 0.6089 (Simulation time: 00 hr 23 min 35 sec)
Heartbeat CPU 0 instructions: 126000673 cycles: 137561926 heartbeat IPC: 0.606 cumulative IPC: 0.6088 (Simulation time: 00 hr 23 min 43 sec)
Heartbeat CPU 0 instructions: 126500680 cycles: 138383842 heartbeat IPC: 0.6083 cumulative IPC: 0.6088 (Simulation time: 00 hr 23 min 50 sec)
Heartbeat CPU 0 instructions: 127000684 cycles: 139206099 heartbeat IPC: 0.6081 cumulative IPC: 0.6088 (Simulation time: 00 hr 23 min 58 sec)
Heartbeat CPU 0 instructions: 127500688 cycles: 140027054 heartbeat IPC: 0.6091 cumulative IPC: 0.6088 (Simulation time: 00 hr 24 min 06 sec)
Heartbeat CPU 0 instructions: 128000688 cycles: 140849375 heartbeat IPC: 0.608 cumulative IPC: 0.6088 (Simulation time: 00 hr 24 min 13 sec)
Heartbeat CPU 0 instructions: 128500688 cycles: 141632523 heartbeat IPC: 0.6384 cumulative IPC: 0.609 (Simulation time: 00 hr 24 min 21 sec)
Heartbeat CPU 0 instructions: 129000688 cycles: 142457443 heartbeat IPC: 0.6061 cumulative IPC: 0.609 (Simulation time: 00 hr 24 min 28 sec)
Heartbeat CPU 0 instructions: 129500692 cycles: 143276871 heartbeat IPC: 0.6102 cumulative IPC: 0.609 (Simulation time: 00 hr 24 min 36 sec)
Heartbeat CPU 0 instructions: 130000692 cycles: 144099124 heartbeat IPC: 0.6081 cumulative IPC: 0.609 (Simulation time: 00 hr 24 min 43 sec)
Heartbeat CPU 0 instructions: 130500692 cycles: 144920545 heartbeat IPC: 0.6087 cumulative IPC: 0.609 (Simulation time: 00 hr 24 min 51 sec)
Heartbeat CPU 0 instructions: 131000692 cycles: 145742586 heartbeat IPC: 0.6082 cumulative IPC: 0.609 (Simulation time: 00 hr 24 min 58 sec)
Heartbeat CPU 0 instructions: 131500696 cycles: 146564392 heartbeat IPC: 0.6084 cumulative IPC: 0.609 (Simulation time: 00 hr 25 min 06 sec)
Heartbeat CPU 0 instructions: 132000696 cycles: 147386737 heartbeat IPC: 0.608 cumulative IPC: 0.609 (Simulation time: 00 hr 25 min 13 sec)
Heartbeat CPU 0 instructions: 132500698 cycles: 148207497 heartbeat IPC: 0.6092 cumulative IPC: 0.609 (Simulation time: 00 hr 25 min 21 sec)
Heartbeat CPU 0 instructions: 133000698 cycles: 149029756 heartbeat IPC: 0.6081 cumulative IPC: 0.609 (Simulation time: 00 hr 25 min 28 sec)
Heartbeat CPU 0 instructions: 133500700 cycles: 149851208 heartbeat IPC: 0.6087 cumulative IPC: 0.609 (Simulation time: 00 hr 25 min 36 sec)
Heartbeat CPU 0 instructions: 134000701 cycles: 150673782 heartbeat IPC: 0.6078 cumulative IPC: 0.609 (Simulation time: 00 hr 25 min 43 sec)
Heartbeat CPU 0 instructions: 134500702 cycles: 151494374 heartbeat IPC: 0.6093 cumulative IPC: 0.609 (Simulation time: 00 hr 25 min 51 sec)
Heartbeat CPU 0 instructions: 135000707 cycles: 152297846 heartbeat IPC: 0.6223 cumulative IPC: 0.609 (Simulation time: 00 hr 25 min 58 sec)
Heartbeat CPU 0 instructions: 135500713 cycles: 153129135 heartbeat IPC: 0.6015 cumulative IPC: 0.609 (Simulation time: 00 hr 26 min 06 sec)
Heartbeat CPU 0 instructions: 136000715 cycles: 153959805 heartbeat IPC: 0.6019 cumulative IPC: 0.609 (Simulation time: 00 hr 26 min 14 sec)
Heartbeat CPU 0 instructions: 136500721 cycles: 154791816 heartbeat IPC: 0.601 cumulative IPC: 0.6089 (Simulation time: 00 hr 26 min 21 sec)
Heartbeat CPU 0 instructions: 137000722 cycles: 155623235 heartbeat IPC: 0.6014 cumulative IPC: 0.6089 (Simulation time: 00 hr 26 min 29 sec)
Heartbeat CPU 0 instructions: 137500722 cycles: 156454284 heartbeat IPC: 0.6016 cumulative IPC: 0.6088 (Simulation time: 00 hr 26 min 37 sec)
Heartbeat CPU 0 instructions: 138000727 cycles: 157280057 heartbeat IPC: 0.6055 cumulative IPC: 0.6088 (Simulation time: 00 hr 26 min 44 sec)
Heartbeat CPU 0 instructions: 138500728 cycles: 158105596 heartbeat IPC: 0.6057 cumulative IPC: 0.6088 (Simulation time: 00 hr 26 min 52 sec)
Heartbeat CPU 0 instructions: 139000732 cycles: 158928025 heartbeat IPC: 0.608 cumulative IPC: 0.6088 (Simulation time: 00 hr 26 min 59 sec)
Heartbeat CPU 0 instructions: 139500732 cycles: 159749736 heartbeat IPC: 0.6085 cumulative IPC: 0.6088 (Simulation time: 00 hr 27 min 07 sec)
Heartbeat CPU 0 instructions: 140000733 cycles: 160571085 heartbeat IPC: 0.6088 cumulative IPC: 0.6088 (Simulation time: 00 hr 27 min 14 sec)
Heartbeat CPU 0 instructions: 140500733 cycles: 161393806 heartbeat IPC: 0.6077 cumulative IPC: 0.6088 (Simulation time: 00 hr 27 min 22 sec)
Heartbeat CPU 0 instructions: 141000735 cycles: 162173078 heartbeat IPC: 0.6416 cumulative IPC: 0.6089 (Simulation time: 00 hr 27 min 29 sec)
Heartbeat CPU 0 instructions: 141500736 cycles: 162998524 heartbeat IPC: 0.6057 cumulative IPC: 0.6089 (Simulation time: 00 hr 27 min 36 sec)
Heartbeat CPU 0 instructions: 142000740 cycles: 163818178 heartbeat IPC: 0.61 cumulative IPC: 0.6089 (Simulation time: 00 hr 27 min 44 sec)
Heartbeat CPU 0 instructions: 142500744 cycles: 164639166 heartbeat IPC: 0.609 cumulative IPC: 0.6089 (Simulation time: 00 hr 27 min 51 sec)
Heartbeat CPU 0 instructions: 143000744 cycles: 165461697 heartbeat IPC: 0.6079 cumulative IPC: 0.6089 (Simulation time: 00 hr 27 min 58 sec)
Heartbeat CPU 0 instructions: 143500744 cycles: 166283144 heartbeat IPC: 0.6087 cumulative IPC: 0.6089 (Simulation time: 00 hr 28 min 06 sec)
Heartbeat CPU 0 instructions: 144000744 cycles: 167105135 heartbeat IPC: 0.6083 cumulative IPC: 0.6089 (Simulation time: 00 hr 28 min 13 sec)
Heartbeat CPU 0 instructions: 144500747 cycles: 167926789 heartbeat IPC: 0.6085 cumulative IPC: 0.6089 (Simulation time: 00 hr 28 min 20 sec)
Heartbeat CPU 0 instructions: 145000750 cycles: 168748971 heartbeat IPC: 0.6081 cumulative IPC: 0.6089 (Simulation time: 00 hr 28 min 28 sec)
Heartbeat CPU 0 instructions: 145500750 cycles: 169570426 heartbeat IPC: 0.6087 cumulative IPC: 0.6089 (Simulation time: 00 hr 28 min 35 sec)
Heartbeat CPU 0 instructions: 146000750 cycles: 170392363 heartbeat IPC: 0.6083 cumulative IPC: 0.6089 (Simulation time: 00 hr 28 min 43 sec)
Heartbeat CPU 0 instructions: 146500751 cycles: 171213713 heartbeat IPC: 0.6088 cumulative IPC: 0.6089 (Simulation time: 00 hr 28 min 50 sec)
Heartbeat CPU 0 instructions: 147000754 cycles: 172035596 heartbeat IPC: 0.6084 cumulative IPC: 0.6089 (Simulation time: 00 hr 28 min 57 sec)
Heartbeat CPU 0 instructions: 147500754 cycles: 172857047 heartbeat IPC: 0.6087 cumulative IPC: 0.6089 (Simulation time: 00 hr 29 min 05 sec)
Heartbeat CPU 0 instructions: 148000755 cycles: 173667237 heartbeat IPC: 0.6171 cumulative IPC: 0.609 (Simulation time: 00 hr 29 min 12 sec)
Heartbeat CPU 0 instructions: 148500756 cycles: 174498092 heartbeat IPC: 0.6018 cumulative IPC: 0.6089 (Simulation time: 00 hr 29 min 20 sec)
Heartbeat CPU 0 instructions: 149000759 cycles: 175329231 heartbeat IPC: 0.6016 cumulative IPC: 0.6089 (Simulation time: 00 hr 29 min 27 sec)
Heartbeat CPU 0 instructions: 149500765 cycles: 176160334 heartbeat IPC: 0.6016 cumulative IPC: 0.6088 (Simulation time: 00 hr 29 min 35 sec)
Heartbeat CPU 0 instructions: 150000768 cycles: 176992177 heartbeat IPC: 0.6011 cumulative IPC: 0.6088 (Simulation time: 00 hr 29 min 44 sec)
Heartbeat CPU 0 instructions: 150500769 cycles: 177819855 heartbeat IPC: 0.6041 cumulative IPC: 0.6088 (Simulation time: 00 hr 29 min 53 sec)
Heartbeat CPU 0 instructions: 151000770 cycles: 178642820 heartbeat IPC: 0.6076 cumulative IPC: 0.6088 (Simulation time: 00 hr 30 min 01 sec)
Heartbeat CPU 0 instructions: 151500774 cycles: 179465645 heartbeat IPC: 0.6077 cumulative IPC: 0.6088 (Simulation time: 00 hr 30 min 10 sec)
Heartbeat CPU 0 instructions: 152000774 cycles: 180288023 heartbeat IPC: 0.608 cumulative IPC: 0.6088 (Simulation time: 00 hr 30 min 19 sec)
Heartbeat CPU 0 instructions: 152500774 cycles: 181111515 heartbeat IPC: 0.6072 cumulative IPC: 0.6088 (Simulation time: 00 hr 30 min 27 sec)
Heartbeat CPU 0 instructions: 153000774 cycles: 181934777 heartbeat IPC: 0.6073 cumulative IPC: 0.6087 (Simulation time: 00 hr 30 min 36 sec)
Heartbeat CPU 0 instructions: 153500779 cycles: 182757325 heartbeat IPC: 0.6079 cumulative IPC: 0.6087 (Simulation time: 00 hr 30 min 45 sec)
Heartbeat CPU 0 instructions: 154000779 cycles: 183581033 heartbeat IPC: 0.607 cumulative IPC: 0.6087 (Simulation time: 00 hr 30 min 54 sec)
Heartbeat CPU 0 instructions: 154500779 cycles: 184403335 heartbeat IPC: 0.608 cumulative IPC: 0.6087 (Simulation time: 00 hr 31 min 02 sec)
Heartbeat CPU 0 instructions: 155000779 cycles: 185226293 heartbeat IPC: 0.6076 cumulative IPC: 0.6087 (Simulation time: 00 hr 31 min 11 sec)
Heartbeat CPU 0 instructions: 155500784 cycles: 186050145 heartbeat IPC: 0.6069 cumulative IPC: 0.6087 (Simulation time: 00 hr 31 min 20 sec)
Heartbeat CPU 0 instructions: 156000784 cycles: 186872263 heartbeat IPC: 0.6082 cumulative IPC: 0.6087 (Simulation time: 00 hr 31 min 28 sec)
Heartbeat CPU 0 instructions: 156500784 cycles: 187695425 heartbeat IPC: 0.6074 cumulative IPC: 0.6087 (Simulation time: 00 hr 31 min 37 sec)
Heartbeat CPU 0 instructions: 157000784 cycles: 188518863 heartbeat IPC: 0.6072 cumulative IPC: 0.6087 (Simulation time: 00 hr 31 min 46 sec)
Heartbeat CPU 0 instructions: 157500791 cycles: 189341304 heartbeat IPC: 0.608 cumulative IPC: 0.6087 (Simulation time: 00 hr 31 min 55 sec)
Heartbeat CPU 0 instructions: 158000796 cycles: 190164144 heartbeat IPC: 0.6077 cumulative IPC: 0.6087 (Simulation time: 00 hr 32 min 03 sec)
Heartbeat CPU 0 instructions: 158500796 cycles: 190987706 heartbeat IPC: 0.6071 cumulative IPC: 0.6087 (Simulation time: 00 hr 32 min 12 sec)
Heartbeat CPU 0 instructions: 159000796 cycles: 191810704 heartbeat IPC: 0.6075 cumulative IPC: 0.6087 (Simulation time: 00 hr 32 min 21 sec)
Heartbeat CPU 0 instructions: 159500796 cycles: 192632816 heartbeat IPC: 0.6082 cumulative IPC: 0.6087 (Simulation time: 00 hr 32 min 29 sec)
Heartbeat CPU 0 instructions: 160000801 cycles: 193456502 heartbeat IPC: 0.607 cumulative IPC: 0.6087 (Simulation time: 00 hr 32 min 38 sec)
Heartbeat CPU 0 instructions: 160500801 cycles: 194278726 heartbeat IPC: 0.6081 cumulative IPC: 0.6087 (Simulation time: 00 hr 32 min 47 sec)
Heartbeat CPU 0 instructions: 161000801 cycles: 195102014 heartbeat IPC: 0.6073 cumulative IPC: 0.6087 (Simulation time: 00 hr 32 min 56 sec)
Heartbeat CPU 0 instructions: 161500801 cycles: 195925554 heartbeat IPC: 0.6071 cumulative IPC: 0.6087 (Simulation time: 00 hr 33 min 04 sec)
Heartbeat CPU 0 instructions: 162000806 cycles: 196747918 heartbeat IPC: 0.608 cumulative IPC: 0.6087 (Simulation time: 00 hr 33 min 13 sec)
Heartbeat CPU 0 instructions: 162500806 cycles: 197571206 heartbeat IPC: 0.6073 cumulative IPC: 0.6086 (Simulation time: 00 hr 33 min 22 sec)
Heartbeat CPU 0 instructions: 163000806 cycles: 198394158 heartbeat IPC: 0.6076 cumulative IPC: 0.6086 (Simulation time: 00 hr 33 min 30 sec)
Heartbeat CPU 0 instructions: 163500806 cycles: 199217316 heartbeat IPC: 0.6074 cumulative IPC: 0.6086 (Simulation time: 00 hr 33 min 39 sec)
Heartbeat CPU 0 instructions: 164000811 cycles: 200039574 heartbeat IPC: 0.6081 cumulative IPC: 0.6086 (Simulation time: 00 hr 33 min 48 sec)
Heartbeat CPU 0 instructions: 164500811 cycles: 200862968 heartbeat IPC: 0.6072 cumulative IPC: 0.6086 (Simulation time: 00 hr 33 min 57 sec)
Heartbeat CPU 0 instructions: 165000811 cycles: 201686336 heartbeat IPC: 0.6073 cumulative IPC: 0.6086 (Simulation time: 00 hr 34 min 05 sec)
Heartbeat CPU 0 instructions: 165500811 cycles: 202508946 heartbeat IPC: 0.6078 cumulative IPC: 0.6086 (Simulation time: 00 hr 34 min 14 sec)
Heartbeat CPU 0 instructions: 166000813 cycles: 203332446 heartbeat IPC: 0.6072 cumulative IPC: 0.6086 (Simulation time: 00 hr 34 min 23 sec)
Heartbeat CPU 0 instructions: 166500816 cycles: 204155268 heartbeat IPC: 0.6077 cumulative IPC: 0.6086 (Simulation time: 00 hr 34 min 32 sec)
Heartbeat CPU 0 instructions: 167000816 cycles: 204977948 heartbeat IPC: 0.6078 cumulative IPC: 0.6086 (Simulation time: 00 hr 34 min 40 sec)
Heartbeat CPU 0 instructions: 167500816 cycles: 205800126 heartbeat IPC: 0.6081 cumulative IPC: 0.6086 (Simulation time: 00 hr 34 min 49 sec)
Heartbeat CPU 0 instructions: 168000816 cycles: 206623636 heartbeat IPC: 0.6072 cumulative IPC: 0.6086 (Simulation time: 00 hr 34 min 58 sec)
Heartbeat CPU 0 instructions: 168500821 cycles: 207446866 heartbeat IPC: 0.6074 cumulative IPC: 0.6086 (Simulation time: 00 hr 35 min 06 sec)
Heartbeat CPU 0 instructions: 169000821 cycles: 208269234 heartbeat IPC: 0.608 cumulative IPC: 0.6086 (Simulation time: 00 hr 35 min 15 sec)
Heartbeat CPU 0 instructions: 169500821 cycles: 209092924 heartbeat IPC: 0.607 cumulative IPC: 0.6086 (Simulation time: 00 hr 35 min 24 sec)
Heartbeat CPU 0 instructions: 170000821 cycles: 209915504 heartbeat IPC: 0.6078 cumulative IPC: 0.6086 (Simulation time: 00 hr 35 min 33 sec)
Heartbeat CPU 0 instructions: 170500826 cycles: 210738426 heartbeat IPC: 0.6076 cumulative IPC: 0.6086 (Simulation time: 00 hr 35 min 41 sec)
Heartbeat CPU 0 instructions: 171000826 cycles: 211562188 heartbeat IPC: 0.607 cumulative IPC: 0.6086 (Simulation time: 00 hr 35 min 50 sec)
Heartbeat CPU 0 instructions: 171500826 cycles: 212384250 heartbeat IPC: 0.6082 cumulative IPC: 0.6086 (Simulation time: 00 hr 35 min 59 sec)
Heartbeat CPU 0 instructions: 172000826 cycles: 213207574 heartbeat IPC: 0.6073 cumulative IPC: 0.6086 (Simulation time: 00 hr 36 min 08 sec)
Heartbeat CPU 0 instructions: 172500831 cycles: 214030532 heartbeat IPC: 0.6076 cumulative IPC: 0.6086 (Simulation time: 00 hr 36 min 16 sec)
Heartbeat CPU 0 instructions: 173000831 cycles: 214853714 heartbeat IPC: 0.6074 cumulative IPC: 0.6086 (Simulation time: 00 hr 36 min 25 sec)
Heartbeat CPU 0 instructions: 173500831 cycles: 215676206 heartbeat IPC: 0.6079 cumulative IPC: 0.6086 (Simulation time: 00 hr 36 min 34 sec)
Heartbeat CPU 0 instructions: 174000831 cycles: 216499278 heartbeat IPC: 0.6075 cumulative IPC: 0.6085 (Simulation time: 00 hr 36 min 43 sec)
Heartbeat CPU 0 instructions: 174500831 cycles: 217322576 heartbeat IPC: 0.6073 cumulative IPC: 0.6085 (Simulation time: 00 hr 36 min 51 sec)
Heartbeat CPU 0 instructions: 175000836 cycles: 218144964 heartbeat IPC: 0.608 cumulative IPC: 0.6085 (Simulation time: 00 hr 37 min 00 sec)
Heartbeat CPU 0 instructions: 175500836 cycles: 218968966 heartbeat IPC: 0.6068 cumulative IPC: 0.6085 (Simulation time: 00 hr 37 min 09 sec)
Heartbeat CPU 0 instructions: 176000836 cycles: 219791108 heartbeat IPC: 0.6082 cumulative IPC: 0.6085 (Simulation time: 00 hr 37 min 17 sec)
Heartbeat CPU 0 instructions: 176500836 cycles: 220614086 heartbeat IPC: 0.6075 cumulative IPC: 0.6085 (Simulation time: 00 hr 37 min 26 sec)
Heartbeat CPU 0 instructions: 177000841 cycles: 221438074 heartbeat IPC: 0.6068 cumulative IPC: 0.6085 (Simulation time: 00 hr 37 min 35 sec)
Heartbeat CPU 0 instructions: 177500841 cycles: 222260018 heartbeat IPC: 0.6083 cumulative IPC: 0.6085 (Simulation time: 00 hr 37 min 44 sec)
Heartbeat CPU 0 instructions: 178000841 cycles: 223083304 heartbeat IPC: 0.6073 cumulative IPC: 0.6085 (Simulation time: 00 hr 37 min 52 sec)
Heartbeat CPU 0 instructions: 178500841 cycles: 223906196 heartbeat IPC: 0.6076 cumulative IPC: 0.6085 (Simulation time: 00 hr 38 min 01 sec)
Heartbeat CPU 0 instructions: 179000846 cycles: 224729168 heartbeat IPC: 0.6076 cumulative IPC: 0.6085 (Simulation time: 00 hr 38 min 10 sec)
Heartbeat CPU 0 instructions: 179500846 cycles: 225551500 heartbeat IPC: 0.608 cumulative IPC: 0.6085 (Simulation time: 00 hr 38 min 19 sec)
Heartbeat CPU 0 instructions: 180000846 cycles: 226375108 heartbeat IPC: 0.6071 cumulative IPC: 0.6085 (Simulation time: 00 hr 38 min 27 sec)
Heartbeat CPU 0 instructions: 180500846 cycles: 227198550 heartbeat IPC: 0.6072 cumulative IPC: 0.6085 (Simulation time: 00 hr 38 min 36 sec)
Heartbeat CPU 0 instructions: 181000847 cycles: 228020684 heartbeat IPC: 0.6082 cumulative IPC: 0.6085 (Simulation time: 00 hr 38 min 45 sec)
Heartbeat CPU 0 instructions: 181500851 cycles: 228844222 heartbeat IPC: 0.6071 cumulative IPC: 0.6085 (Simulation time: 00 hr 38 min 54 sec)
Heartbeat CPU 0 instructions: 182000851 cycles: 229666886 heartbeat IPC: 0.6078 cumulative IPC: 0.6085 (Simulation time: 00 hr 39 min 02 sec)
Heartbeat CPU 0 instructions: 182500851 cycles: 230489896 heartbeat IPC: 0.6075 cumulative IPC: 0.6085 (Simulation time: 00 hr 39 min 11 sec)
Heartbeat CPU 0 instructions: 183000857 cycles: 231313360 heartbeat IPC: 0.6072 cumulative IPC: 0.6085 (Simulation time: 00 hr 39 min 20 sec)
Heartbeat CPU 0 instructions: 183500863 cycles: 232135855 heartbeat IPC: 0.6079 cumulative IPC: 0.6085 (Simulation time: 00 hr 39 min 29 sec)
Heartbeat CPU 0 instructions: 184000863 cycles: 232959025 heartbeat IPC: 0.6074 cumulative IPC: 0.6085 (Simulation time: 00 hr 39 min 37 sec)
Heartbeat CPU 0 instructions: 184500863 cycles: 233781867 heartbeat IPC: 0.6077 cumulative IPC: 0.6085 (Simulation time: 00 hr 39 min 46 sec)
Heartbeat CPU 0 instructions: 185000866 cycles: 234605161 heartbeat IPC: 0.6073 cumulative IPC: 0.6085 (Simulation time: 00 hr 39 min 55 sec)
Heartbeat CPU 0 instructions: 185500868 cycles: 235427537 heartbeat IPC: 0.608 cumulative IPC: 0.6085 (Simulation time: 00 hr 40 min 04 sec)
Heartbeat CPU 0 instructions: 186000868 cycles: 236250515 heartbeat IPC: 0.6075 cumulative IPC: 0.6085 (Simulation time: 00 hr 40 min 12 sec)
Heartbeat CPU 0 instructions: 186500868 cycles: 237074143 heartbeat IPC: 0.6071 cumulative IPC: 0.6085 (Simulation time: 00 hr 40 min 21 sec)
Heartbeat CPU 0 instructions: 187000868 cycles: 237896345 heartbeat IPC: 0.6081 cumulative IPC: 0.6085 (Simulation time: 00 hr 40 min 30 sec)
Heartbeat CPU 0 instructions: 187500870 cycles: 238720037 heartbeat IPC: 0.607 cumulative IPC: 0.6084 (Simulation time: 00 hr 40 min 39 sec)
Heartbeat CPU 0 instructions: 188000873 cycles: 239542385 heartbeat IPC: 0.608 cumulative IPC: 0.6084 (Simulation time: 00 hr 40 min 47 sec)
Heartbeat CPU 0 instructions: 188500873 cycles: 240365577 heartbeat IPC: 0.6074 cumulative IPC: 0.6084 (Simulation time: 00 hr 40 min 56 sec)
Heartbeat CPU 0 instructions: 189000873 cycles: 241188265 heartbeat IPC: 0.6078 cumulative IPC: 0.6084 (Simulation time: 00 hr 41 min 05 sec)
Heartbeat CPU 0 instructions: 189500878 cycles: 242011512 heartbeat IPC: 0.6074 cumulative IPC: 0.6084 (Simulation time: 00 hr 41 min 13 sec)
Heartbeat CPU 0 instructions: 190000878 cycles: 242834705 heartbeat IPC: 0.6074 cumulative IPC: 0.6084 (Simulation time: 00 hr 41 min 22 sec)
Heartbeat CPU 0 instructions: 190500878 cycles: 243657083 heartbeat IPC: 0.608 cumulative IPC: 0.6084 (Simulation time: 00 hr 41 min 31 sec)
Heartbeat CPU 0 instructions: 191000878 cycles: 244481487 heartbeat IPC: 0.6065 cumulative IPC: 0.6084 (Simulation time: 00 hr 41 min 40 sec)
Heartbeat CPU 0 instructions: 191500878 cycles: 245303057 heartbeat IPC: 0.6086 cumulative IPC: 0.6084 (Simulation time: 00 hr 41 min 48 sec)
Heartbeat CPU 0 instructions: 192000883 cycles: 246126479 heartbeat IPC: 0.6072 cumulative IPC: 0.6084 (Simulation time: 00 hr 41 min 57 sec)
Heartbeat CPU 0 instructions: 192500883 cycles: 246950611 heartbeat IPC: 0.6067 cumulative IPC: 0.6084 (Simulation time: 00 hr 42 min 06 sec)
Heartbeat CPU 0 instructions: 193000883 cycles: 247772053 heartbeat IPC: 0.6087 cumulative IPC: 0.6084 (Simulation time: 00 hr 42 min 15 sec)
Heartbeat CPU 0 instructions: 193500883 cycles: 248595393 heartbeat IPC: 0.6073 cumulative IPC: 0.6084 (Simulation time: 00 hr 42 min 24 sec)
Heartbeat CPU 0 instructions: 194000888 cycles: 249418309 heartbeat IPC: 0.6076 cumulative IPC: 0.6084 (Simulation time: 00 hr 42 min 32 sec)
Heartbeat CPU 0 instructions: 194500888 cycles: 250280582 heartbeat IPC: 0.5799 cumulative IPC: 0.6083 (Simulation time: 00 hr 42 min 41 sec)
Heartbeat CPU 0 instructions: 195000890 cycles: 251105340 heartbeat IPC: 0.6062 cumulative IPC: 0.6083 (Simulation time: 00 hr 42 min 50 sec)
Heartbeat CPU 0 instructions: 195500891 cycles: 251927859 heartbeat IPC: 0.6079 cumulative IPC: 0.6083 (Simulation time: 00 hr 42 min 59 sec)
Heartbeat CPU 0 instructions: 196000895 cycles: 252661304 heartbeat IPC: 0.6817 cumulative IPC: 0.6085 (Simulation time: 00 hr 43 min 07 sec)
Heartbeat CPU 0 instructions: 196500899 cycles: 253126217 heartbeat IPC: 1.075 cumulative IPC: 0.6094 (Simulation time: 00 hr 43 min 12 sec)
Heartbeat CPU 0 instructions: 197000899 cycles: 253462652 heartbeat IPC: 1.486 cumulative IPC: 0.6106 (Simulation time: 00 hr 43 min 16 sec)
Heartbeat CPU 0 instructions: 197500901 cycles: 253962460 heartbeat IPC: 1 cumulative IPC: 0.6115 (Simulation time: 00 hr 43 min 22 sec)
Heartbeat CPU 0 instructions: 198000907 cycles: 254693045 heartbeat IPC: 0.6844 cumulative IPC: 0.6117 (Simulation time: 00 hr 43 min 30 sec)
Heartbeat CPU 0 instructions: 198500913 cycles: 255459364 heartbeat IPC: 0.6525 cumulative IPC: 0.6118 (Simulation time: 00 hr 43 min 38 sec)
Heartbeat CPU 0 instructions: 199000919 cycles: 256221101 heartbeat IPC: 0.6564 cumulative IPC: 0.6119 (Simulation time: 00 hr 43 min 46 sec)
Heartbeat CPU 0 instructions: 199500924 cycles: 256987464 heartbeat IPC: 0.6524 cumulative IPC: 0.6121 (Simulation time: 00 hr 43 min 54 sec)
Heartbeat CPU 0 instructions: 200000924 cycles: 257756249 heartbeat IPC: 0.6504 cumulative IPC: 0.6122 (Simulation time: 00 hr 44 min 03 sec)
Heartbeat CPU 0 instructions: 200500924 cycles: 258527494 heartbeat IPC: 0.6483 cumulative IPC: 0.6123 (Simulation time: 00 hr 44 min 11 sec)
Heartbeat CPU 0 instructions: 201000924 cycles: 259292727 heartbeat IPC: 0.6534 cumulative IPC: 0.6124 (Simulation time: 00 hr 44 min 19 sec)
Heartbeat CPU 0 instructions: 201500928 cycles: 260061995 heartbeat IPC: 0.65 cumulative IPC: 0.6125 (Simulation time: 00 hr 44 min 28 sec)
Heartbeat CPU 0 instructions: 202000930 cycles: 260826957 heartbeat IPC: 0.6536 cumulative IPC: 0.6127 (Simulation time: 00 hr 44 min 36 sec)
Heartbeat CPU 0 instructions: 202500930 cycles: 261598046 heartbeat IPC: 0.6484 cumulative IPC: 0.6128 (Simulation time: 00 hr 44 min 44 sec)
Heartbeat CPU 0 instructions: 203000930 cycles: 262363335 heartbeat IPC: 0.6533 cumulative IPC: 0.6129 (Simulation time: 00 hr 44 min 53 sec)
Heartbeat CPU 0 instructions: 203500934 cycles: 263132387 heartbeat IPC: 0.6502 cumulative IPC: 0.613 (Simulation time: 00 hr 45 min 01 sec)
Heartbeat CPU 0 instructions: 204000940 cycles: 263881832 heartbeat IPC: 0.6672 cumulative IPC: 0.6132 (Simulation time: 00 hr 45 min 09 sec)
Heartbeat CPU 0 instructions: 204500942 cycles: 264656276 heartbeat IPC: 0.6456 cumulative IPC: 0.6133 (Simulation time: 00 hr 45 min 18 sec)
Heartbeat CPU 0 instructions: 205000948 cycles: 265431733 heartbeat IPC: 0.6448 cumulative IPC: 0.6134 (Simulation time: 00 hr 45 min 27 sec)
Heartbeat CPU 0 instructions: 205500949 cycles: 266209422 heartbeat IPC: 0.6429 cumulative IPC: 0.6135 (Simulation time: 00 hr 45 min 35 sec)
Heartbeat CPU 0 instructions: 206000949 cycles: 266984423 heartbeat IPC: 0.6452 cumulative IPC: 0.6136 (Simulation time: 00 hr 45 min 44 sec)
Heartbeat CPU 0 instructions: 206500950 cycles: 267761542 heartbeat IPC: 0.6434 cumulative IPC: 0.6137 (Simulation time: 00 hr 45 min 52 sec)
Heartbeat CPU 0 instructions: 207000953 cycles: 268534920 heartbeat IPC: 0.6465 cumulative IPC: 0.6138 (Simulation time: 00 hr 46 min 01 sec)
Heartbeat CPU 0 instructions: 207500953 cycles: 269303436 heartbeat IPC: 0.6506 cumulative IPC: 0.6139 (Simulation time: 00 hr 46 min 09 sec)
Heartbeat CPU 0 instructions: 208000953 cycles: 270071277 heartbeat IPC: 0.6512 cumulative IPC: 0.614 (Simulation time: 00 hr 46 min 17 sec)
Heartbeat CPU 0 instructions: 208500957 cycles: 270842144 heartbeat IPC: 0.6486 cumulative IPC: 0.6141 (Simulation time: 00 hr 46 min 26 sec)
Heartbeat CPU 0 instructions: 209000957 cycles: 271605927 heartbeat IPC: 0.6546 cumulative IPC: 0.6142 (Simulation time: 00 hr 46 min 34 sec)
Heartbeat CPU 0 instructions: 209500961 cycles: 272372158 heartbeat IPC: 0.6525 cumulative IPC: 0.6143 (Simulation time: 00 hr 46 min 42 sec)
Heartbeat CPU 0 instructions: 210000963 cycles: 273098444 heartbeat IPC: 0.6884 cumulative IPC: 0.6145 (Simulation time: 00 hr 46 min 50 sec)
Heartbeat CPU 0 instructions: 210500964 cycles: 273867186 heartbeat IPC: 0.6504 cumulative IPC: 0.6146 (Simulation time: 00 hr 46 min 59 sec)
Heartbeat CPU 0 instructions: 211000964 cycles: 274637773 heartbeat IPC: 0.6489 cumulative IPC: 0.6147 (Simulation time: 00 hr 47 min 07 sec)
Heartbeat CPU 0 instructions: 211500968 cycles: 275406974 heartbeat IPC: 0.65 cumulative IPC: 0.6148 (Simulation time: 00 hr 47 min 15 sec)
Heartbeat CPU 0 instructions: 212000972 cycles: 276170186 heartbeat IPC: 0.6551 cumulative IPC: 0.615 (Simulation time: 00 hr 47 min 23 sec)
Heartbeat CPU 0 instructions: 212500972 cycles: 276943977 heartbeat IPC: 0.6462 cumulative IPC: 0.615 (Simulation time: 00 hr 47 min 32 sec)
Heartbeat CPU 0 instructions: 213000972 cycles: 277710604 heartbeat IPC: 0.6522 cumulative IPC: 0.6152 (Simulation time: 00 hr 47 min 40 sec)
Heartbeat CPU 0 instructions: 213500972 cycles: 278479395 heartbeat IPC: 0.6504 cumulative IPC: 0.6153 (Simulation time: 00 hr 47 min 48 sec)
Heartbeat CPU 0 instructions: 214000978 cycles: 279251074 heartbeat IPC: 0.6479 cumulative IPC: 0.6153 (Simulation time: 00 hr 47 min 56 sec)
Heartbeat CPU 0 instructions: 214500978 cycles: 280019455 heartbeat IPC: 0.6507 cumulative IPC: 0.6154 (Simulation time: 00 hr 48 min 05 sec)
Heartbeat CPU 0 instructions: 215000978 cycles: 280786526 heartbeat IPC: 0.6518 cumulative IPC: 0.6156 (Simulation time: 00 hr 48 min 13 sec)
Heartbeat CPU 0 instructions: 215500978 cycles: 281553993 heartbeat IPC: 0.6515 cumulative IPC: 0.6157 (Simulation time: 00 hr 48 min 21 sec)
Heartbeat CPU 0 instructions: 216000978 cycles: 282321193 heartbeat IPC: 0.6517 cumulative IPC: 0.6158 (Simulation time: 00 hr 48 min 30 sec)
Heartbeat CPU 0 instructions: 216500982 cycles: 283084680 heartbeat IPC: 0.6549 cumulative IPC: 0.6159 (Simulation time: 00 hr 48 min 38 sec)
Heartbeat CPU 0 instructions: 217000988 cycles: 283843696 heartbeat IPC: 0.6588 cumulative IPC: 0.616 (Simulation time: 00 hr 48 min 47 sec)
Heartbeat CPU 0 instructions: 217500994 cycles: 284614025 heartbeat IPC: 0.6491 cumulative IPC: 0.6161 (Simulation time: 00 hr 48 min 55 sec)
Heartbeat CPU 0 instructions: 218000996 cycles: 285392007 heartbeat IPC: 0.6427 cumulative IPC: 0.6162 (Simulation time: 00 hr 49 min 04 sec)
Heartbeat CPU 0 instructions: 218501002 cycles: 286170854 heartbeat IPC: 0.642 cumulative IPC: 0.6162 (Simulation time: 00 hr 49 min 12 sec)
Heartbeat CPU 0 instructions: 219001004 cycles: 286949704 heartbeat IPC: 0.642 cumulative IPC: 0.6163 (Simulation time: 00 hr 49 min 21 sec)
Heartbeat CPU 0 instructions: 219501007 cycles: 287727150 heartbeat IPC: 0.6431 cumulative IPC: 0.6164 (Simulation time: 00 hr 49 min 29 sec)
Heartbeat CPU 0 instructions: 220001010 cycles: 288502628 heartbeat IPC: 0.6448 cumulative IPC: 0.6165 (Simulation time: 00 hr 49 min 38 sec)
Heartbeat CPU 0 instructions: 220501012 cycles: 289273556 heartbeat IPC: 0.6486 cumulative IPC: 0.6166 (Simulation time: 00 hr 49 min 46 sec)
Heartbeat CPU 0 instructions: 221001012 cycles: 290044837 heartbeat IPC: 0.6483 cumulative IPC: 0.6166 (Simulation time: 00 hr 49 min 55 sec)
Heartbeat CPU 0 instructions: 221501012 cycles: 290810762 heartbeat IPC: 0.6528 cumulative IPC: 0.6167 (Simulation time: 00 hr 50 min 03 sec)
Heartbeat CPU 0 instructions: 222001012 cycles: 291578707 heartbeat IPC: 0.6511 cumulative IPC: 0.6168 (Simulation time: 00 hr 50 min 11 sec)
Heartbeat CPU 0 instructions: 222501013 cycles: 292348884 heartbeat IPC: 0.6492 cumulative IPC: 0.6169 (Simulation time: 00 hr 50 min 20 sec)
Heartbeat CPU 0 instructions: 223001013 cycles: 293081129 heartbeat IPC: 0.6828 cumulative IPC: 0.6171 (Simulation time: 00 hr 50 min 28 sec)
Heartbeat CPU 0 instructions: 223501013 cycles: 293851761 heartbeat IPC: 0.6488 cumulative IPC: 0.6172 (Simulation time: 00 hr 50 min 36 sec)
Heartbeat CPU 0 instructions: 224001016 cycles: 294618830 heartbeat IPC: 0.6518 cumulative IPC: 0.6173 (Simulation time: 00 hr 50 min 44 sec)
Heartbeat CPU 0 instructions: 224501020 cycles: 295380142 heartbeat IPC: 0.6568 cumulative IPC: 0.6174 (Simulation time: 00 hr 50 min 53 sec)
Heartbeat CPU 0 instructions: 225001020 cycles: 296148165 heartbeat IPC: 0.651 cumulative IPC: 0.6175 (Simulation time: 00 hr 51 min 01 sec)
Heartbeat CPU 0 instructions: 225501020 cycles: 296916436 heartbeat IPC: 0.6508 cumulative IPC: 0.6176 (Simulation time: 00 hr 51 min 09 sec)
Heartbeat CPU 0 instructions: 226001020 cycles: 297687823 heartbeat IPC: 0.6482 cumulative IPC: 0.6176 (Simulation time: 00 hr 51 min 17 sec)
Heartbeat CPU 0 instructions: 226501021 cycles: 298451933 heartbeat IPC: 0.6544 cumulative IPC: 0.6177 (Simulation time: 00 hr 51 min 26 sec)
Heartbeat CPU 0 instructions: 227001023 cycles: 299220487 heartbeat IPC: 0.6506 cumulative IPC: 0.6178 (Simulation time: 00 hr 51 min 34 sec)
Heartbeat CPU 0 instructions: 227501026 cycles: 299984904 heartbeat IPC: 0.6541 cumulative IPC: 0.6179 (Simulation time: 00 hr 51 min 42 sec)
Heartbeat CPU 0 instructions: 228001026 cycles: 300754343 heartbeat IPC: 0.6498 cumulative IPC: 0.618 (Simulation time: 00 hr 51 min 51 sec)
Heartbeat CPU 0 instructions: 228501026 cycles: 301521364 heartbeat IPC: 0.6519 cumulative IPC: 0.6181 (Simulation time: 00 hr 51 min 59 sec)
Heartbeat CPU 0 instructions: 229001030 cycles: 302287674 heartbeat IPC: 0.6525 cumulative IPC: 0.6182 (Simulation time: 00 hr 52 min 07 sec)
Heartbeat CPU 0 instructions: 229501034 cycles: 303043036 heartbeat IPC: 0.6619 cumulative IPC: 0.6183 (Simulation time: 00 hr 52 min 16 sec)
Heartbeat CPU 0 instructions: 230001040 cycles: 303820077 heartbeat IPC: 0.6435 cumulative IPC: 0.6184 (Simulation time: 00 hr 52 min 24 sec)
Heartbeat CPU 0 instructions: 230501041 cycles: 304595172 heartbeat IPC: 0.6451 cumulative IPC: 0.6184 (Simulation time: 00 hr 52 min 33 sec)
Heartbeat CPU 0 instructions: 231001041 cycles: 305372293 heartbeat IPC: 0.6434 cumulative IPC: 0.6185 (Simulation time: 00 hr 52 min 41 sec)
Heartbeat CPU 0 instructions: 231501043 cycles: 306150127 heartbeat IPC: 0.6428 cumulative IPC: 0.6186 (Simulation time: 00 hr 52 min 50 sec)
Heartbeat CPU 0 instructions: 232001049 cycles: 306926824 heartbeat IPC: 0.6438 cumulative IPC: 0.6186 (Simulation time: 00 hr 52 min 58 sec)
Heartbeat CPU 0 instructions: 232501054 cycles: 307705320 heartbeat IPC: 0.6423 cumulative IPC: 0.6187 (Simulation time: 00 hr 53 min 07 sec)
Heartbeat CPU 0 instructions: 233001060 cycles: 308473705 heartbeat IPC: 0.6507 cumulative IPC: 0.6188 (Simulation time: 00 hr 53 min 15 sec)
Heartbeat CPU 0 instructions: 233501060 cycles: 309244679 heartbeat IPC: 0.6485 cumulative IPC: 0.6189 (Simulation time: 00 hr 53 min 23 sec)
Heartbeat CPU 0 instructions: 234001060 cycles: 310011526 heartbeat IPC: 0.652 cumulative IPC: 0.619 (Simulation time: 00 hr 53 min 32 sec)
Heartbeat CPU 0 instructions: 234501064 cycles: 310780319 heartbeat IPC: 0.6504 cumulative IPC: 0.619 (Simulation time: 00 hr 53 min 40 sec)
Heartbeat CPU 0 instructions: 235001064 cycles: 311554466 heartbeat IPC: 0.6459 cumulative IPC: 0.6191 (Simulation time: 00 hr 53 min 48 sec)
Heartbeat CPU 0 instructions: 235501070 cycles: 312283672 heartbeat IPC: 0.6857 cumulative IPC: 0.6193 (Simulation time: 00 hr 53 min 56 sec)
Heartbeat CPU 0 instructions: 236001070 cycles: 313053113 heartbeat IPC: 0.6498 cumulative IPC: 0.6193 (Simulation time: 00 hr 54 min 04 sec)
Heartbeat CPU 0 instructions: 236501071 cycles: 313824387 heartbeat IPC: 0.6483 cumulative IPC: 0.6194 (Simulation time: 00 hr 54 min 12 sec)
Heartbeat CPU 0 instructions: 237001074 cycles: 314588905 heartbeat IPC: 0.654 cumulative IPC: 0.6195 (Simulation time: 00 hr 54 min 20 sec)
Heartbeat CPU 0 instructions: 237501075 cycles: 315355496 heartbeat IPC: 0.6522 cumulative IPC: 0.6196 (Simulation time: 00 hr 54 min 28 sec)
Heartbeat CPU 0 instructions: 238001075 cycles: 316133169 heartbeat IPC: 0.6429 cumulative IPC: 0.6196 (Simulation time: 00 hr 54 min 36 sec)
Heartbeat CPU 0 instructions: 238501075 cycles: 316898346 heartbeat IPC: 0.6534 cumulative IPC: 0.6197 (Simulation time: 00 hr 54 min 44 sec)
Heartbeat CPU 0 instructions: 239001075 cycles: 317661757 heartbeat IPC: 0.655 cumulative IPC: 0.6198 (Simulation time: 00 hr 54 min 52 sec)
Heartbeat CPU 0 instructions: 239501081 cycles: 318431216 heartbeat IPC: 0.6498 cumulative IPC: 0.6199 (Simulation time: 00 hr 55 min 01 sec)
Heartbeat CPU 0 instructions: 240001081 cycles: 319198597 heartbeat IPC: 0.6516 cumulative IPC: 0.62 (Simulation time: 00 hr 55 min 09 sec)
Heartbeat CPU 0 instructions: 240501081 cycles: 319969504 heartbeat IPC: 0.6486 cumulative IPC: 0.62 (Simulation time: 00 hr 55 min 17 sec)
Heartbeat CPU 0 instructions: 241001081 cycles: 320734695 heartbeat IPC: 0.6534 cumulative IPC: 0.6201 (Simulation time: 00 hr 55 min 25 sec)
Heartbeat CPU 0 instructions: 241501082 cycles: 321505917 heartbeat IPC: 0.6483 cumulative IPC: 0.6202 (Simulation time: 00 hr 55 min 33 sec)
Heartbeat CPU 0 instructions: 242001089 cycles: 322263978 heartbeat IPC: 0.6596 cumulative IPC: 0.6203 (Simulation time: 00 hr 55 min 41 sec)
Heartbeat CPU 0 instructions: 242501093 cycles: 323026434 heartbeat IPC: 0.6558 cumulative IPC: 0.6204 (Simulation time: 00 hr 55 min 49 sec)
Heartbeat CPU 0 instructions: 243001095 cycles: 323798224 heartbeat IPC: 0.6478 cumulative IPC: 0.6205 (Simulation time: 00 hr 55 min 57 sec)
Heartbeat CPU 0 instructions: 243501101 cycles: 324575505 heartbeat IPC: 0.6433 cumulative IPC: 0.6205 (Simulation time: 00 hr 56 min 05 sec)
Heartbeat CPU 0 instructions: 244001103 cycles: 325350175 heartbeat IPC: 0.6454 cumulative IPC: 0.6206 (Simulation time: 00 hr 56 min 13 sec)
Heartbeat CPU 0 instructions: 244501109 cycles: 326130586 heartbeat IPC: 0.6407 cumulative IPC: 0.6206 (Simulation time: 00 hr 56 min 21 sec)
Heartbeat CPU 0 instructions: 245001109 cycles: 326904123 heartbeat IPC: 0.6464 cumulative IPC: 0.6207 (Simulation time: 00 hr 56 min 29 sec)
Heartbeat CPU 0 instructions: 245501109 cycles: 327676643 heartbeat IPC: 0.6472 cumulative IPC: 0.6208 (Simulation time: 00 hr 56 min 37 sec)
Heartbeat CPU 0 instructions: 246001115 cycles: 328445724 heartbeat IPC: 0.6501 cumulative IPC: 0.6208 (Simulation time: 00 hr 56 min 45 sec)
Heartbeat CPU 0 instructions: 246501115 cycles: 329208615 heartbeat IPC: 0.6554 cumulative IPC: 0.6209 (Simulation time: 00 hr 56 min 53 sec)
Heartbeat CPU 0 instructions: 247001119 cycles: 329977524 heartbeat IPC: 0.6503 cumulative IPC: 0.621 (Simulation time: 00 hr 57 min 01 sec)
Heartbeat CPU 0 instructions: 247501119 cycles: 330748075 heartbeat IPC: 0.6489 cumulative IPC: 0.621 (Simulation time: 00 hr 57 min 09 sec)
Heartbeat CPU 0 instructions: 248001119 cycles: 331478164 heartbeat IPC: 0.6848 cumulative IPC: 0.6212 (Simulation time: 00 hr 57 min 16 sec)
Heartbeat CPU 0 instructions: 248501119 cycles: 332251845 heartbeat IPC: 0.6463 cumulative IPC: 0.6213 (Simulation time: 00 hr 57 min 24 sec)
Heartbeat CPU 0 instructions: 249001120 cycles: 333023174 heartbeat IPC: 0.6482 cumulative IPC: 0.6213 (Simulation time: 00 hr 57 min 32 sec)
Heartbeat CPU 0 instructions: 249501126 cycles: 333789965 heartbeat IPC: 0.6521 cumulative IPC: 0.6214 (Simulation time: 00 hr 57 min 40 sec)
Simulation finished CPU 0 instructions: 200000000 cycles: 321815721 cumulative IPC: 0.6215 (Simulation time: 00 hr 57 min 47 sec)
Simulation complete CPU 0 instructions: 200000000 cycles: 321815721 cumulative IPC: 0.6215 (Simulation time: 00 hr 57 min 47 sec)

ChampSim completed all CPUs

=== Simulation ===
CPU 0 runs /local-ssd/ben/dpc4-traces/ai-ml/llama2.c-stories110M.1.champsimtrace.gz

Region of Interest Statistics

CPU 0 cumulative IPC: 0.6215 instructions: 200000000 cycles: 321815721
CPU 0 Branch Prediction Accuracy: 99.54% MPKI: 0.6617 Average ROB Occupancy at Mispredict: 561.6
Branch type MPKI
BRANCH_DIRECT_JUMP: 0.0001
BRANCH_INDIRECT: 5e-06
BRANCH_CONDITIONAL: 0.6614
BRANCH_DIRECT_CALL: 0.00012
BRANCH_INDIRECT_CALL: 2.5e-05
BRANCH_RETURN: 0.00014

cpu0->cpu0_STLB TOTAL        ACCESS:     110653 HIT:        673 MISS:     109980 MSHR_MERGE:          0
cpu0->cpu0_STLB LOAD         ACCESS:     110653 HIT:        673 MISS:     109980 MSHR_MERGE:          0
cpu0->cpu0_STLB RFO          ACCESS:          0 HIT:          0 MISS:          0 MSHR_MERGE:          0
cpu0->cpu0_STLB PREFETCH     ACCESS:          0 HIT:          0 MISS:          0 MSHR_MERGE:          0
cpu0->cpu0_STLB WRITE        ACCESS:          0 HIT:          0 MISS:          0 MSHR_MERGE:          0
cpu0->cpu0_STLB TRANSLATION  ACCESS:          0 HIT:          0 MISS:          0 MSHR_MERGE:          0
cpu0->cpu0_STLB PREFETCH REQUESTED:          0 ISSUED:          0 USEFUL:          0 USELESS:          0
cpu0->cpu0_STLB AVERAGE MISS LATENCY: 203.2 cycles
cpu0->cpu0_L2C TOTAL        ACCESS:   38523280 HIT:     648009 MISS:   37875271 MSHR_MERGE:   30846302
cpu0->cpu0_L2C LOAD         ACCESS:    1356085 HIT:      44693 MISS:    1311392 MSHR_MERGE:     762614
cpu0->cpu0_L2C RFO          ACCESS:      16679 HIT:       8610 MISS:       8069 MSHR_MERGE:          0
cpu0->cpu0_L2C PREFETCH     ACCESS:   37114566 HIT:     575273 MISS:   36539293 MSHR_MERGE:   30083688
cpu0->cpu0_L2C WRITE        ACCESS:      21468 HIT:      19280 MISS:       2188 MSHR_MERGE:          0
cpu0->cpu0_L2C TRANSLATION  ACCESS:      14482 HIT:        153 MISS:      14329 MSHR_MERGE:          0
cpu0->cpu0_L2C PREFETCH REQUESTED:   36004436 ISSUED:   31465876 USEFUL:     835703 USELESS:    4777291
cpu0->cpu0_L2C AVERAGE MISS LATENCY: 437.4 cycles
cpu0->cpu0_L1I TOTAL        ACCESS:   27864984 HIT:   27864828 MISS:        156 MSHR_MERGE:         13
cpu0->cpu0_L1I LOAD         ACCESS:   27864984 HIT:   27864828 MISS:        156 MSHR_MERGE:         13
cpu0->cpu0_L1I RFO          ACCESS:          0 HIT:          0 MISS:          0 MSHR_MERGE:          0
cpu0->cpu0_L1I PREFETCH     ACCESS:          0 HIT:          0 MISS:          0 MSHR_MERGE:          0
cpu0->cpu0_L1I WRITE        ACCESS:          0 HIT:          0 MISS:          0 MSHR_MERGE:          0
cpu0->cpu0_L1I TRANSLATION  ACCESS:          0 HIT:          0 MISS:          0 MSHR_MERGE:          0
cpu0->cpu0_L1I PREFETCH REQUESTED:          0 ISSUED:          0 USEFUL:          0 USELESS:          0
cpu0->cpu0_L1I AVERAGE MISS LATENCY: 254.1 cycles
cpu0->cpu0_L1D TOTAL        ACCESS:   39700102 HIT:   19691737 MISS:   20008365 MSHR_MERGE:   12972585
cpu0->cpu0_L1D LOAD         ACCESS:   32921960 HIT:   19226254 MISS:   13695706 MSHR_MERGE:   12339764
cpu0->cpu0_L1D RFO          ACCESS:          0 HIT:          0 MISS:          0 MSHR_MERGE:          0
cpu0->cpu0_L1D PREFETCH     ACCESS:    6350955 HIT:      69872 MISS:    6281083 MSHR_MERGE:     632406
cpu0->cpu0_L1D WRITE        ACCESS:     206944 HIT:     189868 MISS:      17076 MSHR_MERGE:        397
cpu0->cpu0_L1D TRANSLATION  ACCESS:     220243 HIT:     205743 MISS:      14500 MSHR_MERGE:         18
cpu0->cpu0_L1D PREFETCH REQUESTED:    7129667 ISSUED:    6350948 USEFUL:    5644437 USELESS:       4228
cpu0->cpu0_L1D AVERAGE MISS LATENCY: 292.1 cycles
cpu0->cpu0_ITLB TOTAL        ACCESS:   24273015 HIT:   24272990 MISS:         25 MSHR_MERGE:          4
cpu0->cpu0_ITLB LOAD         ACCESS:   24273015 HIT:   24272990 MISS:         25 MSHR_MERGE:          4
cpu0->cpu0_ITLB RFO          ACCESS:          0 HIT:          0 MISS:          0 MSHR_MERGE:          0
cpu0->cpu0_ITLB PREFETCH     ACCESS:          0 HIT:          0 MISS:          0 MSHR_MERGE:          0
cpu0->cpu0_ITLB WRITE        ACCESS:          0 HIT:          0 MISS:          0 MSHR_MERGE:          0
cpu0->cpu0_ITLB TRANSLATION  ACCESS:          0 HIT:          0 MISS:          0 MSHR_MERGE:          0
cpu0->cpu0_ITLB PREFETCH REQUESTED:          0 ISSUED:          0 USEFUL:          0 USELESS:          0
cpu0->cpu0_ITLB AVERAGE MISS LATENCY: 443.4 cycles
cpu0->cpu0_DTLB TOTAL        ACCESS:   36350228 HIT:   35147814 MISS:    1202414 MSHR_MERGE:    1091782
cpu0->cpu0_DTLB LOAD         ACCESS:   36350228 HIT:   35147814 MISS:    1202414 MSHR_MERGE:    1091782
cpu0->cpu0_DTLB RFO          ACCESS:          0 HIT:          0 MISS:          0 MSHR_MERGE:          0
cpu0->cpu0_DTLB PREFETCH     ACCESS:          0 HIT:          0 MISS:          0 MSHR_MERGE:          0
cpu0->cpu0_DTLB WRITE        ACCESS:          0 HIT:          0 MISS:          0 MSHR_MERGE:          0
cpu0->cpu0_DTLB TRANSLATION  ACCESS:          0 HIT:          0 MISS:          0 MSHR_MERGE:          0
cpu0->cpu0_DTLB PREFETCH REQUESTED:          0 ISSUED:          0 USEFUL:          0 USELESS:          0
cpu0->cpu0_DTLB AVERAGE MISS LATENCY: 207.9 cycles
cpu0->LLC TOTAL        ACCESS:    7039720 HIT:      56947 MISS:    6982773 MSHR_MERGE:          0
cpu0->LLC LOAD         ACCESS:     548778 HIT:       3525 MISS:     545253 MSHR_MERGE:          0
cpu0->LLC RFO          ACCESS:       8069 HIT:       4096 MISS:       3973 MSHR_MERGE:          0
cpu0->LLC PREFETCH     ACCESS:    6455605 HIT:      39667 MISS:    6415938 MSHR_MERGE:          0
cpu0->LLC WRITE        ACCESS:      12939 HIT:       9513 MISS:       3426 MSHR_MERGE:          0
cpu0->LLC TRANSLATION  ACCESS:      14329 HIT:        146 MISS:      14183 MSHR_MERGE:          0
cpu0->LLC PREFETCH REQUESTED:          0 ISSUED:          0 USEFUL:          0 USELESS:          0
cpu0->LLC AVERAGE MISS LATENCY: 507.5 cycles

DRAM Statistics

Channel 0 RQ ROW_BUFFER_HIT:    3374410
  ROW_BUFFER_MISS:    3604885
  AVG DBUS CONGESTED CYCLE: 4.029
Channel 0 WQ ROW_BUFFER_HIT:         48
  ROW_BUFFER_MISS:       1978
  FULL:          0
Channel 0 REFRESHES ISSUED:      26818
