[VMEM] WARNING: physical memory size is smaller than virtual memory size.

*** ChampSim Multicore Out-of-Order Simulator ***
Warmup Instructions: 50000000
Simulation Instructions: 200000000
Number of CPUs: 1
Page size: 4096
Core 0: /local-ssd/ben/dpc4-traces/Graph/GAP/cc-5.trace.gz
 L1D Berti prefetcher
Off-chip DRAM Size: 64 GiB Channels: 1 Width: 64-bit Data Rate: 800 MT/s
Heartbeat CPU 0 instructions: 500004 cycles: 151515 heartbeat IPC: 3.3 cumulative IPC: 3.3 (Simulation time: 00 hr 00 min 04 sec)
Heartbeat CPU 0 instructions: 1000005 cycles: 299292 heartbeat IPC: 3.383 cumulative IPC: 3.341 (Simulation time: 00 hr 00 min 05 sec)
Heartbeat CPU 0 instructions: 1500005 cycles: 446917 heartbeat IPC: 3.387 cumulative IPC: 3.356 (Simulation time: 00 hr 00 min 07 sec)
Heartbeat CPU 0 instructions: 2000010 cycles: 556459 heartbeat IPC: 4.565 cumulative IPC: 3.594 (Simulation time: 00 hr 00 min 09 sec)
Heartbeat CPU 0 instructions: 2500017 cycles: 658688 heartbeat IPC: 4.891 cumulative IPC: 3.795 (Simulation time: 00 hr 00 min 11 sec)
Heartbeat CPU 0 instructions: 3000018 cycles: 761074 heartbeat IPC: 4.883 cumulative IPC: 3.942 (Simulation time: 00 hr 00 min 13 sec)
Heartbeat CPU 0 instructions: 3500018 cycles: 863536 heartbeat IPC: 4.88 cumulative IPC: 4.053 (Simulation time: 00 hr 00 min 15 sec)
Heartbeat CPU 0 instructions: 4000023 cycles: 965692 heartbeat IPC: 4.895 cumulative IPC: 4.142 (Simulation time: 00 hr 00 min 17 sec)
Heartbeat CPU 0 instructions: 4500025 cycles: 1068406 heartbeat IPC: 4.868 cumulative IPC: 4.212 (Simulation time: 00 hr 00 min 19 sec)
Heartbeat CPU 0 instructions: 5000028 cycles: 1170967 heartbeat IPC: 4.875 cumulative IPC: 4.27 (Simulation time: 00 hr 00 min 21 sec)
Heartbeat CPU 0 instructions: 5500030 cycles: 1273756 heartbeat IPC: 4.864 cumulative IPC: 4.318 (Simulation time: 00 hr 00 min 23 sec)
Heartbeat CPU 0 instructions: 6000033 cycles: 1376490 heartbeat IPC: 4.867 cumulative IPC: 4.359 (Simulation time: 00 hr 00 min 25 sec)
Heartbeat CPU 0 instructions: 6500040 cycles: 1479130 heartbeat IPC: 4.871 cumulative IPC: 4.395 (Simulation time: 00 hr 00 min 27 sec)
Heartbeat CPU 0 instructions: 7000047 cycles: 1581988 heartbeat IPC: 4.861 cumulative IPC: 4.425 (Simulation time: 00 hr 00 min 29 sec)
Heartbeat CPU 0 instructions: 7500049 cycles: 1684719 heartbeat IPC: 4.867 cumulative IPC: 4.452 (Simulation time: 00 hr 00 min 31 sec)
Heartbeat CPU 0 instructions: 8000052 cycles: 1787165 heartbeat IPC: 4.881 cumulative IPC: 4.476 (Simulation time: 00 hr 00 min 33 sec)
Heartbeat CPU 0 instructions: 8500054 cycles: 1890358 heartbeat IPC: 4.845 cumulative IPC: 4.497 (Simulation time: 00 hr 00 min 35 sec)
Heartbeat CPU 0 instructions: 9000058 cycles: 1993184 heartbeat IPC: 4.863 cumulative IPC: 4.515 (Simulation time: 00 hr 00 min 37 sec)
Heartbeat CPU 0 instructions: 9500065 cycles: 2095930 heartbeat IPC: 4.866 cumulative IPC: 4.533 (Simulation time: 00 hr 00 min 39 sec)
Heartbeat CPU 0 instructions: 10000068 cycles: 2198564 heartbeat IPC: 4.872 cumulative IPC: 4.548 (Simulation time: 00 hr 00 min 41 sec)
Heartbeat CPU 0 instructions: 10500074 cycles: 2301078 heartbeat IPC: 4.877 cumulative IPC: 4.563 (Simulation time: 00 hr 00 min 43 sec)
Heartbeat CPU 0 instructions: 11000078 cycles: 2404457 heartbeat IPC: 4.837 cumulative IPC: 4.575 (Simulation time: 00 hr 00 min 45 sec)
Heartbeat CPU 0 instructions: 11500083 cycles: 2507202 heartbeat IPC: 4.866 cumulative IPC: 4.587 (Simulation time: 00 hr 00 min 47 sec)
Heartbeat CPU 0 instructions: 12000083 cycles: 2609928 heartbeat IPC: 4.867 cumulative IPC: 4.598 (Simulation time: 00 hr 00 min 49 sec)
Heartbeat CPU 0 instructions: 12500087 cycles: 2712812 heartbeat IPC: 4.86 cumulative IPC: 4.608 (Simulation time: 00 hr 00 min 51 sec)
Heartbeat CPU 0 instructions: 13000091 cycles: 2815892 heartbeat IPC: 4.851 cumulative IPC: 4.617 (Simulation time: 00 hr 00 min 53 sec)
Heartbeat CPU 0 instructions: 13500097 cycles: 2918660 heartbeat IPC: 4.865 cumulative IPC: 4.625 (Simulation time: 00 hr 00 min 55 sec)
Heartbeat CPU 0 instructions: 14000100 cycles: 3021667 heartbeat IPC: 4.854 cumulative IPC: 4.633 (Simulation time: 00 hr 00 min 57 sec)
Heartbeat CPU 0 instructions: 14500100 cycles: 3124419 heartbeat IPC: 4.866 cumulative IPC: 4.641 (Simulation time: 00 hr 00 min 59 sec)
Heartbeat CPU 0 instructions: 15000105 cycles: 3227340 heartbeat IPC: 4.858 cumulative IPC: 4.648 (Simulation time: 00 hr 01 min 01 sec)
Heartbeat CPU 0 instructions: 15500109 cycles: 3330314 heartbeat IPC: 4.856 cumulative IPC: 4.654 (Simulation time: 00 hr 01 min 02 sec)
Heartbeat CPU 0 instructions: 16000113 cycles: 3433026 heartbeat IPC: 4.868 cumulative IPC: 4.661 (Simulation time: 00 hr 01 min 04 sec)
Heartbeat CPU 0 instructions: 16500120 cycles: 3535394 heartbeat IPC: 4.884 cumulative IPC: 4.667 (Simulation time: 00 hr 01 min 06 sec)
Heartbeat CPU 0 instructions: 17000122 cycles: 3638178 heartbeat IPC: 4.865 cumulative IPC: 4.673 (Simulation time: 00 hr 01 min 08 sec)
Heartbeat CPU 0 instructions: 17500129 cycles: 3740751 heartbeat IPC: 4.875 cumulative IPC: 4.678 (Simulation time: 00 hr 01 min 10 sec)
Heartbeat CPU 0 instructions: 18000133 cycles: 3843629 heartbeat IPC: 4.86 cumulative IPC: 4.683 (Simulation time: 00 hr 01 min 12 sec)
Heartbeat CPU 0 instructions: 18500134 cycles: 3946516 heartbeat IPC: 4.86 cumulative IPC: 4.688 (Simulation time: 00 hr 01 min 14 sec)
Heartbeat CPU 0 instructions: 19000137 cycles: 4049342 heartbeat IPC: 4.863 cumulative IPC: 4.692 (Simulation time: 00 hr 01 min 16 sec)
Heartbeat CPU 0 instructions: 19500143 cycles: 4151912 heartbeat IPC: 4.875 cumulative IPC: 4.697 (Simulation time: 00 hr 01 min 18 sec)
Heartbeat CPU 0 instructions: 20000145 cycles: 4254658 heartbeat IPC: 4.866 cumulative IPC: 4.701 (Simulation time: 00 hr 01 min 20 sec)
Heartbeat CPU 0 instructions: 20500149 cycles: 4357666 heartbeat IPC: 4.854 cumulative IPC: 4.704 (Simulation time: 00 hr 01 min 22 sec)
Heartbeat CPU 0 instructions: 21000155 cycles: 4460590 heartbeat IPC: 4.858 cumulative IPC: 4.708 (Simulation time: 00 hr 01 min 24 sec)
Heartbeat CPU 0 instructions: 21500160 cycles: 4563539 heartbeat IPC: 4.857 cumulative IPC: 4.711 (Simulation time: 00 hr 01 min 26 sec)
Heartbeat CPU 0 instructions: 22000161 cycles: 4666612 heartbeat IPC: 4.851 cumulative IPC: 4.714 (Simulation time: 00 hr 01 min 28 sec)
Heartbeat CPU 0 instructions: 22500166 cycles: 4769144 heartbeat IPC: 4.877 cumulative IPC: 4.718 (Simulation time: 00 hr 01 min 30 sec)
Heartbeat CPU 0 instructions: 23000169 cycles: 4872236 heartbeat IPC: 4.85 cumulative IPC: 4.721 (Simulation time: 00 hr 01 min 32 sec)
Heartbeat CPU 0 instructions: 23500169 cycles: 4975364 heartbeat IPC: 4.848 cumulative IPC: 4.723 (Simulation time: 00 hr 01 min 34 sec)
Heartbeat CPU 0 instructions: 24000175 cycles: 5078347 heartbeat IPC: 4.855 cumulative IPC: 4.726 (Simulation time: 00 hr 01 min 36 sec)
Heartbeat CPU 0 instructions: 24500179 cycles: 5181253 heartbeat IPC: 4.859 cumulative IPC: 4.729 (Simulation time: 00 hr 01 min 38 sec)
Heartbeat CPU 0 instructions: 25000182 cycles: 5284152 heartbeat IPC: 4.859 cumulative IPC: 4.731 (Simulation time: 00 hr 01 min 40 sec)
Heartbeat CPU 0 instructions: 25500188 cycles: 5387015 heartbeat IPC: 4.861 cumulative IPC: 4.734 (Simulation time: 00 hr 01 min 42 sec)
Heartbeat CPU 0 instructions: 26000193 cycles: 5489815 heartbeat IPC: 4.864 cumulative IPC: 4.736 (Simulation time: 00 hr 01 min 44 sec)
Heartbeat CPU 0 instructions: 26500200 cycles: 5592920 heartbeat IPC: 4.849 cumulative IPC: 4.738 (Simulation time: 00 hr 01 min 46 sec)
Heartbeat CPU 0 instructions: 27000204 cycles: 5695676 heartbeat IPC: 4.866 cumulative IPC: 4.74 (Simulation time: 00 hr 01 min 48 sec)
Heartbeat CPU 0 instructions: 27500211 cycles: 5799062 heartbeat IPC: 4.836 cumulative IPC: 4.742 (Simulation time: 00 hr 01 min 50 sec)
Heartbeat CPU 0 instructions: 28000213 cycles: 5901640 heartbeat IPC: 4.874 cumulative IPC: 4.744 (Simulation time: 00 hr 01 min 52 sec)
Heartbeat CPU 0 instructions: 28500214 cycles: 6004547 heartbeat IPC: 4.859 cumulative IPC: 4.746 (Simulation time: 00 hr 01 min 54 sec)
Heartbeat CPU 0 instructions: 29000221 cycles: 6107142 heartbeat IPC: 4.874 cumulative IPC: 4.749 (Simulation time: 00 hr 01 min 56 sec)
Heartbeat CPU 0 instructions: 29500223 cycles: 6210428 heartbeat IPC: 4.841 cumulative IPC: 4.75 (Simulation time: 00 hr 01 min 58 sec)
Heartbeat CPU 0 instructions: 30000227 cycles: 6313576 heartbeat IPC: 4.847 cumulative IPC: 4.752 (Simulation time: 00 hr 02 min 00 sec)
Heartbeat CPU 0 instructions: 30500228 cycles: 6416371 heartbeat IPC: 4.864 cumulative IPC: 4.754 (Simulation time: 00 hr 02 min 02 sec)
Heartbeat CPU 0 instructions: 31000228 cycles: 6519133 heartbeat IPC: 4.866 cumulative IPC: 4.755 (Simulation time: 00 hr 02 min 04 sec)
Heartbeat CPU 0 instructions: 31500234 cycles: 6621974 heartbeat IPC: 4.862 cumulative IPC: 4.757 (Simulation time: 00 hr 02 min 06 sec)
Heartbeat CPU 0 instructions: 32000235 cycles: 6724638 heartbeat IPC: 4.87 cumulative IPC: 4.759 (Simulation time: 00 hr 02 min 08 sec)
Heartbeat CPU 0 instructions: 32500240 cycles: 6827597 heartbeat IPC: 4.856 cumulative IPC: 4.76 (Simulation time: 00 hr 02 min 10 sec)
Heartbeat CPU 0 instructions: 33000242 cycles: 6930486 heartbeat IPC: 4.86 cumulative IPC: 4.762 (Simulation time: 00 hr 02 min 12 sec)
Heartbeat CPU 0 instructions: 33500243 cycles: 7033540 heartbeat IPC: 4.852 cumulative IPC: 4.763 (Simulation time: 00 hr 02 min 14 sec)
Heartbeat CPU 0 instructions: 34000244 cycles: 7136546 heartbeat IPC: 4.854 cumulative IPC: 4.764 (Simulation time: 00 hr 02 min 16 sec)
Heartbeat CPU 0 instructions: 34500248 cycles: 7239564 heartbeat IPC: 4.854 cumulative IPC: 4.766 (Simulation time: 00 hr 02 min 18 sec)
Heartbeat CPU 0 instructions: 35000255 cycles: 7342461 heartbeat IPC: 4.859 cumulative IPC: 4.767 (Simulation time: 00 hr 02 min 20 sec)
Heartbeat CPU 0 instructions: 35500258 cycles: 7445514 heartbeat IPC: 4.852 cumulative IPC: 4.768 (Simulation time: 00 hr 02 min 22 sec)
Heartbeat CPU 0 instructions: 36000264 cycles: 7548896 heartbeat IPC: 4.836 cumulative IPC: 4.769 (Simulation time: 00 hr 02 min 24 sec)
Heartbeat CPU 0 instructions: 36500267 cycles: 7651504 heartbeat IPC: 4.873 cumulative IPC: 4.77 (Simulation time: 00 hr 02 min 26 sec)
Heartbeat CPU 0 instructions: 37000272 cycles: 7754566 heartbeat IPC: 4.851 cumulative IPC: 4.771 (Simulation time: 00 hr 02 min 28 sec)
Heartbeat CPU 0 instructions: 37500276 cycles: 7857536 heartbeat IPC: 4.856 cumulative IPC: 4.773 (Simulation time: 00 hr 02 min 30 sec)
Heartbeat CPU 0 instructions: 38000277 cycles: 7960820 heartbeat IPC: 4.841 cumulative IPC: 4.773 (Simulation time: 00 hr 02 min 32 sec)
Heartbeat CPU 0 instructions: 38500281 cycles: 8063720 heartbeat IPC: 4.859 cumulative IPC: 4.775 (Simulation time: 00 hr 02 min 34 sec)
Heartbeat CPU 0 instructions: 39000285 cycles: 8166913 heartbeat IPC: 4.845 cumulative IPC: 4.775 (Simulation time: 00 hr 02 min 36 sec)
Heartbeat CPU 0 instructions: 39500291 cycles: 8269560 heartbeat IPC: 4.871 cumulative IPC: 4.777 (Simulation time: 00 hr 02 min 38 sec)
Heartbeat CPU 0 instructions: 40000293 cycles: 8372361 heartbeat IPC: 4.864 cumulative IPC: 4.778 (Simulation time: 00 hr 02 min 40 sec)
Heartbeat CPU 0 instructions: 40500294 cycles: 8475297 heartbeat IPC: 4.857 cumulative IPC: 4.779 (Simulation time: 00 hr 02 min 42 sec)
Heartbeat CPU 0 instructions: 41000294 cycles: 8578244 heartbeat IPC: 4.857 cumulative IPC: 4.78 (Simulation time: 00 hr 02 min 44 sec)
Heartbeat CPU 0 instructions: 41500300 cycles: 8681436 heartbeat IPC: 4.845 cumulative IPC: 4.78 (Simulation time: 00 hr 02 min 46 sec)
Heartbeat CPU 0 instructions: 42000300 cycles: 8784231 heartbeat IPC: 4.864 cumulative IPC: 4.781 (Simulation time: 00 hr 02 min 48 sec)
Heartbeat CPU 0 instructions: 42500300 cycles: 8887046 heartbeat IPC: 4.863 cumulative IPC: 4.782 (Simulation time: 00 hr 02 min 50 sec)
Heartbeat CPU 0 instructions: 43000304 cycles: 8990230 heartbeat IPC: 4.846 cumulative IPC: 4.783 (Simulation time: 00 hr 02 min 52 sec)
Heartbeat CPU 0 instructions: 43500305 cycles: 9093423 heartbeat IPC: 4.845 cumulative IPC: 4.784 (Simulation time: 00 hr 02 min 54 sec)
Heartbeat CPU 0 instructions: 44000310 cycles: 9196471 heartbeat IPC: 4.852 cumulative IPC: 4.784 (Simulation time: 00 hr 02 min 56 sec)
Heartbeat CPU 0 instructions: 44500316 cycles: 9299710 heartbeat IPC: 4.843 cumulative IPC: 4.785 (Simulation time: 00 hr 02 min 58 sec)
Heartbeat CPU 0 instructions: 45000323 cycles: 9402517 heartbeat IPC: 4.864 cumulative IPC: 4.786 (Simulation time: 00 hr 03 min 00 sec)
Heartbeat CPU 0 instructions: 45500325 cycles: 9505532 heartbeat IPC: 4.854 cumulative IPC: 4.787 (Simulation time: 00 hr 03 min 02 sec)
Heartbeat CPU 0 instructions: 46000325 cycles: 9608705 heartbeat IPC: 4.846 cumulative IPC: 4.787 (Simulation time: 00 hr 03 min 04 sec)
Heartbeat CPU 0 instructions: 46500325 cycles: 9711882 heartbeat IPC: 4.846 cumulative IPC: 4.788 (Simulation time: 00 hr 03 min 06 sec)
Heartbeat CPU 0 instructions: 47000327 cycles: 9815006 heartbeat IPC: 4.849 cumulative IPC: 4.789 (Simulation time: 00 hr 03 min 08 sec)
Heartbeat CPU 0 instructions: 47500334 cycles: 9917603 heartbeat IPC: 4.874 cumulative IPC: 4.789 (Simulation time: 00 hr 03 min 10 sec)
Heartbeat CPU 0 instructions: 48000341 cycles: 10020578 heartbeat IPC: 4.856 cumulative IPC: 4.79 (Simulation time: 00 hr 03 min 12 sec)
Heartbeat CPU 0 instructions: 48500344 cycles: 10123585 heartbeat IPC: 4.854 cumulative IPC: 4.791 (Simulation time: 00 hr 03 min 14 sec)
Heartbeat CPU 0 instructions: 49000347 cycles: 10226733 heartbeat IPC: 4.847 cumulative IPC: 4.791 (Simulation time: 00 hr 03 min 16 sec)
Heartbeat CPU 0 instructions: 49500349 cycles: 10329861 heartbeat IPC: 4.848 cumulative IPC: 4.792 (Simulation time: 00 hr 03 min 18 sec)
Warmup finished CPU 0 instructions: 50000005 cycles: 10432668 cumulative IPC: 4.793 (Simulation time: 00 hr 03 min 20 sec)
Warmup complete CPU 0 instructions: 50000005 cycles: 10432668 cumulative IPC: 4.793 (Simulation time: 00 hr 03 min 20 sec)
Heartbeat CPU 0 instructions: 50000353 cycles: 10433250 heartbeat IPC: 4.836 cumulative IPC: 0.5979 (Simulation time: 00 hr 03 min 20 sec)
Heartbeat CPU 0 instructions: 50500357 cycles: 11662044 heartbeat IPC: 0.4069 cumulative IPC: 0.407 (Simulation time: 00 hr 03 min 28 sec)
Heartbeat CPU 0 instructions: 51000357 cycles: 12698653 heartbeat IPC: 0.4823 cumulative IPC: 0.4415 (Simulation time: 00 hr 03 min 35 sec)
Heartbeat CPU 0 instructions: 51500358 cycles: 13918580 heartbeat IPC: 0.4099 cumulative IPC: 0.4304 (Simulation time: 00 hr 03 min 44 sec)
Heartbeat CPU 0 instructions: 52000358 cycles: 15076665 heartbeat IPC: 0.4317 cumulative IPC: 0.4307 (Simulation time: 00 hr 03 min 52 sec)
Heartbeat CPU 0 instructions: 52500360 cycles: 16299770 heartbeat IPC: 0.4088 cumulative IPC: 0.4262 (Simulation time: 00 hr 04 min 00 sec)
Heartbeat CPU 0 instructions: 53000360 cycles: 17514156 heartbeat IPC: 0.4117 cumulative IPC: 0.4237 (Simulation time: 00 hr 04 min 09 sec)
Heartbeat CPU 0 instructions: 53500365 cycles: 18678508 heartbeat IPC: 0.4294 cumulative IPC: 0.4245 (Simulation time: 00 hr 04 min 17 sec)
Heartbeat CPU 0 instructions: 54000365 cycles: 19780633 heartbeat IPC: 0.4537 cumulative IPC: 0.4279 (Simulation time: 00 hr 04 min 24 sec)
Heartbeat CPU 0 instructions: 54500367 cycles: 21040334 heartbeat IPC: 0.3969 cumulative IPC: 0.4243 (Simulation time: 00 hr 04 min 33 sec)
Heartbeat CPU 0 instructions: 55000370 cycles: 22333740 heartbeat IPC: 0.3866 cumulative IPC: 0.4202 (Simulation time: 00 hr 04 min 42 sec)
Heartbeat CPU 0 instructions: 55500371 cycles: 23549557 heartbeat IPC: 0.4112 cumulative IPC: 0.4193 (Simulation time: 00 hr 04 min 50 sec)
Heartbeat CPU 0 instructions: 56000374 cycles: 24639119 heartbeat IPC: 0.4589 cumulative IPC: 0.4224 (Simulation time: 00 hr 04 min 58 sec)
Heartbeat CPU 0 instructions: 56500379 cycles: 25724832 heartbeat IPC: 0.4605 cumulative IPC: 0.4251 (Simulation time: 00 hr 05 min 05 sec)
Heartbeat CPU 0 instructions: 57000384 cycles: 26852655 heartbeat IPC: 0.4433 cumulative IPC: 0.4263 (Simulation time: 00 hr 05 min 13 sec)
Heartbeat CPU 0 instructions: 57500388 cycles: 27959271 heartbeat IPC: 0.4518 cumulative IPC: 0.4279 (Simulation time: 00 hr 05 min 21 sec)
Heartbeat CPU 0 instructions: 58000389 cycles: 29014556 heartbeat IPC: 0.4738 cumulative IPC: 0.4305 (Simulation time: 00 hr 05 min 29 sec)
Heartbeat CPU 0 instructions: 58500390 cycles: 30171941 heartbeat IPC: 0.432 cumulative IPC: 0.4306 (Simulation time: 00 hr 05 min 37 sec)
Heartbeat CPU 0 instructions: 59000392 cycles: 31322247 heartbeat IPC: 0.4347 cumulative IPC: 0.4309 (Simulation time: 00 hr 05 min 45 sec)
Heartbeat CPU 0 instructions: 59500398 cycles: 32430315 heartbeat IPC: 0.4512 cumulative IPC: 0.4319 (Simulation time: 00 hr 05 min 53 sec)
Heartbeat CPU 0 instructions: 60000398 cycles: 33540000 heartbeat IPC: 0.4506 cumulative IPC: 0.4328 (Simulation time: 00 hr 06 min 01 sec)
Heartbeat CPU 0 instructions: 60500398 cycles: 34652494 heartbeat IPC: 0.4494 cumulative IPC: 0.4335 (Simulation time: 00 hr 06 min 09 sec)
Heartbeat CPU 0 instructions: 61000402 cycles: 35965613 heartbeat IPC: 0.3808 cumulative IPC: 0.4308 (Simulation time: 00 hr 06 min 18 sec)
Heartbeat CPU 0 instructions: 61500406 cycles: 37098307 heartbeat IPC: 0.4414 cumulative IPC: 0.4313 (Simulation time: 00 hr 06 min 26 sec)
Heartbeat CPU 0 instructions: 62000408 cycles: 38384148 heartbeat IPC: 0.3889 cumulative IPC: 0.4293 (Simulation time: 00 hr 06 min 34 sec)
Heartbeat CPU 0 instructions: 62500408 cycles: 39630606 heartbeat IPC: 0.4011 cumulative IPC: 0.4281 (Simulation time: 00 hr 06 min 43 sec)
Heartbeat CPU 0 instructions: 63000413 cycles: 40635028 heartbeat IPC: 0.4978 cumulative IPC: 0.4304 (Simulation time: 00 hr 06 min 50 sec)
Heartbeat CPU 0 instructions: 63500414 cycles: 41769017 heartbeat IPC: 0.4409 cumulative IPC: 0.4308 (Simulation time: 00 hr 06 min 58 sec)
Heartbeat CPU 0 instructions: 64000416 cycles: 42789713 heartbeat IPC: 0.4899 cumulative IPC: 0.4327 (Simulation time: 00 hr 07 min 06 sec)
Heartbeat CPU 0 instructions: 64500418 cycles: 44079474 heartbeat IPC: 0.3877 cumulative IPC: 0.431 (Simulation time: 00 hr 07 min 15 sec)
Heartbeat CPU 0 instructions: 65000419 cycles: 45453844 heartbeat IPC: 0.3638 cumulative IPC: 0.4283 (Simulation time: 00 hr 07 min 25 sec)
Heartbeat CPU 0 instructions: 65500422 cycles: 46644397 heartbeat IPC: 0.42 cumulative IPC: 0.428 (Simulation time: 00 hr 07 min 33 sec)
Heartbeat CPU 0 instructions: 66000427 cycles: 47955919 heartbeat IPC: 0.3812 cumulative IPC: 0.4264 (Simulation time: 00 hr 07 min 42 sec)
Heartbeat CPU 0 instructions: 66500427 cycles: 49161026 heartbeat IPC: 0.4149 cumulative IPC: 0.4261 (Simulation time: 00 hr 07 min 50 sec)
Heartbeat CPU 0 instructions: 67000427 cycles: 50336861 heartbeat IPC: 0.4252 cumulative IPC: 0.426 (Simulation time: 00 hr 07 min 58 sec)
Heartbeat CPU 0 instructions: 67500427 cycles: 51627354 heartbeat IPC: 0.3874 cumulative IPC: 0.4248 (Simulation time: 00 hr 08 min 08 sec)
Heartbeat CPU 0 instructions: 68000429 cycles: 52876962 heartbeat IPC: 0.4001 cumulative IPC: 0.4241 (Simulation time: 00 hr 08 min 16 sec)
Heartbeat CPU 0 instructions: 68500429 cycles: 54029051 heartbeat IPC: 0.434 cumulative IPC: 0.4244 (Simulation time: 00 hr 08 min 24 sec)
Heartbeat CPU 0 instructions: 69000433 cycles: 55092134 heartbeat IPC: 0.4703 cumulative IPC: 0.4255 (Simulation time: 00 hr 08 min 32 sec)
Heartbeat CPU 0 instructions: 69500436 cycles: 56117458 heartbeat IPC: 0.4877 cumulative IPC: 0.4268 (Simulation time: 00 hr 08 min 40 sec)
Heartbeat CPU 0 instructions: 70000441 cycles: 57224381 heartbeat IPC: 0.4517 cumulative IPC: 0.4274 (Simulation time: 00 hr 08 min 48 sec)
Heartbeat CPU 0 instructions: 70500446 cycles: 58474579 heartbeat IPC: 0.3999 cumulative IPC: 0.4267 (Simulation time: 00 hr 08 min 56 sec)
Heartbeat CPU 0 instructions: 71000447 cycles: 59671350 heartbeat IPC: 0.4178 cumulative IPC: 0.4265 (Simulation time: 00 hr 09 min 05 sec)
Heartbeat CPU 0 instructions: 71500448 cycles: 60800167 heartbeat IPC: 0.4429 cumulative IPC: 0.4269 (Simulation time: 00 hr 09 min 13 sec)
Heartbeat CPU 0 instructions: 72000454 cycles: 62237991 heartbeat IPC: 0.3478 cumulative IPC: 0.4247 (Simulation time: 00 hr 09 min 23 sec)
Heartbeat CPU 0 instructions: 72500454 cycles: 63589279 heartbeat IPC: 0.37 cumulative IPC: 0.4233 (Simulation time: 00 hr 09 min 32 sec)
Heartbeat CPU 0 instructions: 73000457 cycles: 64727601 heartbeat IPC: 0.4392 cumulative IPC: 0.4236 (Simulation time: 00 hr 09 min 40 sec)
Heartbeat CPU 0 instructions: 73500458 cycles: 65946164 heartbeat IPC: 0.4103 cumulative IPC: 0.4233 (Simulation time: 00 hr 09 min 48 sec)
Heartbeat CPU 0 instructions: 74000462 cycles: 67084749 heartbeat IPC: 0.4391 cumulative IPC: 0.4236 (Simulation time: 00 hr 09 min 57 sec)
Heartbeat CPU 0 instructions: 74500465 cycles: 68285637 heartbeat IPC: 0.4164 cumulative IPC: 0.4235 (Simulation time: 00 hr 10 min 05 sec)
Heartbeat CPU 0 instructions: 75000466 cycles: 69464224 heartbeat IPC: 0.4242 cumulative IPC: 0.4235 (Simulation time: 00 hr 10 min 13 sec)
Heartbeat CPU 0 instructions: 75500466 cycles: 70521927 heartbeat IPC: 0.4727 cumulative IPC: 0.4244 (Simulation time: 00 hr 10 min 21 sec)
Heartbeat CPU 0 instructions: 76000467 cycles: 71655616 heartbeat IPC: 0.441 cumulative IPC: 0.4247 (Simulation time: 00 hr 10 min 29 sec)
Heartbeat CPU 0 instructions: 76500469 cycles: 72870822 heartbeat IPC: 0.4115 cumulative IPC: 0.4244 (Simulation time: 00 hr 10 min 37 sec)
Heartbeat CPU 0 instructions: 77000470 cycles: 73980354 heartbeat IPC: 0.4506 cumulative IPC: 0.4249 (Simulation time: 00 hr 10 min 45 sec)
Heartbeat CPU 0 instructions: 77500470 cycles: 75178587 heartbeat IPC: 0.4173 cumulative IPC: 0.4247 (Simulation time: 00 hr 10 min 54 sec)
Heartbeat CPU 0 instructions: 78000471 cycles: 76818534 heartbeat IPC: 0.3049 cumulative IPC: 0.4218 (Simulation time: 00 hr 11 min 04 sec)
Heartbeat CPU 0 instructions: 78500474 cycles: 78107317 heartbeat IPC: 0.388 cumulative IPC: 0.4211 (Simulation time: 00 hr 11 min 13 sec)
Heartbeat CPU 0 instructions: 79000476 cycles: 79285802 heartbeat IPC: 0.4243 cumulative IPC: 0.4212 (Simulation time: 00 hr 11 min 22 sec)
Heartbeat CPU 0 instructions: 79500477 cycles: 80359075 heartbeat IPC: 0.4659 cumulative IPC: 0.4219 (Simulation time: 00 hr 11 min 29 sec)
Heartbeat CPU 0 instructions: 80000477 cycles: 81459838 heartbeat IPC: 0.4542 cumulative IPC: 0.4224 (Simulation time: 00 hr 11 min 37 sec)
Heartbeat CPU 0 instructions: 80500478 cycles: 82479170 heartbeat IPC: 0.4905 cumulative IPC: 0.4233 (Simulation time: 00 hr 11 min 45 sec)
Heartbeat CPU 0 instructions: 81000478 cycles: 83813284 heartbeat IPC: 0.3748 cumulative IPC: 0.4225 (Simulation time: 00 hr 11 min 53 sec)
Heartbeat CPU 0 instructions: 81500479 cycles: 85061016 heartbeat IPC: 0.4007 cumulative IPC: 0.4221 (Simulation time: 00 hr 12 min 02 sec)
Heartbeat CPU 0 instructions: 82000479 cycles: 86241777 heartbeat IPC: 0.4235 cumulative IPC: 0.4221 (Simulation time: 00 hr 12 min 10 sec)
Heartbeat CPU 0 instructions: 82500483 cycles: 87457857 heartbeat IPC: 0.4112 cumulative IPC: 0.4219 (Simulation time: 00 hr 12 min 19 sec)
Heartbeat CPU 0 instructions: 83000488 cycles: 88619225 heartbeat IPC: 0.4305 cumulative IPC: 0.4221 (Simulation time: 00 hr 12 min 27 sec)
Heartbeat CPU 0 instructions: 83500492 cycles: 89809400 heartbeat IPC: 0.4201 cumulative IPC: 0.422 (Simulation time: 00 hr 12 min 36 sec)
Heartbeat CPU 0 instructions: 84000495 cycles: 90952339 heartbeat IPC: 0.4375 cumulative IPC: 0.4223 (Simulation time: 00 hr 12 min 44 sec)
Heartbeat CPU 0 instructions: 84500497 cycles: 92154752 heartbeat IPC: 0.4158 cumulative IPC: 0.4222 (Simulation time: 00 hr 12 min 52 sec)
Heartbeat CPU 0 instructions: 85000502 cycles: 93233968 heartbeat IPC: 0.4633 cumulative IPC: 0.4227 (Simulation time: 00 hr 13 min 00 sec)
Heartbeat CPU 0 instructions: 85500502 cycles: 94338146 heartbeat IPC: 0.4528 cumulative IPC: 0.4231 (Simulation time: 00 hr 13 min 08 sec)
Heartbeat CPU 0 instructions: 86000502 cycles: 95539095 heartbeat IPC: 0.4163 cumulative IPC: 0.423 (Simulation time: 00 hr 13 min 16 sec)
Heartbeat CPU 0 instructions: 86500502 cycles: 96635982 heartbeat IPC: 0.4558 cumulative IPC: 0.4234 (Simulation time: 00 hr 13 min 24 sec)
Heartbeat CPU 0 instructions: 87000502 cycles: 97673210 heartbeat IPC: 0.4821 cumulative IPC: 0.4241 (Simulation time: 00 hr 13 min 31 sec)
Heartbeat CPU 0 instructions: 87500504 cycles: 98794976 heartbeat IPC: 0.4457 cumulative IPC: 0.4244 (Simulation time: 00 hr 13 min 39 sec)
Heartbeat CPU 0 instructions: 88000504 cycles: 100047313 heartbeat IPC: 0.3993 cumulative IPC: 0.424 (Simulation time: 00 hr 13 min 48 sec)
Heartbeat CPU 0 instructions: 88500506 cycles: 101217116 heartbeat IPC: 0.4274 cumulative IPC: 0.4241 (Simulation time: 00 hr 13 min 56 sec)
Heartbeat CPU 0 instructions: 89000509 cycles: 102273929 heartbeat IPC: 0.4731 cumulative IPC: 0.4247 (Simulation time: 00 hr 14 min 04 sec)
Heartbeat CPU 0 instructions: 89500510 cycles: 103760291 heartbeat IPC: 0.3364 cumulative IPC: 0.4232 (Simulation time: 00 hr 14 min 14 sec)
Heartbeat CPU 0 instructions: 90000512 cycles: 104896654 heartbeat IPC: 0.44 cumulative IPC: 0.4234 (Simulation time: 00 hr 14 min 22 sec)
Heartbeat CPU 0 instructions: 90500513 cycles: 106030182 heartbeat IPC: 0.4411 cumulative IPC: 0.4237 (Simulation time: 00 hr 14 min 30 sec)
Heartbeat CPU 0 instructions: 91000513 cycles: 107125878 heartbeat IPC: 0.4563 cumulative IPC: 0.424 (Simulation time: 00 hr 14 min 38 sec)
Heartbeat CPU 0 instructions: 91500517 cycles: 108177800 heartbeat IPC: 0.4753 cumulative IPC: 0.4246 (Simulation time: 00 hr 14 min 45 sec)
Heartbeat CPU 0 instructions: 92000523 cycles: 109342470 heartbeat IPC: 0.4293 cumulative IPC: 0.4246 (Simulation time: 00 hr 14 min 54 sec)
Heartbeat CPU 0 instructions: 92500525 cycles: 110557264 heartbeat IPC: 0.4116 cumulative IPC: 0.4245 (Simulation time: 00 hr 15 min 03 sec)
Heartbeat CPU 0 instructions: 93000527 cycles: 111653143 heartbeat IPC: 0.4563 cumulative IPC: 0.4248 (Simulation time: 00 hr 15 min 11 sec)
Heartbeat CPU 0 instructions: 93500530 cycles: 112856452 heartbeat IPC: 0.4155 cumulative IPC: 0.4247 (Simulation time: 00 hr 15 min 20 sec)
Heartbeat CPU 0 instructions: 94000530 cycles: 114117038 heartbeat IPC: 0.3966 cumulative IPC: 0.4244 (Simulation time: 00 hr 15 min 29 sec)
Heartbeat CPU 0 instructions: 94500530 cycles: 115220274 heartbeat IPC: 0.4532 cumulative IPC: 0.4247 (Simulation time: 00 hr 15 min 37 sec)
Heartbeat CPU 0 instructions: 95000534 cycles: 116370407 heartbeat IPC: 0.4347 cumulative IPC: 0.4248 (Simulation time: 00 hr 15 min 45 sec)
Heartbeat CPU 0 instructions: 95500534 cycles: 117430182 heartbeat IPC: 0.4718 cumulative IPC: 0.4252 (Simulation time: 00 hr 15 min 53 sec)
Heartbeat CPU 0 instructions: 96000537 cycles: 118571097 heartbeat IPC: 0.4382 cumulative IPC: 0.4254 (Simulation time: 00 hr 16 min 01 sec)
Heartbeat CPU 0 instructions: 96500538 cycles: 119646808 heartbeat IPC: 0.4648 cumulative IPC: 0.4258 (Simulation time: 00 hr 16 min 09 sec)
Heartbeat CPU 0 instructions: 97000544 cycles: 120785141 heartbeat IPC: 0.4392 cumulative IPC: 0.4259 (Simulation time: 00 hr 16 min 17 sec)
Heartbeat CPU 0 instructions: 97500548 cycles: 121836104 heartbeat IPC: 0.4758 cumulative IPC: 0.4264 (Simulation time: 00 hr 16 min 24 sec)
Heartbeat CPU 0 instructions: 98000550 cycles: 122987809 heartbeat IPC: 0.4341 cumulative IPC: 0.4265 (Simulation time: 00 hr 16 min 33 sec)
Heartbeat CPU 0 instructions: 98500552 cycles: 124117377 heartbeat IPC: 0.4426 cumulative IPC: 0.4266 (Simulation time: 00 hr 16 min 41 sec)
Heartbeat CPU 0 instructions: 99000555 cycles: 125223593 heartbeat IPC: 0.452 cumulative IPC: 0.4269 (Simulation time: 00 hr 16 min 49 sec)
Heartbeat CPU 0 instructions: 99500557 cycles: 126495167 heartbeat IPC: 0.3932 cumulative IPC: 0.4265 (Simulation time: 00 hr 16 min 57 sec)
Heartbeat CPU 0 instructions: 100000558 cycles: 127715685 heartbeat IPC: 0.4097 cumulative IPC: 0.4263 (Simulation time: 00 hr 17 min 06 sec)
Heartbeat CPU 0 instructions: 100500560 cycles: 129105326 heartbeat IPC: 0.3598 cumulative IPC: 0.4255 (Simulation time: 00 hr 17 min 16 sec)
Heartbeat CPU 0 instructions: 101000562 cycles: 130238921 heartbeat IPC: 0.4411 cumulative IPC: 0.4257 (Simulation time: 00 hr 17 min 24 sec)
Heartbeat CPU 0 instructions: 101500562 cycles: 131329394 heartbeat IPC: 0.4585 cumulative IPC: 0.426 (Simulation time: 00 hr 17 min 32 sec)
Heartbeat CPU 0 instructions: 102000565 cycles: 132397937 heartbeat IPC: 0.4679 cumulative IPC: 0.4264 (Simulation time: 00 hr 17 min 40 sec)
Heartbeat CPU 0 instructions: 102500566 cycles: 133538919 heartbeat IPC: 0.4382 cumulative IPC: 0.4265 (Simulation time: 00 hr 17 min 48 sec)
Heartbeat CPU 0 instructions: 103000568 cycles: 134767866 heartbeat IPC: 0.4069 cumulative IPC: 0.4263 (Simulation time: 00 hr 17 min 56 sec)
Heartbeat CPU 0 instructions: 103500571 cycles: 135907645 heartbeat IPC: 0.4387 cumulative IPC: 0.4264 (Simulation time: 00 hr 18 min 04 sec)
Heartbeat CPU 0 instructions: 104000573 cycles: 136957865 heartbeat IPC: 0.4761 cumulative IPC: 0.4268 (Simulation time: 00 hr 18 min 12 sec)
Heartbeat CPU 0 instructions: 104500577 cycles: 138147588 heartbeat IPC: 0.4203 cumulative IPC: 0.4267 (Simulation time: 00 hr 18 min 20 sec)
Heartbeat CPU 0 instructions: 105000578 cycles: 139303740 heartbeat IPC: 0.4325 cumulative IPC: 0.4268 (Simulation time: 00 hr 18 min 29 sec)
Heartbeat CPU 0 instructions: 105500578 cycles: 140386297 heartbeat IPC: 0.4619 cumulative IPC: 0.4271 (Simulation time: 00 hr 18 min 37 sec)
Heartbeat CPU 0 instructions: 106000582 cycles: 141649289 heartbeat IPC: 0.3959 cumulative IPC: 0.4268 (Simulation time: 00 hr 18 min 48 sec)
Heartbeat CPU 0 instructions: 106500586 cycles: 142851936 heartbeat IPC: 0.4158 cumulative IPC: 0.4267 (Simulation time: 00 hr 18 min 58 sec)
Heartbeat CPU 0 instructions: 107000586 cycles: 143953999 heartbeat IPC: 0.4537 cumulative IPC: 0.4269 (Simulation time: 00 hr 19 min 07 sec)
Heartbeat CPU 0 instructions: 107500586 cycles: 145030092 heartbeat IPC: 0.4646 cumulative IPC: 0.4272 (Simulation time: 00 hr 19 min 16 sec)
Heartbeat CPU 0 instructions: 108000588 cycles: 146109209 heartbeat IPC: 0.4633 cumulative IPC: 0.4275 (Simulation time: 00 hr 19 min 26 sec)
Heartbeat CPU 0 instructions: 108500588 cycles: 147410126 heartbeat IPC: 0.3843 cumulative IPC: 0.4271 (Simulation time: 00 hr 19 min 37 sec)
Heartbeat CPU 0 instructions: 109000588 cycles: 148432428 heartbeat IPC: 0.4891 cumulative IPC: 0.4275 (Simulation time: 00 hr 19 min 46 sec)
Heartbeat CPU 0 instructions: 109500588 cycles: 149650013 heartbeat IPC: 0.4106 cumulative IPC: 0.4274 (Simulation time: 00 hr 19 min 56 sec)
Heartbeat CPU 0 instructions: 110000588 cycles: 150885527 heartbeat IPC: 0.4047 cumulative IPC: 0.4272 (Simulation time: 00 hr 20 min 07 sec)
Heartbeat CPU 0 instructions: 110500588 cycles: 152011635 heartbeat IPC: 0.444 cumulative IPC: 0.4273 (Simulation time: 00 hr 20 min 17 sec)
Heartbeat CPU 0 instructions: 111000588 cycles: 153149115 heartbeat IPC: 0.4396 cumulative IPC: 0.4274 (Simulation time: 00 hr 20 min 26 sec)
Heartbeat CPU 0 instructions: 111500588 cycles: 154293299 heartbeat IPC: 0.437 cumulative IPC: 0.4275 (Simulation time: 00 hr 20 min 34 sec)
Heartbeat CPU 0 instructions: 112000589 cycles: 155511142 heartbeat IPC: 0.4106 cumulative IPC: 0.4274 (Simulation time: 00 hr 20 min 42 sec)
Heartbeat CPU 0 instructions: 112500589 cycles: 156729226 heartbeat IPC: 0.4105 cumulative IPC: 0.4272 (Simulation time: 00 hr 20 min 51 sec)
Heartbeat CPU 0 instructions: 113000591 cycles: 157948958 heartbeat IPC: 0.4099 cumulative IPC: 0.4271 (Simulation time: 00 hr 21 min 00 sec)
Heartbeat CPU 0 instructions: 113500591 cycles: 159476829 heartbeat IPC: 0.3273 cumulative IPC: 0.4261 (Simulation time: 00 hr 21 min 10 sec)
Heartbeat CPU 0 instructions: 114000592 cycles: 160545658 heartbeat IPC: 0.4678 cumulative IPC: 0.4263 (Simulation time: 00 hr 21 min 18 sec)
Heartbeat CPU 0 instructions: 114500593 cycles: 161728816 heartbeat IPC: 0.4226 cumulative IPC: 0.4263 (Simulation time: 00 hr 21 min 26 sec)
Heartbeat CPU 0 instructions: 115000598 cycles: 162892543 heartbeat IPC: 0.4297 cumulative IPC: 0.4263 (Simulation time: 00 hr 21 min 34 sec)
Heartbeat CPU 0 instructions: 115500604 cycles: 163987315 heartbeat IPC: 0.4567 cumulative IPC: 0.4266 (Simulation time: 00 hr 21 min 42 sec)
Heartbeat CPU 0 instructions: 116000608 cycles: 165071898 heartbeat IPC: 0.461 cumulative IPC: 0.4268 (Simulation time: 00 hr 21 min 50 sec)
Heartbeat CPU 0 instructions: 116500608 cycles: 166100866 heartbeat IPC: 0.4859 cumulative IPC: 0.4272 (Simulation time: 00 hr 21 min 58 sec)
Heartbeat CPU 0 instructions: 117000608 cycles: 167255102 heartbeat IPC: 0.4332 cumulative IPC: 0.4272 (Simulation time: 00 hr 22 min 06 sec)
Heartbeat CPU 0 instructions: 117500610 cycles: 168328147 heartbeat IPC: 0.466 cumulative IPC: 0.4275 (Simulation time: 00 hr 22 min 13 sec)
Heartbeat CPU 0 instructions: 118000610 cycles: 169426342 heartbeat IPC: 0.4553 cumulative IPC: 0.4277 (Simulation time: 00 hr 22 min 21 sec)
Heartbeat CPU 0 instructions: 118500611 cycles: 170559665 heartbeat IPC: 0.4412 cumulative IPC: 0.4278 (Simulation time: 00 hr 22 min 29 sec)
Heartbeat CPU 0 instructions: 119000615 cycles: 171580374 heartbeat IPC: 0.4899 cumulative IPC: 0.4282 (Simulation time: 00 hr 22 min 37 sec)
Heartbeat CPU 0 instructions: 119500617 cycles: 172931884 heartbeat IPC: 0.37 cumulative IPC: 0.4277 (Simulation time: 00 hr 22 min 46 sec)
Heartbeat CPU 0 instructions: 120000617 cycles: 174052908 heartbeat IPC: 0.446 cumulative IPC: 0.4278 (Simulation time: 00 hr 22 min 54 sec)
Heartbeat CPU 0 instructions: 120500619 cycles: 175171649 heartbeat IPC: 0.4469 cumulative IPC: 0.428 (Simulation time: 00 hr 23 min 03 sec)
Heartbeat CPU 0 instructions: 121000621 cycles: 176383474 heartbeat IPC: 0.4126 cumulative IPC: 0.4278 (Simulation time: 00 hr 23 min 11 sec)
Heartbeat CPU 0 instructions: 121500621 cycles: 177399150 heartbeat IPC: 0.4923 cumulative IPC: 0.4282 (Simulation time: 00 hr 23 min 19 sec)
Heartbeat CPU 0 instructions: 122000623 cycles: 178173904 heartbeat IPC: 0.6454 cumulative IPC: 0.4292 (Simulation time: 00 hr 23 min 25 sec)
Heartbeat CPU 0 instructions: 122500625 cycles: 178987501 heartbeat IPC: 0.6146 cumulative IPC: 0.4301 (Simulation time: 00 hr 23 min 31 sec)
Heartbeat CPU 0 instructions: 123000629 cycles: 180099314 heartbeat IPC: 0.4497 cumulative IPC: 0.4303 (Simulation time: 00 hr 23 min 39 sec)
Heartbeat CPU 0 instructions: 123500629 cycles: 181270644 heartbeat IPC: 0.4269 cumulative IPC: 0.4302 (Simulation time: 00 hr 23 min 47 sec)
Heartbeat CPU 0 instructions: 124000629 cycles: 182335602 heartbeat IPC: 0.4695 cumulative IPC: 0.4305 (Simulation time: 00 hr 23 min 55 sec)
Heartbeat CPU 0 instructions: 124500632 cycles: 183410737 heartbeat IPC: 0.4651 cumulative IPC: 0.4307 (Simulation time: 00 hr 24 min 03 sec)
Heartbeat CPU 0 instructions: 125000635 cycles: 184426846 heartbeat IPC: 0.4921 cumulative IPC: 0.4311 (Simulation time: 00 hr 24 min 10 sec)
Heartbeat CPU 0 instructions: 125500635 cycles: 185440831 heartbeat IPC: 0.4931 cumulative IPC: 0.4314 (Simulation time: 00 hr 24 min 18 sec)
Heartbeat CPU 0 instructions: 126000638 cycles: 186560279 heartbeat IPC: 0.4467 cumulative IPC: 0.4315 (Simulation time: 00 hr 24 min 26 sec)
Heartbeat CPU 0 instructions: 126500643 cycles: 187933748 heartbeat IPC: 0.364 cumulative IPC: 0.431 (Simulation time: 00 hr 24 min 35 sec)
Heartbeat CPU 0 instructions: 127000643 cycles: 189166494 heartbeat IPC: 0.4056 cumulative IPC: 0.4308 (Simulation time: 00 hr 24 min 44 sec)
Heartbeat CPU 0 instructions: 127500643 cycles: 190271937 heartbeat IPC: 0.4523 cumulative IPC: 0.4309 (Simulation time: 00 hr 24 min 52 sec)
Heartbeat CPU 0 instructions: 128000645 cycles: 191346983 heartbeat IPC: 0.4651 cumulative IPC: 0.4311 (Simulation time: 00 hr 24 min 59 sec)
Heartbeat CPU 0 instructions: 128500645 cycles: 192546493 heartbeat IPC: 0.4168 cumulative IPC: 0.4311 (Simulation time: 00 hr 25 min 08 sec)
Heartbeat CPU 0 instructions: 129000645 cycles: 193798112 heartbeat IPC: 0.3995 cumulative IPC: 0.4308 (Simulation time: 00 hr 25 min 16 sec)
Heartbeat CPU 0 instructions: 129500645 cycles: 194885458 heartbeat IPC: 0.4598 cumulative IPC: 0.431 (Simulation time: 00 hr 25 min 24 sec)
Heartbeat CPU 0 instructions: 130000645 cycles: 195930955 heartbeat IPC: 0.4782 cumulative IPC: 0.4313 (Simulation time: 00 hr 25 min 32 sec)
Heartbeat CPU 0 instructions: 130500648 cycles: 197151750 heartbeat IPC: 0.4096 cumulative IPC: 0.4311 (Simulation time: 00 hr 25 min 40 sec)
Heartbeat CPU 0 instructions: 131000648 cycles: 198226727 heartbeat IPC: 0.4651 cumulative IPC: 0.4313 (Simulation time: 00 hr 25 min 48 sec)
Heartbeat CPU 0 instructions: 131500650 cycles: 199358959 heartbeat IPC: 0.4416 cumulative IPC: 0.4314 (Simulation time: 00 hr 25 min 56 sec)
Heartbeat CPU 0 instructions: 132000650 cycles: 200418261 heartbeat IPC: 0.472 cumulative IPC: 0.4316 (Simulation time: 00 hr 26 min 03 sec)
Heartbeat CPU 0 instructions: 132500650 cycles: 201594195 heartbeat IPC: 0.4252 cumulative IPC: 0.4316 (Simulation time: 00 hr 26 min 11 sec)
Heartbeat CPU 0 instructions: 133000655 cycles: 202894319 heartbeat IPC: 0.3846 cumulative IPC: 0.4313 (Simulation time: 00 hr 26 min 21 sec)
Heartbeat CPU 0 instructions: 133500657 cycles: 204024094 heartbeat IPC: 0.4426 cumulative IPC: 0.4313 (Simulation time: 00 hr 26 min 29 sec)
Heartbeat CPU 0 instructions: 134000657 cycles: 205557843 heartbeat IPC: 0.326 cumulative IPC: 0.4305 (Simulation time: 00 hr 26 min 39 sec)
Heartbeat CPU 0 instructions: 134500659 cycles: 206754045 heartbeat IPC: 0.418 cumulative IPC: 0.4304 (Simulation time: 00 hr 26 min 47 sec)
Heartbeat CPU 0 instructions: 135000661 cycles: 207975675 heartbeat IPC: 0.4093 cumulative IPC: 0.4303 (Simulation time: 00 hr 26 min 56 sec)
Heartbeat CPU 0 instructions: 135500662 cycles: 208985084 heartbeat IPC: 0.4953 cumulative IPC: 0.4306 (Simulation time: 00 hr 27 min 03 sec)
Heartbeat CPU 0 instructions: 136000662 cycles: 209943832 heartbeat IPC: 0.5215 cumulative IPC: 0.4311 (Simulation time: 00 hr 27 min 10 sec)
Heartbeat CPU 0 instructions: 136500667 cycles: 211078657 heartbeat IPC: 0.4406 cumulative IPC: 0.4311 (Simulation time: 00 hr 27 min 18 sec)
Heartbeat CPU 0 instructions: 137000668 cycles: 212196385 heartbeat IPC: 0.4473 cumulative IPC: 0.4312 (Simulation time: 00 hr 27 min 26 sec)
Heartbeat CPU 0 instructions: 137500671 cycles: 213287082 heartbeat IPC: 0.4584 cumulative IPC: 0.4313 (Simulation time: 00 hr 27 min 33 sec)
Heartbeat CPU 0 instructions: 138000673 cycles: 214376929 heartbeat IPC: 0.4588 cumulative IPC: 0.4315 (Simulation time: 00 hr 27 min 41 sec)
Heartbeat CPU 0 instructions: 138500675 cycles: 215567203 heartbeat IPC: 0.4201 cumulative IPC: 0.4314 (Simulation time: 00 hr 27 min 49 sec)
Heartbeat CPU 0 instructions: 139000675 cycles: 216621936 heartbeat IPC: 0.4741 cumulative IPC: 0.4316 (Simulation time: 00 hr 27 min 56 sec)
Heartbeat CPU 0 instructions: 139500677 cycles: 217723486 heartbeat IPC: 0.4539 cumulative IPC: 0.4318 (Simulation time: 00 hr 28 min 04 sec)
Heartbeat CPU 0 instructions: 140000677 cycles: 218734114 heartbeat IPC: 0.4947 cumulative IPC: 0.4321 (Simulation time: 00 hr 28 min 11 sec)
Heartbeat CPU 0 instructions: 140500677 cycles: 219917365 heartbeat IPC: 0.4226 cumulative IPC: 0.432 (Simulation time: 00 hr 28 min 19 sec)
Heartbeat CPU 0 instructions: 141000681 cycles: 220949622 heartbeat IPC: 0.4844 cumulative IPC: 0.4323 (Simulation time: 00 hr 28 min 26 sec)
Heartbeat CPU 0 instructions: 141500681 cycles: 221989975 heartbeat IPC: 0.4806 cumulative IPC: 0.4325 (Simulation time: 00 hr 28 min 34 sec)
Heartbeat CPU 0 instructions: 142000685 cycles: 223185440 heartbeat IPC: 0.4183 cumulative IPC: 0.4324 (Simulation time: 00 hr 28 min 42 sec)
Heartbeat CPU 0 instructions: 142500687 cycles: 224180051 heartbeat IPC: 0.5027 cumulative IPC: 0.4328 (Simulation time: 00 hr 28 min 49 sec)
Heartbeat CPU 0 instructions: 143000687 cycles: 225260283 heartbeat IPC: 0.4629 cumulative IPC: 0.4329 (Simulation time: 00 hr 28 min 57 sec)
Heartbeat CPU 0 instructions: 143500690 cycles: 226323224 heartbeat IPC: 0.4704 cumulative IPC: 0.4331 (Simulation time: 00 hr 29 min 04 sec)
Heartbeat CPU 0 instructions: 144000694 cycles: 227403044 heartbeat IPC: 0.463 cumulative IPC: 0.4332 (Simulation time: 00 hr 29 min 12 sec)
Heartbeat CPU 0 instructions: 144500694 cycles: 228636356 heartbeat IPC: 0.4054 cumulative IPC: 0.4331 (Simulation time: 00 hr 29 min 20 sec)
Heartbeat CPU 0 instructions: 145000696 cycles: 229700924 heartbeat IPC: 0.4697 cumulative IPC: 0.4333 (Simulation time: 00 hr 29 min 28 sec)
Heartbeat CPU 0 instructions: 145500697 cycles: 230732927 heartbeat IPC: 0.4845 cumulative IPC: 0.4335 (Simulation time: 00 hr 29 min 35 sec)
Heartbeat CPU 0 instructions: 146000697 cycles: 231814570 heartbeat IPC: 0.4623 cumulative IPC: 0.4336 (Simulation time: 00 hr 29 min 44 sec)
Heartbeat CPU 0 instructions: 146500702 cycles: 232856142 heartbeat IPC: 0.48 cumulative IPC: 0.4339 (Simulation time: 00 hr 29 min 53 sec)
Heartbeat CPU 0 instructions: 147000703 cycles: 233859842 heartbeat IPC: 0.4982 cumulative IPC: 0.4341 (Simulation time: 00 hr 30 min 02 sec)
Heartbeat CPU 0 instructions: 147500703 cycles: 235150723 heartbeat IPC: 0.3873 cumulative IPC: 0.4339 (Simulation time: 00 hr 30 min 12 sec)
Heartbeat CPU 0 instructions: 148000705 cycles: 236171972 heartbeat IPC: 0.4896 cumulative IPC: 0.4341 (Simulation time: 00 hr 30 min 21 sec)
Heartbeat CPU 0 instructions: 148500708 cycles: 237293583 heartbeat IPC: 0.4458 cumulative IPC: 0.4342 (Simulation time: 00 hr 30 min 30 sec)
Heartbeat CPU 0 instructions: 149000712 cycles: 238450858 heartbeat IPC: 0.4321 cumulative IPC: 0.4342 (Simulation time: 00 hr 30 min 39 sec)
Heartbeat CPU 0 instructions: 149500714 cycles: 239713968 heartbeat IPC: 0.3958 cumulative IPC: 0.434 (Simulation time: 00 hr 30 min 49 sec)
Heartbeat CPU 0 instructions: 150000717 cycles: 240867215 heartbeat IPC: 0.4336 cumulative IPC: 0.434 (Simulation time: 00 hr 30 min 59 sec)
Heartbeat CPU 0 instructions: 150500719 cycles: 241940946 heartbeat IPC: 0.4657 cumulative IPC: 0.4341 (Simulation time: 00 hr 31 min 08 sec)
Heartbeat CPU 0 instructions: 151000719 cycles: 243170720 heartbeat IPC: 0.4066 cumulative IPC: 0.434 (Simulation time: 00 hr 31 min 17 sec)
Heartbeat CPU 0 instructions: 151500720 cycles: 244219484 heartbeat IPC: 0.4768 cumulative IPC: 0.4342 (Simulation time: 00 hr 31 min 26 sec)
Heartbeat CPU 0 instructions: 152000722 cycles: 245345283 heartbeat IPC: 0.4441 cumulative IPC: 0.4342 (Simulation time: 00 hr 31 min 35 sec)
Heartbeat CPU 0 instructions: 152500724 cycles: 246698793 heartbeat IPC: 0.3694 cumulative IPC: 0.4338 (Simulation time: 00 hr 31 min 46 sec)
Heartbeat CPU 0 instructions: 153000724 cycles: 247714913 heartbeat IPC: 0.4921 cumulative IPC: 0.4341 (Simulation time: 00 hr 31 min 55 sec)
Heartbeat CPU 0 instructions: 153500728 cycles: 248941942 heartbeat IPC: 0.4075 cumulative IPC: 0.4339 (Simulation time: 00 hr 32 min 05 sec)
Heartbeat CPU 0 instructions: 154000734 cycles: 250126044 heartbeat IPC: 0.4223 cumulative IPC: 0.4339 (Simulation time: 00 hr 32 min 14 sec)
Heartbeat CPU 0 instructions: 154500738 cycles: 251219974 heartbeat IPC: 0.4571 cumulative IPC: 0.434 (Simulation time: 00 hr 32 min 23 sec)
Heartbeat CPU 0 instructions: 155000739 cycles: 252329545 heartbeat IPC: 0.4506 cumulative IPC: 0.4341 (Simulation time: 00 hr 32 min 32 sec)
Heartbeat CPU 0 instructions: 155500740 cycles: 253501643 heartbeat IPC: 0.4266 cumulative IPC: 0.434 (Simulation time: 00 hr 32 min 42 sec)
Heartbeat CPU 0 instructions: 156000742 cycles: 254583635 heartbeat IPC: 0.4621 cumulative IPC: 0.4342 (Simulation time: 00 hr 32 min 50 sec)
Heartbeat CPU 0 instructions: 156500743 cycles: 255909686 heartbeat IPC: 0.3771 cumulative IPC: 0.4339 (Simulation time: 00 hr 33 min 01 sec)
Heartbeat CPU 0 instructions: 157000743 cycles: 256964972 heartbeat IPC: 0.4738 cumulative IPC: 0.434 (Simulation time: 00 hr 33 min 10 sec)
Heartbeat CPU 0 instructions: 157500746 cycles: 258152734 heartbeat IPC: 0.421 cumulative IPC: 0.434 (Simulation time: 00 hr 33 min 20 sec)
Heartbeat CPU 0 instructions: 158000750 cycles: 259135387 heartbeat IPC: 0.5088 cumulative IPC: 0.4343 (Simulation time: 00 hr 33 min 28 sec)
Heartbeat CPU 0 instructions: 158500751 cycles: 260241652 heartbeat IPC: 0.452 cumulative IPC: 0.4343 (Simulation time: 00 hr 33 min 37 sec)
Heartbeat CPU 0 instructions: 159000752 cycles: 261257591 heartbeat IPC: 0.4922 cumulative IPC: 0.4346 (Simulation time: 00 hr 33 min 46 sec)
Heartbeat CPU 0 instructions: 159500754 cycles: 262415358 heartbeat IPC: 0.4319 cumulative IPC: 0.4346 (Simulation time: 00 hr 33 min 55 sec)
Heartbeat CPU 0 instructions: 160000754 cycles: 263553726 heartbeat IPC: 0.4392 cumulative IPC: 0.4346 (Simulation time: 00 hr 34 min 05 sec)
Heartbeat CPU 0 instructions: 160500755 cycles: 264852234 heartbeat IPC: 0.3851 cumulative IPC: 0.4343 (Simulation time: 00 hr 34 min 15 sec)
Heartbeat CPU 0 instructions: 161000756 cycles: 265958385 heartbeat IPC: 0.452 cumulative IPC: 0.4344 (Simulation time: 00 hr 34 min 24 sec)
Heartbeat CPU 0 instructions: 161500756 cycles: 267138305 heartbeat IPC: 0.4238 cumulative IPC: 0.4344 (Simulation time: 00 hr 34 min 33 sec)
Heartbeat CPU 0 instructions: 162000760 cycles: 268254878 heartbeat IPC: 0.4478 cumulative IPC: 0.4344 (Simulation time: 00 hr 34 min 42 sec)
Heartbeat CPU 0 instructions: 162500763 cycles: 269381820 heartbeat IPC: 0.4437 cumulative IPC: 0.4345 (Simulation time: 00 hr 34 min 52 sec)
Heartbeat CPU 0 instructions: 163000765 cycles: 270492190 heartbeat IPC: 0.4503 cumulative IPC: 0.4345 (Simulation time: 00 hr 35 min 01 sec)
Heartbeat CPU 0 instructions: 163500766 cycles: 271831650 heartbeat IPC: 0.3733 cumulative IPC: 0.4342 (Simulation time: 00 hr 35 min 11 sec)
Heartbeat CPU 0 instructions: 164000767 cycles: 273007547 heartbeat IPC: 0.4252 cumulative IPC: 0.4342 (Simulation time: 00 hr 35 min 21 sec)
Heartbeat CPU 0 instructions: 164500769 cycles: 274117597 heartbeat IPC: 0.4504 cumulative IPC: 0.4342 (Simulation time: 00 hr 35 min 30 sec)
Heartbeat CPU 0 instructions: 165000773 cycles: 275216945 heartbeat IPC: 0.4548 cumulative IPC: 0.4343 (Simulation time: 00 hr 35 min 39 sec)
Heartbeat CPU 0 instructions: 165500773 cycles: 276220480 heartbeat IPC: 0.4982 cumulative IPC: 0.4346 (Simulation time: 00 hr 35 min 48 sec)
Heartbeat CPU 0 instructions: 166000775 cycles: 277242303 heartbeat IPC: 0.4893 cumulative IPC: 0.4348 (Simulation time: 00 hr 35 min 57 sec)
Heartbeat CPU 0 instructions: 166500775 cycles: 278362082 heartbeat IPC: 0.4465 cumulative IPC: 0.4348 (Simulation time: 00 hr 36 min 06 sec)
Heartbeat CPU 0 instructions: 167000777 cycles: 279466598 heartbeat IPC: 0.4527 cumulative IPC: 0.4349 (Simulation time: 00 hr 36 min 15 sec)
Heartbeat CPU 0 instructions: 167500781 cycles: 280572047 heartbeat IPC: 0.4523 cumulative IPC: 0.435 (Simulation time: 00 hr 36 min 24 sec)
Heartbeat CPU 0 instructions: 168000784 cycles: 281750983 heartbeat IPC: 0.4241 cumulative IPC: 0.4349 (Simulation time: 00 hr 36 min 34 sec)
Heartbeat CPU 0 instructions: 168500784 cycles: 282910156 heartbeat IPC: 0.4313 cumulative IPC: 0.4349 (Simulation time: 00 hr 36 min 44 sec)
Heartbeat CPU 0 instructions: 169000784 cycles: 284070216 heartbeat IPC: 0.431 cumulative IPC: 0.4349 (Simulation time: 00 hr 36 min 53 sec)
Heartbeat CPU 0 instructions: 169500788 cycles: 285331367 heartbeat IPC: 0.3965 cumulative IPC: 0.4347 (Simulation time: 00 hr 37 min 03 sec)
Heartbeat CPU 0 instructions: 170000790 cycles: 286514114 heartbeat IPC: 0.4227 cumulative IPC: 0.4347 (Simulation time: 00 hr 37 min 13 sec)
Heartbeat CPU 0 instructions: 170500794 cycles: 287715079 heartbeat IPC: 0.4163 cumulative IPC: 0.4346 (Simulation time: 00 hr 37 min 23 sec)
Heartbeat CPU 0 instructions: 171000796 cycles: 288746092 heartbeat IPC: 0.485 cumulative IPC: 0.4348 (Simulation time: 00 hr 37 min 31 sec)
Heartbeat CPU 0 instructions: 171500796 cycles: 289763006 heartbeat IPC: 0.4917 cumulative IPC: 0.435 (Simulation time: 00 hr 37 min 40 sec)
Heartbeat CPU 0 instructions: 172000796 cycles: 290874764 heartbeat IPC: 0.4497 cumulative IPC: 0.435 (Simulation time: 00 hr 37 min 50 sec)
Heartbeat CPU 0 instructions: 172500800 cycles: 292149246 heartbeat IPC: 0.3923 cumulative IPC: 0.4348 (Simulation time: 00 hr 38 min 00 sec)
Heartbeat CPU 0 instructions: 173000806 cycles: 293263056 heartbeat IPC: 0.4489 cumulative IPC: 0.4349 (Simulation time: 00 hr 38 min 09 sec)
Heartbeat CPU 0 instructions: 173500811 cycles: 294254162 heartbeat IPC: 0.5045 cumulative IPC: 0.4351 (Simulation time: 00 hr 38 min 17 sec)
Heartbeat CPU 0 instructions: 174000811 cycles: 295409000 heartbeat IPC: 0.433 cumulative IPC: 0.4351 (Simulation time: 00 hr 38 min 27 sec)
Heartbeat CPU 0 instructions: 174500811 cycles: 296577079 heartbeat IPC: 0.4281 cumulative IPC: 0.4351 (Simulation time: 00 hr 38 min 36 sec)
Heartbeat CPU 0 instructions: 175000811 cycles: 297660285 heartbeat IPC: 0.4616 cumulative IPC: 0.4352 (Simulation time: 00 hr 38 min 45 sec)
Heartbeat CPU 0 instructions: 175500811 cycles: 298746845 heartbeat IPC: 0.4602 cumulative IPC: 0.4353 (Simulation time: 00 hr 38 min 54 sec)
Heartbeat CPU 0 instructions: 176000813 cycles: 299900464 heartbeat IPC: 0.4334 cumulative IPC: 0.4353 (Simulation time: 00 hr 39 min 03 sec)
Heartbeat CPU 0 instructions: 176500813 cycles: 301075742 heartbeat IPC: 0.4254 cumulative IPC: 0.4352 (Simulation time: 00 hr 39 min 13 sec)
Heartbeat CPU 0 instructions: 177000813 cycles: 302249972 heartbeat IPC: 0.4258 cumulative IPC: 0.4352 (Simulation time: 00 hr 39 min 22 sec)
Heartbeat CPU 0 instructions: 177500817 cycles: 303535058 heartbeat IPC: 0.3891 cumulative IPC: 0.435 (Simulation time: 00 hr 39 min 33 sec)
Heartbeat CPU 0 instructions: 178000821 cycles: 304629267 heartbeat IPC: 0.457 cumulative IPC: 0.4351 (Simulation time: 00 hr 39 min 41 sec)
Heartbeat CPU 0 instructions: 178500821 cycles: 305870765 heartbeat IPC: 0.4027 cumulative IPC: 0.435 (Simulation time: 00 hr 39 min 52 sec)
Heartbeat CPU 0 instructions: 179000821 cycles: 307190303 heartbeat IPC: 0.3789 cumulative IPC: 0.4347 (Simulation time: 00 hr 40 min 02 sec)
Heartbeat CPU 0 instructions: 179500821 cycles: 308227193 heartbeat IPC: 0.4822 cumulative IPC: 0.4349 (Simulation time: 00 hr 40 min 11 sec)
Heartbeat CPU 0 instructions: 180000823 cycles: 309270604 heartbeat IPC: 0.4792 cumulative IPC: 0.435 (Simulation time: 00 hr 40 min 20 sec)
Heartbeat CPU 0 instructions: 180500828 cycles: 310467258 heartbeat IPC: 0.4178 cumulative IPC: 0.435 (Simulation time: 00 hr 40 min 29 sec)
Heartbeat CPU 0 instructions: 181000829 cycles: 311565197 heartbeat IPC: 0.4554 cumulative IPC: 0.435 (Simulation time: 00 hr 40 min 39 sec)
Heartbeat CPU 0 instructions: 181500829 cycles: 312611027 heartbeat IPC: 0.4781 cumulative IPC: 0.4352 (Simulation time: 00 hr 40 min 47 sec)
Heartbeat CPU 0 instructions: 182000829 cycles: 313760048 heartbeat IPC: 0.4352 cumulative IPC: 0.4352 (Simulation time: 00 hr 40 min 57 sec)
Heartbeat CPU 0 instructions: 182500831 cycles: 314860079 heartbeat IPC: 0.4545 cumulative IPC: 0.4352 (Simulation time: 00 hr 41 min 06 sec)
Heartbeat CPU 0 instructions: 183000831 cycles: 316136797 heartbeat IPC: 0.3916 cumulative IPC: 0.4351 (Simulation time: 00 hr 41 min 16 sec)
Heartbeat CPU 0 instructions: 183500832 cycles: 317332473 heartbeat IPC: 0.4182 cumulative IPC: 0.435 (Simulation time: 00 hr 41 min 26 sec)
Heartbeat CPU 0 instructions: 184000834 cycles: 318511249 heartbeat IPC: 0.4242 cumulative IPC: 0.435 (Simulation time: 00 hr 41 min 35 sec)
Heartbeat CPU 0 instructions: 184500835 cycles: 319551591 heartbeat IPC: 0.4806 cumulative IPC: 0.4351 (Simulation time: 00 hr 41 min 44 sec)
Heartbeat CPU 0 instructions: 185000837 cycles: 320804093 heartbeat IPC: 0.3992 cumulative IPC: 0.435 (Simulation time: 00 hr 41 min 54 sec)
Heartbeat CPU 0 instructions: 185500839 cycles: 322414415 heartbeat IPC: 0.3105 cumulative IPC: 0.4343 (Simulation time: 00 hr 42 min 05 sec)
Heartbeat CPU 0 instructions: 186000843 cycles: 323572708 heartbeat IPC: 0.4317 cumulative IPC: 0.4343 (Simulation time: 00 hr 42 min 16 sec)
Heartbeat CPU 0 instructions: 186500843 cycles: 324827716 heartbeat IPC: 0.3984 cumulative IPC: 0.4342 (Simulation time: 00 hr 42 min 26 sec)
Heartbeat CPU 0 instructions: 187000846 cycles: 326003634 heartbeat IPC: 0.4252 cumulative IPC: 0.4341 (Simulation time: 00 hr 42 min 36 sec)
Heartbeat CPU 0 instructions: 187500846 cycles: 327113936 heartbeat IPC: 0.4503 cumulative IPC: 0.4342 (Simulation time: 00 hr 42 min 45 sec)
Heartbeat CPU 0 instructions: 188000848 cycles: 328399273 heartbeat IPC: 0.389 cumulative IPC: 0.434 (Simulation time: 00 hr 42 min 55 sec)
Heartbeat CPU 0 instructions: 188500848 cycles: 329648236 heartbeat IPC: 0.4003 cumulative IPC: 0.4339 (Simulation time: 00 hr 43 min 05 sec)
Heartbeat CPU 0 instructions: 189000851 cycles: 330791853 heartbeat IPC: 0.4372 cumulative IPC: 0.4339 (Simulation time: 00 hr 43 min 15 sec)
Heartbeat CPU 0 instructions: 189500851 cycles: 331923219 heartbeat IPC: 0.4419 cumulative IPC: 0.4339 (Simulation time: 00 hr 43 min 24 sec)
Heartbeat CPU 0 instructions: 190000851 cycles: 333007286 heartbeat IPC: 0.4612 cumulative IPC: 0.434 (Simulation time: 00 hr 43 min 33 sec)
Heartbeat CPU 0 instructions: 190500853 cycles: 334343718 heartbeat IPC: 0.3741 cumulative IPC: 0.4338 (Simulation time: 00 hr 43 min 43 sec)
Heartbeat CPU 0 instructions: 191000854 cycles: 335747809 heartbeat IPC: 0.3561 cumulative IPC: 0.4334 (Simulation time: 00 hr 43 min 54 sec)
Heartbeat CPU 0 instructions: 191500854 cycles: 336842249 heartbeat IPC: 0.4569 cumulative IPC: 0.4335 (Simulation time: 00 hr 44 min 03 sec)
Heartbeat CPU 0 instructions: 192000854 cycles: 337982811 heartbeat IPC: 0.4384 cumulative IPC: 0.4335 (Simulation time: 00 hr 44 min 13 sec)
Heartbeat CPU 0 instructions: 192500856 cycles: 339215382 heartbeat IPC: 0.4057 cumulative IPC: 0.4334 (Simulation time: 00 hr 44 min 22 sec)
Heartbeat CPU 0 instructions: 193000857 cycles: 340346856 heartbeat IPC: 0.4419 cumulative IPC: 0.4334 (Simulation time: 00 hr 44 min 31 sec)
Heartbeat CPU 0 instructions: 193500858 cycles: 341367714 heartbeat IPC: 0.4898 cumulative IPC: 0.4336 (Simulation time: 00 hr 44 min 40 sec)
Heartbeat CPU 0 instructions: 194000860 cycles: 342313744 heartbeat IPC: 0.5285 cumulative IPC: 0.4339 (Simulation time: 00 hr 44 min 48 sec)
Heartbeat CPU 0 instructions: 194500864 cycles: 343351855 heartbeat IPC: 0.4816 cumulative IPC: 0.434 (Simulation time: 00 hr 44 min 57 sec)
Heartbeat CPU 0 instructions: 195000865 cycles: 344350345 heartbeat IPC: 0.5008 cumulative IPC: 0.4342 (Simulation time: 00 hr 45 min 06 sec)
Heartbeat CPU 0 instructions: 195500865 cycles: 345479160 heartbeat IPC: 0.4429 cumulative IPC: 0.4343 (Simulation time: 00 hr 45 min 15 sec)
Heartbeat CPU 0 instructions: 196000868 cycles: 346499493 heartbeat IPC: 0.49 cumulative IPC: 0.4344 (Simulation time: 00 hr 45 min 24 sec)
Heartbeat CPU 0 instructions: 196500872 cycles: 347567399 heartbeat IPC: 0.4682 cumulative IPC: 0.4345 (Simulation time: 00 hr 45 min 33 sec)
Heartbeat CPU 0 instructions: 197000874 cycles: 348681083 heartbeat IPC: 0.449 cumulative IPC: 0.4346 (Simulation time: 00 hr 45 min 42 sec)
Heartbeat CPU 0 instructions: 197500875 cycles: 349838344 heartbeat IPC: 0.4321 cumulative IPC: 0.4346 (Simulation time: 00 hr 45 min 51 sec)
Heartbeat CPU 0 instructions: 198000876 cycles: 351017041 heartbeat IPC: 0.4242 cumulative IPC: 0.4345 (Simulation time: 00 hr 46 min 01 sec)
Heartbeat CPU 0 instructions: 198500878 cycles: 352161248 heartbeat IPC: 0.437 cumulative IPC: 0.4346 (Simulation time: 00 hr 46 min 10 sec)
Heartbeat CPU 0 instructions: 199000882 cycles: 353254315 heartbeat IPC: 0.4574 cumulative IPC: 0.4346 (Simulation time: 00 hr 46 min 19 sec)
Heartbeat CPU 0 instructions: 199500882 cycles: 354449178 heartbeat IPC: 0.4185 cumulative IPC: 0.4346 (Simulation time: 00 hr 46 min 29 sec)
Heartbeat CPU 0 instructions: 200000884 cycles: 355482130 heartbeat IPC: 0.4841 cumulative IPC: 0.4347 (Simulation time: 00 hr 46 min 38 sec)
Heartbeat CPU 0 instructions: 200500889 cycles: 356700148 heartbeat IPC: 0.4105 cumulative IPC: 0.4346 (Simulation time: 00 hr 46 min 48 sec)
Heartbeat CPU 0 instructions: 201000889 cycles: 357714689 heartbeat IPC: 0.4928 cumulative IPC: 0.4348 (Simulation time: 00 hr 46 min 56 sec)
Heartbeat CPU 0 instructions: 201500891 cycles: 358723311 heartbeat IPC: 0.4957 cumulative IPC: 0.435 (Simulation time: 00 hr 47 min 05 sec)
Heartbeat CPU 0 instructions: 202000896 cycles: 359750328 heartbeat IPC: 0.4869 cumulative IPC: 0.4351 (Simulation time: 00 hr 47 min 14 sec)
Heartbeat CPU 0 instructions: 202500896 cycles: 361073423 heartbeat IPC: 0.3779 cumulative IPC: 0.4349 (Simulation time: 00 hr 47 min 25 sec)
Heartbeat CPU 0 instructions: 203000898 cycles: 362089404 heartbeat IPC: 0.4921 cumulative IPC: 0.4351 (Simulation time: 00 hr 47 min 34 sec)
Heartbeat CPU 0 instructions: 203500898 cycles: 363721447 heartbeat IPC: 0.3064 cumulative IPC: 0.4345 (Simulation time: 00 hr 47 min 46 sec)
Heartbeat CPU 0 instructions: 204000898 cycles: 364842759 heartbeat IPC: 0.4459 cumulative IPC: 0.4345 (Simulation time: 00 hr 47 min 55 sec)
Heartbeat CPU 0 instructions: 204500898 cycles: 365923536 heartbeat IPC: 0.4626 cumulative IPC: 0.4346 (Simulation time: 00 hr 48 min 04 sec)
Heartbeat CPU 0 instructions: 205000898 cycles: 367027669 heartbeat IPC: 0.4528 cumulative IPC: 0.4347 (Simulation time: 00 hr 48 min 14 sec)
Heartbeat CPU 0 instructions: 205500903 cycles: 368121373 heartbeat IPC: 0.4572 cumulative IPC: 0.4347 (Simulation time: 00 hr 48 min 23 sec)
Heartbeat CPU 0 instructions: 206000903 cycles: 369210135 heartbeat IPC: 0.4592 cumulative IPC: 0.4348 (Simulation time: 00 hr 48 min 32 sec)
Heartbeat CPU 0 instructions: 206500903 cycles: 370402201 heartbeat IPC: 0.4194 cumulative IPC: 0.4348 (Simulation time: 00 hr 48 min 42 sec)
Heartbeat CPU 0 instructions: 207000903 cycles: 371630789 heartbeat IPC: 0.407 cumulative IPC: 0.4347 (Simulation time: 00 hr 48 min 52 sec)
Heartbeat CPU 0 instructions: 207500907 cycles: 372688922 heartbeat IPC: 0.4725 cumulative IPC: 0.4348 (Simulation time: 00 hr 49 min 01 sec)
Heartbeat CPU 0 instructions: 208000911 cycles: 373929521 heartbeat IPC: 0.403 cumulative IPC: 0.4347 (Simulation time: 00 hr 49 min 11 sec)
Heartbeat CPU 0 instructions: 208500914 cycles: 375032934 heartbeat IPC: 0.4531 cumulative IPC: 0.4347 (Simulation time: 00 hr 49 min 20 sec)
Heartbeat CPU 0 instructions: 209000914 cycles: 376149741 heartbeat IPC: 0.4477 cumulative IPC: 0.4348 (Simulation time: 00 hr 49 min 29 sec)
Heartbeat CPU 0 instructions: 209500918 cycles: 377260344 heartbeat IPC: 0.4502 cumulative IPC: 0.4348 (Simulation time: 00 hr 49 min 38 sec)
Heartbeat CPU 0 instructions: 210000922 cycles: 378394211 heartbeat IPC: 0.441 cumulative IPC: 0.4348 (Simulation time: 00 hr 49 min 47 sec)
Heartbeat CPU 0 instructions: 210500925 cycles: 379555860 heartbeat IPC: 0.4304 cumulative IPC: 0.4348 (Simulation time: 00 hr 49 min 57 sec)
Heartbeat CPU 0 instructions: 211000927 cycles: 380553326 heartbeat IPC: 0.5013 cumulative IPC: 0.435 (Simulation time: 00 hr 50 min 05 sec)
Heartbeat CPU 0 instructions: 211500927 cycles: 381639739 heartbeat IPC: 0.4602 cumulative IPC: 0.4351 (Simulation time: 00 hr 50 min 14 sec)
Heartbeat CPU 0 instructions: 212000929 cycles: 382778389 heartbeat IPC: 0.4391 cumulative IPC: 0.4351 (Simulation time: 00 hr 50 min 24 sec)
Heartbeat CPU 0 instructions: 212500933 cycles: 383873664 heartbeat IPC: 0.4565 cumulative IPC: 0.4351 (Simulation time: 00 hr 50 min 33 sec)
Heartbeat CPU 0 instructions: 213000939 cycles: 384918579 heartbeat IPC: 0.4785 cumulative IPC: 0.4353 (Simulation time: 00 hr 50 min 42 sec)
Heartbeat CPU 0 instructions: 213500939 cycles: 386029973 heartbeat IPC: 0.4499 cumulative IPC: 0.4353 (Simulation time: 00 hr 50 min 51 sec)
Heartbeat CPU 0 instructions: 214000939 cycles: 387473717 heartbeat IPC: 0.3463 cumulative IPC: 0.435 (Simulation time: 00 hr 51 min 03 sec)
Heartbeat CPU 0 instructions: 214500942 cycles: 388756373 heartbeat IPC: 0.3898 cumulative IPC: 0.4348 (Simulation time: 00 hr 51 min 13 sec)
Heartbeat CPU 0 instructions: 215000945 cycles: 389888711 heartbeat IPC: 0.4416 cumulative IPC: 0.4348 (Simulation time: 00 hr 51 min 23 sec)
Heartbeat CPU 0 instructions: 215500946 cycles: 390867348 heartbeat IPC: 0.5109 cumulative IPC: 0.435 (Simulation time: 00 hr 51 min 31 sec)
Heartbeat CPU 0 instructions: 216000949 cycles: 391898713 heartbeat IPC: 0.4848 cumulative IPC: 0.4352 (Simulation time: 00 hr 51 min 40 sec)
Heartbeat CPU 0 instructions: 216500951 cycles: 392966718 heartbeat IPC: 0.4682 cumulative IPC: 0.4353 (Simulation time: 00 hr 51 min 48 sec)
Heartbeat CPU 0 instructions: 217000951 cycles: 394198415 heartbeat IPC: 0.4059 cumulative IPC: 0.4352 (Simulation time: 00 hr 51 min 58 sec)
Heartbeat CPU 0 instructions: 217500952 cycles: 395224252 heartbeat IPC: 0.4874 cumulative IPC: 0.4353 (Simulation time: 00 hr 52 min 07 sec)
Heartbeat CPU 0 instructions: 218000958 cycles: 396299406 heartbeat IPC: 0.4651 cumulative IPC: 0.4354 (Simulation time: 00 hr 52 min 16 sec)
Heartbeat CPU 0 instructions: 218500963 cycles: 397277638 heartbeat IPC: 0.5111 cumulative IPC: 0.4356 (Simulation time: 00 hr 52 min 24 sec)
Heartbeat CPU 0 instructions: 219000964 cycles: 398366494 heartbeat IPC: 0.4592 cumulative IPC: 0.4356 (Simulation time: 00 hr 52 min 33 sec)
Heartbeat CPU 0 instructions: 219500964 cycles: 399412101 heartbeat IPC: 0.4782 cumulative IPC: 0.4358 (Simulation time: 00 hr 52 min 42 sec)
Heartbeat CPU 0 instructions: 220000964 cycles: 400444415 heartbeat IPC: 0.4843 cumulative IPC: 0.4359 (Simulation time: 00 hr 52 min 51 sec)
Heartbeat CPU 0 instructions: 220500965 cycles: 401484042 heartbeat IPC: 0.4809 cumulative IPC: 0.436 (Simulation time: 00 hr 52 min 59 sec)
Heartbeat CPU 0 instructions: 221000965 cycles: 402614514 heartbeat IPC: 0.4423 cumulative IPC: 0.436 (Simulation time: 00 hr 53 min 08 sec)
Heartbeat CPU 0 instructions: 221500966 cycles: 403856644 heartbeat IPC: 0.4025 cumulative IPC: 0.4359 (Simulation time: 00 hr 53 min 18 sec)
Heartbeat CPU 0 instructions: 222000968 cycles: 404862253 heartbeat IPC: 0.4972 cumulative IPC: 0.4361 (Simulation time: 00 hr 53 min 27 sec)
Heartbeat CPU 0 instructions: 222500969 cycles: 405932841 heartbeat IPC: 0.467 cumulative IPC: 0.4362 (Simulation time: 00 hr 53 min 35 sec)
Heartbeat CPU 0 instructions: 223000975 cycles: 406971801 heartbeat IPC: 0.4813 cumulative IPC: 0.4363 (Simulation time: 00 hr 53 min 44 sec)
Heartbeat CPU 0 instructions: 223500975 cycles: 407989554 heartbeat IPC: 0.4913 cumulative IPC: 0.4364 (Simulation time: 00 hr 53 min 53 sec)
Heartbeat CPU 0 instructions: 224000976 cycles: 408971798 heartbeat IPC: 0.509 cumulative IPC: 0.4366 (Simulation time: 00 hr 54 min 01 sec)
Heartbeat CPU 0 instructions: 224500976 cycles: 409911616 heartbeat IPC: 0.532 cumulative IPC: 0.4368 (Simulation time: 00 hr 54 min 09 sec)
Heartbeat CPU 0 instructions: 225000976 cycles: 410999662 heartbeat IPC: 0.4595 cumulative IPC: 0.4369 (Simulation time: 00 hr 54 min 18 sec)
Heartbeat CPU 0 instructions: 225500977 cycles: 412111709 heartbeat IPC: 0.4496 cumulative IPC: 0.4369 (Simulation time: 00 hr 54 min 27 sec)
Heartbeat CPU 0 instructions: 226000977 cycles: 413318102 heartbeat IPC: 0.4145 cumulative IPC: 0.4369 (Simulation time: 00 hr 54 min 36 sec)
Heartbeat CPU 0 instructions: 226500978 cycles: 414497685 heartbeat IPC: 0.4239 cumulative IPC: 0.4368 (Simulation time: 00 hr 54 min 46 sec)
Heartbeat CPU 0 instructions: 227000979 cycles: 415735844 heartbeat IPC: 0.4038 cumulative IPC: 0.4367 (Simulation time: 00 hr 54 min 55 sec)
Heartbeat CPU 0 instructions: 227500982 cycles: 416767627 heartbeat IPC: 0.4846 cumulative IPC: 0.4368 (Simulation time: 00 hr 55 min 03 sec)
Heartbeat CPU 0 instructions: 228000982 cycles: 417848710 heartbeat IPC: 0.4625 cumulative IPC: 0.4369 (Simulation time: 00 hr 55 min 12 sec)
Heartbeat CPU 0 instructions: 228500984 cycles: 418888214 heartbeat IPC: 0.481 cumulative IPC: 0.437 (Simulation time: 00 hr 55 min 21 sec)
Heartbeat CPU 0 instructions: 229000984 cycles: 420184236 heartbeat IPC: 0.3858 cumulative IPC: 0.4369 (Simulation time: 00 hr 55 min 31 sec)
Heartbeat CPU 0 instructions: 229500985 cycles: 421228527 heartbeat IPC: 0.4788 cumulative IPC: 0.437 (Simulation time: 00 hr 55 min 39 sec)
Heartbeat CPU 0 instructions: 230000989 cycles: 422383280 heartbeat IPC: 0.433 cumulative IPC: 0.4369 (Simulation time: 00 hr 55 min 49 sec)
Heartbeat CPU 0 instructions: 230500989 cycles: 423435265 heartbeat IPC: 0.4753 cumulative IPC: 0.437 (Simulation time: 00 hr 55 min 58 sec)
Heartbeat CPU 0 instructions: 231000991 cycles: 424684945 heartbeat IPC: 0.4001 cumulative IPC: 0.4369 (Simulation time: 00 hr 56 min 07 sec)
Heartbeat CPU 0 instructions: 231500996 cycles: 425801014 heartbeat IPC: 0.448 cumulative IPC: 0.437 (Simulation time: 00 hr 56 min 16 sec)
Heartbeat CPU 0 instructions: 232000998 cycles: 426911001 heartbeat IPC: 0.4505 cumulative IPC: 0.437 (Simulation time: 00 hr 56 min 25 sec)
Heartbeat CPU 0 instructions: 232500998 cycles: 427946843 heartbeat IPC: 0.4827 cumulative IPC: 0.4371 (Simulation time: 00 hr 56 min 33 sec)
Heartbeat CPU 0 instructions: 233000998 cycles: 429364575 heartbeat IPC: 0.3527 cumulative IPC: 0.4368 (Simulation time: 00 hr 56 min 44 sec)
Heartbeat CPU 0 instructions: 233500998 cycles: 430407107 heartbeat IPC: 0.4796 cumulative IPC: 0.4369 (Simulation time: 00 hr 56 min 52 sec)
Heartbeat CPU 0 instructions: 234000999 cycles: 431824573 heartbeat IPC: 0.3527 cumulative IPC: 0.4367 (Simulation time: 00 hr 57 min 02 sec)
Heartbeat CPU 0 instructions: 234501001 cycles: 432850574 heartbeat IPC: 0.4873 cumulative IPC: 0.4368 (Simulation time: 00 hr 57 min 10 sec)
Heartbeat CPU 0 instructions: 235001003 cycles: 433862481 heartbeat IPC: 0.4941 cumulative IPC: 0.4369 (Simulation time: 00 hr 57 min 19 sec)
Heartbeat CPU 0 instructions: 235501003 cycles: 435014242 heartbeat IPC: 0.4341 cumulative IPC: 0.4369 (Simulation time: 00 hr 57 min 28 sec)
Heartbeat CPU 0 instructions: 236001003 cycles: 436036364 heartbeat IPC: 0.4892 cumulative IPC: 0.437 (Simulation time: 00 hr 57 min 36 sec)
Heartbeat CPU 0 instructions: 236501004 cycles: 437093018 heartbeat IPC: 0.4732 cumulative IPC: 0.4371 (Simulation time: 00 hr 57 min 44 sec)
Heartbeat CPU 0 instructions: 237001008 cycles: 438288382 heartbeat IPC: 0.4183 cumulative IPC: 0.4371 (Simulation time: 00 hr 57 min 53 sec)
Heartbeat CPU 0 instructions: 237501008 cycles: 439286646 heartbeat IPC: 0.5009 cumulative IPC: 0.4372 (Simulation time: 00 hr 58 min 01 sec)
Heartbeat CPU 0 instructions: 238001014 cycles: 440297968 heartbeat IPC: 0.4944 cumulative IPC: 0.4373 (Simulation time: 00 hr 58 min 09 sec)
Heartbeat CPU 0 instructions: 238501015 cycles: 441558477 heartbeat IPC: 0.3967 cumulative IPC: 0.4372 (Simulation time: 00 hr 58 min 19 sec)
Heartbeat CPU 0 instructions: 239001016 cycles: 442638457 heartbeat IPC: 0.463 cumulative IPC: 0.4373 (Simulation time: 00 hr 58 min 27 sec)
Heartbeat CPU 0 instructions: 239501017 cycles: 443662945 heartbeat IPC: 0.488 cumulative IPC: 0.4374 (Simulation time: 00 hr 58 min 35 sec)
Heartbeat CPU 0 instructions: 240001017 cycles: 444737302 heartbeat IPC: 0.4654 cumulative IPC: 0.4375 (Simulation time: 00 hr 58 min 44 sec)
Heartbeat CPU 0 instructions: 240501022 cycles: 445798131 heartbeat IPC: 0.4713 cumulative IPC: 0.4376 (Simulation time: 00 hr 58 min 52 sec)
Heartbeat CPU 0 instructions: 241001022 cycles: 447027337 heartbeat IPC: 0.4068 cumulative IPC: 0.4375 (Simulation time: 00 hr 59 min 01 sec)
Heartbeat CPU 0 instructions: 241501022 cycles: 448244748 heartbeat IPC: 0.4107 cumulative IPC: 0.4374 (Simulation time: 00 hr 59 min 10 sec)
Heartbeat CPU 0 instructions: 242001024 cycles: 449305855 heartbeat IPC: 0.4712 cumulative IPC: 0.4375 (Simulation time: 00 hr 59 min 18 sec)
Heartbeat CPU 0 instructions: 242501030 cycles: 450509523 heartbeat IPC: 0.4154 cumulative IPC: 0.4374 (Simulation time: 00 hr 59 min 27 sec)
Heartbeat CPU 0 instructions: 243001036 cycles: 451527207 heartbeat IPC: 0.4913 cumulative IPC: 0.4376 (Simulation time: 00 hr 59 min 35 sec)
Heartbeat CPU 0 instructions: 243501036 cycles: 452727302 heartbeat IPC: 0.4166 cumulative IPC: 0.4375 (Simulation time: 00 hr 59 min 44 sec)
Heartbeat CPU 0 instructions: 244001037 cycles: 453802270 heartbeat IPC: 0.4651 cumulative IPC: 0.4376 (Simulation time: 00 hr 59 min 53 sec)
Heartbeat CPU 0 instructions: 244501040 cycles: 454838270 heartbeat IPC: 0.4826 cumulative IPC: 0.4377 (Simulation time: 01 hr 00 min 01 sec)
Heartbeat CPU 0 instructions: 245001041 cycles: 455920045 heartbeat IPC: 0.4622 cumulative IPC: 0.4377 (Simulation time: 01 hr 00 min 09 sec)
Heartbeat CPU 0 instructions: 245501045 cycles: 456947036 heartbeat IPC: 0.4869 cumulative IPC: 0.4378 (Simulation time: 01 hr 00 min 17 sec)
Heartbeat CPU 0 instructions: 246001045 cycles: 457989593 heartbeat IPC: 0.4796 cumulative IPC: 0.4379 (Simulation time: 01 hr 00 min 25 sec)
Heartbeat CPU 0 instructions: 246501047 cycles: 459022063 heartbeat IPC: 0.4843 cumulative IPC: 0.438 (Simulation time: 01 hr 00 min 32 sec)
Heartbeat CPU 0 instructions: 247001051 cycles: 460002917 heartbeat IPC: 0.5098 cumulative IPC: 0.4382 (Simulation time: 01 hr 00 min 40 sec)
Heartbeat CPU 0 instructions: 247501055 cycles: 461001151 heartbeat IPC: 0.5009 cumulative IPC: 0.4383 (Simulation time: 01 hr 00 min 48 sec)
Heartbeat CPU 0 instructions: 248001057 cycles: 462144333 heartbeat IPC: 0.4374 cumulative IPC: 0.4383 (Simulation time: 01 hr 00 min 56 sec)
Heartbeat CPU 0 instructions: 248501057 cycles: 463363444 heartbeat IPC: 0.4101 cumulative IPC: 0.4383 (Simulation time: 01 hr 01 min 05 sec)
Heartbeat CPU 0 instructions: 249001058 cycles: 464463642 heartbeat IPC: 0.4545 cumulative IPC: 0.4383 (Simulation time: 01 hr 01 min 13 sec)
Heartbeat CPU 0 instructions: 249501058 cycles: 465679276 heartbeat IPC: 0.4113 cumulative IPC: 0.4382 (Simulation time: 01 hr 01 min 22 sec)
Simulation finished CPU 0 instructions: 200000000 cycles: 456411694 cumulative IPC: 0.4382 (Simulation time: 01 hr 01 min 31 sec)
Simulation complete CPU 0 instructions: 200000000 cycles: 456411694 cumulative IPC: 0.4382 (Simulation time: 01 hr 01 min 31 sec)

ChampSim completed all CPUs

=== Simulation ===
CPU 0 runs /local-ssd/ben/dpc4-traces/Graph/GAP/cc-5.trace.gz

Region of Interest Statistics

CPU 0 cumulative IPC: 0.4382 instructions: 200000000 cycles: 456411694
CPU 0 Branch Prediction Accuracy: 94.17% MPKI: 11.72 Average ROB Occupancy at Mispredict: 53.75
Branch type MPKI
BRANCH_DIRECT_JUMP: 0
BRANCH_INDIRECT: 0
BRANCH_CONDITIONAL: 11.72
BRANCH_DIRECT_CALL: 0
BRANCH_INDIRECT_CALL: 0
BRANCH_RETURN: 0

cpu0->cpu0_STLB TOTAL        ACCESS:    9665005 HIT:    9650726 MISS:      14279 MSHR_MERGE:          0
cpu0->cpu0_STLB LOAD         ACCESS:    9665005 HIT:    9650726 MISS:      14279 MSHR_MERGE:          0
cpu0->cpu0_STLB RFO          ACCESS:          0 HIT:          0 MISS:          0 MSHR_MERGE:          0
cpu0->cpu0_STLB PREFETCH     ACCESS:          0 HIT:          0 MISS:          0 MSHR_MERGE:          0
cpu0->cpu0_STLB WRITE        ACCESS:          0 HIT:          0 MISS:          0 MSHR_MERGE:          0
cpu0->cpu0_STLB TRANSLATION  ACCESS:          0 HIT:          0 MISS:          0 MSHR_MERGE:          0
cpu0->cpu0_STLB PREFETCH REQUESTED:          0 ISSUED:          0 USEFUL:          0 USELESS:          0
cpu0->cpu0_STLB AVERAGE MISS LATENCY: 264.3 cycles
cpu0->cpu0_L2C TOTAL        ACCESS:   40552386 HIT:   26423252 MISS:   14129134 MSHR_MERGE:    1118063
cpu0->cpu0_L2C LOAD         ACCESS:   13715720 HIT:    9135172 MISS:    4580548 MSHR_MERGE:      42358
cpu0->cpu0_L2C RFO          ACCESS:          0 HIT:          0 MISS:          0 MSHR_MERGE:          0
cpu0->cpu0_L2C PREFETCH     ACCESS:   26624719 HIT:   17078087 MISS:    9546632 MSHR_MERGE:    1075705
cpu0->cpu0_L2C WRITE        ACCESS:     197870 HIT:     197823 MISS:         47 MSHR_MERGE:          0
cpu0->cpu0_L2C TRANSLATION  ACCESS:      14077 HIT:      12170 MISS:       1907 MSHR_MERGE:          0
cpu0->cpu0_L2C PREFETCH REQUESTED:   26362724 ISSUED:   23612340 USEFUL:    2374032 USELESS:    5060232
cpu0->cpu0_L2C AVERAGE MISS LATENCY: 127.4 cycles
cpu0->cpu0_L1I TOTAL        ACCESS:    2366180 HIT:    2366180 MISS:          0 MSHR_MERGE:          0
cpu0->cpu0_L1I LOAD         ACCESS:    2366180 HIT:    2366180 MISS:          0 MSHR_MERGE:          0
cpu0->cpu0_L1I RFO          ACCESS:          0 HIT:          0 MISS:          0 MSHR_MERGE:          0
cpu0->cpu0_L1I PREFETCH     ACCESS:          0 HIT:          0 MISS:          0 MSHR_MERGE:          0
cpu0->cpu0_L1I WRITE        ACCESS:          0 HIT:          0 MISS:          0 MSHR_MERGE:          0
cpu0->cpu0_L1I TRANSLATION  ACCESS:          0 HIT:          0 MISS:          0 MSHR_MERGE:          0
cpu0->cpu0_L1I PREFETCH REQUESTED:          0 ISSUED:          0 USEFUL:          0 USELESS:          0
cpu0->cpu0_L1I AVERAGE MISS LATENCY: - cycles
cpu0->cpu0_L1D TOTAL        ACCESS:   55435117 HIT:   38035118 MISS:   17399999 MSHR_MERGE:     657835
cpu0->cpu0_L1D LOAD         ACCESS:   50496186 HIT:   36197121 MISS:   14299065 MSHR_MERGE:     583345
cpu0->cpu0_L1D RFO          ACCESS:          0 HIT:          0 MISS:          0 MSHR_MERGE:          0
cpu0->cpu0_L1D PREFETCH     ACCESS:    4662064 HIT:    1575207 MISS:    3086857 MSHR_MERGE:      74490
cpu0->cpu0_L1D WRITE        ACCESS:     248282 HIT:     248282 MISS:          0 MSHR_MERGE:          0
cpu0->cpu0_L1D TRANSLATION  ACCESS:      28585 HIT:      14508 MISS:      14077 MSHR_MERGE:          0
cpu0->cpu0_L1D PREFETCH REQUESTED:    4691336 ISSUED:    4662063 USEFUL:     969462 USELESS:    2043013
cpu0->cpu0_L1D AVERAGE MISS LATENCY: 51.55 cycles
cpu0->cpu0_ITLB TOTAL        ACCESS:    2262780 HIT:    2262780 MISS:          0 MSHR_MERGE:          0
cpu0->cpu0_ITLB LOAD         ACCESS:    2262780 HIT:    2262780 MISS:          0 MSHR_MERGE:          0
cpu0->cpu0_ITLB RFO          ACCESS:          0 HIT:          0 MISS:          0 MSHR_MERGE:          0
cpu0->cpu0_ITLB PREFETCH     ACCESS:          0 HIT:          0 MISS:          0 MSHR_MERGE:          0
cpu0->cpu0_ITLB WRITE        ACCESS:          0 HIT:          0 MISS:          0 MSHR_MERGE:          0
cpu0->cpu0_ITLB TRANSLATION  ACCESS:          0 HIT:          0 MISS:          0 MSHR_MERGE:          0
cpu0->cpu0_ITLB PREFETCH REQUESTED:          0 ISSUED:          0 USEFUL:          0 USELESS:          0
cpu0->cpu0_ITLB AVERAGE MISS LATENCY: - cycles
cpu0->cpu0_DTLB TOTAL        ACCESS:   54015552 HIT:   42727504 MISS:   11288048 MSHR_MERGE:    1623044
cpu0->cpu0_DTLB LOAD         ACCESS:   54015552 HIT:   42727504 MISS:   11288048 MSHR_MERGE:    1623044
cpu0->cpu0_DTLB RFO          ACCESS:          0 HIT:          0 MISS:          0 MSHR_MERGE:          0
cpu0->cpu0_DTLB PREFETCH     ACCESS:          0 HIT:          0 MISS:          0 MSHR_MERGE:          0
cpu0->cpu0_DTLB WRITE        ACCESS:          0 HIT:          0 MISS:          0 MSHR_MERGE:          0
cpu0->cpu0_DTLB TRANSLATION  ACCESS:          0 HIT:          0 MISS:          0 MSHR_MERGE:          0
cpu0->cpu0_DTLB PREFETCH REQUESTED:          0 ISSUED:          0 USEFUL:          0 USELESS:          0
cpu0->cpu0_DTLB AVERAGE MISS LATENCY: 5.398 cycles
cpu0->LLC TOTAL        ACCESS:   13207735 HIT:    8462190 MISS:    4745545 MSHR_MERGE:          0
cpu0->LLC LOAD         ACCESS:    4538189 HIT:    3190081 MISS:    1348108 MSHR_MERGE:          0
cpu0->LLC RFO          ACCESS:          0 HIT:          0 MISS:          0 MSHR_MERGE:          0
cpu0->LLC PREFETCH     ACCESS:    8470927 HIT:    5132469 MISS:    3338458 MSHR_MERGE:          0
cpu0->LLC WRITE        ACCESS:     196712 HIT:     139619 MISS:      57093 MSHR_MERGE:          0
cpu0->LLC TRANSLATION  ACCESS:       1907 HIT:         21 MISS:       1886 MSHR_MERGE:          0
cpu0->LLC PREFETCH REQUESTED:          0 ISSUED:          0 USEFUL:          0 USELESS:          0
cpu0->LLC AVERAGE MISS LATENCY: 337 cycles

DRAM Statistics

Channel 0 RQ ROW_BUFFER_HIT:      96278
  ROW_BUFFER_MISS:    4589492
  AVG DBUS CONGESTED CYCLE: 4.138
Channel 0 WQ ROW_BUFFER_HIT:      28992
  ROW_BUFFER_MISS:      63965
  FULL:          0
Channel 0 REFRESHES ISSUED:      38034
