[VMEM] WARNING: physical memory size is smaller than virtual memory size.

*** ChampSim Multicore Out-of-Order Simulator ***
Warmup Instructions: 50000000
Simulation Instructions: 200000000
Number of CPUs: 1
Page size: 4096
Core 0: /local-ssd/ben/dpc4-traces/Graph/GMS/gms.triangle_count.soc-pokec-relationships.slice-137.champsimtrace.gz
 L1D Berti prefetcher
Off-chip DRAM Size: 64 GiB Channels: 1 Width: 64-bit Data Rate: 800 MT/s
Heartbeat CPU 0 instructions: 500002 cycles: 206865 heartbeat IPC: 2.417 cumulative IPC: 2.417 (Simulation time: 00 hr 00 min 05 sec)
Heartbeat CPU 0 instructions: 1000009 cycles: 372697 heartbeat IPC: 3.015 cumulative IPC: 2.683 (Simulation time: 00 hr 00 min 08 sec)
Heartbeat CPU 0 instructions: 1500011 cycles: 529104 heartbeat IPC: 3.197 cumulative IPC: 2.835 (Simulation time: 00 hr 00 min 10 sec)
Heartbeat CPU 0 instructions: 2000011 cycles: 683942 heartbeat IPC: 3.229 cumulative IPC: 2.924 (Simulation time: 00 hr 00 min 13 sec)
Heartbeat CPU 0 instructions: 2500018 cycles: 835719 heartbeat IPC: 3.294 cumulative IPC: 2.991 (Simulation time: 00 hr 00 min 16 sec)
Heartbeat CPU 0 instructions: 3000022 cycles: 987450 heartbeat IPC: 3.295 cumulative IPC: 3.038 (Simulation time: 00 hr 00 min 18 sec)
Heartbeat CPU 0 instructions: 3500026 cycles: 1136872 heartbeat IPC: 3.346 cumulative IPC: 3.079 (Simulation time: 00 hr 00 min 20 sec)
Heartbeat CPU 0 instructions: 4000033 cycles: 1286132 heartbeat IPC: 3.35 cumulative IPC: 3.11 (Simulation time: 00 hr 00 min 23 sec)
Heartbeat CPU 0 instructions: 4500037 cycles: 1437439 heartbeat IPC: 3.305 cumulative IPC: 3.131 (Simulation time: 00 hr 00 min 25 sec)
Heartbeat CPU 0 instructions: 5000043 cycles: 1587867 heartbeat IPC: 3.324 cumulative IPC: 3.149 (Simulation time: 00 hr 00 min 28 sec)
Heartbeat CPU 0 instructions: 5500047 cycles: 1735861 heartbeat IPC: 3.379 cumulative IPC: 3.168 (Simulation time: 00 hr 00 min 30 sec)
Heartbeat CPU 0 instructions: 6000048 cycles: 1886831 heartbeat IPC: 3.312 cumulative IPC: 3.18 (Simulation time: 00 hr 00 min 33 sec)
Heartbeat CPU 0 instructions: 6500053 cycles: 2035760 heartbeat IPC: 3.357 cumulative IPC: 3.193 (Simulation time: 00 hr 00 min 35 sec)
Heartbeat CPU 0 instructions: 7000053 cycles: 2183951 heartbeat IPC: 3.374 cumulative IPC: 3.205 (Simulation time: 00 hr 00 min 37 sec)
Heartbeat CPU 0 instructions: 7500053 cycles: 2331831 heartbeat IPC: 3.381 cumulative IPC: 3.216 (Simulation time: 00 hr 00 min 40 sec)
Heartbeat CPU 0 instructions: 8000056 cycles: 2481513 heartbeat IPC: 3.34 cumulative IPC: 3.224 (Simulation time: 00 hr 00 min 42 sec)
Heartbeat CPU 0 instructions: 8500058 cycles: 2630251 heartbeat IPC: 3.362 cumulative IPC: 3.232 (Simulation time: 00 hr 00 min 44 sec)
Heartbeat CPU 0 instructions: 9000059 cycles: 2780787 heartbeat IPC: 3.321 cumulative IPC: 3.237 (Simulation time: 00 hr 00 min 47 sec)
Heartbeat CPU 0 instructions: 9500059 cycles: 2929539 heartbeat IPC: 3.361 cumulative IPC: 3.243 (Simulation time: 00 hr 00 min 49 sec)
Heartbeat CPU 0 instructions: 10000064 cycles: 3079054 heartbeat IPC: 3.344 cumulative IPC: 3.248 (Simulation time: 00 hr 00 min 51 sec)
Heartbeat CPU 0 instructions: 10500067 cycles: 3228244 heartbeat IPC: 3.351 cumulative IPC: 3.253 (Simulation time: 00 hr 00 min 54 sec)
Heartbeat CPU 0 instructions: 11000068 cycles: 3378575 heartbeat IPC: 3.326 cumulative IPC: 3.256 (Simulation time: 00 hr 00 min 56 sec)
Heartbeat CPU 0 instructions: 11500071 cycles: 3524790 heartbeat IPC: 3.42 cumulative IPC: 3.263 (Simulation time: 00 hr 00 min 59 sec)
Heartbeat CPU 0 instructions: 12000077 cycles: 3672798 heartbeat IPC: 3.378 cumulative IPC: 3.267 (Simulation time: 00 hr 01 min 01 sec)
Heartbeat CPU 0 instructions: 12500079 cycles: 3820878 heartbeat IPC: 3.377 cumulative IPC: 3.272 (Simulation time: 00 hr 01 min 03 sec)
Heartbeat CPU 0 instructions: 13000083 cycles: 3969604 heartbeat IPC: 3.362 cumulative IPC: 3.275 (Simulation time: 00 hr 01 min 06 sec)
Heartbeat CPU 0 instructions: 13500089 cycles: 4118498 heartbeat IPC: 3.358 cumulative IPC: 3.278 (Simulation time: 00 hr 01 min 08 sec)
Heartbeat CPU 0 instructions: 14000090 cycles: 4265682 heartbeat IPC: 3.397 cumulative IPC: 3.282 (Simulation time: 00 hr 01 min 10 sec)
Heartbeat CPU 0 instructions: 14500097 cycles: 4413365 heartbeat IPC: 3.386 cumulative IPC: 3.285 (Simulation time: 00 hr 01 min 13 sec)
Heartbeat CPU 0 instructions: 15000099 cycles: 4559940 heartbeat IPC: 3.411 cumulative IPC: 3.29 (Simulation time: 00 hr 01 min 15 sec)
Heartbeat CPU 0 instructions: 15500100 cycles: 4705819 heartbeat IPC: 3.428 cumulative IPC: 3.294 (Simulation time: 00 hr 01 min 17 sec)
Heartbeat CPU 0 instructions: 16000100 cycles: 4853767 heartbeat IPC: 3.38 cumulative IPC: 3.296 (Simulation time: 00 hr 01 min 20 sec)
Heartbeat CPU 0 instructions: 16500102 cycles: 5001187 heartbeat IPC: 3.392 cumulative IPC: 3.299 (Simulation time: 00 hr 01 min 22 sec)
Heartbeat CPU 0 instructions: 17000105 cycles: 5150574 heartbeat IPC: 3.347 cumulative IPC: 3.301 (Simulation time: 00 hr 01 min 24 sec)
Heartbeat CPU 0 instructions: 17500108 cycles: 5295360 heartbeat IPC: 3.453 cumulative IPC: 3.305 (Simulation time: 00 hr 01 min 27 sec)
Heartbeat CPU 0 instructions: 18000109 cycles: 5440315 heartbeat IPC: 3.449 cumulative IPC: 3.309 (Simulation time: 00 hr 01 min 29 sec)
Heartbeat CPU 0 instructions: 18500114 cycles: 5585349 heartbeat IPC: 3.448 cumulative IPC: 3.312 (Simulation time: 00 hr 01 min 31 sec)
Heartbeat CPU 0 instructions: 19000121 cycles: 5733055 heartbeat IPC: 3.385 cumulative IPC: 3.314 (Simulation time: 00 hr 01 min 34 sec)
Heartbeat CPU 0 instructions: 19500126 cycles: 5880419 heartbeat IPC: 3.393 cumulative IPC: 3.316 (Simulation time: 00 hr 01 min 36 sec)
Heartbeat CPU 0 instructions: 20000132 cycles: 6025017 heartbeat IPC: 3.458 cumulative IPC: 3.32 (Simulation time: 00 hr 01 min 38 sec)
Heartbeat CPU 0 instructions: 20500135 cycles: 6171149 heartbeat IPC: 3.422 cumulative IPC: 3.322 (Simulation time: 00 hr 01 min 41 sec)
Heartbeat CPU 0 instructions: 21000137 cycles: 6316802 heartbeat IPC: 3.433 cumulative IPC: 3.324 (Simulation time: 00 hr 01 min 43 sec)
Heartbeat CPU 0 instructions: 21500144 cycles: 6460364 heartbeat IPC: 3.483 cumulative IPC: 3.328 (Simulation time: 00 hr 01 min 45 sec)
Heartbeat CPU 0 instructions: 22000150 cycles: 6607766 heartbeat IPC: 3.392 cumulative IPC: 3.329 (Simulation time: 00 hr 01 min 48 sec)
Heartbeat CPU 0 instructions: 22500154 cycles: 6748458 heartbeat IPC: 3.554 cumulative IPC: 3.334 (Simulation time: 00 hr 01 min 50 sec)
Heartbeat CPU 0 instructions: 23000158 cycles: 6890236 heartbeat IPC: 3.527 cumulative IPC: 3.338 (Simulation time: 00 hr 01 min 52 sec)
Heartbeat CPU 0 instructions: 23500163 cycles: 7034830 heartbeat IPC: 3.458 cumulative IPC: 3.341 (Simulation time: 00 hr 01 min 54 sec)
Heartbeat CPU 0 instructions: 24000165 cycles: 7178422 heartbeat IPC: 3.482 cumulative IPC: 3.343 (Simulation time: 00 hr 01 min 57 sec)
Heartbeat CPU 0 instructions: 24500170 cycles: 7323528 heartbeat IPC: 3.446 cumulative IPC: 3.345 (Simulation time: 00 hr 01 min 59 sec)
Heartbeat CPU 0 instructions: 25000172 cycles: 7468222 heartbeat IPC: 3.456 cumulative IPC: 3.348 (Simulation time: 00 hr 02 min 01 sec)
Heartbeat CPU 0 instructions: 25500173 cycles: 7610958 heartbeat IPC: 3.503 cumulative IPC: 3.35 (Simulation time: 00 hr 02 min 04 sec)
Heartbeat CPU 0 instructions: 26000177 cycles: 7754705 heartbeat IPC: 3.478 cumulative IPC: 3.353 (Simulation time: 00 hr 02 min 06 sec)
Heartbeat CPU 0 instructions: 26500178 cycles: 7895723 heartbeat IPC: 3.546 cumulative IPC: 3.356 (Simulation time: 00 hr 02 min 08 sec)
Heartbeat CPU 0 instructions: 27000184 cycles: 8039577 heartbeat IPC: 3.476 cumulative IPC: 3.358 (Simulation time: 00 hr 02 min 10 sec)
Heartbeat CPU 0 instructions: 27500184 cycles: 8182647 heartbeat IPC: 3.495 cumulative IPC: 3.361 (Simulation time: 00 hr 02 min 13 sec)
Heartbeat CPU 0 instructions: 28000190 cycles: 8324858 heartbeat IPC: 3.516 cumulative IPC: 3.363 (Simulation time: 00 hr 02 min 15 sec)
Heartbeat CPU 0 instructions: 28500194 cycles: 8468958 heartbeat IPC: 3.47 cumulative IPC: 3.365 (Simulation time: 00 hr 02 min 17 sec)
Heartbeat CPU 0 instructions: 29000194 cycles: 8611128 heartbeat IPC: 3.517 cumulative IPC: 3.368 (Simulation time: 00 hr 02 min 20 sec)
Heartbeat CPU 0 instructions: 29500196 cycles: 8753235 heartbeat IPC: 3.518 cumulative IPC: 3.37 (Simulation time: 00 hr 02 min 22 sec)
Heartbeat CPU 0 instructions: 30000203 cycles: 8895860 heartbeat IPC: 3.506 cumulative IPC: 3.372 (Simulation time: 00 hr 02 min 24 sec)
Heartbeat CPU 0 instructions: 30500204 cycles: 9038836 heartbeat IPC: 3.497 cumulative IPC: 3.374 (Simulation time: 00 hr 02 min 26 sec)
Heartbeat CPU 0 instructions: 31000204 cycles: 9179976 heartbeat IPC: 3.543 cumulative IPC: 3.377 (Simulation time: 00 hr 02 min 29 sec)
Heartbeat CPU 0 instructions: 31500208 cycles: 9322621 heartbeat IPC: 3.505 cumulative IPC: 3.379 (Simulation time: 00 hr 02 min 31 sec)
Heartbeat CPU 0 instructions: 32000210 cycles: 9464984 heartbeat IPC: 3.512 cumulative IPC: 3.381 (Simulation time: 00 hr 02 min 33 sec)
Heartbeat CPU 0 instructions: 32500210 cycles: 9607047 heartbeat IPC: 3.52 cumulative IPC: 3.383 (Simulation time: 00 hr 02 min 36 sec)
Heartbeat CPU 0 instructions: 33000215 cycles: 9751445 heartbeat IPC: 3.463 cumulative IPC: 3.384 (Simulation time: 00 hr 02 min 38 sec)
Heartbeat CPU 0 instructions: 33500222 cycles: 9894969 heartbeat IPC: 3.484 cumulative IPC: 3.386 (Simulation time: 00 hr 02 min 40 sec)
Heartbeat CPU 0 instructions: 34000222 cycles: 10036655 heartbeat IPC: 3.529 cumulative IPC: 3.388 (Simulation time: 00 hr 02 min 42 sec)
Heartbeat CPU 0 instructions: 34500225 cycles: 10177806 heartbeat IPC: 3.542 cumulative IPC: 3.39 (Simulation time: 00 hr 02 min 45 sec)
Heartbeat CPU 0 instructions: 35000226 cycles: 10318039 heartbeat IPC: 3.566 cumulative IPC: 3.392 (Simulation time: 00 hr 02 min 47 sec)
Heartbeat CPU 0 instructions: 35500227 cycles: 10462050 heartbeat IPC: 3.472 cumulative IPC: 3.393 (Simulation time: 00 hr 02 min 49 sec)
Heartbeat CPU 0 instructions: 36000230 cycles: 10606228 heartbeat IPC: 3.468 cumulative IPC: 3.394 (Simulation time: 00 hr 02 min 52 sec)
Heartbeat CPU 0 instructions: 36500230 cycles: 10750170 heartbeat IPC: 3.474 cumulative IPC: 3.395 (Simulation time: 00 hr 02 min 54 sec)
Heartbeat CPU 0 instructions: 37000231 cycles: 10890888 heartbeat IPC: 3.553 cumulative IPC: 3.397 (Simulation time: 00 hr 02 min 56 sec)
Heartbeat CPU 0 instructions: 37500236 cycles: 11032011 heartbeat IPC: 3.543 cumulative IPC: 3.399 (Simulation time: 00 hr 02 min 58 sec)
Heartbeat CPU 0 instructions: 38000238 cycles: 11174541 heartbeat IPC: 3.508 cumulative IPC: 3.401 (Simulation time: 00 hr 03 min 01 sec)
Heartbeat CPU 0 instructions: 38500242 cycles: 11317250 heartbeat IPC: 3.504 cumulative IPC: 3.402 (Simulation time: 00 hr 03 min 03 sec)
Heartbeat CPU 0 instructions: 39000248 cycles: 11458690 heartbeat IPC: 3.535 cumulative IPC: 3.404 (Simulation time: 00 hr 03 min 05 sec)
Heartbeat CPU 0 instructions: 39500248 cycles: 11598738 heartbeat IPC: 3.57 cumulative IPC: 3.406 (Simulation time: 00 hr 03 min 08 sec)
Heartbeat CPU 0 instructions: 40000253 cycles: 11739439 heartbeat IPC: 3.554 cumulative IPC: 3.407 (Simulation time: 00 hr 03 min 10 sec)
Heartbeat CPU 0 instructions: 40500260 cycles: 11882142 heartbeat IPC: 3.504 cumulative IPC: 3.408 (Simulation time: 00 hr 03 min 12 sec)
Heartbeat CPU 0 instructions: 41000260 cycles: 12020842 heartbeat IPC: 3.605 cumulative IPC: 3.411 (Simulation time: 00 hr 03 min 14 sec)
Heartbeat CPU 0 instructions: 41500266 cycles: 12160019 heartbeat IPC: 3.593 cumulative IPC: 3.413 (Simulation time: 00 hr 03 min 17 sec)
Heartbeat CPU 0 instructions: 42000273 cycles: 12302112 heartbeat IPC: 3.519 cumulative IPC: 3.414 (Simulation time: 00 hr 03 min 19 sec)
Heartbeat CPU 0 instructions: 42500273 cycles: 12441426 heartbeat IPC: 3.589 cumulative IPC: 3.416 (Simulation time: 00 hr 03 min 21 sec)
Heartbeat CPU 0 instructions: 43000277 cycles: 12582921 heartbeat IPC: 3.534 cumulative IPC: 3.417 (Simulation time: 00 hr 03 min 23 sec)
Heartbeat CPU 0 instructions: 43500282 cycles: 12721481 heartbeat IPC: 3.609 cumulative IPC: 3.419 (Simulation time: 00 hr 03 min 26 sec)
Heartbeat CPU 0 instructions: 44000288 cycles: 12860310 heartbeat IPC: 3.602 cumulative IPC: 3.421 (Simulation time: 00 hr 03 min 28 sec)
Heartbeat CPU 0 instructions: 44500290 cycles: 13000033 heartbeat IPC: 3.579 cumulative IPC: 3.423 (Simulation time: 00 hr 03 min 30 sec)
Heartbeat CPU 0 instructions: 45000292 cycles: 13140375 heartbeat IPC: 3.563 cumulative IPC: 3.425 (Simulation time: 00 hr 03 min 32 sec)
Heartbeat CPU 0 instructions: 45500293 cycles: 13277466 heartbeat IPC: 3.647 cumulative IPC: 3.427 (Simulation time: 00 hr 03 min 35 sec)
Heartbeat CPU 0 instructions: 46000300 cycles: 13418876 heartbeat IPC: 3.536 cumulative IPC: 3.428 (Simulation time: 00 hr 03 min 37 sec)
Heartbeat CPU 0 instructions: 46500300 cycles: 13558003 heartbeat IPC: 3.594 cumulative IPC: 3.43 (Simulation time: 00 hr 03 min 39 sec)
Heartbeat CPU 0 instructions: 47000303 cycles: 13698031 heartbeat IPC: 3.571 cumulative IPC: 3.431 (Simulation time: 00 hr 03 min 41 sec)
Heartbeat CPU 0 instructions: 47500307 cycles: 13837479 heartbeat IPC: 3.586 cumulative IPC: 3.433 (Simulation time: 00 hr 03 min 44 sec)
Heartbeat CPU 0 instructions: 48000309 cycles: 13977408 heartbeat IPC: 3.573 cumulative IPC: 3.434 (Simulation time: 00 hr 03 min 46 sec)
Heartbeat CPU 0 instructions: 48500313 cycles: 14117222 heartbeat IPC: 3.576 cumulative IPC: 3.436 (Simulation time: 00 hr 03 min 48 sec)
Heartbeat CPU 0 instructions: 49000316 cycles: 14256419 heartbeat IPC: 3.592 cumulative IPC: 3.437 (Simulation time: 00 hr 03 min 50 sec)
Heartbeat CPU 0 instructions: 49500316 cycles: 14396424 heartbeat IPC: 3.571 cumulative IPC: 3.438 (Simulation time: 00 hr 03 min 53 sec)
Warmup finished CPU 0 instructions: 50000005 cycles: 14533905 cumulative IPC: 3.44 (Simulation time: 00 hr 03 min 55 sec)
Warmup complete CPU 0 instructions: 50000005 cycles: 14533905 cumulative IPC: 3.44 (Simulation time: 00 hr 03 min 55 sec)
Heartbeat CPU 0 instructions: 50000317 cycles: 14533944 heartbeat IPC: 3.636 cumulative IPC: 8 (Simulation time: 00 hr 03 min 55 sec)
Heartbeat CPU 0 instructions: 50500320 cycles: 15655324 heartbeat IPC: 0.4459 cumulative IPC: 0.4461 (Simulation time: 00 hr 04 min 02 sec)
Heartbeat CPU 0 instructions: 51000321 cycles: 16760447 heartbeat IPC: 0.4524 cumulative IPC: 0.4493 (Simulation time: 00 hr 04 min 09 sec)
Heartbeat CPU 0 instructions: 51500324 cycles: 17901848 heartbeat IPC: 0.4381 cumulative IPC: 0.4455 (Simulation time: 00 hr 04 min 16 sec)
Heartbeat CPU 0 instructions: 52000325 cycles: 19015260 heartbeat IPC: 0.4491 cumulative IPC: 0.4464 (Simulation time: 00 hr 04 min 23 sec)
Heartbeat CPU 0 instructions: 52500328 cycles: 20139220 heartbeat IPC: 0.4449 cumulative IPC: 0.4461 (Simulation time: 00 hr 04 min 30 sec)
Heartbeat CPU 0 instructions: 53000330 cycles: 21249915 heartbeat IPC: 0.4502 cumulative IPC: 0.4467 (Simulation time: 00 hr 04 min 37 sec)
Heartbeat CPU 0 instructions: 53500333 cycles: 22362649 heartbeat IPC: 0.4493 cumulative IPC: 0.4471 (Simulation time: 00 hr 04 min 44 sec)
Heartbeat CPU 0 instructions: 54000334 cycles: 23470854 heartbeat IPC: 0.4512 cumulative IPC: 0.4476 (Simulation time: 00 hr 04 min 51 sec)
Heartbeat CPU 0 instructions: 54500337 cycles: 24563846 heartbeat IPC: 0.4575 cumulative IPC: 0.4487 (Simulation time: 00 hr 04 min 58 sec)
Heartbeat CPU 0 instructions: 55000337 cycles: 25650755 heartbeat IPC: 0.46 cumulative IPC: 0.4498 (Simulation time: 00 hr 05 min 04 sec)
Heartbeat CPU 0 instructions: 55500340 cycles: 26783581 heartbeat IPC: 0.4414 cumulative IPC: 0.449 (Simulation time: 00 hr 05 min 11 sec)
Heartbeat CPU 0 instructions: 56000343 cycles: 27847930 heartbeat IPC: 0.4698 cumulative IPC: 0.4507 (Simulation time: 00 hr 05 min 18 sec)
Heartbeat CPU 0 instructions: 56500344 cycles: 28937063 heartbeat IPC: 0.4591 cumulative IPC: 0.4513 (Simulation time: 00 hr 05 min 25 sec)
Heartbeat CPU 0 instructions: 57000346 cycles: 30038886 heartbeat IPC: 0.4538 cumulative IPC: 0.4515 (Simulation time: 00 hr 05 min 32 sec)
Heartbeat CPU 0 instructions: 57500346 cycles: 31138601 heartbeat IPC: 0.4547 cumulative IPC: 0.4517 (Simulation time: 00 hr 05 min 39 sec)
Heartbeat CPU 0 instructions: 58000346 cycles: 32231301 heartbeat IPC: 0.4576 cumulative IPC: 0.4521 (Simulation time: 00 hr 05 min 45 sec)
Heartbeat CPU 0 instructions: 58500347 cycles: 33318228 heartbeat IPC: 0.46 cumulative IPC: 0.4525 (Simulation time: 00 hr 05 min 52 sec)
Heartbeat CPU 0 instructions: 59000347 cycles: 34414105 heartbeat IPC: 0.4563 cumulative IPC: 0.4527 (Simulation time: 00 hr 05 min 59 sec)
Heartbeat CPU 0 instructions: 59500351 cycles: 35517536 heartbeat IPC: 0.4531 cumulative IPC: 0.4528 (Simulation time: 00 hr 06 min 06 sec)
Heartbeat CPU 0 instructions: 60000351 cycles: 36623720 heartbeat IPC: 0.452 cumulative IPC: 0.4527 (Simulation time: 00 hr 06 min 13 sec)
Heartbeat CPU 0 instructions: 60500351 cycles: 37693825 heartbeat IPC: 0.4672 cumulative IPC: 0.4534 (Simulation time: 00 hr 06 min 20 sec)
Heartbeat CPU 0 instructions: 61000353 cycles: 38805524 heartbeat IPC: 0.4498 cumulative IPC: 0.4532 (Simulation time: 00 hr 06 min 27 sec)
Heartbeat CPU 0 instructions: 61500360 cycles: 39929983 heartbeat IPC: 0.4447 cumulative IPC: 0.4528 (Simulation time: 00 hr 06 min 34 sec)
Heartbeat CPU 0 instructions: 62000362 cycles: 41006487 heartbeat IPC: 0.4645 cumulative IPC: 0.4533 (Simulation time: 00 hr 06 min 40 sec)
Heartbeat CPU 0 instructions: 62500363 cycles: 42095338 heartbeat IPC: 0.4592 cumulative IPC: 0.4535 (Simulation time: 00 hr 06 min 47 sec)
Heartbeat CPU 0 instructions: 63000368 cycles: 43154883 heartbeat IPC: 0.4719 cumulative IPC: 0.4542 (Simulation time: 00 hr 06 min 54 sec)
Heartbeat CPU 0 instructions: 63500370 cycles: 44236814 heartbeat IPC: 0.4621 cumulative IPC: 0.4545 (Simulation time: 00 hr 07 min 01 sec)
Heartbeat CPU 0 instructions: 64000371 cycles: 45321492 heartbeat IPC: 0.461 cumulative IPC: 0.4547 (Simulation time: 00 hr 07 min 08 sec)
Heartbeat CPU 0 instructions: 64500375 cycles: 46412197 heartbeat IPC: 0.4584 cumulative IPC: 0.4549 (Simulation time: 00 hr 07 min 15 sec)
Heartbeat CPU 0 instructions: 65000375 cycles: 47487720 heartbeat IPC: 0.4649 cumulative IPC: 0.4552 (Simulation time: 00 hr 07 min 21 sec)
Heartbeat CPU 0 instructions: 65500378 cycles: 48583677 heartbeat IPC: 0.4562 cumulative IPC: 0.4552 (Simulation time: 00 hr 07 min 28 sec)
Heartbeat CPU 0 instructions: 66000378 cycles: 49688433 heartbeat IPC: 0.4526 cumulative IPC: 0.4551 (Simulation time: 00 hr 07 min 35 sec)
Heartbeat CPU 0 instructions: 66500380 cycles: 50794061 heartbeat IPC: 0.4522 cumulative IPC: 0.4551 (Simulation time: 00 hr 07 min 42 sec)
Heartbeat CPU 0 instructions: 67000383 cycles: 51903671 heartbeat IPC: 0.4506 cumulative IPC: 0.4549 (Simulation time: 00 hr 07 min 49 sec)
Heartbeat CPU 0 instructions: 67500383 cycles: 52971611 heartbeat IPC: 0.4682 cumulative IPC: 0.4553 (Simulation time: 00 hr 07 min 56 sec)
Heartbeat CPU 0 instructions: 68000383 cycles: 54030907 heartbeat IPC: 0.472 cumulative IPC: 0.4557 (Simulation time: 00 hr 08 min 03 sec)
Heartbeat CPU 0 instructions: 68500384 cycles: 55114274 heartbeat IPC: 0.4615 cumulative IPC: 0.4559 (Simulation time: 00 hr 08 min 09 sec)
Heartbeat CPU 0 instructions: 69000384 cycles: 56214961 heartbeat IPC: 0.4543 cumulative IPC: 0.4559 (Simulation time: 00 hr 08 min 16 sec)
Heartbeat CPU 0 instructions: 69500384 cycles: 57274365 heartbeat IPC: 0.472 cumulative IPC: 0.4563 (Simulation time: 00 hr 08 min 23 sec)
Heartbeat CPU 0 instructions: 70000385 cycles: 58352450 heartbeat IPC: 0.4638 cumulative IPC: 0.4564 (Simulation time: 00 hr 08 min 30 sec)
Heartbeat CPU 0 instructions: 70500387 cycles: 59446131 heartbeat IPC: 0.4572 cumulative IPC: 0.4565 (Simulation time: 00 hr 08 min 37 sec)
Heartbeat CPU 0 instructions: 71000391 cycles: 60548328 heartbeat IPC: 0.4536 cumulative IPC: 0.4564 (Simulation time: 00 hr 08 min 44 sec)
Heartbeat CPU 0 instructions: 71500391 cycles: 61634412 heartbeat IPC: 0.4604 cumulative IPC: 0.4565 (Simulation time: 00 hr 08 min 50 sec)
Heartbeat CPU 0 instructions: 72000391 cycles: 62702873 heartbeat IPC: 0.468 cumulative IPC: 0.4567 (Simulation time: 00 hr 08 min 57 sec)
Heartbeat CPU 0 instructions: 72500392 cycles: 63788905 heartbeat IPC: 0.4604 cumulative IPC: 0.4568 (Simulation time: 00 hr 09 min 04 sec)
Heartbeat CPU 0 instructions: 73000394 cycles: 64898651 heartbeat IPC: 0.4506 cumulative IPC: 0.4567 (Simulation time: 00 hr 09 min 11 sec)
Heartbeat CPU 0 instructions: 73500397 cycles: 65979377 heartbeat IPC: 0.4627 cumulative IPC: 0.4568 (Simulation time: 00 hr 09 min 18 sec)
Heartbeat CPU 0 instructions: 74000397 cycles: 67037840 heartbeat IPC: 0.4724 cumulative IPC: 0.4571 (Simulation time: 00 hr 09 min 25 sec)
Heartbeat CPU 0 instructions: 74500398 cycles: 68116461 heartbeat IPC: 0.4636 cumulative IPC: 0.4572 (Simulation time: 00 hr 09 min 31 sec)
Heartbeat CPU 0 instructions: 75000399 cycles: 69203961 heartbeat IPC: 0.4598 cumulative IPC: 0.4573 (Simulation time: 00 hr 09 min 38 sec)
Heartbeat CPU 0 instructions: 75500401 cycles: 70300105 heartbeat IPC: 0.4561 cumulative IPC: 0.4573 (Simulation time: 00 hr 09 min 45 sec)
Heartbeat CPU 0 instructions: 76000405 cycles: 71382941 heartbeat IPC: 0.4618 cumulative IPC: 0.4574 (Simulation time: 00 hr 09 min 52 sec)
Heartbeat CPU 0 instructions: 76500407 cycles: 72468188 heartbeat IPC: 0.4607 cumulative IPC: 0.4574 (Simulation time: 00 hr 09 min 59 sec)
Heartbeat CPU 0 instructions: 77000407 cycles: 73556559 heartbeat IPC: 0.4594 cumulative IPC: 0.4575 (Simulation time: 00 hr 10 min 06 sec)
Heartbeat CPU 0 instructions: 77500410 cycles: 74637816 heartbeat IPC: 0.4624 cumulative IPC: 0.4575 (Simulation time: 00 hr 10 min 12 sec)
Heartbeat CPU 0 instructions: 78000412 cycles: 75737990 heartbeat IPC: 0.4545 cumulative IPC: 0.4575 (Simulation time: 00 hr 10 min 19 sec)
Heartbeat CPU 0 instructions: 78500416 cycles: 76833678 heartbeat IPC: 0.4563 cumulative IPC: 0.4575 (Simulation time: 00 hr 10 min 26 sec)
Heartbeat CPU 0 instructions: 79000416 cycles: 77915215 heartbeat IPC: 0.4623 cumulative IPC: 0.4576 (Simulation time: 00 hr 10 min 33 sec)
Heartbeat CPU 0 instructions: 79500417 cycles: 79020302 heartbeat IPC: 0.4525 cumulative IPC: 0.4575 (Simulation time: 00 hr 10 min 40 sec)
Heartbeat CPU 0 instructions: 80000417 cycles: 80070312 heartbeat IPC: 0.4762 cumulative IPC: 0.4578 (Simulation time: 00 hr 10 min 47 sec)
Heartbeat CPU 0 instructions: 80500422 cycles: 81146595 heartbeat IPC: 0.4646 cumulative IPC: 0.4579 (Simulation time: 00 hr 10 min 54 sec)
Heartbeat CPU 0 instructions: 81000424 cycles: 82242273 heartbeat IPC: 0.4563 cumulative IPC: 0.4579 (Simulation time: 00 hr 11 min 01 sec)
Heartbeat CPU 0 instructions: 81500427 cycles: 83322497 heartbeat IPC: 0.4629 cumulative IPC: 0.4579 (Simulation time: 00 hr 11 min 07 sec)
Heartbeat CPU 0 instructions: 82000431 cycles: 84416684 heartbeat IPC: 0.457 cumulative IPC: 0.4579 (Simulation time: 00 hr 11 min 14 sec)
Heartbeat CPU 0 instructions: 82500431 cycles: 85491197 heartbeat IPC: 0.4653 cumulative IPC: 0.458 (Simulation time: 00 hr 11 min 21 sec)
Heartbeat CPU 0 instructions: 83000432 cycles: 86636790 heartbeat IPC: 0.4365 cumulative IPC: 0.4577 (Simulation time: 00 hr 11 min 28 sec)
Heartbeat CPU 0 instructions: 83500439 cycles: 87751621 heartbeat IPC: 0.4485 cumulative IPC: 0.4575 (Simulation time: 00 hr 11 min 35 sec)
Heartbeat CPU 0 instructions: 84000445 cycles: 88837222 heartbeat IPC: 0.4606 cumulative IPC: 0.4576 (Simulation time: 00 hr 11 min 42 sec)
Heartbeat CPU 0 instructions: 84500445 cycles: 89954692 heartbeat IPC: 0.4474 cumulative IPC: 0.4574 (Simulation time: 00 hr 11 min 49 sec)
Heartbeat CPU 0 instructions: 85000451 cycles: 91035108 heartbeat IPC: 0.4628 cumulative IPC: 0.4575 (Simulation time: 00 hr 11 min 56 sec)
Heartbeat CPU 0 instructions: 85500451 cycles: 92133103 heartbeat IPC: 0.4554 cumulative IPC: 0.4575 (Simulation time: 00 hr 12 min 03 sec)
Heartbeat CPU 0 instructions: 86000456 cycles: 93230576 heartbeat IPC: 0.4556 cumulative IPC: 0.4575 (Simulation time: 00 hr 12 min 10 sec)
Heartbeat CPU 0 instructions: 86500456 cycles: 94290565 heartbeat IPC: 0.4717 cumulative IPC: 0.4576 (Simulation time: 00 hr 12 min 16 sec)
Heartbeat CPU 0 instructions: 87000457 cycles: 95357867 heartbeat IPC: 0.4685 cumulative IPC: 0.4578 (Simulation time: 00 hr 12 min 23 sec)
Heartbeat CPU 0 instructions: 87500457 cycles: 96442773 heartbeat IPC: 0.4609 cumulative IPC: 0.4578 (Simulation time: 00 hr 12 min 30 sec)
Heartbeat CPU 0 instructions: 88000457 cycles: 97538067 heartbeat IPC: 0.4565 cumulative IPC: 0.4578 (Simulation time: 00 hr 12 min 37 sec)
Heartbeat CPU 0 instructions: 88500458 cycles: 98639928 heartbeat IPC: 0.4538 cumulative IPC: 0.4578 (Simulation time: 00 hr 12 min 44 sec)
Heartbeat CPU 0 instructions: 89000460 cycles: 99712745 heartbeat IPC: 0.4661 cumulative IPC: 0.4579 (Simulation time: 00 hr 12 min 51 sec)
Heartbeat CPU 0 instructions: 89500461 cycles: 100785602 heartbeat IPC: 0.466 cumulative IPC: 0.458 (Simulation time: 00 hr 12 min 57 sec)
Heartbeat CPU 0 instructions: 90000464 cycles: 101860366 heartbeat IPC: 0.4652 cumulative IPC: 0.4581 (Simulation time: 00 hr 13 min 04 sec)
Heartbeat CPU 0 instructions: 90500469 cycles: 102923350 heartbeat IPC: 0.4704 cumulative IPC: 0.4582 (Simulation time: 00 hr 13 min 11 sec)
Heartbeat CPU 0 instructions: 91000470 cycles: 103988852 heartbeat IPC: 0.4693 cumulative IPC: 0.4583 (Simulation time: 00 hr 13 min 18 sec)
Heartbeat CPU 0 instructions: 91500472 cycles: 105077814 heartbeat IPC: 0.4592 cumulative IPC: 0.4583 (Simulation time: 00 hr 13 min 24 sec)
Heartbeat CPU 0 instructions: 92000475 cycles: 106193596 heartbeat IPC: 0.4481 cumulative IPC: 0.4582 (Simulation time: 00 hr 13 min 31 sec)
Heartbeat CPU 0 instructions: 92500477 cycles: 107254687 heartbeat IPC: 0.4712 cumulative IPC: 0.4584 (Simulation time: 00 hr 13 min 38 sec)
Heartbeat CPU 0 instructions: 93000479 cycles: 108341253 heartbeat IPC: 0.4602 cumulative IPC: 0.4584 (Simulation time: 00 hr 13 min 45 sec)
Heartbeat CPU 0 instructions: 93500480 cycles: 109437603 heartbeat IPC: 0.4561 cumulative IPC: 0.4584 (Simulation time: 00 hr 13 min 52 sec)
Heartbeat CPU 0 instructions: 94000482 cycles: 110520289 heartbeat IPC: 0.4618 cumulative IPC: 0.4584 (Simulation time: 00 hr 13 min 59 sec)
Heartbeat CPU 0 instructions: 94500482 cycles: 111583538 heartbeat IPC: 0.4703 cumulative IPC: 0.4585 (Simulation time: 00 hr 14 min 06 sec)
Heartbeat CPU 0 instructions: 95000482 cycles: 112652184 heartbeat IPC: 0.4679 cumulative IPC: 0.4586 (Simulation time: 00 hr 14 min 12 sec)
Heartbeat CPU 0 instructions: 95500483 cycles: 113729815 heartbeat IPC: 0.464 cumulative IPC: 0.4587 (Simulation time: 00 hr 14 min 19 sec)
Heartbeat CPU 0 instructions: 96000483 cycles: 114821580 heartbeat IPC: 0.458 cumulative IPC: 0.4587 (Simulation time: 00 hr 14 min 26 sec)
Heartbeat CPU 0 instructions: 96500485 cycles: 115899462 heartbeat IPC: 0.4639 cumulative IPC: 0.4587 (Simulation time: 00 hr 14 min 33 sec)
Heartbeat CPU 0 instructions: 97000490 cycles: 116960439 heartbeat IPC: 0.4713 cumulative IPC: 0.4589 (Simulation time: 00 hr 14 min 40 sec)
Heartbeat CPU 0 instructions: 97500492 cycles: 118056471 heartbeat IPC: 0.4562 cumulative IPC: 0.4588 (Simulation time: 00 hr 14 min 46 sec)
Heartbeat CPU 0 instructions: 98000492 cycles: 119121632 heartbeat IPC: 0.4694 cumulative IPC: 0.4589 (Simulation time: 00 hr 14 min 53 sec)
Heartbeat CPU 0 instructions: 98500492 cycles: 120188607 heartbeat IPC: 0.4686 cumulative IPC: 0.459 (Simulation time: 00 hr 15 min 00 sec)
Heartbeat CPU 0 instructions: 99000492 cycles: 121249727 heartbeat IPC: 0.4712 cumulative IPC: 0.4592 (Simulation time: 00 hr 15 min 06 sec)
Heartbeat CPU 0 instructions: 99500496 cycles: 122343810 heartbeat IPC: 0.457 cumulative IPC: 0.4591 (Simulation time: 00 hr 15 min 13 sec)
Heartbeat CPU 0 instructions: 100000498 cycles: 123440383 heartbeat IPC: 0.456 cumulative IPC: 0.4591 (Simulation time: 00 hr 15 min 20 sec)
Heartbeat CPU 0 instructions: 100500498 cycles: 124525988 heartbeat IPC: 0.4606 cumulative IPC: 0.4591 (Simulation time: 00 hr 15 min 27 sec)
Heartbeat CPU 0 instructions: 101000502 cycles: 125613107 heartbeat IPC: 0.4599 cumulative IPC: 0.4591 (Simulation time: 00 hr 15 min 34 sec)
Heartbeat CPU 0 instructions: 101500508 cycles: 126701764 heartbeat IPC: 0.4593 cumulative IPC: 0.4591 (Simulation time: 00 hr 15 min 41 sec)
Heartbeat CPU 0 instructions: 102000508 cycles: 127768478 heartbeat IPC: 0.4687 cumulative IPC: 0.4592 (Simulation time: 00 hr 15 min 47 sec)
Heartbeat CPU 0 instructions: 102500508 cycles: 128852769 heartbeat IPC: 0.4611 cumulative IPC: 0.4592 (Simulation time: 00 hr 15 min 54 sec)
Heartbeat CPU 0 instructions: 103000509 cycles: 129947941 heartbeat IPC: 0.4566 cumulative IPC: 0.4592 (Simulation time: 00 hr 16 min 01 sec)
Heartbeat CPU 0 instructions: 103500515 cycles: 131014290 heartbeat IPC: 0.4689 cumulative IPC: 0.4593 (Simulation time: 00 hr 16 min 08 sec)
Heartbeat CPU 0 instructions: 104000516 cycles: 132095387 heartbeat IPC: 0.4625 cumulative IPC: 0.4593 (Simulation time: 00 hr 16 min 14 sec)
Heartbeat CPU 0 instructions: 104500516 cycles: 133162589 heartbeat IPC: 0.4685 cumulative IPC: 0.4594 (Simulation time: 00 hr 16 min 21 sec)
Heartbeat CPU 0 instructions: 105000521 cycles: 134229036 heartbeat IPC: 0.4689 cumulative IPC: 0.4595 (Simulation time: 00 hr 16 min 28 sec)
Heartbeat CPU 0 instructions: 105500521 cycles: 135306024 heartbeat IPC: 0.4643 cumulative IPC: 0.4595 (Simulation time: 00 hr 16 min 35 sec)
Heartbeat CPU 0 instructions: 106000521 cycles: 136375701 heartbeat IPC: 0.4674 cumulative IPC: 0.4596 (Simulation time: 00 hr 16 min 41 sec)
Heartbeat CPU 0 instructions: 106500528 cycles: 137455883 heartbeat IPC: 0.4629 cumulative IPC: 0.4596 (Simulation time: 00 hr 16 min 48 sec)
Heartbeat CPU 0 instructions: 107000528 cycles: 138499252 heartbeat IPC: 0.4792 cumulative IPC: 0.4598 (Simulation time: 00 hr 16 min 55 sec)
Heartbeat CPU 0 instructions: 107500533 cycles: 139553173 heartbeat IPC: 0.4744 cumulative IPC: 0.4599 (Simulation time: 00 hr 17 min 01 sec)
Heartbeat CPU 0 instructions: 108000536 cycles: 140605985 heartbeat IPC: 0.4749 cumulative IPC: 0.4601 (Simulation time: 00 hr 17 min 08 sec)
Heartbeat CPU 0 instructions: 108500536 cycles: 141681197 heartbeat IPC: 0.465 cumulative IPC: 0.4601 (Simulation time: 00 hr 17 min 15 sec)
Heartbeat CPU 0 instructions: 109000536 cycles: 142755866 heartbeat IPC: 0.4653 cumulative IPC: 0.4601 (Simulation time: 00 hr 17 min 21 sec)
Heartbeat CPU 0 instructions: 109500543 cycles: 143828459 heartbeat IPC: 0.4662 cumulative IPC: 0.4602 (Simulation time: 00 hr 17 min 28 sec)
Heartbeat CPU 0 instructions: 110000543 cycles: 144892288 heartbeat IPC: 0.47 cumulative IPC: 0.4603 (Simulation time: 00 hr 17 min 35 sec)
Heartbeat CPU 0 instructions: 110500544 cycles: 145976549 heartbeat IPC: 0.4611 cumulative IPC: 0.4603 (Simulation time: 00 hr 17 min 41 sec)
Heartbeat CPU 0 instructions: 111000544 cycles: 147033719 heartbeat IPC: 0.473 cumulative IPC: 0.4604 (Simulation time: 00 hr 17 min 48 sec)
Heartbeat CPU 0 instructions: 111500544 cycles: 148107966 heartbeat IPC: 0.4654 cumulative IPC: 0.4604 (Simulation time: 00 hr 17 min 55 sec)
Heartbeat CPU 0 instructions: 112000545 cycles: 149168817 heartbeat IPC: 0.4713 cumulative IPC: 0.4605 (Simulation time: 00 hr 18 min 02 sec)
Heartbeat CPU 0 instructions: 112500545 cycles: 150205854 heartbeat IPC: 0.4821 cumulative IPC: 0.4607 (Simulation time: 00 hr 18 min 08 sec)
Heartbeat CPU 0 instructions: 113000546 cycles: 151258303 heartbeat IPC: 0.4751 cumulative IPC: 0.4608 (Simulation time: 00 hr 18 min 15 sec)
Heartbeat CPU 0 instructions: 113500547 cycles: 152350632 heartbeat IPC: 0.4577 cumulative IPC: 0.4608 (Simulation time: 00 hr 18 min 22 sec)
Heartbeat CPU 0 instructions: 114000551 cycles: 153431393 heartbeat IPC: 0.4626 cumulative IPC: 0.4608 (Simulation time: 00 hr 18 min 28 sec)
Heartbeat CPU 0 instructions: 114500551 cycles: 154499460 heartbeat IPC: 0.4681 cumulative IPC: 0.4608 (Simulation time: 00 hr 18 min 36 sec)
Heartbeat CPU 0 instructions: 115000556 cycles: 155574114 heartbeat IPC: 0.4653 cumulative IPC: 0.4609 (Simulation time: 00 hr 18 min 44 sec)
Heartbeat CPU 0 instructions: 115500556 cycles: 156654285 heartbeat IPC: 0.4629 cumulative IPC: 0.4609 (Simulation time: 00 hr 18 min 52 sec)
Heartbeat CPU 0 instructions: 116000558 cycles: 157731424 heartbeat IPC: 0.4642 cumulative IPC: 0.4609 (Simulation time: 00 hr 19 min 00 sec)
Heartbeat CPU 0 instructions: 116500558 cycles: 158793041 heartbeat IPC: 0.471 cumulative IPC: 0.461 (Simulation time: 00 hr 19 min 08 sec)
Heartbeat CPU 0 instructions: 117000559 cycles: 159862117 heartbeat IPC: 0.4677 cumulative IPC: 0.461 (Simulation time: 00 hr 19 min 16 sec)
Heartbeat CPU 0 instructions: 117500565 cycles: 160948936 heartbeat IPC: 0.4601 cumulative IPC: 0.461 (Simulation time: 00 hr 19 min 24 sec)
Heartbeat CPU 0 instructions: 118000571 cycles: 162018332 heartbeat IPC: 0.4676 cumulative IPC: 0.4611 (Simulation time: 00 hr 19 min 32 sec)
Heartbeat CPU 0 instructions: 118500571 cycles: 163094121 heartbeat IPC: 0.4648 cumulative IPC: 0.4611 (Simulation time: 00 hr 19 min 40 sec)
Heartbeat CPU 0 instructions: 119000571 cycles: 164152874 heartbeat IPC: 0.4723 cumulative IPC: 0.4612 (Simulation time: 00 hr 19 min 48 sec)
Heartbeat CPU 0 instructions: 119500572 cycles: 165208701 heartbeat IPC: 0.4736 cumulative IPC: 0.4613 (Simulation time: 00 hr 19 min 56 sec)
Heartbeat CPU 0 instructions: 120000574 cycles: 166286702 heartbeat IPC: 0.4638 cumulative IPC: 0.4613 (Simulation time: 00 hr 20 min 04 sec)
Heartbeat CPU 0 instructions: 120500577 cycles: 167342310 heartbeat IPC: 0.4737 cumulative IPC: 0.4614 (Simulation time: 00 hr 20 min 12 sec)
Heartbeat CPU 0 instructions: 121000579 cycles: 168408455 heartbeat IPC: 0.469 cumulative IPC: 0.4614 (Simulation time: 00 hr 20 min 20 sec)
Heartbeat CPU 0 instructions: 121500579 cycles: 169470064 heartbeat IPC: 0.471 cumulative IPC: 0.4615 (Simulation time: 00 hr 20 min 27 sec)
Heartbeat CPU 0 instructions: 122000585 cycles: 170494806 heartbeat IPC: 0.4879 cumulative IPC: 0.4617 (Simulation time: 00 hr 20 min 33 sec)
Heartbeat CPU 0 instructions: 122500585 cycles: 171578624 heartbeat IPC: 0.4613 cumulative IPC: 0.4617 (Simulation time: 00 hr 20 min 40 sec)
Heartbeat CPU 0 instructions: 123000585 cycles: 172647607 heartbeat IPC: 0.4677 cumulative IPC: 0.4617 (Simulation time: 00 hr 20 min 47 sec)
Heartbeat CPU 0 instructions: 123500587 cycles: 173693176 heartbeat IPC: 0.4782 cumulative IPC: 0.4618 (Simulation time: 00 hr 20 min 53 sec)
Heartbeat CPU 0 instructions: 124000588 cycles: 174770909 heartbeat IPC: 0.4639 cumulative IPC: 0.4618 (Simulation time: 00 hr 21 min 00 sec)
Heartbeat CPU 0 instructions: 124500591 cycles: 175820286 heartbeat IPC: 0.4765 cumulative IPC: 0.4619 (Simulation time: 00 hr 21 min 07 sec)
Heartbeat CPU 0 instructions: 125000591 cycles: 176888759 heartbeat IPC: 0.468 cumulative IPC: 0.462 (Simulation time: 00 hr 21 min 13 sec)
Heartbeat CPU 0 instructions: 125500595 cycles: 177953112 heartbeat IPC: 0.4698 cumulative IPC: 0.462 (Simulation time: 00 hr 21 min 20 sec)
Heartbeat CPU 0 instructions: 126000599 cycles: 178990944 heartbeat IPC: 0.4818 cumulative IPC: 0.4621 (Simulation time: 00 hr 21 min 27 sec)
Heartbeat CPU 0 instructions: 126500606 cycles: 180047262 heartbeat IPC: 0.4733 cumulative IPC: 0.4622 (Simulation time: 00 hr 21 min 33 sec)
Heartbeat CPU 0 instructions: 127000607 cycles: 181120707 heartbeat IPC: 0.4658 cumulative IPC: 0.4622 (Simulation time: 00 hr 21 min 40 sec)
Heartbeat CPU 0 instructions: 127500607 cycles: 182195295 heartbeat IPC: 0.4653 cumulative IPC: 0.4622 (Simulation time: 00 hr 21 min 47 sec)
Heartbeat CPU 0 instructions: 128000607 cycles: 183272846 heartbeat IPC: 0.464 cumulative IPC: 0.4623 (Simulation time: 00 hr 21 min 54 sec)
Heartbeat CPU 0 instructions: 128500607 cycles: 184338344 heartbeat IPC: 0.4693 cumulative IPC: 0.4623 (Simulation time: 00 hr 22 min 00 sec)
Heartbeat CPU 0 instructions: 129000607 cycles: 185405248 heartbeat IPC: 0.4686 cumulative IPC: 0.4623 (Simulation time: 00 hr 22 min 07 sec)
Heartbeat CPU 0 instructions: 129500610 cycles: 186460282 heartbeat IPC: 0.4739 cumulative IPC: 0.4624 (Simulation time: 00 hr 22 min 13 sec)
Heartbeat CPU 0 instructions: 130000612 cycles: 187538151 heartbeat IPC: 0.4639 cumulative IPC: 0.4624 (Simulation time: 00 hr 22 min 20 sec)
Heartbeat CPU 0 instructions: 130500619 cycles: 188624224 heartbeat IPC: 0.4604 cumulative IPC: 0.4624 (Simulation time: 00 hr 22 min 27 sec)
Heartbeat CPU 0 instructions: 131000619 cycles: 189706088 heartbeat IPC: 0.4622 cumulative IPC: 0.4624 (Simulation time: 00 hr 22 min 34 sec)
Heartbeat CPU 0 instructions: 131500619 cycles: 190765896 heartbeat IPC: 0.4718 cumulative IPC: 0.4625 (Simulation time: 00 hr 22 min 40 sec)
Heartbeat CPU 0 instructions: 132000625 cycles: 191828982 heartbeat IPC: 0.4703 cumulative IPC: 0.4625 (Simulation time: 00 hr 22 min 47 sec)
Heartbeat CPU 0 instructions: 132500626 cycles: 192861635 heartbeat IPC: 0.4842 cumulative IPC: 0.4626 (Simulation time: 00 hr 22 min 53 sec)
Heartbeat CPU 0 instructions: 133000630 cycles: 193901697 heartbeat IPC: 0.4807 cumulative IPC: 0.4627 (Simulation time: 00 hr 23 min 00 sec)
Heartbeat CPU 0 instructions: 133500632 cycles: 194972556 heartbeat IPC: 0.4669 cumulative IPC: 0.4628 (Simulation time: 00 hr 23 min 07 sec)
Heartbeat CPU 0 instructions: 134000639 cycles: 196026561 heartbeat IPC: 0.4744 cumulative IPC: 0.4628 (Simulation time: 00 hr 23 min 13 sec)
Heartbeat CPU 0 instructions: 134500639 cycles: 197088282 heartbeat IPC: 0.4709 cumulative IPC: 0.4629 (Simulation time: 00 hr 23 min 20 sec)
Heartbeat CPU 0 instructions: 135000639 cycles: 198152587 heartbeat IPC: 0.4698 cumulative IPC: 0.4629 (Simulation time: 00 hr 23 min 27 sec)
Heartbeat CPU 0 instructions: 135500640 cycles: 199213467 heartbeat IPC: 0.4713 cumulative IPC: 0.463 (Simulation time: 00 hr 23 min 33 sec)
Heartbeat CPU 0 instructions: 136000643 cycles: 200253673 heartbeat IPC: 0.4807 cumulative IPC: 0.4631 (Simulation time: 00 hr 23 min 40 sec)
Heartbeat CPU 0 instructions: 136500644 cycles: 201303412 heartbeat IPC: 0.4763 cumulative IPC: 0.4631 (Simulation time: 00 hr 23 min 46 sec)
Heartbeat CPU 0 instructions: 137000644 cycles: 202374788 heartbeat IPC: 0.4667 cumulative IPC: 0.4632 (Simulation time: 00 hr 23 min 53 sec)
Heartbeat CPU 0 instructions: 137500646 cycles: 203425307 heartbeat IPC: 0.476 cumulative IPC: 0.4632 (Simulation time: 00 hr 23 min 59 sec)
Heartbeat CPU 0 instructions: 138000652 cycles: 204470192 heartbeat IPC: 0.4785 cumulative IPC: 0.4633 (Simulation time: 00 hr 24 min 06 sec)
Heartbeat CPU 0 instructions: 138500652 cycles: 205510784 heartbeat IPC: 0.4805 cumulative IPC: 0.4634 (Simulation time: 00 hr 24 min 12 sec)
Heartbeat CPU 0 instructions: 139000652 cycles: 206550793 heartbeat IPC: 0.4808 cumulative IPC: 0.4635 (Simulation time: 00 hr 24 min 19 sec)
Heartbeat CPU 0 instructions: 139500653 cycles: 207622993 heartbeat IPC: 0.4663 cumulative IPC: 0.4635 (Simulation time: 00 hr 24 min 25 sec)
Heartbeat CPU 0 instructions: 140000656 cycles: 208674712 heartbeat IPC: 0.4754 cumulative IPC: 0.4636 (Simulation time: 00 hr 24 min 32 sec)
Heartbeat CPU 0 instructions: 140500656 cycles: 209734779 heartbeat IPC: 0.4717 cumulative IPC: 0.4636 (Simulation time: 00 hr 24 min 39 sec)
Heartbeat CPU 0 instructions: 141000656 cycles: 210783680 heartbeat IPC: 0.4767 cumulative IPC: 0.4637 (Simulation time: 00 hr 24 min 45 sec)
Heartbeat CPU 0 instructions: 141500657 cycles: 211822783 heartbeat IPC: 0.4812 cumulative IPC: 0.4638 (Simulation time: 00 hr 24 min 52 sec)
Heartbeat CPU 0 instructions: 142000663 cycles: 212872868 heartbeat IPC: 0.4762 cumulative IPC: 0.4639 (Simulation time: 00 hr 24 min 58 sec)
Heartbeat CPU 0 instructions: 142500665 cycles: 213918644 heartbeat IPC: 0.4781 cumulative IPC: 0.4639 (Simulation time: 00 hr 25 min 05 sec)
Heartbeat CPU 0 instructions: 143000666 cycles: 214977772 heartbeat IPC: 0.4721 cumulative IPC: 0.464 (Simulation time: 00 hr 25 min 11 sec)
Heartbeat CPU 0 instructions: 143500668 cycles: 216018293 heartbeat IPC: 0.4805 cumulative IPC: 0.4641 (Simulation time: 00 hr 25 min 18 sec)
Heartbeat CPU 0 instructions: 144000668 cycles: 217071658 heartbeat IPC: 0.4747 cumulative IPC: 0.4641 (Simulation time: 00 hr 25 min 24 sec)
Heartbeat CPU 0 instructions: 144500668 cycles: 218097698 heartbeat IPC: 0.4873 cumulative IPC: 0.4642 (Simulation time: 00 hr 25 min 31 sec)
Heartbeat CPU 0 instructions: 145000672 cycles: 219127532 heartbeat IPC: 0.4855 cumulative IPC: 0.4643 (Simulation time: 00 hr 25 min 37 sec)
Heartbeat CPU 0 instructions: 145500673 cycles: 220181502 heartbeat IPC: 0.4744 cumulative IPC: 0.4644 (Simulation time: 00 hr 25 min 44 sec)
Heartbeat CPU 0 instructions: 146000673 cycles: 221227635 heartbeat IPC: 0.478 cumulative IPC: 0.4645 (Simulation time: 00 hr 25 min 50 sec)
Heartbeat CPU 0 instructions: 146500674 cycles: 222280743 heartbeat IPC: 0.4748 cumulative IPC: 0.4645 (Simulation time: 00 hr 25 min 57 sec)
Heartbeat CPU 0 instructions: 147000677 cycles: 223317418 heartbeat IPC: 0.4823 cumulative IPC: 0.4646 (Simulation time: 00 hr 26 min 03 sec)
Heartbeat CPU 0 instructions: 147500681 cycles: 224335595 heartbeat IPC: 0.4911 cumulative IPC: 0.4647 (Simulation time: 00 hr 26 min 09 sec)
Heartbeat CPU 0 instructions: 148000684 cycles: 225393961 heartbeat IPC: 0.4724 cumulative IPC: 0.4648 (Simulation time: 00 hr 26 min 16 sec)
Heartbeat CPU 0 instructions: 148500690 cycles: 226443359 heartbeat IPC: 0.4765 cumulative IPC: 0.4648 (Simulation time: 00 hr 26 min 22 sec)
Heartbeat CPU 0 instructions: 149000690 cycles: 227510117 heartbeat IPC: 0.4687 cumulative IPC: 0.4648 (Simulation time: 00 hr 26 min 29 sec)
Heartbeat CPU 0 instructions: 149500691 cycles: 228577921 heartbeat IPC: 0.4683 cumulative IPC: 0.4649 (Simulation time: 00 hr 26 min 35 sec)
Heartbeat CPU 0 instructions: 150000692 cycles: 229626314 heartbeat IPC: 0.4769 cumulative IPC: 0.4649 (Simulation time: 00 hr 26 min 42 sec)
Heartbeat CPU 0 instructions: 150500694 cycles: 230655574 heartbeat IPC: 0.4858 cumulative IPC: 0.465 (Simulation time: 00 hr 26 min 48 sec)
Heartbeat CPU 0 instructions: 151000695 cycles: 231687030 heartbeat IPC: 0.4848 cumulative IPC: 0.4651 (Simulation time: 00 hr 26 min 54 sec)
Heartbeat CPU 0 instructions: 151500697 cycles: 232739402 heartbeat IPC: 0.4751 cumulative IPC: 0.4652 (Simulation time: 00 hr 27 min 01 sec)
Heartbeat CPU 0 instructions: 152000697 cycles: 233797605 heartbeat IPC: 0.4725 cumulative IPC: 0.4652 (Simulation time: 00 hr 27 min 07 sec)
Heartbeat CPU 0 instructions: 152500697 cycles: 234812531 heartbeat IPC: 0.4926 cumulative IPC: 0.4653 (Simulation time: 00 hr 27 min 14 sec)
Heartbeat CPU 0 instructions: 153000697 cycles: 235857285 heartbeat IPC: 0.4786 cumulative IPC: 0.4654 (Simulation time: 00 hr 27 min 20 sec)
Heartbeat CPU 0 instructions: 153500697 cycles: 236895167 heartbeat IPC: 0.4818 cumulative IPC: 0.4655 (Simulation time: 00 hr 27 min 26 sec)
Heartbeat CPU 0 instructions: 154000699 cycles: 237942066 heartbeat IPC: 0.4776 cumulative IPC: 0.4655 (Simulation time: 00 hr 27 min 33 sec)
Heartbeat CPU 0 instructions: 154500702 cycles: 239000260 heartbeat IPC: 0.4725 cumulative IPC: 0.4656 (Simulation time: 00 hr 27 min 39 sec)
Heartbeat CPU 0 instructions: 155000702 cycles: 240002901 heartbeat IPC: 0.4987 cumulative IPC: 0.4657 (Simulation time: 00 hr 27 min 45 sec)
Heartbeat CPU 0 instructions: 155500705 cycles: 241057808 heartbeat IPC: 0.474 cumulative IPC: 0.4657 (Simulation time: 00 hr 27 min 52 sec)
Heartbeat CPU 0 instructions: 156000705 cycles: 242084199 heartbeat IPC: 0.4871 cumulative IPC: 0.4658 (Simulation time: 00 hr 27 min 58 sec)
Heartbeat CPU 0 instructions: 156500706 cycles: 243129312 heartbeat IPC: 0.4784 cumulative IPC: 0.4659 (Simulation time: 00 hr 28 min 04 sec)
Heartbeat CPU 0 instructions: 157000706 cycles: 244161424 heartbeat IPC: 0.4844 cumulative IPC: 0.466 (Simulation time: 00 hr 28 min 11 sec)
Heartbeat CPU 0 instructions: 157500707 cycles: 245218231 heartbeat IPC: 0.4731 cumulative IPC: 0.466 (Simulation time: 00 hr 28 min 17 sec)
Heartbeat CPU 0 instructions: 158000707 cycles: 246236467 heartbeat IPC: 0.491 cumulative IPC: 0.4661 (Simulation time: 00 hr 28 min 23 sec)
Heartbeat CPU 0 instructions: 158500708 cycles: 247267439 heartbeat IPC: 0.485 cumulative IPC: 0.4662 (Simulation time: 00 hr 28 min 29 sec)
Heartbeat CPU 0 instructions: 159000708 cycles: 248329971 heartbeat IPC: 0.4706 cumulative IPC: 0.4662 (Simulation time: 00 hr 28 min 36 sec)
Heartbeat CPU 0 instructions: 159500709 cycles: 249372318 heartbeat IPC: 0.4797 cumulative IPC: 0.4663 (Simulation time: 00 hr 28 min 42 sec)
Heartbeat CPU 0 instructions: 160000715 cycles: 250433706 heartbeat IPC: 0.4711 cumulative IPC: 0.4663 (Simulation time: 00 hr 28 min 48 sec)
Heartbeat CPU 0 instructions: 160500722 cycles: 251475723 heartbeat IPC: 0.4798 cumulative IPC: 0.4664 (Simulation time: 00 hr 28 min 55 sec)
Heartbeat CPU 0 instructions: 161000722 cycles: 252485674 heartbeat IPC: 0.4951 cumulative IPC: 0.4665 (Simulation time: 00 hr 29 min 01 sec)
Heartbeat CPU 0 instructions: 161500723 cycles: 253511071 heartbeat IPC: 0.4876 cumulative IPC: 0.4666 (Simulation time: 00 hr 29 min 07 sec)
Heartbeat CPU 0 instructions: 162000729 cycles: 254545383 heartbeat IPC: 0.4834 cumulative IPC: 0.4666 (Simulation time: 00 hr 29 min 13 sec)
Heartbeat CPU 0 instructions: 162500734 cycles: 255559158 heartbeat IPC: 0.4932 cumulative IPC: 0.4668 (Simulation time: 00 hr 29 min 19 sec)
Heartbeat CPU 0 instructions: 163000735 cycles: 256584396 heartbeat IPC: 0.4877 cumulative IPC: 0.4668 (Simulation time: 00 hr 29 min 25 sec)
Heartbeat CPU 0 instructions: 163500737 cycles: 257584590 heartbeat IPC: 0.4999 cumulative IPC: 0.467 (Simulation time: 00 hr 29 min 31 sec)
Heartbeat CPU 0 instructions: 164000738 cycles: 258570798 heartbeat IPC: 0.507 cumulative IPC: 0.4671 (Simulation time: 00 hr 29 min 38 sec)
Heartbeat CPU 0 instructions: 164500741 cycles: 259542528 heartbeat IPC: 0.5145 cumulative IPC: 0.4673 (Simulation time: 00 hr 29 min 45 sec)
Heartbeat CPU 0 instructions: 165000741 cycles: 260522602 heartbeat IPC: 0.5102 cumulative IPC: 0.4675 (Simulation time: 00 hr 29 min 52 sec)
Heartbeat CPU 0 instructions: 165500745 cycles: 261518261 heartbeat IPC: 0.5022 cumulative IPC: 0.4676 (Simulation time: 00 hr 29 min 59 sec)
Heartbeat CPU 0 instructions: 166000747 cycles: 262514616 heartbeat IPC: 0.5018 cumulative IPC: 0.4678 (Simulation time: 00 hr 30 min 07 sec)
Heartbeat CPU 0 instructions: 166500747 cycles: 263499821 heartbeat IPC: 0.5075 cumulative IPC: 0.4679 (Simulation time: 00 hr 30 min 14 sec)
Heartbeat CPU 0 instructions: 167000747 cycles: 264489845 heartbeat IPC: 0.505 cumulative IPC: 0.4681 (Simulation time: 00 hr 30 min 21 sec)
Heartbeat CPU 0 instructions: 167500747 cycles: 265494748 heartbeat IPC: 0.4976 cumulative IPC: 0.4682 (Simulation time: 00 hr 30 min 28 sec)
Heartbeat CPU 0 instructions: 168000747 cycles: 266506899 heartbeat IPC: 0.494 cumulative IPC: 0.4683 (Simulation time: 00 hr 30 min 36 sec)
Heartbeat CPU 0 instructions: 168500749 cycles: 267516096 heartbeat IPC: 0.4954 cumulative IPC: 0.4684 (Simulation time: 00 hr 30 min 43 sec)
Heartbeat CPU 0 instructions: 169000751 cycles: 268540046 heartbeat IPC: 0.4883 cumulative IPC: 0.4685 (Simulation time: 00 hr 30 min 50 sec)
Heartbeat CPU 0 instructions: 169500754 cycles: 269551507 heartbeat IPC: 0.4943 cumulative IPC: 0.4686 (Simulation time: 00 hr 30 min 58 sec)
Heartbeat CPU 0 instructions: 170000757 cycles: 270515220 heartbeat IPC: 0.5188 cumulative IPC: 0.4688 (Simulation time: 00 hr 31 min 05 sec)
Heartbeat CPU 0 instructions: 170500757 cycles: 271482974 heartbeat IPC: 0.5167 cumulative IPC: 0.469 (Simulation time: 00 hr 31 min 12 sec)
Heartbeat CPU 0 instructions: 171000757 cycles: 272417122 heartbeat IPC: 0.5352 cumulative IPC: 0.4692 (Simulation time: 00 hr 31 min 19 sec)
Heartbeat CPU 0 instructions: 171500757 cycles: 273611369 heartbeat IPC: 0.4187 cumulative IPC: 0.469 (Simulation time: 00 hr 31 min 27 sec)
Heartbeat CPU 0 instructions: 172000757 cycles: 274799317 heartbeat IPC: 0.4209 cumulative IPC: 0.4688 (Simulation time: 00 hr 31 min 36 sec)
Heartbeat CPU 0 instructions: 172500757 cycles: 275921001 heartbeat IPC: 0.4458 cumulative IPC: 0.4687 (Simulation time: 00 hr 31 min 44 sec)
Heartbeat CPU 0 instructions: 173000759 cycles: 277016899 heartbeat IPC: 0.4562 cumulative IPC: 0.4686 (Simulation time: 00 hr 31 min 52 sec)
Heartbeat CPU 0 instructions: 173500759 cycles: 278154637 heartbeat IPC: 0.4395 cumulative IPC: 0.4685 (Simulation time: 00 hr 32 min 00 sec)
Heartbeat CPU 0 instructions: 174000759 cycles: 279275422 heartbeat IPC: 0.4461 cumulative IPC: 0.4684 (Simulation time: 00 hr 32 min 08 sec)
Heartbeat CPU 0 instructions: 174500761 cycles: 280412806 heartbeat IPC: 0.4396 cumulative IPC: 0.4683 (Simulation time: 00 hr 32 min 16 sec)
Heartbeat CPU 0 instructions: 175000762 cycles: 281505036 heartbeat IPC: 0.4578 cumulative IPC: 0.4682 (Simulation time: 00 hr 32 min 24 sec)
Heartbeat CPU 0 instructions: 175500762 cycles: 282599786 heartbeat IPC: 0.4567 cumulative IPC: 0.4682 (Simulation time: 00 hr 32 min 31 sec)
Heartbeat CPU 0 instructions: 176000762 cycles: 283708283 heartbeat IPC: 0.4511 cumulative IPC: 0.4681 (Simulation time: 00 hr 32 min 39 sec)
Heartbeat CPU 0 instructions: 176500769 cycles: 284814055 heartbeat IPC: 0.4522 cumulative IPC: 0.468 (Simulation time: 00 hr 32 min 47 sec)
Heartbeat CPU 0 instructions: 177000775 cycles: 285924032 heartbeat IPC: 0.4505 cumulative IPC: 0.468 (Simulation time: 00 hr 32 min 55 sec)
Heartbeat CPU 0 instructions: 177500775 cycles: 287054611 heartbeat IPC: 0.4423 cumulative IPC: 0.4679 (Simulation time: 00 hr 33 min 03 sec)
Heartbeat CPU 0 instructions: 178000776 cycles: 288114911 heartbeat IPC: 0.4716 cumulative IPC: 0.4679 (Simulation time: 00 hr 33 min 11 sec)
Heartbeat CPU 0 instructions: 178500777 cycles: 289194322 heartbeat IPC: 0.4632 cumulative IPC: 0.4679 (Simulation time: 00 hr 33 min 19 sec)
Heartbeat CPU 0 instructions: 179000779 cycles: 290296513 heartbeat IPC: 0.4536 cumulative IPC: 0.4678 (Simulation time: 00 hr 33 min 27 sec)
Heartbeat CPU 0 instructions: 179500781 cycles: 291380728 heartbeat IPC: 0.4612 cumulative IPC: 0.4678 (Simulation time: 00 hr 33 min 35 sec)
Heartbeat CPU 0 instructions: 180000784 cycles: 292427027 heartbeat IPC: 0.4779 cumulative IPC: 0.4678 (Simulation time: 00 hr 33 min 42 sec)
Heartbeat CPU 0 instructions: 180500785 cycles: 293512542 heartbeat IPC: 0.4606 cumulative IPC: 0.4678 (Simulation time: 00 hr 33 min 50 sec)
Heartbeat CPU 0 instructions: 181000788 cycles: 294587186 heartbeat IPC: 0.4653 cumulative IPC: 0.4678 (Simulation time: 00 hr 33 min 58 sec)
Heartbeat CPU 0 instructions: 181500794 cycles: 295709982 heartbeat IPC: 0.4453 cumulative IPC: 0.4677 (Simulation time: 00 hr 34 min 06 sec)
Heartbeat CPU 0 instructions: 182000796 cycles: 296823900 heartbeat IPC: 0.4489 cumulative IPC: 0.4676 (Simulation time: 00 hr 34 min 14 sec)
Heartbeat CPU 0 instructions: 182500798 cycles: 297888017 heartbeat IPC: 0.4699 cumulative IPC: 0.4676 (Simulation time: 00 hr 34 min 21 sec)
Heartbeat CPU 0 instructions: 183000798 cycles: 298966562 heartbeat IPC: 0.4636 cumulative IPC: 0.4676 (Simulation time: 00 hr 34 min 29 sec)
Heartbeat CPU 0 instructions: 183500799 cycles: 300052260 heartbeat IPC: 0.4605 cumulative IPC: 0.4676 (Simulation time: 00 hr 34 min 37 sec)
Heartbeat CPU 0 instructions: 184000801 cycles: 301141807 heartbeat IPC: 0.4589 cumulative IPC: 0.4675 (Simulation time: 00 hr 34 min 45 sec)
Heartbeat CPU 0 instructions: 184500804 cycles: 302215622 heartbeat IPC: 0.4656 cumulative IPC: 0.4675 (Simulation time: 00 hr 34 min 52 sec)
Heartbeat CPU 0 instructions: 185000805 cycles: 303279625 heartbeat IPC: 0.4699 cumulative IPC: 0.4675 (Simulation time: 00 hr 35 min 00 sec)
Heartbeat CPU 0 instructions: 185500808 cycles: 304409557 heartbeat IPC: 0.4425 cumulative IPC: 0.4674 (Simulation time: 00 hr 35 min 08 sec)
Heartbeat CPU 0 instructions: 186000810 cycles: 305481074 heartbeat IPC: 0.4666 cumulative IPC: 0.4674 (Simulation time: 00 hr 35 min 16 sec)
Heartbeat CPU 0 instructions: 186500810 cycles: 306541784 heartbeat IPC: 0.4714 cumulative IPC: 0.4675 (Simulation time: 00 hr 35 min 23 sec)
Heartbeat CPU 0 instructions: 187000815 cycles: 307602160 heartbeat IPC: 0.4715 cumulative IPC: 0.4675 (Simulation time: 00 hr 35 min 31 sec)
Heartbeat CPU 0 instructions: 187500815 cycles: 308665989 heartbeat IPC: 0.47 cumulative IPC: 0.4675 (Simulation time: 00 hr 35 min 39 sec)
Heartbeat CPU 0 instructions: 188000816 cycles: 309725848 heartbeat IPC: 0.4718 cumulative IPC: 0.4675 (Simulation time: 00 hr 35 min 46 sec)
Heartbeat CPU 0 instructions: 188500817 cycles: 310811635 heartbeat IPC: 0.4605 cumulative IPC: 0.4675 (Simulation time: 00 hr 35 min 54 sec)
Heartbeat CPU 0 instructions: 189000820 cycles: 311874090 heartbeat IPC: 0.4706 cumulative IPC: 0.4675 (Simulation time: 00 hr 36 min 02 sec)
Heartbeat CPU 0 instructions: 189500824 cycles: 312930266 heartbeat IPC: 0.4734 cumulative IPC: 0.4675 (Simulation time: 00 hr 36 min 09 sec)
Heartbeat CPU 0 instructions: 190000827 cycles: 313977216 heartbeat IPC: 0.4776 cumulative IPC: 0.4675 (Simulation time: 00 hr 36 min 17 sec)
Heartbeat CPU 0 instructions: 190500827 cycles: 315028252 heartbeat IPC: 0.4757 cumulative IPC: 0.4676 (Simulation time: 00 hr 36 min 24 sec)
Heartbeat CPU 0 instructions: 191000830 cycles: 316106737 heartbeat IPC: 0.4636 cumulative IPC: 0.4676 (Simulation time: 00 hr 36 min 32 sec)
Heartbeat CPU 0 instructions: 191500832 cycles: 317131218 heartbeat IPC: 0.4881 cumulative IPC: 0.4676 (Simulation time: 00 hr 36 min 39 sec)
Heartbeat CPU 0 instructions: 192000839 cycles: 318190085 heartbeat IPC: 0.4722 cumulative IPC: 0.4676 (Simulation time: 00 hr 36 min 47 sec)
Heartbeat CPU 0 instructions: 192500841 cycles: 319239293 heartbeat IPC: 0.4766 cumulative IPC: 0.4677 (Simulation time: 00 hr 36 min 54 sec)
Heartbeat CPU 0 instructions: 193000841 cycles: 320308497 heartbeat IPC: 0.4676 cumulative IPC: 0.4677 (Simulation time: 00 hr 37 min 02 sec)
Heartbeat CPU 0 instructions: 193500842 cycles: 321359331 heartbeat IPC: 0.4758 cumulative IPC: 0.4677 (Simulation time: 00 hr 37 min 10 sec)
Heartbeat CPU 0 instructions: 194000842 cycles: 322422488 heartbeat IPC: 0.4703 cumulative IPC: 0.4677 (Simulation time: 00 hr 37 min 17 sec)
Heartbeat CPU 0 instructions: 194500842 cycles: 323480800 heartbeat IPC: 0.4725 cumulative IPC: 0.4677 (Simulation time: 00 hr 37 min 25 sec)
Heartbeat CPU 0 instructions: 195000845 cycles: 324543851 heartbeat IPC: 0.4703 cumulative IPC: 0.4677 (Simulation time: 00 hr 37 min 33 sec)
Heartbeat CPU 0 instructions: 195500847 cycles: 325612067 heartbeat IPC: 0.4681 cumulative IPC: 0.4677 (Simulation time: 00 hr 37 min 40 sec)
Heartbeat CPU 0 instructions: 196000850 cycles: 326666852 heartbeat IPC: 0.474 cumulative IPC: 0.4678 (Simulation time: 00 hr 37 min 48 sec)
Heartbeat CPU 0 instructions: 196500851 cycles: 327714359 heartbeat IPC: 0.4773 cumulative IPC: 0.4678 (Simulation time: 00 hr 37 min 55 sec)
Heartbeat CPU 0 instructions: 197000852 cycles: 328757585 heartbeat IPC: 0.4793 cumulative IPC: 0.4678 (Simulation time: 00 hr 38 min 03 sec)
Heartbeat CPU 0 instructions: 197500854 cycles: 329810289 heartbeat IPC: 0.475 cumulative IPC: 0.4678 (Simulation time: 00 hr 38 min 10 sec)
Heartbeat CPU 0 instructions: 198000854 cycles: 330862983 heartbeat IPC: 0.475 cumulative IPC: 0.4679 (Simulation time: 00 hr 38 min 18 sec)
Heartbeat CPU 0 instructions: 198500854 cycles: 331940321 heartbeat IPC: 0.4641 cumulative IPC: 0.4679 (Simulation time: 00 hr 38 min 25 sec)
Heartbeat CPU 0 instructions: 199000855 cycles: 333037611 heartbeat IPC: 0.4557 cumulative IPC: 0.4678 (Simulation time: 00 hr 38 min 33 sec)
Heartbeat CPU 0 instructions: 199500856 cycles: 334091065 heartbeat IPC: 0.4746 cumulative IPC: 0.4678 (Simulation time: 00 hr 38 min 41 sec)
Heartbeat CPU 0 instructions: 200000859 cycles: 335144697 heartbeat IPC: 0.4746 cumulative IPC: 0.4679 (Simulation time: 00 hr 38 min 48 sec)
Heartbeat CPU 0 instructions: 200500861 cycles: 336215933 heartbeat IPC: 0.4668 cumulative IPC: 0.4679 (Simulation time: 00 hr 38 min 56 sec)
Heartbeat CPU 0 instructions: 201000865 cycles: 337281842 heartbeat IPC: 0.4691 cumulative IPC: 0.4679 (Simulation time: 00 hr 39 min 04 sec)
Heartbeat CPU 0 instructions: 201500869 cycles: 338343928 heartbeat IPC: 0.4708 cumulative IPC: 0.4679 (Simulation time: 00 hr 39 min 11 sec)
Heartbeat CPU 0 instructions: 202000869 cycles: 339445865 heartbeat IPC: 0.4537 cumulative IPC: 0.4678 (Simulation time: 00 hr 39 min 19 sec)
Heartbeat CPU 0 instructions: 202500871 cycles: 340504765 heartbeat IPC: 0.4722 cumulative IPC: 0.4678 (Simulation time: 00 hr 39 min 27 sec)
Heartbeat CPU 0 instructions: 203000871 cycles: 341566951 heartbeat IPC: 0.4707 cumulative IPC: 0.4678 (Simulation time: 00 hr 39 min 35 sec)
Heartbeat CPU 0 instructions: 203500873 cycles: 342637257 heartbeat IPC: 0.4672 cumulative IPC: 0.4678 (Simulation time: 00 hr 39 min 42 sec)
Heartbeat CPU 0 instructions: 204000874 cycles: 343726961 heartbeat IPC: 0.4588 cumulative IPC: 0.4678 (Simulation time: 00 hr 39 min 50 sec)
Heartbeat CPU 0 instructions: 204500876 cycles: 344781088 heartbeat IPC: 0.4743 cumulative IPC: 0.4678 (Simulation time: 00 hr 39 min 58 sec)
Heartbeat CPU 0 instructions: 205000878 cycles: 345867420 heartbeat IPC: 0.4603 cumulative IPC: 0.4678 (Simulation time: 00 hr 40 min 05 sec)
Heartbeat CPU 0 instructions: 205500879 cycles: 346961414 heartbeat IPC: 0.457 cumulative IPC: 0.4678 (Simulation time: 00 hr 40 min 13 sec)
Heartbeat CPU 0 instructions: 206000883 cycles: 348023658 heartbeat IPC: 0.4707 cumulative IPC: 0.4678 (Simulation time: 00 hr 40 min 21 sec)
Heartbeat CPU 0 instructions: 206500883 cycles: 349078919 heartbeat IPC: 0.4738 cumulative IPC: 0.4678 (Simulation time: 00 hr 40 min 28 sec)
Heartbeat CPU 0 instructions: 207000886 cycles: 350153128 heartbeat IPC: 0.4655 cumulative IPC: 0.4678 (Simulation time: 00 hr 40 min 36 sec)
Heartbeat CPU 0 instructions: 207500886 cycles: 351221775 heartbeat IPC: 0.4679 cumulative IPC: 0.4678 (Simulation time: 00 hr 40 min 44 sec)
Heartbeat CPU 0 instructions: 208000888 cycles: 352275808 heartbeat IPC: 0.4744 cumulative IPC: 0.4678 (Simulation time: 00 hr 40 min 51 sec)
Heartbeat CPU 0 instructions: 208500894 cycles: 353320614 heartbeat IPC: 0.4786 cumulative IPC: 0.4678 (Simulation time: 00 hr 40 min 59 sec)
Heartbeat CPU 0 instructions: 209000896 cycles: 354378617 heartbeat IPC: 0.4726 cumulative IPC: 0.4679 (Simulation time: 00 hr 41 min 07 sec)
Heartbeat CPU 0 instructions: 209500897 cycles: 355478692 heartbeat IPC: 0.4545 cumulative IPC: 0.4678 (Simulation time: 00 hr 41 min 14 sec)
Heartbeat CPU 0 instructions: 210000899 cycles: 356563317 heartbeat IPC: 0.461 cumulative IPC: 0.4678 (Simulation time: 00 hr 41 min 22 sec)
Heartbeat CPU 0 instructions: 210500901 cycles: 357676130 heartbeat IPC: 0.4493 cumulative IPC: 0.4677 (Simulation time: 00 hr 41 min 30 sec)
Heartbeat CPU 0 instructions: 211000905 cycles: 358744050 heartbeat IPC: 0.4682 cumulative IPC: 0.4677 (Simulation time: 00 hr 41 min 38 sec)
Heartbeat CPU 0 instructions: 211500906 cycles: 359831696 heartbeat IPC: 0.4597 cumulative IPC: 0.4677 (Simulation time: 00 hr 41 min 46 sec)
Heartbeat CPU 0 instructions: 212000907 cycles: 360879409 heartbeat IPC: 0.4772 cumulative IPC: 0.4677 (Simulation time: 00 hr 41 min 53 sec)
Heartbeat CPU 0 instructions: 212500907 cycles: 361936876 heartbeat IPC: 0.4728 cumulative IPC: 0.4678 (Simulation time: 00 hr 42 min 01 sec)
Heartbeat CPU 0 instructions: 213000909 cycles: 363026682 heartbeat IPC: 0.4588 cumulative IPC: 0.4677 (Simulation time: 00 hr 42 min 09 sec)
Heartbeat CPU 0 instructions: 213500909 cycles: 364081937 heartbeat IPC: 0.4738 cumulative IPC: 0.4677 (Simulation time: 00 hr 42 min 16 sec)
Heartbeat CPU 0 instructions: 214000910 cycles: 365145841 heartbeat IPC: 0.47 cumulative IPC: 0.4678 (Simulation time: 00 hr 42 min 24 sec)
Heartbeat CPU 0 instructions: 214500912 cycles: 366214721 heartbeat IPC: 0.4678 cumulative IPC: 0.4678 (Simulation time: 00 hr 42 min 32 sec)
Heartbeat CPU 0 instructions: 215000915 cycles: 367261955 heartbeat IPC: 0.4775 cumulative IPC: 0.4678 (Simulation time: 00 hr 42 min 39 sec)
Heartbeat CPU 0 instructions: 215500915 cycles: 368325814 heartbeat IPC: 0.47 cumulative IPC: 0.4678 (Simulation time: 00 hr 42 min 47 sec)
Heartbeat CPU 0 instructions: 216000916 cycles: 369392338 heartbeat IPC: 0.4688 cumulative IPC: 0.4678 (Simulation time: 00 hr 42 min 54 sec)
Heartbeat CPU 0 instructions: 216500917 cycles: 370456690 heartbeat IPC: 0.4698 cumulative IPC: 0.4678 (Simulation time: 00 hr 43 min 02 sec)
Heartbeat CPU 0 instructions: 217000919 cycles: 371504258 heartbeat IPC: 0.4773 cumulative IPC: 0.4678 (Simulation time: 00 hr 43 min 10 sec)
Heartbeat CPU 0 instructions: 217500919 cycles: 372584107 heartbeat IPC: 0.463 cumulative IPC: 0.4678 (Simulation time: 00 hr 43 min 17 sec)
Heartbeat CPU 0 instructions: 218000922 cycles: 373639724 heartbeat IPC: 0.4737 cumulative IPC: 0.4678 (Simulation time: 00 hr 43 min 25 sec)
Heartbeat CPU 0 instructions: 218500927 cycles: 374702054 heartbeat IPC: 0.4707 cumulative IPC: 0.4678 (Simulation time: 00 hr 43 min 33 sec)
Heartbeat CPU 0 instructions: 219000928 cycles: 375755163 heartbeat IPC: 0.4748 cumulative IPC: 0.4679 (Simulation time: 00 hr 43 min 40 sec)
Heartbeat CPU 0 instructions: 219500928 cycles: 376840515 heartbeat IPC: 0.4607 cumulative IPC: 0.4678 (Simulation time: 00 hr 43 min 48 sec)
Heartbeat CPU 0 instructions: 220000933 cycles: 377893873 heartbeat IPC: 0.4747 cumulative IPC: 0.4679 (Simulation time: 00 hr 43 min 55 sec)
Heartbeat CPU 0 instructions: 220500933 cycles: 378954304 heartbeat IPC: 0.4715 cumulative IPC: 0.4679 (Simulation time: 00 hr 44 min 03 sec)
Heartbeat CPU 0 instructions: 221000933 cycles: 380003694 heartbeat IPC: 0.4765 cumulative IPC: 0.4679 (Simulation time: 00 hr 44 min 11 sec)
Heartbeat CPU 0 instructions: 221500937 cycles: 381060085 heartbeat IPC: 0.4733 cumulative IPC: 0.4679 (Simulation time: 00 hr 44 min 18 sec)
Heartbeat CPU 0 instructions: 222000940 cycles: 382134623 heartbeat IPC: 0.4653 cumulative IPC: 0.4679 (Simulation time: 00 hr 44 min 26 sec)
Heartbeat CPU 0 instructions: 222500941 cycles: 383211034 heartbeat IPC: 0.4645 cumulative IPC: 0.4679 (Simulation time: 00 hr 44 min 34 sec)
Heartbeat CPU 0 instructions: 223000944 cycles: 384266703 heartbeat IPC: 0.4736 cumulative IPC: 0.4679 (Simulation time: 00 hr 44 min 41 sec)
Heartbeat CPU 0 instructions: 223500945 cycles: 385364512 heartbeat IPC: 0.4555 cumulative IPC: 0.4679 (Simulation time: 00 hr 44 min 49 sec)
Heartbeat CPU 0 instructions: 224000946 cycles: 386421469 heartbeat IPC: 0.4731 cumulative IPC: 0.4679 (Simulation time: 00 hr 44 min 57 sec)
Heartbeat CPU 0 instructions: 224500946 cycles: 387505775 heartbeat IPC: 0.4611 cumulative IPC: 0.4679 (Simulation time: 00 hr 45 min 05 sec)
Heartbeat CPU 0 instructions: 225000946 cycles: 388533577 heartbeat IPC: 0.4865 cumulative IPC: 0.4679 (Simulation time: 00 hr 45 min 12 sec)
Heartbeat CPU 0 instructions: 225500948 cycles: 389569564 heartbeat IPC: 0.4826 cumulative IPC: 0.468 (Simulation time: 00 hr 45 min 20 sec)
Heartbeat CPU 0 instructions: 226000949 cycles: 390652658 heartbeat IPC: 0.4616 cumulative IPC: 0.4679 (Simulation time: 00 hr 45 min 27 sec)
Heartbeat CPU 0 instructions: 226500950 cycles: 391701140 heartbeat IPC: 0.4769 cumulative IPC: 0.468 (Simulation time: 00 hr 45 min 35 sec)
Heartbeat CPU 0 instructions: 227000951 cycles: 392771409 heartbeat IPC: 0.4672 cumulative IPC: 0.468 (Simulation time: 00 hr 45 min 43 sec)
Heartbeat CPU 0 instructions: 227500951 cycles: 393837236 heartbeat IPC: 0.4691 cumulative IPC: 0.468 (Simulation time: 00 hr 45 min 50 sec)
Heartbeat CPU 0 instructions: 228000953 cycles: 394903406 heartbeat IPC: 0.469 cumulative IPC: 0.468 (Simulation time: 00 hr 45 min 58 sec)
Heartbeat CPU 0 instructions: 228500956 cycles: 395968985 heartbeat IPC: 0.4692 cumulative IPC: 0.468 (Simulation time: 00 hr 46 min 06 sec)
Heartbeat CPU 0 instructions: 229000959 cycles: 397063923 heartbeat IPC: 0.4566 cumulative IPC: 0.4679 (Simulation time: 00 hr 46 min 14 sec)
Heartbeat CPU 0 instructions: 229500960 cycles: 398117993 heartbeat IPC: 0.4744 cumulative IPC: 0.468 (Simulation time: 00 hr 46 min 21 sec)
Heartbeat CPU 0 instructions: 230000961 cycles: 399177337 heartbeat IPC: 0.472 cumulative IPC: 0.468 (Simulation time: 00 hr 46 min 29 sec)
Heartbeat CPU 0 instructions: 230500962 cycles: 400255880 heartbeat IPC: 0.4636 cumulative IPC: 0.468 (Simulation time: 00 hr 46 min 37 sec)
Heartbeat CPU 0 instructions: 231000962 cycles: 401293237 heartbeat IPC: 0.482 cumulative IPC: 0.468 (Simulation time: 00 hr 46 min 44 sec)
Heartbeat CPU 0 instructions: 231500965 cycles: 402340672 heartbeat IPC: 0.4774 cumulative IPC: 0.468 (Simulation time: 00 hr 46 min 52 sec)
Heartbeat CPU 0 instructions: 232000966 cycles: 403382034 heartbeat IPC: 0.4801 cumulative IPC: 0.4681 (Simulation time: 00 hr 46 min 59 sec)
Heartbeat CPU 0 instructions: 232500966 cycles: 404433005 heartbeat IPC: 0.4758 cumulative IPC: 0.4681 (Simulation time: 00 hr 47 min 07 sec)
Heartbeat CPU 0 instructions: 233000969 cycles: 405488966 heartbeat IPC: 0.4735 cumulative IPC: 0.4681 (Simulation time: 00 hr 47 min 14 sec)
Heartbeat CPU 0 instructions: 233500969 cycles: 406530906 heartbeat IPC: 0.4799 cumulative IPC: 0.4681 (Simulation time: 00 hr 47 min 22 sec)
Heartbeat CPU 0 instructions: 234000969 cycles: 407587479 heartbeat IPC: 0.4732 cumulative IPC: 0.4681 (Simulation time: 00 hr 47 min 29 sec)
Heartbeat CPU 0 instructions: 234500969 cycles: 408617776 heartbeat IPC: 0.4853 cumulative IPC: 0.4682 (Simulation time: 00 hr 47 min 37 sec)
Heartbeat CPU 0 instructions: 235000976 cycles: 409667941 heartbeat IPC: 0.4761 cumulative IPC: 0.4682 (Simulation time: 00 hr 47 min 44 sec)
Heartbeat CPU 0 instructions: 235500976 cycles: 410708013 heartbeat IPC: 0.4807 cumulative IPC: 0.4682 (Simulation time: 00 hr 47 min 52 sec)
Heartbeat CPU 0 instructions: 236000978 cycles: 411731437 heartbeat IPC: 0.4886 cumulative IPC: 0.4683 (Simulation time: 00 hr 47 min 59 sec)
Heartbeat CPU 0 instructions: 236500978 cycles: 412773063 heartbeat IPC: 0.48 cumulative IPC: 0.4683 (Simulation time: 00 hr 48 min 07 sec)
Heartbeat CPU 0 instructions: 237000979 cycles: 413839539 heartbeat IPC: 0.4688 cumulative IPC: 0.4683 (Simulation time: 00 hr 48 min 14 sec)
Heartbeat CPU 0 instructions: 237500979 cycles: 414931893 heartbeat IPC: 0.4577 cumulative IPC: 0.4683 (Simulation time: 00 hr 48 min 22 sec)
Heartbeat CPU 0 instructions: 238000984 cycles: 415998962 heartbeat IPC: 0.4686 cumulative IPC: 0.4683 (Simulation time: 00 hr 48 min 30 sec)
Heartbeat CPU 0 instructions: 238500984 cycles: 417043479 heartbeat IPC: 0.4787 cumulative IPC: 0.4683 (Simulation time: 00 hr 48 min 37 sec)
Heartbeat CPU 0 instructions: 239000986 cycles: 418103030 heartbeat IPC: 0.4719 cumulative IPC: 0.4683 (Simulation time: 00 hr 48 min 45 sec)
Heartbeat CPU 0 instructions: 239500986 cycles: 419161801 heartbeat IPC: 0.4722 cumulative IPC: 0.4683 (Simulation time: 00 hr 48 min 53 sec)
Heartbeat CPU 0 instructions: 240000987 cycles: 420231706 heartbeat IPC: 0.4673 cumulative IPC: 0.4683 (Simulation time: 00 hr 49 min 00 sec)
Heartbeat CPU 0 instructions: 240500994 cycles: 421301581 heartbeat IPC: 0.4674 cumulative IPC: 0.4683 (Simulation time: 00 hr 49 min 08 sec)
Heartbeat CPU 0 instructions: 241000997 cycles: 422350457 heartbeat IPC: 0.4767 cumulative IPC: 0.4684 (Simulation time: 00 hr 49 min 15 sec)
Heartbeat CPU 0 instructions: 241500999 cycles: 423402815 heartbeat IPC: 0.4751 cumulative IPC: 0.4684 (Simulation time: 00 hr 49 min 23 sec)
Heartbeat CPU 0 instructions: 242001001 cycles: 424461908 heartbeat IPC: 0.4721 cumulative IPC: 0.4684 (Simulation time: 00 hr 49 min 31 sec)
Heartbeat CPU 0 instructions: 242501004 cycles: 425518744 heartbeat IPC: 0.4731 cumulative IPC: 0.4684 (Simulation time: 00 hr 49 min 38 sec)
Heartbeat CPU 0 instructions: 243001005 cycles: 426592946 heartbeat IPC: 0.4655 cumulative IPC: 0.4684 (Simulation time: 00 hr 49 min 46 sec)
Heartbeat CPU 0 instructions: 243501009 cycles: 427652408 heartbeat IPC: 0.4719 cumulative IPC: 0.4684 (Simulation time: 00 hr 49 min 54 sec)
Heartbeat CPU 0 instructions: 244001009 cycles: 428697670 heartbeat IPC: 0.4783 cumulative IPC: 0.4684 (Simulation time: 00 hr 50 min 01 sec)
Heartbeat CPU 0 instructions: 244501015 cycles: 429743051 heartbeat IPC: 0.4783 cumulative IPC: 0.4684 (Simulation time: 00 hr 50 min 09 sec)
Heartbeat CPU 0 instructions: 245001017 cycles: 430769572 heartbeat IPC: 0.4871 cumulative IPC: 0.4685 (Simulation time: 00 hr 50 min 16 sec)
Heartbeat CPU 0 instructions: 245501018 cycles: 431816192 heartbeat IPC: 0.4777 cumulative IPC: 0.4685 (Simulation time: 00 hr 50 min 24 sec)
Heartbeat CPU 0 instructions: 246001019 cycles: 432887375 heartbeat IPC: 0.4668 cumulative IPC: 0.4685 (Simulation time: 00 hr 50 min 31 sec)
Heartbeat CPU 0 instructions: 246501023 cycles: 433964673 heartbeat IPC: 0.4641 cumulative IPC: 0.4685 (Simulation time: 00 hr 50 min 39 sec)
Heartbeat CPU 0 instructions: 247001026 cycles: 434997228 heartbeat IPC: 0.4842 cumulative IPC: 0.4685 (Simulation time: 00 hr 50 min 47 sec)
Heartbeat CPU 0 instructions: 247501032 cycles: 436045966 heartbeat IPC: 0.4768 cumulative IPC: 0.4686 (Simulation time: 00 hr 50 min 54 sec)
Heartbeat CPU 0 instructions: 248001033 cycles: 437114424 heartbeat IPC: 0.468 cumulative IPC: 0.4686 (Simulation time: 00 hr 51 min 02 sec)
Heartbeat CPU 0 instructions: 248501033 cycles: 438182955 heartbeat IPC: 0.4679 cumulative IPC: 0.4686 (Simulation time: 00 hr 51 min 10 sec)
Heartbeat CPU 0 instructions: 249001034 cycles: 439232831 heartbeat IPC: 0.4762 cumulative IPC: 0.4686 (Simulation time: 00 hr 51 min 17 sec)
Heartbeat CPU 0 instructions: 249501037 cycles: 440297412 heartbeat IPC: 0.4697 cumulative IPC: 0.4686 (Simulation time: 00 hr 51 min 25 sec)
Simulation finished CPU 0 instructions: 200000004 cycles: 426802107 cumulative IPC: 0.4686 (Simulation time: 00 hr 51 min 32 sec)
Simulation complete CPU 0 instructions: 200000004 cycles: 426802107 cumulative IPC: 0.4686 (Simulation time: 00 hr 51 min 32 sec)

ChampSim completed all CPUs

=== Simulation ===
CPU 0 runs /local-ssd/ben/dpc4-traces/Graph/GMS/gms.triangle_count.soc-pokec-relationships.slice-137.champsimtrace.gz

Region of Interest Statistics

CPU 0 cumulative IPC: 0.4686 instructions: 200000004 cycles: 426802107
CPU 0 Branch Prediction Accuracy: 85.99% MPKI: 38.72 Average ROB Occupancy at Mispredict: 19.56
Branch type MPKI
BRANCH_DIRECT_JUMP: 0.0272
BRANCH_INDIRECT: 0.002705
BRANCH_CONDITIONAL: 38.69
BRANCH_DIRECT_CALL: 0
BRANCH_INDIRECT_CALL: 0
BRANCH_RETURN: 1e-05

cpu0->cpu0_STLB TOTAL        ACCESS:     400232 HIT:      29726 MISS:     370506 MSHR_MERGE:          0
cpu0->cpu0_STLB LOAD         ACCESS:     400232 HIT:      29726 MISS:     370506 MSHR_MERGE:          0
cpu0->cpu0_STLB RFO          ACCESS:          0 HIT:          0 MISS:          0 MSHR_MERGE:          0
cpu0->cpu0_STLB PREFETCH     ACCESS:          0 HIT:          0 MISS:          0 MSHR_MERGE:          0
cpu0->cpu0_STLB WRITE        ACCESS:          0 HIT:          0 MISS:          0 MSHR_MERGE:          0
cpu0->cpu0_STLB TRANSLATION  ACCESS:          0 HIT:          0 MISS:          0 MSHR_MERGE:          0
cpu0->cpu0_STLB PREFETCH REQUESTED:          0 ISSUED:          0 USEFUL:          0 USELESS:          0
cpu0->cpu0_STLB AVERAGE MISS LATENCY: 209.1 cycles
cpu0->cpu0_L2C TOTAL        ACCESS:   14153768 HIT:    5076994 MISS:    9076774 MSHR_MERGE:    4546575
cpu0->cpu0_L2C LOAD         ACCESS:    1330174 HIT:     422303 MISS:     907871 MSHR_MERGE:     126842
cpu0->cpu0_L2C RFO          ACCESS:         60 HIT:         23 MISS:         37 MSHR_MERGE:          0
cpu0->cpu0_L2C PREFETCH     ACCESS:   12426368 HIT:    4464491 MISS:    7961877 MSHR_MERGE:    4419733
cpu0->cpu0_L2C WRITE        ACCESS:         46 HIT:         46 MISS:          0 MSHR_MERGE:          0
cpu0->cpu0_L2C TRANSLATION  ACCESS:     397120 HIT:     190131 MISS:     206989 MSHR_MERGE:          0
cpu0->cpu0_L2C PREFETCH REQUESTED:   10633916 ISSUED:   10607078 USEFUL:    1163261 USELESS:    1770114
cpu0->cpu0_L2C AVERAGE MISS LATENCY: 299.8 cycles
cpu0->cpu0_L1I TOTAL        ACCESS:      18900 HIT:      18900 MISS:          0 MSHR_MERGE:          0
cpu0->cpu0_L1I LOAD         ACCESS:      18900 HIT:      18900 MISS:          0 MSHR_MERGE:          0
cpu0->cpu0_L1I RFO          ACCESS:          0 HIT:          0 MISS:          0 MSHR_MERGE:          0
cpu0->cpu0_L1I PREFETCH     ACCESS:          0 HIT:          0 MISS:          0 MSHR_MERGE:          0
cpu0->cpu0_L1I WRITE        ACCESS:          0 HIT:          0 MISS:          0 MSHR_MERGE:          0
cpu0->cpu0_L1I TRANSLATION  ACCESS:          0 HIT:          0 MISS:          0 MSHR_MERGE:          0
cpu0->cpu0_L1I PREFETCH REQUESTED:          0 ISSUED:          0 USEFUL:          0 USELESS:          0
cpu0->cpu0_L1I AVERAGE MISS LATENCY: - cycles
cpu0->cpu0_L1D TOTAL        ACCESS:   51670976 HIT:   47032930 MISS:    4638046 MSHR_MERGE:    1091402
cpu0->cpu0_L1D LOAD         ACCESS:   38221069 HIT:   35863505 MISS:    2357564 MSHR_MERGE:    1027390
cpu0->cpu0_L1D RFO          ACCESS:          0 HIT:          0 MISS:          0 MSHR_MERGE:          0
cpu0->cpu0_L1D PREFETCH     ACCESS:    2420914 HIT:     541470 MISS:    1879444 MSHR_MERGE:      60154
cpu0->cpu0_L1D WRITE        ACCESS:   10087502 HIT:   10087382 MISS:        120 MSHR_MERGE:         60
cpu0->cpu0_L1D TRANSLATION  ACCESS:     941491 HIT:     540573 MISS:     400918 MSHR_MERGE:       3798
cpu0->cpu0_L1D PREFETCH REQUESTED:    2421090 ISSUED:    2420913 USEFUL:    1198920 USELESS:     620346
cpu0->cpu0_L1D AVERAGE MISS LATENCY: 190.4 cycles
cpu0->cpu0_ITLB TOTAL        ACCESS:      18706 HIT:      18706 MISS:          0 MSHR_MERGE:          0
cpu0->cpu0_ITLB LOAD         ACCESS:      18706 HIT:      18706 MISS:          0 MSHR_MERGE:          0
cpu0->cpu0_ITLB RFO          ACCESS:          0 HIT:          0 MISS:          0 MSHR_MERGE:          0
cpu0->cpu0_ITLB PREFETCH     ACCESS:          0 HIT:          0 MISS:          0 MSHR_MERGE:          0
cpu0->cpu0_ITLB WRITE        ACCESS:          0 HIT:          0 MISS:          0 MSHR_MERGE:          0
cpu0->cpu0_ITLB TRANSLATION  ACCESS:          0 HIT:          0 MISS:          0 MSHR_MERGE:          0
cpu0->cpu0_ITLB PREFETCH REQUESTED:          0 ISSUED:          0 USEFUL:          0 USELESS:          0
cpu0->cpu0_ITLB AVERAGE MISS LATENCY: - cycles
cpu0->cpu0_DTLB TOTAL        ACCESS:   48601270 HIT:   47658826 MISS:     942444 MSHR_MERGE:     542212
cpu0->cpu0_DTLB LOAD         ACCESS:   48601270 HIT:   47658826 MISS:     942444 MSHR_MERGE:     542212
cpu0->cpu0_DTLB RFO          ACCESS:          0 HIT:          0 MISS:          0 MSHR_MERGE:          0
cpu0->cpu0_DTLB PREFETCH     ACCESS:          0 HIT:          0 MISS:          0 MSHR_MERGE:          0
cpu0->cpu0_DTLB WRITE        ACCESS:          0 HIT:          0 MISS:          0 MSHR_MERGE:          0
cpu0->cpu0_DTLB TRANSLATION  ACCESS:          0 HIT:          0 MISS:          0 MSHR_MERGE:          0
cpu0->cpu0_DTLB PREFETCH REQUESTED:          0 ISSUED:          0 USEFUL:          0 USELESS:          0
cpu0->cpu0_DTLB AVERAGE MISS LATENCY: 199.5 cycles
cpu0->LLC TOTAL        ACCESS:    4530227 HIT:      56665 MISS:    4473562 MSHR_MERGE:          0
cpu0->LLC LOAD         ACCESS:     781029 HIT:       3807 MISS:     777222 MSHR_MERGE:          0
cpu0->LLC RFO          ACCESS:         37 HIT:         37 MISS:          0 MSHR_MERGE:          0
cpu0->LLC PREFETCH     ACCESS:    3542144 HIT:      14886 MISS:    3527258 MSHR_MERGE:          0
cpu0->LLC WRITE        ACCESS:         28 HIT:         27 MISS:          1 MSHR_MERGE:          0
cpu0->LLC TRANSLATION  ACCESS:     206989 HIT:      37908 MISS:     169081 MSHR_MERGE:          0
cpu0->LLC PREFETCH REQUESTED:          0 ISSUED:          0 USEFUL:          0 USELESS:          0
cpu0->LLC AVERAGE MISS LATENCY: 311 cycles

DRAM Statistics

Channel 0 RQ ROW_BUFFER_HIT:      95178
  ROW_BUFFER_MISS:    4378382
  AVG DBUS CONGESTED CYCLE: 3.987
Channel 0 WQ ROW_BUFFER_HIT:          0
  ROW_BUFFER_MISS:          2
  FULL:          0
Channel 0 REFRESHES ISSUED:      35567
