[VMEM] WARNING: physical memory size is smaller than virtual memory size.

*** ChampSim Multicore Out-of-Order Simulator ***
Warmup Instructions: 50000000
Simulation Instructions: 200000000
Number of CPUs: 1
Page size: 4096
Core 0: /local-ssd/ben/dpc4-traces/Graph/GAP/bfs-10.trace.gz
 L1D Berti prefetcher
Off-chip DRAM Size: 64 GiB Channels: 1 Width: 64-bit Data Rate: 800 MT/s
Heartbeat CPU 0 instructions: 500003 cycles: 117004 heartbeat IPC: 4.273 cumulative IPC: 4.273 (Simulation time: 00 hr 00 min 04 sec)
Heartbeat CPU 0 instructions: 1000010 cycles: 229805 heartbeat IPC: 4.433 cumulative IPC: 4.352 (Simulation time: 00 hr 00 min 06 sec)
Heartbeat CPU 0 instructions: 1500014 cycles: 342459 heartbeat IPC: 4.438 cumulative IPC: 4.38 (Simulation time: 00 hr 00 min 07 sec)
Heartbeat CPU 0 instructions: 2000021 cycles: 454964 heartbeat IPC: 4.444 cumulative IPC: 4.396 (Simulation time: 00 hr 00 min 09 sec)
Heartbeat CPU 0 instructions: 2500022 cycles: 567711 heartbeat IPC: 4.435 cumulative IPC: 4.404 (Simulation time: 00 hr 00 min 11 sec)
Heartbeat CPU 0 instructions: 3000024 cycles: 680417 heartbeat IPC: 4.436 cumulative IPC: 4.409 (Simulation time: 00 hr 00 min 13 sec)
Heartbeat CPU 0 instructions: 3500029 cycles: 793018 heartbeat IPC: 4.441 cumulative IPC: 4.414 (Simulation time: 00 hr 00 min 14 sec)
Heartbeat CPU 0 instructions: 4000034 cycles: 905733 heartbeat IPC: 4.436 cumulative IPC: 4.416 (Simulation time: 00 hr 00 min 16 sec)
Heartbeat CPU 0 instructions: 4500039 cycles: 1018606 heartbeat IPC: 4.43 cumulative IPC: 4.418 (Simulation time: 00 hr 00 min 18 sec)
Heartbeat CPU 0 instructions: 5000043 cycles: 1131407 heartbeat IPC: 4.433 cumulative IPC: 4.419 (Simulation time: 00 hr 00 min 20 sec)
Heartbeat CPU 0 instructions: 5500044 cycles: 1243980 heartbeat IPC: 4.442 cumulative IPC: 4.421 (Simulation time: 00 hr 00 min 21 sec)
Heartbeat CPU 0 instructions: 6000049 cycles: 1356751 heartbeat IPC: 4.434 cumulative IPC: 4.422 (Simulation time: 00 hr 00 min 23 sec)
Heartbeat CPU 0 instructions: 6500049 cycles: 1469624 heartbeat IPC: 4.43 cumulative IPC: 4.423 (Simulation time: 00 hr 00 min 25 sec)
Heartbeat CPU 0 instructions: 7000052 cycles: 1582362 heartbeat IPC: 4.435 cumulative IPC: 4.424 (Simulation time: 00 hr 00 min 26 sec)
Heartbeat CPU 0 instructions: 7500052 cycles: 1695398 heartbeat IPC: 4.423 cumulative IPC: 4.424 (Simulation time: 00 hr 00 min 28 sec)
Heartbeat CPU 0 instructions: 8000054 cycles: 1807871 heartbeat IPC: 4.446 cumulative IPC: 4.425 (Simulation time: 00 hr 00 min 30 sec)
Heartbeat CPU 0 instructions: 8500060 cycles: 1920508 heartbeat IPC: 4.439 cumulative IPC: 4.426 (Simulation time: 00 hr 00 min 32 sec)
Heartbeat CPU 0 instructions: 9000064 cycles: 2033220 heartbeat IPC: 4.436 cumulative IPC: 4.427 (Simulation time: 00 hr 00 min 33 sec)
Heartbeat CPU 0 instructions: 9500069 cycles: 2145860 heartbeat IPC: 4.439 cumulative IPC: 4.427 (Simulation time: 00 hr 00 min 35 sec)
Heartbeat CPU 0 instructions: 10000071 cycles: 2258529 heartbeat IPC: 4.438 cumulative IPC: 4.428 (Simulation time: 00 hr 00 min 37 sec)
Heartbeat CPU 0 instructions: 10500071 cycles: 2402485 heartbeat IPC: 3.473 cumulative IPC: 4.371 (Simulation time: 00 hr 00 min 39 sec)
Heartbeat CPU 0 instructions: 11000076 cycles: 2526615 heartbeat IPC: 4.028 cumulative IPC: 4.354 (Simulation time: 00 hr 00 min 41 sec)
Heartbeat CPU 0 instructions: 11500082 cycles: 2653304 heartbeat IPC: 3.947 cumulative IPC: 4.334 (Simulation time: 00 hr 00 min 43 sec)
Heartbeat CPU 0 instructions: 12000084 cycles: 2778669 heartbeat IPC: 3.988 cumulative IPC: 4.319 (Simulation time: 00 hr 00 min 45 sec)
Heartbeat CPU 0 instructions: 12500091 cycles: 2904050 heartbeat IPC: 3.988 cumulative IPC: 4.304 (Simulation time: 00 hr 00 min 47 sec)
Heartbeat CPU 0 instructions: 13000091 cycles: 3029949 heartbeat IPC: 3.971 cumulative IPC: 4.291 (Simulation time: 00 hr 00 min 50 sec)
Heartbeat CPU 0 instructions: 13500093 cycles: 3154519 heartbeat IPC: 4.014 cumulative IPC: 4.28 (Simulation time: 00 hr 00 min 52 sec)
Heartbeat CPU 0 instructions: 14000095 cycles: 3280002 heartbeat IPC: 3.985 cumulative IPC: 4.268 (Simulation time: 00 hr 00 min 54 sec)
Heartbeat CPU 0 instructions: 14500097 cycles: 3404731 heartbeat IPC: 4.009 cumulative IPC: 4.259 (Simulation time: 00 hr 00 min 56 sec)
Heartbeat CPU 0 instructions: 15000103 cycles: 3530498 heartbeat IPC: 3.976 cumulative IPC: 4.249 (Simulation time: 00 hr 00 min 59 sec)
Heartbeat CPU 0 instructions: 15500110 cycles: 3654596 heartbeat IPC: 4.029 cumulative IPC: 4.241 (Simulation time: 00 hr 01 min 01 sec)
Heartbeat CPU 0 instructions: 16000116 cycles: 3780192 heartbeat IPC: 3.981 cumulative IPC: 4.233 (Simulation time: 00 hr 01 min 03 sec)
Heartbeat CPU 0 instructions: 16500121 cycles: 3905902 heartbeat IPC: 3.977 cumulative IPC: 4.224 (Simulation time: 00 hr 01 min 05 sec)
Heartbeat CPU 0 instructions: 17000127 cycles: 4031952 heartbeat IPC: 3.967 cumulative IPC: 4.216 (Simulation time: 00 hr 01 min 08 sec)
Heartbeat CPU 0 instructions: 17500134 cycles: 4158021 heartbeat IPC: 3.966 cumulative IPC: 4.209 (Simulation time: 00 hr 01 min 10 sec)
Heartbeat CPU 0 instructions: 18000140 cycles: 4282553 heartbeat IPC: 4.015 cumulative IPC: 4.203 (Simulation time: 00 hr 01 min 12 sec)
Heartbeat CPU 0 instructions: 18500147 cycles: 4409355 heartbeat IPC: 3.943 cumulative IPC: 4.196 (Simulation time: 00 hr 01 min 14 sec)
Heartbeat CPU 0 instructions: 19000153 cycles: 4535455 heartbeat IPC: 3.965 cumulative IPC: 4.189 (Simulation time: 00 hr 01 min 17 sec)
Heartbeat CPU 0 instructions: 19500160 cycles: 4659503 heartbeat IPC: 4.031 cumulative IPC: 4.185 (Simulation time: 00 hr 01 min 19 sec)
Heartbeat CPU 0 instructions: 20000165 cycles: 4785287 heartbeat IPC: 3.975 cumulative IPC: 4.18 (Simulation time: 00 hr 01 min 21 sec)
Heartbeat CPU 0 instructions: 20500171 cycles: 4911247 heartbeat IPC: 3.97 cumulative IPC: 4.174 (Simulation time: 00 hr 01 min 23 sec)
Heartbeat CPU 0 instructions: 21000176 cycles: 5036923 heartbeat IPC: 3.979 cumulative IPC: 4.169 (Simulation time: 00 hr 01 min 26 sec)
Heartbeat CPU 0 instructions: 21500179 cycles: 5163779 heartbeat IPC: 3.942 cumulative IPC: 4.164 (Simulation time: 00 hr 01 min 28 sec)
Heartbeat CPU 0 instructions: 22000183 cycles: 5289065 heartbeat IPC: 3.991 cumulative IPC: 4.16 (Simulation time: 00 hr 01 min 30 sec)
Heartbeat CPU 0 instructions: 22500183 cycles: 5414502 heartbeat IPC: 3.986 cumulative IPC: 4.156 (Simulation time: 00 hr 01 min 32 sec)
Heartbeat CPU 0 instructions: 23000183 cycles: 5539800 heartbeat IPC: 3.99 cumulative IPC: 4.152 (Simulation time: 00 hr 01 min 35 sec)
Heartbeat CPU 0 instructions: 23500183 cycles: 5666784 heartbeat IPC: 3.938 cumulative IPC: 4.147 (Simulation time: 00 hr 01 min 37 sec)
Heartbeat CPU 0 instructions: 24000190 cycles: 5791172 heartbeat IPC: 4.02 cumulative IPC: 4.144 (Simulation time: 00 hr 01 min 39 sec)
Heartbeat CPU 0 instructions: 24500190 cycles: 5916285 heartbeat IPC: 3.996 cumulative IPC: 4.141 (Simulation time: 00 hr 01 min 41 sec)
Heartbeat CPU 0 instructions: 25000190 cycles: 6040847 heartbeat IPC: 4.014 cumulative IPC: 4.139 (Simulation time: 00 hr 01 min 44 sec)
Heartbeat CPU 0 instructions: 25500190 cycles: 6165461 heartbeat IPC: 4.012 cumulative IPC: 4.136 (Simulation time: 00 hr 01 min 46 sec)
Heartbeat CPU 0 instructions: 26000191 cycles: 6290417 heartbeat IPC: 4.001 cumulative IPC: 4.133 (Simulation time: 00 hr 01 min 48 sec)
Heartbeat CPU 0 instructions: 26500196 cycles: 6416429 heartbeat IPC: 3.968 cumulative IPC: 4.13 (Simulation time: 00 hr 01 min 50 sec)
Heartbeat CPU 0 instructions: 27000202 cycles: 6541097 heartbeat IPC: 4.011 cumulative IPC: 4.128 (Simulation time: 00 hr 01 min 53 sec)
Heartbeat CPU 0 instructions: 27500206 cycles: 6665942 heartbeat IPC: 4.005 cumulative IPC: 4.125 (Simulation time: 00 hr 01 min 55 sec)
Heartbeat CPU 0 instructions: 28000211 cycles: 6791245 heartbeat IPC: 3.99 cumulative IPC: 4.123 (Simulation time: 00 hr 01 min 57 sec)
Heartbeat CPU 0 instructions: 28500217 cycles: 6916001 heartbeat IPC: 4.008 cumulative IPC: 4.121 (Simulation time: 00 hr 01 min 59 sec)
Heartbeat CPU 0 instructions: 29000218 cycles: 7041557 heartbeat IPC: 3.982 cumulative IPC: 4.118 (Simulation time: 00 hr 02 min 02 sec)
Heartbeat CPU 0 instructions: 29500220 cycles: 7166756 heartbeat IPC: 3.994 cumulative IPC: 4.116 (Simulation time: 00 hr 02 min 04 sec)
Heartbeat CPU 0 instructions: 30000223 cycles: 7289246 heartbeat IPC: 4.082 cumulative IPC: 4.116 (Simulation time: 00 hr 02 min 06 sec)
Heartbeat CPU 0 instructions: 30500225 cycles: 7415419 heartbeat IPC: 3.963 cumulative IPC: 4.113 (Simulation time: 00 hr 02 min 08 sec)
Heartbeat CPU 0 instructions: 31000229 cycles: 7541348 heartbeat IPC: 3.971 cumulative IPC: 4.111 (Simulation time: 00 hr 02 min 11 sec)
Heartbeat CPU 0 instructions: 31500235 cycles: 7667490 heartbeat IPC: 3.964 cumulative IPC: 4.108 (Simulation time: 00 hr 02 min 13 sec)
Heartbeat CPU 0 instructions: 32000236 cycles: 7794331 heartbeat IPC: 3.942 cumulative IPC: 4.106 (Simulation time: 00 hr 02 min 15 sec)
Heartbeat CPU 0 instructions: 32500241 cycles: 7919799 heartbeat IPC: 3.985 cumulative IPC: 4.104 (Simulation time: 00 hr 02 min 18 sec)
Heartbeat CPU 0 instructions: 33000242 cycles: 8045307 heartbeat IPC: 3.984 cumulative IPC: 4.102 (Simulation time: 00 hr 02 min 20 sec)
Heartbeat CPU 0 instructions: 33500245 cycles: 8169262 heartbeat IPC: 4.034 cumulative IPC: 4.101 (Simulation time: 00 hr 02 min 22 sec)
Heartbeat CPU 0 instructions: 34000247 cycles: 8293699 heartbeat IPC: 4.018 cumulative IPC: 4.1 (Simulation time: 00 hr 02 min 24 sec)
Heartbeat CPU 0 instructions: 34500253 cycles: 8417653 heartbeat IPC: 4.034 cumulative IPC: 4.099 (Simulation time: 00 hr 02 min 27 sec)
Heartbeat CPU 0 instructions: 35000253 cycles: 8543501 heartbeat IPC: 3.973 cumulative IPC: 4.097 (Simulation time: 00 hr 02 min 29 sec)
Heartbeat CPU 0 instructions: 35500255 cycles: 8669489 heartbeat IPC: 3.969 cumulative IPC: 4.095 (Simulation time: 00 hr 02 min 31 sec)
Heartbeat CPU 0 instructions: 36000262 cycles: 8795092 heartbeat IPC: 3.981 cumulative IPC: 4.093 (Simulation time: 00 hr 02 min 34 sec)
Heartbeat CPU 0 instructions: 36500265 cycles: 8920351 heartbeat IPC: 3.992 cumulative IPC: 4.092 (Simulation time: 00 hr 02 min 36 sec)
Heartbeat CPU 0 instructions: 37000269 cycles: 9045630 heartbeat IPC: 3.991 cumulative IPC: 4.09 (Simulation time: 00 hr 02 min 38 sec)
Heartbeat CPU 0 instructions: 37500275 cycles: 9169815 heartbeat IPC: 4.026 cumulative IPC: 4.09 (Simulation time: 00 hr 02 min 40 sec)
Heartbeat CPU 0 instructions: 38000281 cycles: 9294168 heartbeat IPC: 4.021 cumulative IPC: 4.089 (Simulation time: 00 hr 02 min 43 sec)
Heartbeat CPU 0 instructions: 38500281 cycles: 9420072 heartbeat IPC: 3.971 cumulative IPC: 4.087 (Simulation time: 00 hr 02 min 45 sec)
Heartbeat CPU 0 instructions: 39000288 cycles: 9543942 heartbeat IPC: 4.037 cumulative IPC: 4.086 (Simulation time: 00 hr 02 min 47 sec)
Heartbeat CPU 0 instructions: 39500291 cycles: 9668109 heartbeat IPC: 4.027 cumulative IPC: 4.086 (Simulation time: 00 hr 02 min 49 sec)
Heartbeat CPU 0 instructions: 40000298 cycles: 9793258 heartbeat IPC: 3.995 cumulative IPC: 4.084 (Simulation time: 00 hr 02 min 52 sec)
Heartbeat CPU 0 instructions: 40500304 cycles: 9919513 heartbeat IPC: 3.96 cumulative IPC: 4.083 (Simulation time: 00 hr 02 min 54 sec)
Heartbeat CPU 0 instructions: 41000307 cycles: 10044983 heartbeat IPC: 3.985 cumulative IPC: 4.082 (Simulation time: 00 hr 02 min 56 sec)
Heartbeat CPU 0 instructions: 41500313 cycles: 10170019 heartbeat IPC: 3.999 cumulative IPC: 4.081 (Simulation time: 00 hr 02 min 58 sec)
Heartbeat CPU 0 instructions: 42000318 cycles: 10295884 heartbeat IPC: 3.973 cumulative IPC: 4.079 (Simulation time: 00 hr 03 min 01 sec)
Heartbeat CPU 0 instructions: 42500320 cycles: 10419604 heartbeat IPC: 4.041 cumulative IPC: 4.079 (Simulation time: 00 hr 03 min 03 sec)
Heartbeat CPU 0 instructions: 43000323 cycles: 10546358 heartbeat IPC: 3.945 cumulative IPC: 4.077 (Simulation time: 00 hr 03 min 05 sec)
Heartbeat CPU 0 instructions: 43500329 cycles: 10671421 heartbeat IPC: 3.998 cumulative IPC: 4.076 (Simulation time: 00 hr 03 min 08 sec)
Heartbeat CPU 0 instructions: 44000331 cycles: 10796455 heartbeat IPC: 3.999 cumulative IPC: 4.075 (Simulation time: 00 hr 03 min 10 sec)
Heartbeat CPU 0 instructions: 44500333 cycles: 10922498 heartbeat IPC: 3.967 cumulative IPC: 4.074 (Simulation time: 00 hr 03 min 12 sec)
Heartbeat CPU 0 instructions: 45000338 cycles: 11047206 heartbeat IPC: 4.009 cumulative IPC: 4.073 (Simulation time: 00 hr 03 min 14 sec)
Heartbeat CPU 0 instructions: 45500340 cycles: 11172763 heartbeat IPC: 3.982 cumulative IPC: 4.072 (Simulation time: 00 hr 03 min 17 sec)
Heartbeat CPU 0 instructions: 46000343 cycles: 11297816 heartbeat IPC: 3.998 cumulative IPC: 4.072 (Simulation time: 00 hr 03 min 19 sec)
Heartbeat CPU 0 instructions: 46500344 cycles: 11422637 heartbeat IPC: 4.006 cumulative IPC: 4.071 (Simulation time: 00 hr 03 min 21 sec)
Heartbeat CPU 0 instructions: 47000348 cycles: 11548152 heartbeat IPC: 3.984 cumulative IPC: 4.07 (Simulation time: 00 hr 03 min 24 sec)
Heartbeat CPU 0 instructions: 47500354 cycles: 11673584 heartbeat IPC: 3.986 cumulative IPC: 4.069 (Simulation time: 00 hr 03 min 26 sec)
Heartbeat CPU 0 instructions: 48000354 cycles: 11798621 heartbeat IPC: 3.999 cumulative IPC: 4.068 (Simulation time: 00 hr 03 min 28 sec)
Heartbeat CPU 0 instructions: 48500354 cycles: 11923394 heartbeat IPC: 4.007 cumulative IPC: 4.068 (Simulation time: 00 hr 03 min 30 sec)
Heartbeat CPU 0 instructions: 49000358 cycles: 12048411 heartbeat IPC: 3.999 cumulative IPC: 4.067 (Simulation time: 00 hr 03 min 33 sec)
Heartbeat CPU 0 instructions: 49500363 cycles: 12172894 heartbeat IPC: 4.017 cumulative IPC: 4.066 (Simulation time: 00 hr 03 min 35 sec)
Warmup finished CPU 0 instructions: 50000001 cycles: 12298328 cumulative IPC: 4.066 (Simulation time: 00 hr 03 min 37 sec)
Warmup complete CPU 0 instructions: 50000001 cycles: 12298328 cumulative IPC: 4.066 (Simulation time: 00 hr 03 min 37 sec)
Heartbeat CPU 0 instructions: 50000363 cycles: 12298584 heartbeat IPC: 3.978 cumulative IPC: 1.414 (Simulation time: 00 hr 03 min 37 sec)
Heartbeat CPU 0 instructions: 50500364 cycles: 13236021 heartbeat IPC: 0.5334 cumulative IPC: 0.5336 (Simulation time: 00 hr 03 min 43 sec)
Heartbeat CPU 0 instructions: 51000364 cycles: 14195708 heartbeat IPC: 0.521 cumulative IPC: 0.5272 (Simulation time: 00 hr 03 min 50 sec)
Heartbeat CPU 0 instructions: 51500365 cycles: 15127727 heartbeat IPC: 0.5365 cumulative IPC: 0.5303 (Simulation time: 00 hr 03 min 56 sec)
Heartbeat CPU 0 instructions: 52000368 cycles: 16073994 heartbeat IPC: 0.5284 cumulative IPC: 0.5298 (Simulation time: 00 hr 04 min 02 sec)
Heartbeat CPU 0 instructions: 52500369 cycles: 17034926 heartbeat IPC: 0.5203 cumulative IPC: 0.5279 (Simulation time: 00 hr 04 min 08 sec)
Heartbeat CPU 0 instructions: 53000369 cycles: 17985761 heartbeat IPC: 0.5259 cumulative IPC: 0.5275 (Simulation time: 00 hr 04 min 14 sec)
Heartbeat CPU 0 instructions: 53500369 cycles: 18933523 heartbeat IPC: 0.5276 cumulative IPC: 0.5275 (Simulation time: 00 hr 04 min 20 sec)
Heartbeat CPU 0 instructions: 54000369 cycles: 19850145 heartbeat IPC: 0.5455 cumulative IPC: 0.5297 (Simulation time: 00 hr 04 min 27 sec)
Heartbeat CPU 0 instructions: 54500371 cycles: 20819644 heartbeat IPC: 0.5157 cumulative IPC: 0.5281 (Simulation time: 00 hr 04 min 33 sec)
Heartbeat CPU 0 instructions: 55000373 cycles: 22091086 heartbeat IPC: 0.3933 cumulative IPC: 0.5106 (Simulation time: 00 hr 04 min 41 sec)
Heartbeat CPU 0 instructions: 55500374 cycles: 23855794 heartbeat IPC: 0.2833 cumulative IPC: 0.4759 (Simulation time: 00 hr 04 min 51 sec)
Heartbeat CPU 0 instructions: 56000374 cycles: 25658299 heartbeat IPC: 0.2774 cumulative IPC: 0.4491 (Simulation time: 00 hr 05 min 02 sec)
Heartbeat CPU 0 instructions: 56500378 cycles: 27425708 heartbeat IPC: 0.2829 cumulative IPC: 0.4297 (Simulation time: 00 hr 05 min 12 sec)
Heartbeat CPU 0 instructions: 57000379 cycles: 29214154 heartbeat IPC: 0.2796 cumulative IPC: 0.4138 (Simulation time: 00 hr 05 min 23 sec)
Heartbeat CPU 0 instructions: 57500379 cycles: 31016239 heartbeat IPC: 0.2775 cumulative IPC: 0.4007 (Simulation time: 00 hr 05 min 34 sec)
Heartbeat CPU 0 instructions: 58000380 cycles: 32798179 heartbeat IPC: 0.2806 cumulative IPC: 0.3903 (Simulation time: 00 hr 05 min 44 sec)
Heartbeat CPU 0 instructions: 58500382 cycles: 34527082 heartbeat IPC: 0.2892 cumulative IPC: 0.3824 (Simulation time: 00 hr 05 min 54 sec)
Heartbeat CPU 0 instructions: 59000382 cycles: 36331789 heartbeat IPC: 0.2771 cumulative IPC: 0.3745 (Simulation time: 00 hr 06 min 05 sec)
Heartbeat CPU 0 instructions: 59500382 cycles: 38115635 heartbeat IPC: 0.2803 cumulative IPC: 0.368 (Simulation time: 00 hr 06 min 16 sec)
Heartbeat CPU 0 instructions: 60000382 cycles: 39899071 heartbeat IPC: 0.2804 cumulative IPC: 0.3623 (Simulation time: 00 hr 06 min 26 sec)
Heartbeat CPU 0 instructions: 60500386 cycles: 41658740 heartbeat IPC: 0.2841 cumulative IPC: 0.3576 (Simulation time: 00 hr 06 min 37 sec)
Heartbeat CPU 0 instructions: 61000391 cycles: 43421281 heartbeat IPC: 0.2837 cumulative IPC: 0.3534 (Simulation time: 00 hr 06 min 47 sec)
Heartbeat CPU 0 instructions: 61500391 cycles: 45233732 heartbeat IPC: 0.2759 cumulative IPC: 0.3492 (Simulation time: 00 hr 06 min 58 sec)
Heartbeat CPU 0 instructions: 62000391 cycles: 46998467 heartbeat IPC: 0.2833 cumulative IPC: 0.3458 (Simulation time: 00 hr 07 min 08 sec)
Heartbeat CPU 0 instructions: 62500391 cycles: 48773362 heartbeat IPC: 0.2817 cumulative IPC: 0.3427 (Simulation time: 00 hr 07 min 18 sec)
Heartbeat CPU 0 instructions: 63000392 cycles: 50590437 heartbeat IPC: 0.2752 cumulative IPC: 0.3395 (Simulation time: 00 hr 07 min 29 sec)
Heartbeat CPU 0 instructions: 63500393 cycles: 52340003 heartbeat IPC: 0.2858 cumulative IPC: 0.3372 (Simulation time: 00 hr 07 min 40 sec)
Heartbeat CPU 0 instructions: 64000395 cycles: 54126334 heartbeat IPC: 0.2799 cumulative IPC: 0.3347 (Simulation time: 00 hr 07 min 50 sec)
Heartbeat CPU 0 instructions: 64500396 cycles: 55914483 heartbeat IPC: 0.2796 cumulative IPC: 0.3325 (Simulation time: 00 hr 08 min 01 sec)
Heartbeat CPU 0 instructions: 65000402 cycles: 57704375 heartbeat IPC: 0.2793 cumulative IPC: 0.3304 (Simulation time: 00 hr 08 min 11 sec)
Heartbeat CPU 0 instructions: 65500403 cycles: 59442810 heartbeat IPC: 0.2876 cumulative IPC: 0.3288 (Simulation time: 00 hr 08 min 22 sec)
Heartbeat CPU 0 instructions: 66000406 cycles: 61221073 heartbeat IPC: 0.2812 cumulative IPC: 0.3271 (Simulation time: 00 hr 08 min 32 sec)
Heartbeat CPU 0 instructions: 66500406 cycles: 63002424 heartbeat IPC: 0.2807 cumulative IPC: 0.3254 (Simulation time: 00 hr 08 min 43 sec)
Heartbeat CPU 0 instructions: 67000407 cycles: 64790533 heartbeat IPC: 0.2796 cumulative IPC: 0.3239 (Simulation time: 00 hr 08 min 53 sec)
Heartbeat CPU 0 instructions: 67500409 cycles: 66600258 heartbeat IPC: 0.2763 cumulative IPC: 0.3223 (Simulation time: 00 hr 09 min 04 sec)
Heartbeat CPU 0 instructions: 68000410 cycles: 68403275 heartbeat IPC: 0.2773 cumulative IPC: 0.3208 (Simulation time: 00 hr 09 min 14 sec)
Heartbeat CPU 0 instructions: 68500415 cycles: 70202486 heartbeat IPC: 0.2779 cumulative IPC: 0.3195 (Simulation time: 00 hr 09 min 25 sec)
Heartbeat CPU 0 instructions: 69000415 cycles: 71976190 heartbeat IPC: 0.2819 cumulative IPC: 0.3184 (Simulation time: 00 hr 09 min 36 sec)
Heartbeat CPU 0 instructions: 69500415 cycles: 73731619 heartbeat IPC: 0.2848 cumulative IPC: 0.3174 (Simulation time: 00 hr 09 min 46 sec)
Heartbeat CPU 0 instructions: 70000416 cycles: 75543318 heartbeat IPC: 0.276 cumulative IPC: 0.3162 (Simulation time: 00 hr 09 min 57 sec)
Heartbeat CPU 0 instructions: 70500418 cycles: 77320600 heartbeat IPC: 0.2813 cumulative IPC: 0.3153 (Simulation time: 00 hr 10 min 08 sec)
Heartbeat CPU 0 instructions: 71000418 cycles: 79091238 heartbeat IPC: 0.2824 cumulative IPC: 0.3144 (Simulation time: 00 hr 10 min 18 sec)
Heartbeat CPU 0 instructions: 71500418 cycles: 80069276 heartbeat IPC: 0.5112 cumulative IPC: 0.3173 (Simulation time: 00 hr 10 min 24 sec)
Heartbeat CPU 0 instructions: 72000419 cycles: 80867797 heartbeat IPC: 0.6262 cumulative IPC: 0.3208 (Simulation time: 00 hr 10 min 29 sec)
Heartbeat CPU 0 instructions: 72500422 cycles: 81679225 heartbeat IPC: 0.6162 cumulative IPC: 0.3243 (Simulation time: 00 hr 10 min 34 sec)
Heartbeat CPU 0 instructions: 73000423 cycles: 82484897 heartbeat IPC: 0.6206 cumulative IPC: 0.3277 (Simulation time: 00 hr 10 min 39 sec)
Heartbeat CPU 0 instructions: 73500424 cycles: 83280195 heartbeat IPC: 0.6287 cumulative IPC: 0.3311 (Simulation time: 00 hr 10 min 44 sec)
Heartbeat CPU 0 instructions: 74000427 cycles: 84070449 heartbeat IPC: 0.6327 cumulative IPC: 0.3344 (Simulation time: 00 hr 10 min 49 sec)
Heartbeat CPU 0 instructions: 74500427 cycles: 84852311 heartbeat IPC: 0.6395 cumulative IPC: 0.3377 (Simulation time: 00 hr 10 min 54 sec)
Heartbeat CPU 0 instructions: 75000429 cycles: 85654043 heartbeat IPC: 0.6237 cumulative IPC: 0.3408 (Simulation time: 00 hr 10 min 59 sec)
Heartbeat CPU 0 instructions: 75500429 cycles: 86422823 heartbeat IPC: 0.6504 cumulative IPC: 0.344 (Simulation time: 00 hr 11 min 03 sec)
Heartbeat CPU 0 instructions: 76000430 cycles: 87199830 heartbeat IPC: 0.6435 cumulative IPC: 0.3471 (Simulation time: 00 hr 11 min 08 sec)
Heartbeat CPU 0 instructions: 76500433 cycles: 87950322 heartbeat IPC: 0.6662 cumulative IPC: 0.3503 (Simulation time: 00 hr 11 min 13 sec)
Heartbeat CPU 0 instructions: 77000435 cycles: 88705797 heartbeat IPC: 0.6618 cumulative IPC: 0.3534 (Simulation time: 00 hr 11 min 17 sec)
Heartbeat CPU 0 instructions: 77500435 cycles: 89466081 heartbeat IPC: 0.6576 cumulative IPC: 0.3564 (Simulation time: 00 hr 11 min 22 sec)
Heartbeat CPU 0 instructions: 78000438 cycles: 90223827 heartbeat IPC: 0.6599 cumulative IPC: 0.3593 (Simulation time: 00 hr 11 min 26 sec)
Heartbeat CPU 0 instructions: 78500439 cycles: 90973577 heartbeat IPC: 0.6669 cumulative IPC: 0.3623 (Simulation time: 00 hr 11 min 31 sec)
Heartbeat CPU 0 instructions: 79000439 cycles: 91716955 heartbeat IPC: 0.6726 cumulative IPC: 0.3652 (Simulation time: 00 hr 11 min 36 sec)
Heartbeat CPU 0 instructions: 79500440 cycles: 92459560 heartbeat IPC: 0.6733 cumulative IPC: 0.368 (Simulation time: 00 hr 11 min 40 sec)
Heartbeat CPU 0 instructions: 80000440 cycles: 93218586 heartbeat IPC: 0.6587 cumulative IPC: 0.3707 (Simulation time: 00 hr 11 min 45 sec)
Heartbeat CPU 0 instructions: 80500440 cycles: 93954828 heartbeat IPC: 0.6791 cumulative IPC: 0.3735 (Simulation time: 00 hr 11 min 49 sec)
Heartbeat CPU 0 instructions: 81000445 cycles: 94120650 heartbeat IPC: 3.015 cumulative IPC: 0.3789 (Simulation time: 00 hr 11 min 51 sec)
Heartbeat CPU 0 instructions: 81500449 cycles: 94223168 heartbeat IPC: 4.877 cumulative IPC: 0.3845 (Simulation time: 00 hr 11 min 52 sec)
Heartbeat CPU 0 instructions: 82000452 cycles: 94325804 heartbeat IPC: 4.872 cumulative IPC: 0.3901 (Simulation time: 00 hr 11 min 54 sec)
Heartbeat CPU 0 instructions: 82500455 cycles: 94428532 heartbeat IPC: 4.867 cumulative IPC: 0.3957 (Simulation time: 00 hr 11 min 55 sec)
Heartbeat CPU 0 instructions: 83000457 cycles: 94531209 heartbeat IPC: 4.87 cumulative IPC: 0.4013 (Simulation time: 00 hr 11 min 56 sec)
Heartbeat CPU 0 instructions: 83500457 cycles: 94633636 heartbeat IPC: 4.882 cumulative IPC: 0.4069 (Simulation time: 00 hr 11 min 57 sec)
Heartbeat CPU 0 instructions: 84000464 cycles: 94736096 heartbeat IPC: 4.88 cumulative IPC: 0.4124 (Simulation time: 00 hr 11 min 59 sec)
Heartbeat CPU 0 instructions: 84500466 cycles: 94838851 heartbeat IPC: 4.866 cumulative IPC: 0.418 (Simulation time: 00 hr 12 min 00 sec)
Heartbeat CPU 0 instructions: 85000466 cycles: 94941330 heartbeat IPC: 4.879 cumulative IPC: 0.4235 (Simulation time: 00 hr 12 min 01 sec)
Heartbeat CPU 0 instructions: 85500472 cycles: 95044118 heartbeat IPC: 4.864 cumulative IPC: 0.429 (Simulation time: 00 hr 12 min 02 sec)
Heartbeat CPU 0 instructions: 86000477 cycles: 95146744 heartbeat IPC: 4.872 cumulative IPC: 0.4345 (Simulation time: 00 hr 12 min 04 sec)
Heartbeat CPU 0 instructions: 86500477 cycles: 95249426 heartbeat IPC: 4.869 cumulative IPC: 0.44 (Simulation time: 00 hr 12 min 05 sec)
Heartbeat CPU 0 instructions: 87000481 cycles: 95352130 heartbeat IPC: 4.868 cumulative IPC: 0.4455 (Simulation time: 00 hr 12 min 06 sec)
Heartbeat CPU 0 instructions: 87500486 cycles: 95454567 heartbeat IPC: 4.881 cumulative IPC: 0.451 (Simulation time: 00 hr 12 min 08 sec)
Heartbeat CPU 0 instructions: 88000486 cycles: 95557287 heartbeat IPC: 4.868 cumulative IPC: 0.4564 (Simulation time: 00 hr 12 min 09 sec)
Heartbeat CPU 0 instructions: 88500489 cycles: 95659618 heartbeat IPC: 4.886 cumulative IPC: 0.4619 (Simulation time: 00 hr 12 min 10 sec)
Heartbeat CPU 0 instructions: 89000490 cycles: 95762373 heartbeat IPC: 4.866 cumulative IPC: 0.4673 (Simulation time: 00 hr 12 min 11 sec)
Heartbeat CPU 0 instructions: 89500493 cycles: 95864778 heartbeat IPC: 4.883 cumulative IPC: 0.4727 (Simulation time: 00 hr 12 min 13 sec)
Heartbeat CPU 0 instructions: 90000494 cycles: 95967333 heartbeat IPC: 4.875 cumulative IPC: 0.4781 (Simulation time: 00 hr 12 min 14 sec)
Heartbeat CPU 0 instructions: 90500499 cycles: 96069859 heartbeat IPC: 4.877 cumulative IPC: 0.4835 (Simulation time: 00 hr 12 min 15 sec)
Heartbeat CPU 0 instructions: 91000502 cycles: 96172372 heartbeat IPC: 4.877 cumulative IPC: 0.4888 (Simulation time: 00 hr 12 min 17 sec)
Heartbeat CPU 0 instructions: 91500506 cycles: 96275041 heartbeat IPC: 4.87 cumulative IPC: 0.4942 (Simulation time: 00 hr 12 min 18 sec)
Heartbeat CPU 0 instructions: 92000507 cycles: 96377428 heartbeat IPC: 4.883 cumulative IPC: 0.4995 (Simulation time: 00 hr 12 min 19 sec)
Heartbeat CPU 0 instructions: 92500509 cycles: 97419315 heartbeat IPC: 0.4799 cumulative IPC: 0.4993 (Simulation time: 00 hr 12 min 28 sec)
Heartbeat CPU 0 instructions: 93000509 cycles: 97682471 heartbeat IPC: 1.9 cumulative IPC: 0.5036 (Simulation time: 00 hr 12 min 32 sec)
Heartbeat CPU 0 instructions: 93500509 cycles: 97943775 heartbeat IPC: 1.913 cumulative IPC: 0.5079 (Simulation time: 00 hr 12 min 35 sec)
Heartbeat CPU 0 instructions: 94000509 cycles: 98206829 heartbeat IPC: 1.901 cumulative IPC: 0.5122 (Simulation time: 00 hr 12 min 38 sec)
Heartbeat CPU 0 instructions: 94500510 cycles: 98466151 heartbeat IPC: 1.928 cumulative IPC: 0.5164 (Simulation time: 00 hr 12 min 41 sec)
Heartbeat CPU 0 instructions: 95000510 cycles: 98713481 heartbeat IPC: 2.022 cumulative IPC: 0.5207 (Simulation time: 00 hr 12 min 44 sec)
Heartbeat CPU 0 instructions: 95500510 cycles: 98950315 heartbeat IPC: 2.111 cumulative IPC: 0.5251 (Simulation time: 00 hr 12 min 47 sec)
Heartbeat CPU 0 instructions: 96000510 cycles: 99183875 heartbeat IPC: 2.141 cumulative IPC: 0.5294 (Simulation time: 00 hr 12 min 50 sec)
Heartbeat CPU 0 instructions: 96500510 cycles: 99416035 heartbeat IPC: 2.154 cumulative IPC: 0.5338 (Simulation time: 00 hr 12 min 52 sec)
Heartbeat CPU 0 instructions: 97000510 cycles: 99650611 heartbeat IPC: 2.132 cumulative IPC: 0.5381 (Simulation time: 00 hr 12 min 55 sec)
Heartbeat CPU 0 instructions: 97500511 cycles: 99923796 heartbeat IPC: 1.83 cumulative IPC: 0.5421 (Simulation time: 00 hr 12 min 58 sec)
Heartbeat CPU 0 instructions: 98000511 cycles: 100393606 heartbeat IPC: 1.064 cumulative IPC: 0.5449 (Simulation time: 00 hr 13 min 01 sec)
Heartbeat CPU 0 instructions: 98500513 cycles: 100865665 heartbeat IPC: 1.059 cumulative IPC: 0.5476 (Simulation time: 00 hr 13 min 04 sec)
Heartbeat CPU 0 instructions: 99000515 cycles: 101343447 heartbeat IPC: 1.047 cumulative IPC: 0.5503 (Simulation time: 00 hr 13 min 08 sec)
Heartbeat CPU 0 instructions: 99500516 cycles: 101864443 heartbeat IPC: 0.9597 cumulative IPC: 0.5527 (Simulation time: 00 hr 13 min 11 sec)
Heartbeat CPU 0 instructions: 100000516 cycles: 102442449 heartbeat IPC: 0.865 cumulative IPC: 0.5547 (Simulation time: 00 hr 13 min 15 sec)
Heartbeat CPU 0 instructions: 100500517 cycles: 103030692 heartbeat IPC: 0.85 cumulative IPC: 0.5566 (Simulation time: 00 hr 13 min 19 sec)
Heartbeat CPU 0 instructions: 101000517 cycles: 103620340 heartbeat IPC: 0.848 cumulative IPC: 0.5585 (Simulation time: 00 hr 13 min 23 sec)
Heartbeat CPU 0 instructions: 101500523 cycles: 104235890 heartbeat IPC: 0.8123 cumulative IPC: 0.5602 (Simulation time: 00 hr 13 min 27 sec)
Heartbeat CPU 0 instructions: 102000526 cycles: 104841642 heartbeat IPC: 0.8254 cumulative IPC: 0.5619 (Simulation time: 00 hr 13 min 31 sec)
Heartbeat CPU 0 instructions: 102500526 cycles: 105420859 heartbeat IPC: 0.8632 cumulative IPC: 0.5638 (Simulation time: 00 hr 13 min 35 sec)
Heartbeat CPU 0 instructions: 103000526 cycles: 106002371 heartbeat IPC: 0.8598 cumulative IPC: 0.5656 (Simulation time: 00 hr 13 min 39 sec)
Heartbeat CPU 0 instructions: 103500526 cycles: 106603817 heartbeat IPC: 0.8313 cumulative IPC: 0.5673 (Simulation time: 00 hr 13 min 43 sec)
Heartbeat CPU 0 instructions: 104000526 cycles: 107142730 heartbeat IPC: 0.9278 cumulative IPC: 0.5694 (Simulation time: 00 hr 13 min 46 sec)
Heartbeat CPU 0 instructions: 104500526 cycles: 107663302 heartbeat IPC: 0.9605 cumulative IPC: 0.5715 (Simulation time: 00 hr 13 min 50 sec)
Heartbeat CPU 0 instructions: 105000527 cycles: 108195946 heartbeat IPC: 0.9387 cumulative IPC: 0.5735 (Simulation time: 00 hr 13 min 53 sec)
Heartbeat CPU 0 instructions: 105500533 cycles: 108761332 heartbeat IPC: 0.8844 cumulative IPC: 0.5754 (Simulation time: 00 hr 13 min 57 sec)
Heartbeat CPU 0 instructions: 106000539 cycles: 109294772 heartbeat IPC: 0.9373 cumulative IPC: 0.5773 (Simulation time: 00 hr 14 min 01 sec)
Heartbeat CPU 0 instructions: 106500539 cycles: 109826144 heartbeat IPC: 0.941 cumulative IPC: 0.5793 (Simulation time: 00 hr 14 min 04 sec)
Heartbeat CPU 0 instructions: 107000543 cycles: 110413802 heartbeat IPC: 0.8508 cumulative IPC: 0.581 (Simulation time: 00 hr 14 min 08 sec)
Heartbeat CPU 0 instructions: 107500549 cycles: 110970411 heartbeat IPC: 0.8983 cumulative IPC: 0.5827 (Simulation time: 00 hr 14 min 12 sec)
Heartbeat CPU 0 instructions: 108000549 cycles: 112389520 heartbeat IPC: 0.3523 cumulative IPC: 0.5795 (Simulation time: 00 hr 14 min 24 sec)
Heartbeat CPU 0 instructions: 108500551 cycles: 113615529 heartbeat IPC: 0.4078 cumulative IPC: 0.5774 (Simulation time: 00 hr 14 min 32 sec)
Heartbeat CPU 0 instructions: 109000556 cycles: 115015974 heartbeat IPC: 0.357 cumulative IPC: 0.5744 (Simulation time: 00 hr 14 min 40 sec)
Heartbeat CPU 0 instructions: 109500556 cycles: 116409663 heartbeat IPC: 0.3588 cumulative IPC: 0.5715 (Simulation time: 00 hr 14 min 49 sec)
Heartbeat CPU 0 instructions: 110000556 cycles: 117771337 heartbeat IPC: 0.3672 cumulative IPC: 0.5689 (Simulation time: 00 hr 14 min 57 sec)
Heartbeat CPU 0 instructions: 110500556 cycles: 119130597 heartbeat IPC: 0.3678 cumulative IPC: 0.5663 (Simulation time: 00 hr 15 min 05 sec)
Heartbeat CPU 0 instructions: 111000556 cycles: 120478425 heartbeat IPC: 0.371 cumulative IPC: 0.5639 (Simulation time: 00 hr 15 min 13 sec)
Heartbeat CPU 0 instructions: 111500556 cycles: 121797571 heartbeat IPC: 0.379 cumulative IPC: 0.5617 (Simulation time: 00 hr 15 min 21 sec)
Heartbeat CPU 0 instructions: 112000556 cycles: 123147530 heartbeat IPC: 0.3704 cumulative IPC: 0.5593 (Simulation time: 00 hr 15 min 29 sec)
Heartbeat CPU 0 instructions: 112500559 cycles: 124499435 heartbeat IPC: 0.3699 cumulative IPC: 0.557 (Simulation time: 00 hr 15 min 37 sec)
Heartbeat CPU 0 instructions: 113000559 cycles: 125848821 heartbeat IPC: 0.3705 cumulative IPC: 0.5548 (Simulation time: 00 hr 15 min 46 sec)
Heartbeat CPU 0 instructions: 113500562 cycles: 127201271 heartbeat IPC: 0.3697 cumulative IPC: 0.5526 (Simulation time: 00 hr 15 min 54 sec)
Heartbeat CPU 0 instructions: 114000568 cycles: 128523236 heartbeat IPC: 0.3782 cumulative IPC: 0.5507 (Simulation time: 00 hr 16 min 02 sec)
Heartbeat CPU 0 instructions: 114500568 cycles: 129867104 heartbeat IPC: 0.3721 cumulative IPC: 0.5486 (Simulation time: 00 hr 16 min 10 sec)
Heartbeat CPU 0 instructions: 115000568 cycles: 131240554 heartbeat IPC: 0.364 cumulative IPC: 0.5465 (Simulation time: 00 hr 16 min 18 sec)
Heartbeat CPU 0 instructions: 115500568 cycles: 132596544 heartbeat IPC: 0.3687 cumulative IPC: 0.5445 (Simulation time: 00 hr 16 min 26 sec)
Heartbeat CPU 0 instructions: 116000568 cycles: 133946467 heartbeat IPC: 0.3704 cumulative IPC: 0.5426 (Simulation time: 00 hr 16 min 34 sec)
Heartbeat CPU 0 instructions: 116500568 cycles: 135285242 heartbeat IPC: 0.3735 cumulative IPC: 0.5407 (Simulation time: 00 hr 16 min 42 sec)
Heartbeat CPU 0 instructions: 117000569 cycles: 136606313 heartbeat IPC: 0.3785 cumulative IPC: 0.539 (Simulation time: 00 hr 16 min 49 sec)
Heartbeat CPU 0 instructions: 117500571 cycles: 137938403 heartbeat IPC: 0.3754 cumulative IPC: 0.5373 (Simulation time: 00 hr 16 min 57 sec)
Heartbeat CPU 0 instructions: 118000574 cycles: 139259307 heartbeat IPC: 0.3785 cumulative IPC: 0.5356 (Simulation time: 00 hr 17 min 05 sec)
Heartbeat CPU 0 instructions: 118500575 cycles: 140568923 heartbeat IPC: 0.3818 cumulative IPC: 0.534 (Simulation time: 00 hr 17 min 13 sec)
Heartbeat CPU 0 instructions: 119000575 cycles: 141869046 heartbeat IPC: 0.3846 cumulative IPC: 0.5325 (Simulation time: 00 hr 17 min 21 sec)
Heartbeat CPU 0 instructions: 119500577 cycles: 143210433 heartbeat IPC: 0.3727 cumulative IPC: 0.5309 (Simulation time: 00 hr 17 min 29 sec)
Heartbeat CPU 0 instructions: 120000577 cycles: 144548229 heartbeat IPC: 0.3737 cumulative IPC: 0.5293 (Simulation time: 00 hr 17 min 37 sec)
Heartbeat CPU 0 instructions: 120500579 cycles: 145832853 heartbeat IPC: 0.3892 cumulative IPC: 0.528 (Simulation time: 00 hr 17 min 44 sec)
Heartbeat CPU 0 instructions: 121000579 cycles: 147129337 heartbeat IPC: 0.3857 cumulative IPC: 0.5266 (Simulation time: 00 hr 17 min 52 sec)
Heartbeat CPU 0 instructions: 121500579 cycles: 148440143 heartbeat IPC: 0.3814 cumulative IPC: 0.5252 (Simulation time: 00 hr 18 min 00 sec)
Heartbeat CPU 0 instructions: 122000580 cycles: 149792239 heartbeat IPC: 0.3698 cumulative IPC: 0.5237 (Simulation time: 00 hr 18 min 08 sec)
Heartbeat CPU 0 instructions: 122500581 cycles: 151123010 heartbeat IPC: 0.3757 cumulative IPC: 0.5222 (Simulation time: 00 hr 18 min 16 sec)
Heartbeat CPU 0 instructions: 123000581 cycles: 152424011 heartbeat IPC: 0.3843 cumulative IPC: 0.521 (Simulation time: 00 hr 18 min 23 sec)
Heartbeat CPU 0 instructions: 123500588 cycles: 153679352 heartbeat IPC: 0.3983 cumulative IPC: 0.5199 (Simulation time: 00 hr 18 min 31 sec)
Heartbeat CPU 0 instructions: 124000588 cycles: 155023563 heartbeat IPC: 0.372 cumulative IPC: 0.5185 (Simulation time: 00 hr 18 min 40 sec)
Heartbeat CPU 0 instructions: 124500588 cycles: 156343252 heartbeat IPC: 0.3789 cumulative IPC: 0.5172 (Simulation time: 00 hr 18 min 49 sec)
Heartbeat CPU 0 instructions: 125000588 cycles: 157658326 heartbeat IPC: 0.3802 cumulative IPC: 0.516 (Simulation time: 00 hr 18 min 59 sec)
Heartbeat CPU 0 instructions: 125500591 cycles: 158960539 heartbeat IPC: 0.384 cumulative IPC: 0.5148 (Simulation time: 00 hr 19 min 08 sec)
Heartbeat CPU 0 instructions: 126000591 cycles: 160276280 heartbeat IPC: 0.38 cumulative IPC: 0.5136 (Simulation time: 00 hr 19 min 17 sec)
Heartbeat CPU 0 instructions: 126500591 cycles: 161582827 heartbeat IPC: 0.3827 cumulative IPC: 0.5124 (Simulation time: 00 hr 19 min 27 sec)
Heartbeat CPU 0 instructions: 127000593 cycles: 162884779 heartbeat IPC: 0.384 cumulative IPC: 0.5113 (Simulation time: 00 hr 19 min 36 sec)
Heartbeat CPU 0 instructions: 127500593 cycles: 164206269 heartbeat IPC: 0.3784 cumulative IPC: 0.5102 (Simulation time: 00 hr 19 min 45 sec)
Heartbeat CPU 0 instructions: 128000593 cycles: 165510888 heartbeat IPC: 0.3833 cumulative IPC: 0.5091 (Simulation time: 00 hr 19 min 55 sec)
Heartbeat CPU 0 instructions: 128500593 cycles: 166806130 heartbeat IPC: 0.386 cumulative IPC: 0.5081 (Simulation time: 00 hr 20 min 04 sec)
Heartbeat CPU 0 instructions: 129000599 cycles: 168157507 heartbeat IPC: 0.37 cumulative IPC: 0.5069 (Simulation time: 00 hr 20 min 14 sec)
Heartbeat CPU 0 instructions: 129500599 cycles: 169482719 heartbeat IPC: 0.3773 cumulative IPC: 0.5058 (Simulation time: 00 hr 20 min 23 sec)
Heartbeat CPU 0 instructions: 130000599 cycles: 170788915 heartbeat IPC: 0.3828 cumulative IPC: 0.5048 (Simulation time: 00 hr 20 min 31 sec)
Heartbeat CPU 0 instructions: 130500600 cycles: 172143860 heartbeat IPC: 0.369 cumulative IPC: 0.5036 (Simulation time: 00 hr 20 min 39 sec)
Heartbeat CPU 0 instructions: 131000601 cycles: 173453886 heartbeat IPC: 0.3817 cumulative IPC: 0.5026 (Simulation time: 00 hr 20 min 47 sec)
Heartbeat CPU 0 instructions: 131500601 cycles: 174749983 heartbeat IPC: 0.3858 cumulative IPC: 0.5017 (Simulation time: 00 hr 20 min 55 sec)
Heartbeat CPU 0 instructions: 132000603 cycles: 176070889 heartbeat IPC: 0.3785 cumulative IPC: 0.5007 (Simulation time: 00 hr 21 min 03 sec)
Heartbeat CPU 0 instructions: 132500603 cycles: 177363895 heartbeat IPC: 0.3867 cumulative IPC: 0.4998 (Simulation time: 00 hr 21 min 11 sec)
Heartbeat CPU 0 instructions: 133000603 cycles: 178684733 heartbeat IPC: 0.3785 cumulative IPC: 0.4988 (Simulation time: 00 hr 21 min 19 sec)
Heartbeat CPU 0 instructions: 133500604 cycles: 180008649 heartbeat IPC: 0.3777 cumulative IPC: 0.4979 (Simulation time: 00 hr 21 min 27 sec)
Heartbeat CPU 0 instructions: 134000604 cycles: 181347604 heartbeat IPC: 0.3734 cumulative IPC: 0.4969 (Simulation time: 00 hr 21 min 35 sec)
Heartbeat CPU 0 instructions: 134500611 cycles: 182662000 heartbeat IPC: 0.3804 cumulative IPC: 0.496 (Simulation time: 00 hr 21 min 43 sec)
Heartbeat CPU 0 instructions: 135000613 cycles: 183971141 heartbeat IPC: 0.3819 cumulative IPC: 0.4951 (Simulation time: 00 hr 21 min 50 sec)
Heartbeat CPU 0 instructions: 135500616 cycles: 185320193 heartbeat IPC: 0.3706 cumulative IPC: 0.4942 (Simulation time: 00 hr 21 min 58 sec)
Heartbeat CPU 0 instructions: 136000616 cycles: 186647305 heartbeat IPC: 0.3768 cumulative IPC: 0.4933 (Simulation time: 00 hr 22 min 06 sec)
Heartbeat CPU 0 instructions: 136500617 cycles: 188114839 heartbeat IPC: 0.3407 cumulative IPC: 0.492 (Simulation time: 00 hr 22 min 15 sec)
Heartbeat CPU 0 instructions: 137000621 cycles: 189892382 heartbeat IPC: 0.2813 cumulative IPC: 0.4899 (Simulation time: 00 hr 22 min 25 sec)
Heartbeat CPU 0 instructions: 137500622 cycles: 191729131 heartbeat IPC: 0.2722 cumulative IPC: 0.4877 (Simulation time: 00 hr 22 min 36 sec)
Heartbeat CPU 0 instructions: 138000623 cycles: 193535061 heartbeat IPC: 0.2769 cumulative IPC: 0.4856 (Simulation time: 00 hr 22 min 47 sec)
Heartbeat CPU 0 instructions: 138500623 cycles: 195363968 heartbeat IPC: 0.2734 cumulative IPC: 0.4834 (Simulation time: 00 hr 22 min 57 sec)
Heartbeat CPU 0 instructions: 139000623 cycles: 197194428 heartbeat IPC: 0.2732 cumulative IPC: 0.4814 (Simulation time: 00 hr 23 min 08 sec)
Heartbeat CPU 0 instructions: 139500625 cycles: 199028483 heartbeat IPC: 0.2726 cumulative IPC: 0.4793 (Simulation time: 00 hr 23 min 19 sec)
Heartbeat CPU 0 instructions: 140000627 cycles: 200873717 heartbeat IPC: 0.271 cumulative IPC: 0.4773 (Simulation time: 00 hr 23 min 29 sec)
Heartbeat CPU 0 instructions: 140500633 cycles: 202705705 heartbeat IPC: 0.2729 cumulative IPC: 0.4753 (Simulation time: 00 hr 23 min 40 sec)
Heartbeat CPU 0 instructions: 141000639 cycles: 204559159 heartbeat IPC: 0.2698 cumulative IPC: 0.4733 (Simulation time: 00 hr 23 min 50 sec)
Heartbeat CPU 0 instructions: 141500639 cycles: 206391255 heartbeat IPC: 0.2729 cumulative IPC: 0.4714 (Simulation time: 00 hr 24 min 01 sec)
Heartbeat CPU 0 instructions: 142000639 cycles: 208230786 heartbeat IPC: 0.2718 cumulative IPC: 0.4696 (Simulation time: 00 hr 24 min 12 sec)
Heartbeat CPU 0 instructions: 142500640 cycles: 210075683 heartbeat IPC: 0.271 cumulative IPC: 0.4677 (Simulation time: 00 hr 24 min 22 sec)
Heartbeat CPU 0 instructions: 143000640 cycles: 211876959 heartbeat IPC: 0.2776 cumulative IPC: 0.466 (Simulation time: 00 hr 24 min 33 sec)
Heartbeat CPU 0 instructions: 143500640 cycles: 213702781 heartbeat IPC: 0.2738 cumulative IPC: 0.4642 (Simulation time: 00 hr 24 min 44 sec)
Heartbeat CPU 0 instructions: 144000640 cycles: 215529728 heartbeat IPC: 0.2737 cumulative IPC: 0.4625 (Simulation time: 00 hr 24 min 54 sec)
Heartbeat CPU 0 instructions: 144500641 cycles: 217343931 heartbeat IPC: 0.2756 cumulative IPC: 0.4609 (Simulation time: 00 hr 25 min 05 sec)
Heartbeat CPU 0 instructions: 145000641 cycles: 219155598 heartbeat IPC: 0.276 cumulative IPC: 0.4593 (Simulation time: 00 hr 25 min 15 sec)
Heartbeat CPU 0 instructions: 145500643 cycles: 220954338 heartbeat IPC: 0.278 cumulative IPC: 0.4577 (Simulation time: 00 hr 25 min 26 sec)
Heartbeat CPU 0 instructions: 146000643 cycles: 222800783 heartbeat IPC: 0.2708 cumulative IPC: 0.4561 (Simulation time: 00 hr 25 min 36 sec)
Heartbeat CPU 0 instructions: 146500646 cycles: 224636876 heartbeat IPC: 0.2723 cumulative IPC: 0.4545 (Simulation time: 00 hr 25 min 47 sec)
Heartbeat CPU 0 instructions: 147000647 cycles: 226454137 heartbeat IPC: 0.2751 cumulative IPC: 0.4529 (Simulation time: 00 hr 25 min 57 sec)
Heartbeat CPU 0 instructions: 147500647 cycles: 228282997 heartbeat IPC: 0.2734 cumulative IPC: 0.4514 (Simulation time: 00 hr 26 min 08 sec)
Heartbeat CPU 0 instructions: 148000648 cycles: 230105992 heartbeat IPC: 0.2743 cumulative IPC: 0.4499 (Simulation time: 00 hr 26 min 18 sec)
Heartbeat CPU 0 instructions: 148500649 cycles: 231920690 heartbeat IPC: 0.2755 cumulative IPC: 0.4485 (Simulation time: 00 hr 26 min 29 sec)
Heartbeat CPU 0 instructions: 149000649 cycles: 232790605 heartbeat IPC: 0.5748 cumulative IPC: 0.449 (Simulation time: 00 hr 26 min 34 sec)
Heartbeat CPU 0 instructions: 149500649 cycles: 233497994 heartbeat IPC: 0.7068 cumulative IPC: 0.4498 (Simulation time: 00 hr 26 min 38 sec)
Heartbeat CPU 0 instructions: 150000649 cycles: 234202269 heartbeat IPC: 0.7099 cumulative IPC: 0.4506 (Simulation time: 00 hr 26 min 43 sec)
Heartbeat CPU 0 instructions: 150500649 cycles: 234903966 heartbeat IPC: 0.7126 cumulative IPC: 0.4515 (Simulation time: 00 hr 26 min 47 sec)
Heartbeat CPU 0 instructions: 151000650 cycles: 235600400 heartbeat IPC: 0.7179 cumulative IPC: 0.4523 (Simulation time: 00 hr 26 min 51 sec)
Heartbeat CPU 0 instructions: 151500650 cycles: 236291834 heartbeat IPC: 0.7231 cumulative IPC: 0.4531 (Simulation time: 00 hr 26 min 55 sec)
Heartbeat CPU 0 instructions: 152000650 cycles: 236974251 heartbeat IPC: 0.7327 cumulative IPC: 0.454 (Simulation time: 00 hr 26 min 59 sec)
Heartbeat CPU 0 instructions: 152500650 cycles: 237654620 heartbeat IPC: 0.7349 cumulative IPC: 0.4548 (Simulation time: 00 hr 27 min 04 sec)
Heartbeat CPU 0 instructions: 153000652 cycles: 238333579 heartbeat IPC: 0.7364 cumulative IPC: 0.4557 (Simulation time: 00 hr 27 min 08 sec)
Heartbeat CPU 0 instructions: 153500652 cycles: 239000635 heartbeat IPC: 0.7496 cumulative IPC: 0.4565 (Simulation time: 00 hr 27 min 12 sec)
Heartbeat CPU 0 instructions: 154000653 cycles: 239670701 heartbeat IPC: 0.7462 cumulative IPC: 0.4574 (Simulation time: 00 hr 27 min 16 sec)
Heartbeat CPU 0 instructions: 154500655 cycles: 240341131 heartbeat IPC: 0.7458 cumulative IPC: 0.4583 (Simulation time: 00 hr 27 min 20 sec)
Heartbeat CPU 0 instructions: 155000655 cycles: 241021595 heartbeat IPC: 0.7348 cumulative IPC: 0.4591 (Simulation time: 00 hr 27 min 24 sec)
Heartbeat CPU 0 instructions: 155500657 cycles: 241698503 heartbeat IPC: 0.7387 cumulative IPC: 0.4599 (Simulation time: 00 hr 27 min 28 sec)
Heartbeat CPU 0 instructions: 156000657 cycles: 242361275 heartbeat IPC: 0.7544 cumulative IPC: 0.4607 (Simulation time: 00 hr 27 min 32 sec)
Heartbeat CPU 0 instructions: 156500660 cycles: 243030013 heartbeat IPC: 0.7477 cumulative IPC: 0.4616 (Simulation time: 00 hr 27 min 36 sec)
Heartbeat CPU 0 instructions: 157000660 cycles: 243702969 heartbeat IPC: 0.743 cumulative IPC: 0.4624 (Simulation time: 00 hr 27 min 40 sec)
Heartbeat CPU 0 instructions: 157500663 cycles: 244362566 heartbeat IPC: 0.758 cumulative IPC: 0.4632 (Simulation time: 00 hr 27 min 44 sec)
Heartbeat CPU 0 instructions: 158000663 cycles: 245001803 heartbeat IPC: 0.7822 cumulative IPC: 0.4641 (Simulation time: 00 hr 27 min 48 sec)
Heartbeat CPU 0 instructions: 158500663 cycles: 245102320 heartbeat IPC: 4.974 cumulative IPC: 0.4661 (Simulation time: 00 hr 27 min 49 sec)
Heartbeat CPU 0 instructions: 159000664 cycles: 245202863 heartbeat IPC: 4.973 cumulative IPC: 0.468 (Simulation time: 00 hr 27 min 50 sec)
Heartbeat CPU 0 instructions: 159500669 cycles: 245303585 heartbeat IPC: 4.964 cumulative IPC: 0.4699 (Simulation time: 00 hr 27 min 52 sec)
Heartbeat CPU 0 instructions: 160000671 cycles: 245404165 heartbeat IPC: 4.971 cumulative IPC: 0.4719 (Simulation time: 00 hr 27 min 53 sec)
Heartbeat CPU 0 instructions: 160500677 cycles: 245504779 heartbeat IPC: 4.97 cumulative IPC: 0.4738 (Simulation time: 00 hr 27 min 54 sec)
Heartbeat CPU 0 instructions: 161000680 cycles: 245605223 heartbeat IPC: 4.978 cumulative IPC: 0.4758 (Simulation time: 00 hr 27 min 55 sec)
Heartbeat CPU 0 instructions: 161500687 cycles: 245705720 heartbeat IPC: 4.975 cumulative IPC: 0.4777 (Simulation time: 00 hr 27 min 57 sec)
Heartbeat CPU 0 instructions: 162000687 cycles: 245807174 heartbeat IPC: 4.928 cumulative IPC: 0.4796 (Simulation time: 00 hr 27 min 58 sec)
Heartbeat CPU 0 instructions: 162500693 cycles: 245907601 heartbeat IPC: 4.979 cumulative IPC: 0.4816 (Simulation time: 00 hr 27 min 59 sec)
Heartbeat CPU 0 instructions: 163000694 cycles: 246008215 heartbeat IPC: 4.969 cumulative IPC: 0.4835 (Simulation time: 00 hr 28 min 00 sec)
Heartbeat CPU 0 instructions: 163500697 cycles: 246108744 heartbeat IPC: 4.974 cumulative IPC: 0.4854 (Simulation time: 00 hr 28 min 02 sec)
Heartbeat CPU 0 instructions: 164000698 cycles: 246209172 heartbeat IPC: 4.979 cumulative IPC: 0.4874 (Simulation time: 00 hr 28 min 03 sec)
Heartbeat CPU 0 instructions: 164500699 cycles: 246309694 heartbeat IPC: 4.974 cumulative IPC: 0.4893 (Simulation time: 00 hr 28 min 04 sec)
Heartbeat CPU 0 instructions: 165000702 cycles: 246410221 heartbeat IPC: 4.974 cumulative IPC: 0.4912 (Simulation time: 00 hr 28 min 05 sec)
Heartbeat CPU 0 instructions: 165500702 cycles: 246510766 heartbeat IPC: 4.973 cumulative IPC: 0.4931 (Simulation time: 00 hr 28 min 06 sec)
Heartbeat CPU 0 instructions: 166000702 cycles: 246611226 heartbeat IPC: 4.977 cumulative IPC: 0.4951 (Simulation time: 00 hr 28 min 08 sec)
Heartbeat CPU 0 instructions: 166500702 cycles: 246711860 heartbeat IPC: 4.968 cumulative IPC: 0.497 (Simulation time: 00 hr 28 min 09 sec)
Heartbeat CPU 0 instructions: 167000707 cycles: 246812235 heartbeat IPC: 4.981 cumulative IPC: 0.4989 (Simulation time: 00 hr 28 min 10 sec)
Heartbeat CPU 0 instructions: 167500712 cycles: 246912806 heartbeat IPC: 4.972 cumulative IPC: 0.5008 (Simulation time: 00 hr 28 min 11 sec)
Heartbeat CPU 0 instructions: 168000712 cycles: 247013450 heartbeat IPC: 4.968 cumulative IPC: 0.5027 (Simulation time: 00 hr 28 min 13 sec)
Heartbeat CPU 0 instructions: 168500717 cycles: 247114065 heartbeat IPC: 4.969 cumulative IPC: 0.5047 (Simulation time: 00 hr 28 min 14 sec)
Heartbeat CPU 0 instructions: 169000722 cycles: 247214479 heartbeat IPC: 4.979 cumulative IPC: 0.5066 (Simulation time: 00 hr 28 min 15 sec)
Heartbeat CPU 0 instructions: 169500725 cycles: 247314885 heartbeat IPC: 4.98 cumulative IPC: 0.5085 (Simulation time: 00 hr 28 min 16 sec)
Heartbeat CPU 0 instructions: 170000725 cycles: 247768349 heartbeat IPC: 1.103 cumulative IPC: 0.5096 (Simulation time: 00 hr 28 min 21 sec)
Heartbeat CPU 0 instructions: 170500725 cycles: 248034415 heartbeat IPC: 1.879 cumulative IPC: 0.5112 (Simulation time: 00 hr 28 min 24 sec)
Heartbeat CPU 0 instructions: 171000725 cycles: 248298473 heartbeat IPC: 1.894 cumulative IPC: 0.5127 (Simulation time: 00 hr 28 min 27 sec)
Heartbeat CPU 0 instructions: 171500725 cycles: 248553595 heartbeat IPC: 1.96 cumulative IPC: 0.5143 (Simulation time: 00 hr 28 min 30 sec)
Heartbeat CPU 0 instructions: 172000726 cycles: 248799401 heartbeat IPC: 2.034 cumulative IPC: 0.5159 (Simulation time: 00 hr 28 min 33 sec)
Heartbeat CPU 0 instructions: 172500726 cycles: 249038039 heartbeat IPC: 2.095 cumulative IPC: 0.5174 (Simulation time: 00 hr 28 min 35 sec)
Heartbeat CPU 0 instructions: 173000726 cycles: 249272363 heartbeat IPC: 2.134 cumulative IPC: 0.519 (Simulation time: 00 hr 28 min 38 sec)
Heartbeat CPU 0 instructions: 173500726 cycles: 249506671 heartbeat IPC: 2.134 cumulative IPC: 0.5206 (Simulation time: 00 hr 28 min 41 sec)
Heartbeat CPU 0 instructions: 174000726 cycles: 249740533 heartbeat IPC: 2.138 cumulative IPC: 0.5222 (Simulation time: 00 hr 28 min 44 sec)
Heartbeat CPU 0 instructions: 174500726 cycles: 249973131 heartbeat IPC: 2.15 cumulative IPC: 0.5238 (Simulation time: 00 hr 28 min 46 sec)
Heartbeat CPU 0 instructions: 175000726 cycles: 250331867 heartbeat IPC: 1.394 cumulative IPC: 0.5251 (Simulation time: 00 hr 28 min 49 sec)
Heartbeat CPU 0 instructions: 175500729 cycles: 250801816 heartbeat IPC: 1.064 cumulative IPC: 0.5262 (Simulation time: 00 hr 28 min 52 sec)
Heartbeat CPU 0 instructions: 176000730 cycles: 251273255 heartbeat IPC: 1.061 cumulative IPC: 0.5273 (Simulation time: 00 hr 28 min 55 sec)
Heartbeat CPU 0 instructions: 176500730 cycles: 251752014 heartbeat IPC: 1.044 cumulative IPC: 0.5283 (Simulation time: 00 hr 28 min 58 sec)
Heartbeat CPU 0 instructions: 177000730 cycles: 252279966 heartbeat IPC: 0.9471 cumulative IPC: 0.5292 (Simulation time: 00 hr 29 min 02 sec)
Heartbeat CPU 0 instructions: 177500732 cycles: 252871928 heartbeat IPC: 0.8447 cumulative IPC: 0.53 (Simulation time: 00 hr 29 min 06 sec)
Heartbeat CPU 0 instructions: 178000738 cycles: 253458568 heartbeat IPC: 0.8523 cumulative IPC: 0.5308 (Simulation time: 00 hr 29 min 09 sec)
Heartbeat CPU 0 instructions: 178500738 cycles: 254037975 heartbeat IPC: 0.863 cumulative IPC: 0.5316 (Simulation time: 00 hr 29 min 13 sec)
Heartbeat CPU 0 instructions: 179000740 cycles: 254638916 heartbeat IPC: 0.832 cumulative IPC: 0.5323 (Simulation time: 00 hr 29 min 17 sec)
Heartbeat CPU 0 instructions: 179500741 cycles: 255211491 heartbeat IPC: 0.8732 cumulative IPC: 0.5331 (Simulation time: 00 hr 29 min 20 sec)
Heartbeat CPU 0 instructions: 180000746 cycles: 255768499 heartbeat IPC: 0.8977 cumulative IPC: 0.5339 (Simulation time: 00 hr 29 min 24 sec)
Heartbeat CPU 0 instructions: 180500746 cycles: 256343376 heartbeat IPC: 0.8698 cumulative IPC: 0.5347 (Simulation time: 00 hr 29 min 28 sec)
Heartbeat CPU 0 instructions: 181000747 cycles: 256891401 heartbeat IPC: 0.9124 cumulative IPC: 0.5356 (Simulation time: 00 hr 29 min 31 sec)
Heartbeat CPU 0 instructions: 181500750 cycles: 257405095 heartbeat IPC: 0.9733 cumulative IPC: 0.5365 (Simulation time: 00 hr 29 min 35 sec)
Heartbeat CPU 0 instructions: 182000753 cycles: 257936446 heartbeat IPC: 0.941 cumulative IPC: 0.5374 (Simulation time: 00 hr 29 min 39 sec)
Heartbeat CPU 0 instructions: 182500754 cycles: 258471934 heartbeat IPC: 0.9337 cumulative IPC: 0.5382 (Simulation time: 00 hr 29 min 43 sec)
Heartbeat CPU 0 instructions: 183000759 cycles: 259022358 heartbeat IPC: 0.9084 cumulative IPC: 0.5391 (Simulation time: 00 hr 29 min 47 sec)
Heartbeat CPU 0 instructions: 183500759 cycles: 259550118 heartbeat IPC: 0.9474 cumulative IPC: 0.5399 (Simulation time: 00 hr 29 min 51 sec)
Heartbeat CPU 0 instructions: 184000761 cycles: 260092117 heartbeat IPC: 0.9225 cumulative IPC: 0.5408 (Simulation time: 00 hr 29 min 55 sec)
Heartbeat CPU 0 instructions: 184500762 cycles: 260690763 heartbeat IPC: 0.8352 cumulative IPC: 0.5415 (Simulation time: 00 hr 30 min 00 sec)
Heartbeat CPU 0 instructions: 185000762 cycles: 261249604 heartbeat IPC: 0.8947 cumulative IPC: 0.5423 (Simulation time: 00 hr 30 min 04 sec)
Heartbeat CPU 0 instructions: 185500768 cycles: 262784710 heartbeat IPC: 0.3257 cumulative IPC: 0.541 (Simulation time: 00 hr 30 min 19 sec)
Heartbeat CPU 0 instructions: 186000772 cycles: 264129189 heartbeat IPC: 0.3719 cumulative IPC: 0.54 (Simulation time: 00 hr 30 min 28 sec)
Heartbeat CPU 0 instructions: 186500772 cycles: 265507021 heartbeat IPC: 0.3629 cumulative IPC: 0.5391 (Simulation time: 00 hr 30 min 38 sec)
Heartbeat CPU 0 instructions: 187000773 cycles: 266850834 heartbeat IPC: 0.3721 cumulative IPC: 0.5382 (Simulation time: 00 hr 30 min 47 sec)
Heartbeat CPU 0 instructions: 187500779 cycles: 268196319 heartbeat IPC: 0.3716 cumulative IPC: 0.5373 (Simulation time: 00 hr 30 min 56 sec)
Heartbeat CPU 0 instructions: 188000779 cycles: 269546679 heartbeat IPC: 0.3703 cumulative IPC: 0.5364 (Simulation time: 00 hr 31 min 05 sec)
Heartbeat CPU 0 instructions: 188500779 cycles: 270847284 heartbeat IPC: 0.3844 cumulative IPC: 0.5357 (Simulation time: 00 hr 31 min 14 sec)
Heartbeat CPU 0 instructions: 189000779 cycles: 272132551 heartbeat IPC: 0.389 cumulative IPC: 0.535 (Simulation time: 00 hr 31 min 23 sec)
Heartbeat CPU 0 instructions: 189500786 cycles: 273436024 heartbeat IPC: 0.3836 cumulative IPC: 0.5342 (Simulation time: 00 hr 31 min 32 sec)
Heartbeat CPU 0 instructions: 190000787 cycles: 274780533 heartbeat IPC: 0.3719 cumulative IPC: 0.5334 (Simulation time: 00 hr 31 min 41 sec)
Heartbeat CPU 0 instructions: 190500787 cycles: 276077687 heartbeat IPC: 0.3855 cumulative IPC: 0.5326 (Simulation time: 00 hr 31 min 50 sec)
Heartbeat CPU 0 instructions: 191000787 cycles: 277402196 heartbeat IPC: 0.3775 cumulative IPC: 0.5319 (Simulation time: 00 hr 32 min 00 sec)
Heartbeat CPU 0 instructions: 191500788 cycles: 278680153 heartbeat IPC: 0.3913 cumulative IPC: 0.5312 (Simulation time: 00 hr 32 min 08 sec)
Heartbeat CPU 0 instructions: 192000790 cycles: 280014412 heartbeat IPC: 0.3747 cumulative IPC: 0.5304 (Simulation time: 00 hr 32 min 18 sec)
Heartbeat CPU 0 instructions: 192500790 cycles: 281339522 heartbeat IPC: 0.3773 cumulative IPC: 0.5297 (Simulation time: 00 hr 32 min 27 sec)
Heartbeat CPU 0 instructions: 193000790 cycles: 282646625 heartbeat IPC: 0.3825 cumulative IPC: 0.529 (Simulation time: 00 hr 32 min 36 sec)
Heartbeat CPU 0 instructions: 193500791 cycles: 283970604 heartbeat IPC: 0.3777 cumulative IPC: 0.5282 (Simulation time: 00 hr 32 min 45 sec)
Heartbeat CPU 0 instructions: 194000794 cycles: 285297436 heartbeat IPC: 0.3768 cumulative IPC: 0.5275 (Simulation time: 00 hr 32 min 54 sec)
Heartbeat CPU 0 instructions: 194500801 cycles: 286599385 heartbeat IPC: 0.384 cumulative IPC: 0.5268 (Simulation time: 00 hr 33 min 03 sec)
Heartbeat CPU 0 instructions: 195000803 cycles: 287898621 heartbeat IPC: 0.3848 cumulative IPC: 0.5261 (Simulation time: 00 hr 33 min 12 sec)
Heartbeat CPU 0 instructions: 195500804 cycles: 289187508 heartbeat IPC: 0.3879 cumulative IPC: 0.5255 (Simulation time: 00 hr 33 min 21 sec)
Heartbeat CPU 0 instructions: 196000804 cycles: 290502722 heartbeat IPC: 0.3802 cumulative IPC: 0.5248 (Simulation time: 00 hr 33 min 30 sec)
Heartbeat CPU 0 instructions: 196500806 cycles: 291809324 heartbeat IPC: 0.3827 cumulative IPC: 0.5241 (Simulation time: 00 hr 33 min 39 sec)
Heartbeat CPU 0 instructions: 197000809 cycles: 293120441 heartbeat IPC: 0.3814 cumulative IPC: 0.5235 (Simulation time: 00 hr 33 min 48 sec)
Heartbeat CPU 0 instructions: 197500809 cycles: 294419413 heartbeat IPC: 0.3849 cumulative IPC: 0.5228 (Simulation time: 00 hr 33 min 57 sec)
Heartbeat CPU 0 instructions: 198000813 cycles: 295711394 heartbeat IPC: 0.387 cumulative IPC: 0.5222 (Simulation time: 00 hr 34 min 06 sec)
Heartbeat CPU 0 instructions: 198500815 cycles: 297006235 heartbeat IPC: 0.3861 cumulative IPC: 0.5216 (Simulation time: 00 hr 34 min 15 sec)
Heartbeat CPU 0 instructions: 199000815 cycles: 298312129 heartbeat IPC: 0.3829 cumulative IPC: 0.521 (Simulation time: 00 hr 34 min 24 sec)
Heartbeat CPU 0 instructions: 199500816 cycles: 299669618 heartbeat IPC: 0.3683 cumulative IPC: 0.5202 (Simulation time: 00 hr 34 min 33 sec)
Heartbeat CPU 0 instructions: 200000816 cycles: 300987954 heartbeat IPC: 0.3793 cumulative IPC: 0.5196 (Simulation time: 00 hr 34 min 42 sec)
Heartbeat CPU 0 instructions: 200500820 cycles: 302253608 heartbeat IPC: 0.3951 cumulative IPC: 0.519 (Simulation time: 00 hr 34 min 51 sec)
Heartbeat CPU 0 instructions: 201000820 cycles: 303502925 heartbeat IPC: 0.4002 cumulative IPC: 0.5185 (Simulation time: 00 hr 34 min 59 sec)
Heartbeat CPU 0 instructions: 201500820 cycles: 304815753 heartbeat IPC: 0.3809 cumulative IPC: 0.5179 (Simulation time: 00 hr 35 min 08 sec)
Heartbeat CPU 0 instructions: 202000826 cycles: 306134031 heartbeat IPC: 0.3793 cumulative IPC: 0.5173 (Simulation time: 00 hr 35 min 17 sec)
Heartbeat CPU 0 instructions: 202500826 cycles: 307430082 heartbeat IPC: 0.3858 cumulative IPC: 0.5167 (Simulation time: 00 hr 35 min 26 sec)
Heartbeat CPU 0 instructions: 203000826 cycles: 308731405 heartbeat IPC: 0.3842 cumulative IPC: 0.5161 (Simulation time: 00 hr 35 min 35 sec)
Heartbeat CPU 0 instructions: 203500827 cycles: 310025421 heartbeat IPC: 0.3864 cumulative IPC: 0.5156 (Simulation time: 00 hr 35 min 44 sec)
Heartbeat CPU 0 instructions: 204000827 cycles: 311308163 heartbeat IPC: 0.3898 cumulative IPC: 0.515 (Simulation time: 00 hr 35 min 53 sec)
Heartbeat CPU 0 instructions: 204500828 cycles: 312604493 heartbeat IPC: 0.3857 cumulative IPC: 0.5145 (Simulation time: 00 hr 36 min 02 sec)
Heartbeat CPU 0 instructions: 205000829 cycles: 313918370 heartbeat IPC: 0.3806 cumulative IPC: 0.5139 (Simulation time: 00 hr 36 min 11 sec)
Heartbeat CPU 0 instructions: 205500830 cycles: 315278639 heartbeat IPC: 0.3676 cumulative IPC: 0.5132 (Simulation time: 00 hr 36 min 20 sec)
Heartbeat CPU 0 instructions: 206000831 cycles: 316642603 heartbeat IPC: 0.3666 cumulative IPC: 0.5126 (Simulation time: 00 hr 36 min 29 sec)
Heartbeat CPU 0 instructions: 206500831 cycles: 318005139 heartbeat IPC: 0.367 cumulative IPC: 0.5119 (Simulation time: 00 hr 36 min 39 sec)
Heartbeat CPU 0 instructions: 207000831 cycles: 319357483 heartbeat IPC: 0.3697 cumulative IPC: 0.5113 (Simulation time: 00 hr 36 min 48 sec)
Heartbeat CPU 0 instructions: 207500831 cycles: 320668089 heartbeat IPC: 0.3815 cumulative IPC: 0.5108 (Simulation time: 00 hr 36 min 57 sec)
Heartbeat CPU 0 instructions: 208000831 cycles: 322007741 heartbeat IPC: 0.3732 cumulative IPC: 0.5102 (Simulation time: 00 hr 37 min 06 sec)
Heartbeat CPU 0 instructions: 208500837 cycles: 323302646 heartbeat IPC: 0.3861 cumulative IPC: 0.5096 (Simulation time: 00 hr 37 min 15 sec)
Heartbeat CPU 0 instructions: 209000837 cycles: 324629699 heartbeat IPC: 0.3768 cumulative IPC: 0.5091 (Simulation time: 00 hr 37 min 24 sec)
Heartbeat CPU 0 instructions: 209500837 cycles: 325996934 heartbeat IPC: 0.3657 cumulative IPC: 0.5085 (Simulation time: 00 hr 37 min 33 sec)
Heartbeat CPU 0 instructions: 210000837 cycles: 327330832 heartbeat IPC: 0.3748 cumulative IPC: 0.5079 (Simulation time: 00 hr 37 min 42 sec)
Heartbeat CPU 0 instructions: 210500839 cycles: 328690919 heartbeat IPC: 0.3676 cumulative IPC: 0.5073 (Simulation time: 00 hr 37 min 52 sec)
Heartbeat CPU 0 instructions: 211000839 cycles: 330101921 heartbeat IPC: 0.3544 cumulative IPC: 0.5066 (Simulation time: 00 hr 38 min 01 sec)
Heartbeat CPU 0 instructions: 211500842 cycles: 331458263 heartbeat IPC: 0.3686 cumulative IPC: 0.506 (Simulation time: 00 hr 38 min 10 sec)
Heartbeat CPU 0 instructions: 212000845 cycles: 332752746 heartbeat IPC: 0.3863 cumulative IPC: 0.5055 (Simulation time: 00 hr 38 min 19 sec)
Heartbeat CPU 0 instructions: 212500849 cycles: 334059055 heartbeat IPC: 0.3828 cumulative IPC: 0.505 (Simulation time: 00 hr 38 min 28 sec)
Heartbeat CPU 0 instructions: 213000849 cycles: 335385725 heartbeat IPC: 0.3769 cumulative IPC: 0.5045 (Simulation time: 00 hr 38 min 37 sec)
Heartbeat CPU 0 instructions: 213500849 cycles: 336685262 heartbeat IPC: 0.3848 cumulative IPC: 0.504 (Simulation time: 00 hr 38 min 46 sec)
Heartbeat CPU 0 instructions: 214000849 cycles: 338190337 heartbeat IPC: 0.3322 cumulative IPC: 0.5032 (Simulation time: 00 hr 38 min 56 sec)
Heartbeat CPU 0 instructions: 214500853 cycles: 339992749 heartbeat IPC: 0.2774 cumulative IPC: 0.502 (Simulation time: 00 hr 39 min 09 sec)
Heartbeat CPU 0 instructions: 215000854 cycles: 341818557 heartbeat IPC: 0.2739 cumulative IPC: 0.5007 (Simulation time: 00 hr 39 min 21 sec)
Heartbeat CPU 0 instructions: 215500854 cycles: 343635569 heartbeat IPC: 0.2752 cumulative IPC: 0.4995 (Simulation time: 00 hr 39 min 33 sec)
Heartbeat CPU 0 instructions: 216000855 cycles: 345463505 heartbeat IPC: 0.2735 cumulative IPC: 0.4983 (Simulation time: 00 hr 39 min 45 sec)
Heartbeat CPU 0 instructions: 216500855 cycles: 347289853 heartbeat IPC: 0.2738 cumulative IPC: 0.497 (Simulation time: 00 hr 39 min 57 sec)
Heartbeat CPU 0 instructions: 217000855 cycles: 349122409 heartbeat IPC: 0.2728 cumulative IPC: 0.4958 (Simulation time: 00 hr 40 min 10 sec)
Heartbeat CPU 0 instructions: 217500855 cycles: 350943477 heartbeat IPC: 0.2746 cumulative IPC: 0.4946 (Simulation time: 00 hr 40 min 22 sec)
Heartbeat CPU 0 instructions: 218000856 cycles: 352771323 heartbeat IPC: 0.2735 cumulative IPC: 0.4934 (Simulation time: 00 hr 40 min 34 sec)
Heartbeat CPU 0 instructions: 218500859 cycles: 354606384 heartbeat IPC: 0.2725 cumulative IPC: 0.4922 (Simulation time: 00 hr 40 min 46 sec)
Heartbeat CPU 0 instructions: 219000861 cycles: 356440151 heartbeat IPC: 0.2727 cumulative IPC: 0.4911 (Simulation time: 00 hr 40 min 58 sec)
Heartbeat CPU 0 instructions: 219500861 cycles: 358257637 heartbeat IPC: 0.2751 cumulative IPC: 0.4899 (Simulation time: 00 hr 41 min 11 sec)
Heartbeat CPU 0 instructions: 220000862 cycles: 360072535 heartbeat IPC: 0.2755 cumulative IPC: 0.4888 (Simulation time: 00 hr 41 min 23 sec)
Heartbeat CPU 0 instructions: 220500863 cycles: 361864719 heartbeat IPC: 0.279 cumulative IPC: 0.4877 (Simulation time: 00 hr 41 min 35 sec)
Heartbeat CPU 0 instructions: 221000863 cycles: 363692644 heartbeat IPC: 0.2735 cumulative IPC: 0.4866 (Simulation time: 00 hr 41 min 47 sec)
Heartbeat CPU 0 instructions: 221500863 cycles: 365512302 heartbeat IPC: 0.2748 cumulative IPC: 0.4855 (Simulation time: 00 hr 41 min 59 sec)
Heartbeat CPU 0 instructions: 222000864 cycles: 367300254 heartbeat IPC: 0.2797 cumulative IPC: 0.4845 (Simulation time: 00 hr 42 min 11 sec)
Heartbeat CPU 0 instructions: 222500867 cycles: 369111252 heartbeat IPC: 0.2761 cumulative IPC: 0.4834 (Simulation time: 00 hr 42 min 24 sec)
Heartbeat CPU 0 instructions: 223000874 cycles: 370925596 heartbeat IPC: 0.2756 cumulative IPC: 0.4824 (Simulation time: 00 hr 42 min 36 sec)
Heartbeat CPU 0 instructions: 223500874 cycles: 372758951 heartbeat IPC: 0.2727 cumulative IPC: 0.4813 (Simulation time: 00 hr 42 min 48 sec)
Heartbeat CPU 0 instructions: 224000874 cycles: 374601323 heartbeat IPC: 0.2714 cumulative IPC: 0.4803 (Simulation time: 00 hr 43 min 00 sec)
Heartbeat CPU 0 instructions: 224500875 cycles: 376413346 heartbeat IPC: 0.2759 cumulative IPC: 0.4792 (Simulation time: 00 hr 43 min 13 sec)
Heartbeat CPU 0 instructions: 225000876 cycles: 378235874 heartbeat IPC: 0.2743 cumulative IPC: 0.4782 (Simulation time: 00 hr 43 min 25 sec)
Heartbeat CPU 0 instructions: 225500878 cycles: 380036574 heartbeat IPC: 0.2777 cumulative IPC: 0.4772 (Simulation time: 00 hr 43 min 37 sec)
Heartbeat CPU 0 instructions: 226000878 cycles: 381839798 heartbeat IPC: 0.2773 cumulative IPC: 0.4763 (Simulation time: 00 hr 43 min 49 sec)
Heartbeat CPU 0 instructions: 226500878 cycles: 382655956 heartbeat IPC: 0.6126 cumulative IPC: 0.4766 (Simulation time: 00 hr 43 min 54 sec)
Heartbeat CPU 0 instructions: 227000878 cycles: 383360697 heartbeat IPC: 0.7095 cumulative IPC: 0.477 (Simulation time: 00 hr 44 min 00 sec)
Heartbeat CPU 0 instructions: 227500881 cycles: 384059068 heartbeat IPC: 0.716 cumulative IPC: 0.4775 (Simulation time: 00 hr 44 min 04 sec)
Heartbeat CPU 0 instructions: 228000881 cycles: 384768564 heartbeat IPC: 0.7047 cumulative IPC: 0.4779 (Simulation time: 00 hr 44 min 09 sec)
Heartbeat CPU 0 instructions: 228500884 cycles: 385448529 heartbeat IPC: 0.7353 cumulative IPC: 0.4784 (Simulation time: 00 hr 44 min 14 sec)
Heartbeat CPU 0 instructions: 229000884 cycles: 386136956 heartbeat IPC: 0.7263 cumulative IPC: 0.4788 (Simulation time: 00 hr 44 min 19 sec)
Heartbeat CPU 0 instructions: 229500885 cycles: 386830550 heartbeat IPC: 0.7209 cumulative IPC: 0.4793 (Simulation time: 00 hr 44 min 24 sec)
Heartbeat CPU 0 instructions: 230000885 cycles: 387513964 heartbeat IPC: 0.7316 cumulative IPC: 0.4797 (Simulation time: 00 hr 44 min 29 sec)
Heartbeat CPU 0 instructions: 230500886 cycles: 388188222 heartbeat IPC: 0.7416 cumulative IPC: 0.4802 (Simulation time: 00 hr 44 min 34 sec)
Heartbeat CPU 0 instructions: 231000887 cycles: 388858166 heartbeat IPC: 0.7463 cumulative IPC: 0.4807 (Simulation time: 00 hr 44 min 38 sec)
Heartbeat CPU 0 instructions: 231500887 cycles: 389525609 heartbeat IPC: 0.7491 cumulative IPC: 0.4811 (Simulation time: 00 hr 44 min 43 sec)
Heartbeat CPU 0 instructions: 232000888 cycles: 390203838 heartbeat IPC: 0.7372 cumulative IPC: 0.4816 (Simulation time: 00 hr 44 min 48 sec)
Heartbeat CPU 0 instructions: 232500891 cycles: 390884041 heartbeat IPC: 0.7351 cumulative IPC: 0.4821 (Simulation time: 00 hr 44 min 53 sec)
Heartbeat CPU 0 instructions: 233000893 cycles: 391574889 heartbeat IPC: 0.7238 cumulative IPC: 0.4825 (Simulation time: 00 hr 44 min 58 sec)
Heartbeat CPU 0 instructions: 233500893 cycles: 392233981 heartbeat IPC: 0.7586 cumulative IPC: 0.483 (Simulation time: 00 hr 45 min 02 sec)
Heartbeat CPU 0 instructions: 234000894 cycles: 392904807 heartbeat IPC: 0.7454 cumulative IPC: 0.4834 (Simulation time: 00 hr 45 min 07 sec)
Heartbeat CPU 0 instructions: 234500897 cycles: 393581841 heartbeat IPC: 0.7385 cumulative IPC: 0.4839 (Simulation time: 00 hr 45 min 12 sec)
Heartbeat CPU 0 instructions: 235000898 cycles: 394247239 heartbeat IPC: 0.7514 cumulative IPC: 0.4844 (Simulation time: 00 hr 45 min 17 sec)
Heartbeat CPU 0 instructions: 235500900 cycles: 394850884 heartbeat IPC: 0.8283 cumulative IPC: 0.4849 (Simulation time: 00 hr 45 min 21 sec)
Heartbeat CPU 0 instructions: 236000902 cycles: 394951472 heartbeat IPC: 4.971 cumulative IPC: 0.4861 (Simulation time: 00 hr 45 min 23 sec)
Heartbeat CPU 0 instructions: 236500907 cycles: 395052294 heartbeat IPC: 4.959 cumulative IPC: 0.4873 (Simulation time: 00 hr 45 min 24 sec)
Heartbeat CPU 0 instructions: 237000907 cycles: 395152840 heartbeat IPC: 4.973 cumulative IPC: 0.4884 (Simulation time: 00 hr 45 min 26 sec)
Heartbeat CPU 0 instructions: 237500909 cycles: 395253420 heartbeat IPC: 4.971 cumulative IPC: 0.4896 (Simulation time: 00 hr 45 min 27 sec)
Heartbeat CPU 0 instructions: 238000910 cycles: 395354020 heartbeat IPC: 4.97 cumulative IPC: 0.4908 (Simulation time: 00 hr 45 min 29 sec)
Heartbeat CPU 0 instructions: 238500911 cycles: 395454445 heartbeat IPC: 4.979 cumulative IPC: 0.492 (Simulation time: 00 hr 45 min 30 sec)
Heartbeat CPU 0 instructions: 239000914 cycles: 395554937 heartbeat IPC: 4.976 cumulative IPC: 0.4931 (Simulation time: 00 hr 45 min 32 sec)
Heartbeat CPU 0 instructions: 239500915 cycles: 395656574 heartbeat IPC: 4.919 cumulative IPC: 0.4943 (Simulation time: 00 hr 45 min 33 sec)
Heartbeat CPU 0 instructions: 240000918 cycles: 395757104 heartbeat IPC: 4.974 cumulative IPC: 0.4955 (Simulation time: 00 hr 45 min 35 sec)
Heartbeat CPU 0 instructions: 240500920 cycles: 395857685 heartbeat IPC: 4.971 cumulative IPC: 0.4967 (Simulation time: 00 hr 45 min 36 sec)
Heartbeat CPU 0 instructions: 241000923 cycles: 395958212 heartbeat IPC: 4.974 cumulative IPC: 0.4978 (Simulation time: 00 hr 45 min 38 sec)
Heartbeat CPU 0 instructions: 241500926 cycles: 396058657 heartbeat IPC: 4.978 cumulative IPC: 0.499 (Simulation time: 00 hr 45 min 39 sec)
Heartbeat CPU 0 instructions: 242000926 cycles: 396159136 heartbeat IPC: 4.976 cumulative IPC: 0.5002 (Simulation time: 00 hr 45 min 40 sec)
Heartbeat CPU 0 instructions: 242500928 cycles: 396259611 heartbeat IPC: 4.976 cumulative IPC: 0.5014 (Simulation time: 00 hr 45 min 42 sec)
Heartbeat CPU 0 instructions: 243000929 cycles: 396360206 heartbeat IPC: 4.97 cumulative IPC: 0.5025 (Simulation time: 00 hr 45 min 43 sec)
Heartbeat CPU 0 instructions: 243500936 cycles: 396460702 heartbeat IPC: 4.975 cumulative IPC: 0.5037 (Simulation time: 00 hr 45 min 45 sec)
Heartbeat CPU 0 instructions: 244000938 cycles: 396561522 heartbeat IPC: 4.959 cumulative IPC: 0.5049 (Simulation time: 00 hr 45 min 46 sec)
Heartbeat CPU 0 instructions: 244500944 cycles: 396661898 heartbeat IPC: 4.981 cumulative IPC: 0.506 (Simulation time: 00 hr 45 min 48 sec)
Heartbeat CPU 0 instructions: 245000946 cycles: 396762381 heartbeat IPC: 4.976 cumulative IPC: 0.5072 (Simulation time: 00 hr 45 min 49 sec)
Heartbeat CPU 0 instructions: 245500950 cycles: 396862946 heartbeat IPC: 4.972 cumulative IPC: 0.5084 (Simulation time: 00 hr 45 min 51 sec)
Heartbeat CPU 0 instructions: 246000952 cycles: 396963560 heartbeat IPC: 4.97 cumulative IPC: 0.5095 (Simulation time: 00 hr 45 min 52 sec)
Heartbeat CPU 0 instructions: 246500952 cycles: 397064006 heartbeat IPC: 4.978 cumulative IPC: 0.5107 (Simulation time: 00 hr 45 min 54 sec)
Heartbeat CPU 0 instructions: 247000955 cycles: 397318342 heartbeat IPC: 1.966 cumulative IPC: 0.5117 (Simulation time: 00 hr 45 min 56 sec)
Heartbeat CPU 0 instructions: 247500956 cycles: 397685844 heartbeat IPC: 1.361 cumulative IPC: 0.5125 (Simulation time: 00 hr 46 min 01 sec)
Heartbeat CPU 0 instructions: 248000956 cycles: 397997212 heartbeat IPC: 1.606 cumulative IPC: 0.5134 (Simulation time: 00 hr 46 min 05 sec)
Heartbeat CPU 0 instructions: 248500956 cycles: 398316978 heartbeat IPC: 1.564 cumulative IPC: 0.5142 (Simulation time: 00 hr 46 min 09 sec)
Heartbeat CPU 0 instructions: 249000956 cycles: 398594760 heartbeat IPC: 1.8 cumulative IPC: 0.5152 (Simulation time: 00 hr 46 min 13 sec)
Heartbeat CPU 0 instructions: 249500957 cycles: 398840810 heartbeat IPC: 2.032 cumulative IPC: 0.5161 (Simulation time: 00 hr 46 min 16 sec)
Simulation finished CPU 0 instructions: 200000001 cycles: 386782892 cumulative IPC: 0.5171 (Simulation time: 00 hr 46 min 19 sec)
Simulation complete CPU 0 instructions: 200000001 cycles: 386782892 cumulative IPC: 0.5171 (Simulation time: 00 hr 46 min 19 sec)

ChampSim completed all CPUs

=== Simulation ===
CPU 0 runs /local-ssd/ben/dpc4-traces/Graph/GAP/bfs-10.trace.gz

Region of Interest Statistics

CPU 0 cumulative IPC: 0.5171 instructions: 200000001 cycles: 386782892
CPU 0 Branch Prediction Accuracy: 84.9% MPKI: 32.83 Average ROB Occupancy at Mispredict: 4.336
Branch type MPKI
BRANCH_DIRECT_JUMP: 2.5e-05
BRANCH_INDIRECT: 5e-06
BRANCH_CONDITIONAL: 32.83
BRANCH_DIRECT_CALL: 7.5e-05
BRANCH_INDIRECT_CALL: 1e-05
BRANCH_RETURN: 0.00013

cpu0->cpu0_STLB TOTAL        ACCESS:     197876 HIT:      27823 MISS:     170053 MSHR_MERGE:          0
cpu0->cpu0_STLB LOAD         ACCESS:     197876 HIT:      27823 MISS:     170053 MSHR_MERGE:          0
cpu0->cpu0_STLB RFO          ACCESS:          0 HIT:          0 MISS:          0 MSHR_MERGE:          0
cpu0->cpu0_STLB PREFETCH     ACCESS:          0 HIT:          0 MISS:          0 MSHR_MERGE:          0
cpu0->cpu0_STLB WRITE        ACCESS:          0 HIT:          0 MISS:          0 MSHR_MERGE:          0
cpu0->cpu0_STLB TRANSLATION  ACCESS:          0 HIT:          0 MISS:          0 MSHR_MERGE:          0
cpu0->cpu0_STLB PREFETCH REQUESTED:          0 ISSUED:          0 USEFUL:          0 USELESS:          0
cpu0->cpu0_STLB AVERAGE MISS LATENCY: 93.45 cycles
cpu0->cpu0_L2C TOTAL        ACCESS:   28480655 HIT:   20975756 MISS:    7504899 MSHR_MERGE:    2138753
cpu0->cpu0_L2C LOAD         ACCESS:    2771017 HIT:    2254384 MISS:     516633 MSHR_MERGE:      77045
cpu0->cpu0_L2C RFO          ACCESS:     158321 HIT:      12358 MISS:     145963 MSHR_MERGE:          0
cpu0->cpu0_L2C PREFETCH     ACCESS:   24987742 HIT:   18177453 MISS:    6810289 MSHR_MERGE:    2061708
cpu0->cpu0_L2C WRITE        ACCESS:     523099 HIT:     523092 MISS:          7 MSHR_MERGE:          0
cpu0->cpu0_L2C TRANSLATION  ACCESS:      40476 HIT:       8469 MISS:      32007 MSHR_MERGE:          0
cpu0->cpu0_L2C PREFETCH REQUESTED:   21441063 ISSUED:   21295476 USEFUL:    2520011 USELESS:    1652754
cpu0->cpu0_L2C AVERAGE MISS LATENCY: 399 cycles
cpu0->cpu0_L1I TOTAL        ACCESS:    9005781 HIT:    9005765 MISS:         16 MSHR_MERGE:          1
cpu0->cpu0_L1I LOAD         ACCESS:    9005781 HIT:    9005765 MISS:         16 MSHR_MERGE:          1
cpu0->cpu0_L1I RFO          ACCESS:          0 HIT:          0 MISS:          0 MSHR_MERGE:          0
cpu0->cpu0_L1I PREFETCH     ACCESS:          0 HIT:          0 MISS:          0 MSHR_MERGE:          0
cpu0->cpu0_L1I WRITE        ACCESS:          0 HIT:          0 MISS:          0 MSHR_MERGE:          0
cpu0->cpu0_L1I TRANSLATION  ACCESS:          0 HIT:          0 MISS:          0 MSHR_MERGE:          0
cpu0->cpu0_L1I PREFETCH REQUESTED:          0 ISSUED:          0 USEFUL:          0 USELESS:          0
cpu0->cpu0_L1I AVERAGE MISS LATENCY: 423.1 cycles
cpu0->cpu0_L1D TOTAL        ACCESS:   52075519 HIT:   43045490 MISS:    9030029 MSHR_MERGE:    2367965
cpu0->cpu0_L1D LOAD         ACCESS:   41555887 HIT:   37980211 MISS:    3575676 MSHR_MERGE:     804674
cpu0->cpu0_L1D RFO          ACCESS:          0 HIT:          0 MISS:          0 MSHR_MERGE:          0
cpu0->cpu0_L1D PREFETCH     ACCESS:    4651710 HIT:     936133 MISS:    3715577 MSHR_MERGE:      23313
cpu0->cpu0_L1D WRITE        ACCESS:    5528345 HIT:    3831620 MISS:    1696725 MSHR_MERGE:    1538403
cpu0->cpu0_L1D TRANSLATION  ACCESS:     339577 HIT:     297526 MISS:      42051 MSHR_MERGE:       1575
cpu0->cpu0_L1D PREFETCH REQUESTED:    4655338 ISSUED:    4651702 USEFUL:    2446092 USELESS:    1246230
cpu0->cpu0_L1D AVERAGE MISS LATENCY: 105.6 cycles
cpu0->cpu0_ITLB TOTAL        ACCESS:    8995218 HIT:    8995218 MISS:          0 MSHR_MERGE:          0
cpu0->cpu0_ITLB LOAD         ACCESS:    8995218 HIT:    8995218 MISS:          0 MSHR_MERGE:          0
cpu0->cpu0_ITLB RFO          ACCESS:          0 HIT:          0 MISS:          0 MSHR_MERGE:          0
cpu0->cpu0_ITLB PREFETCH     ACCESS:          0 HIT:          0 MISS:          0 MSHR_MERGE:          0
cpu0->cpu0_ITLB WRITE        ACCESS:          0 HIT:          0 MISS:          0 MSHR_MERGE:          0
cpu0->cpu0_ITLB TRANSLATION  ACCESS:          0 HIT:          0 MISS:          0 MSHR_MERGE:          0
cpu0->cpu0_ITLB PREFETCH REQUESTED:          0 ISSUED:          0 USEFUL:          0 USELESS:          0
cpu0->cpu0_ITLB AVERAGE MISS LATENCY: - cycles
cpu0->cpu0_DTLB TOTAL        ACCESS:   51139253 HIT:   50853972 MISS:     285281 MSHR_MERGE:      87405
cpu0->cpu0_DTLB LOAD         ACCESS:   51139253 HIT:   50853972 MISS:     285281 MSHR_MERGE:      87405
cpu0->cpu0_DTLB RFO          ACCESS:          0 HIT:          0 MISS:          0 MSHR_MERGE:          0
cpu0->cpu0_DTLB PREFETCH     ACCESS:          0 HIT:          0 MISS:          0 MSHR_MERGE:          0
cpu0->cpu0_DTLB WRITE        ACCESS:          0 HIT:          0 MISS:          0 MSHR_MERGE:          0
cpu0->cpu0_DTLB TRANSLATION  ACCESS:          0 HIT:          0 MISS:          0 MSHR_MERGE:          0
cpu0->cpu0_DTLB PREFETCH REQUESTED:          0 ISSUED:          0 USEFUL:          0 USELESS:          0
cpu0->cpu0_DTLB AVERAGE MISS LATENCY: 86.17 cycles
cpu0->LLC TOTAL        ACCESS:    5881659 HIT:     582125 MISS:    5299534 MSHR_MERGE:          0
cpu0->LLC LOAD         ACCESS:     439588 HIT:      22039 MISS:     417549 MSHR_MERGE:          0
cpu0->LLC RFO          ACCESS:     145963 HIT:      49386 MISS:      96577 MSHR_MERGE:          0
cpu0->LLC PREFETCH     ACCESS:    4748581 HIT:     316143 MISS:    4432438 MSHR_MERGE:          0
cpu0->LLC WRITE        ACCESS:     515520 HIT:     194413 MISS:     321107 MSHR_MERGE:          0
cpu0->LLC TRANSLATION  ACCESS:      32007 HIT:        144 MISS:      31863 MSHR_MERGE:          0
cpu0->LLC PREFETCH REQUESTED:          0 ISSUED:          0 USEFUL:          0 USELESS:          0
cpu0->LLC AVERAGE MISS LATENCY: 290.8 cycles

DRAM Statistics

Channel 0 RQ ROW_BUFFER_HIT:     643505
  ROW_BUFFER_MISS:    4334449
  AVG DBUS CONGESTED CYCLE: 4.076
Channel 0 WQ ROW_BUFFER_HIT:      46903
  ROW_BUFFER_MISS:     326731
  FULL:       8218
Channel 0 REFRESHES ISSUED:      32232
