[VMEM] WARNING: physical memory size is smaller than virtual memory size.

*** ChampSim Multicore Out-of-Order Simulator ***
Warmup Instructions: 50000000
Simulation Instructions: 200000000
Number of CPUs: 1
Page size: 4096
Core 0: /local-ssd/ben/dpc4-traces/gtraces_v2/charlie_0000.champsim.gz
 L1D Berti prefetcher
Off-chip DRAM Size: 64 GiB Channels: 1 Width: 64-bit Data Rate: 800 MT/s
[BTB] WARNING: target of return is a lower address than the corresponding call. This is usually a problem with your trace.
[BTB] WARNING: target of return is a lower address than the corresponding call. This is usually a problem with your trace.
Heartbeat CPU 0 instructions: 500006 cycles: 303447 heartbeat IPC: 1.648 cumulative IPC: 1.648 (Simulation time: 00 hr 00 min 05 sec)
Heartbeat CPU 0 instructions: 1000011 cycles: 494243 heartbeat IPC: 2.621 cumulative IPC: 2.023 (Simulation time: 00 hr 00 min 07 sec)
[BTB] WARNING: target of return is a lower address than the corresponding call. This is usually a problem with your trace.
Heartbeat CPU 0 instructions: 1500012 cycles: 663641 heartbeat IPC: 2.952 cumulative IPC: 2.26 (Simulation time: 00 hr 00 min 10 sec)
[BTB] WARNING: target of return is a lower address than the corresponding call. This is usually a problem with your trace.
[BTB] WARNING: target of return is a lower address than the corresponding call. This is usually a problem with your trace.
Heartbeat CPU 0 instructions: 2000012 cycles: 799163 heartbeat IPC: 3.689 cumulative IPC: 2.503 (Simulation time: 00 hr 00 min 11 sec)
[BTB] WARNING: target of return is a lower address than the corresponding call. This is usually a problem with your trace.
[BTB] WARNING: target of return is a lower address than the corresponding call. This is usually a problem with your trace.
[BTB] WARNING: target of return is a lower address than the corresponding call. This is usually a problem with your trace.
[BTB] WARNING: target of return is a lower address than the corresponding call. This is usually a problem with your trace.
[BTB] WARNING: target of return is a lower address than the corresponding call. This is usually a problem with your trace.
Heartbeat CPU 0 instructions: 2500014 cycles: 948653 heartbeat IPC: 3.345 cumulative IPC: 2.635 (Simulation time: 00 hr 00 min 13 sec)
Heartbeat CPU 0 instructions: 3000021 cycles: 1057612 heartbeat IPC: 4.589 cumulative IPC: 2.837 (Simulation time: 00 hr 00 min 15 sec)
Heartbeat CPU 0 instructions: 3500023 cycles: 1164939 heartbeat IPC: 4.659 cumulative IPC: 3.004 (Simulation time: 00 hr 00 min 16 sec)
Heartbeat CPU 0 instructions: 4000027 cycles: 1272549 heartbeat IPC: 4.646 cumulative IPC: 3.143 (Simulation time: 00 hr 00 min 18 sec)
Heartbeat CPU 0 instructions: 4500034 cycles: 1378690 heartbeat IPC: 4.711 cumulative IPC: 3.264 (Simulation time: 00 hr 00 min 19 sec)
Heartbeat CPU 0 instructions: 5000034 cycles: 1484444 heartbeat IPC: 4.728 cumulative IPC: 3.368 (Simulation time: 00 hr 00 min 21 sec)
Heartbeat CPU 0 instructions: 5500036 cycles: 1589144 heartbeat IPC: 4.776 cumulative IPC: 3.461 (Simulation time: 00 hr 00 min 23 sec)
Heartbeat CPU 0 instructions: 6000036 cycles: 1693772 heartbeat IPC: 4.779 cumulative IPC: 3.542 (Simulation time: 00 hr 00 min 24 sec)
Heartbeat CPU 0 instructions: 6500040 cycles: 1801769 heartbeat IPC: 4.63 cumulative IPC: 3.608 (Simulation time: 00 hr 00 min 26 sec)
Heartbeat CPU 0 instructions: 7000044 cycles: 1908322 heartbeat IPC: 4.693 cumulative IPC: 3.668 (Simulation time: 00 hr 00 min 27 sec)
Heartbeat CPU 0 instructions: 7500049 cycles: 2018245 heartbeat IPC: 4.549 cumulative IPC: 3.716 (Simulation time: 00 hr 00 min 29 sec)
Heartbeat CPU 0 instructions: 8000052 cycles: 2124045 heartbeat IPC: 4.726 cumulative IPC: 3.766 (Simulation time: 00 hr 00 min 31 sec)
Heartbeat CPU 0 instructions: 8500058 cycles: 2231299 heartbeat IPC: 4.662 cumulative IPC: 3.809 (Simulation time: 00 hr 00 min 32 sec)
Heartbeat CPU 0 instructions: 9000060 cycles: 2341792 heartbeat IPC: 4.525 cumulative IPC: 3.843 (Simulation time: 00 hr 00 min 34 sec)
Heartbeat CPU 0 instructions: 9500062 cycles: 2445108 heartbeat IPC: 4.84 cumulative IPC: 3.885 (Simulation time: 00 hr 00 min 36 sec)
Heartbeat CPU 0 instructions: 10000069 cycles: 2548828 heartbeat IPC: 4.821 cumulative IPC: 3.923 (Simulation time: 00 hr 00 min 37 sec)
Heartbeat CPU 0 instructions: 10500076 cycles: 2653165 heartbeat IPC: 4.792 cumulative IPC: 3.958 (Simulation time: 00 hr 00 min 39 sec)
Heartbeat CPU 0 instructions: 11000079 cycles: 2758325 heartbeat IPC: 4.755 cumulative IPC: 3.988 (Simulation time: 00 hr 00 min 40 sec)
Heartbeat CPU 0 instructions: 11500082 cycles: 2862745 heartbeat IPC: 4.788 cumulative IPC: 4.017 (Simulation time: 00 hr 00 min 42 sec)
Heartbeat CPU 0 instructions: 12000085 cycles: 2980783 heartbeat IPC: 4.236 cumulative IPC: 4.026 (Simulation time: 00 hr 00 min 44 sec)
Heartbeat CPU 0 instructions: 12500086 cycles: 3110354 heartbeat IPC: 3.859 cumulative IPC: 4.019 (Simulation time: 00 hr 00 min 46 sec)
Heartbeat CPU 0 instructions: 13000093 cycles: 3219718 heartbeat IPC: 4.572 cumulative IPC: 4.038 (Simulation time: 00 hr 00 min 47 sec)
Heartbeat CPU 0 instructions: 13500096 cycles: 3323913 heartbeat IPC: 4.799 cumulative IPC: 4.062 (Simulation time: 00 hr 00 min 49 sec)
Heartbeat CPU 0 instructions: 14000099 cycles: 3430055 heartbeat IPC: 4.711 cumulative IPC: 4.082 (Simulation time: 00 hr 00 min 51 sec)
Heartbeat CPU 0 instructions: 14500100 cycles: 3535595 heartbeat IPC: 4.738 cumulative IPC: 4.101 (Simulation time: 00 hr 00 min 52 sec)
Heartbeat CPU 0 instructions: 15000100 cycles: 3640211 heartbeat IPC: 4.779 cumulative IPC: 4.121 (Simulation time: 00 hr 00 min 54 sec)
Heartbeat CPU 0 instructions: 15500106 cycles: 3744611 heartbeat IPC: 4.789 cumulative IPC: 4.139 (Simulation time: 00 hr 00 min 55 sec)
Heartbeat CPU 0 instructions: 16000107 cycles: 3850421 heartbeat IPC: 4.725 cumulative IPC: 4.155 (Simulation time: 00 hr 00 min 57 sec)
Heartbeat CPU 0 instructions: 16500110 cycles: 3958837 heartbeat IPC: 4.612 cumulative IPC: 4.168 (Simulation time: 00 hr 00 min 59 sec)
Heartbeat CPU 0 instructions: 17000115 cycles: 4066885 heartbeat IPC: 4.628 cumulative IPC: 4.18 (Simulation time: 00 hr 01 min 01 sec)
Heartbeat CPU 0 instructions: 17500120 cycles: 4173412 heartbeat IPC: 4.694 cumulative IPC: 4.193 (Simulation time: 00 hr 01 min 02 sec)
Heartbeat CPU 0 instructions: 18000122 cycles: 4279742 heartbeat IPC: 4.702 cumulative IPC: 4.206 (Simulation time: 00 hr 01 min 04 sec)
Heartbeat CPU 0 instructions: 18500129 cycles: 4386417 heartbeat IPC: 4.687 cumulative IPC: 4.218 (Simulation time: 00 hr 01 min 06 sec)
Heartbeat CPU 0 instructions: 19000136 cycles: 4528696 heartbeat IPC: 3.514 cumulative IPC: 4.195 (Simulation time: 00 hr 01 min 08 sec)
Heartbeat CPU 0 instructions: 19500140 cycles: 4631257 heartbeat IPC: 4.875 cumulative IPC: 4.211 (Simulation time: 00 hr 01 min 09 sec)
Heartbeat CPU 0 instructions: 20000140 cycles: 4733035 heartbeat IPC: 4.913 cumulative IPC: 4.226 (Simulation time: 00 hr 01 min 10 sec)
Heartbeat CPU 0 instructions: 20500144 cycles: 4835658 heartbeat IPC: 4.872 cumulative IPC: 4.239 (Simulation time: 00 hr 01 min 11 sec)
Heartbeat CPU 0 instructions: 21000150 cycles: 4937220 heartbeat IPC: 4.923 cumulative IPC: 4.253 (Simulation time: 00 hr 01 min 13 sec)
Heartbeat CPU 0 instructions: 21500150 cycles: 5043413 heartbeat IPC: 4.708 cumulative IPC: 4.263 (Simulation time: 00 hr 01 min 14 sec)
Heartbeat CPU 0 instructions: 22000154 cycles: 5224098 heartbeat IPC: 2.767 cumulative IPC: 4.211 (Simulation time: 00 hr 01 min 17 sec)
Heartbeat CPU 0 instructions: 22500156 cycles: 5422997 heartbeat IPC: 2.514 cumulative IPC: 4.149 (Simulation time: 00 hr 01 min 20 sec)
Heartbeat CPU 0 instructions: 23000159 cycles: 5550151 heartbeat IPC: 3.932 cumulative IPC: 4.144 (Simulation time: 00 hr 01 min 21 sec)
Heartbeat CPU 0 instructions: 23500164 cycles: 5678281 heartbeat IPC: 3.902 cumulative IPC: 4.139 (Simulation time: 00 hr 01 min 23 sec)
Heartbeat CPU 0 instructions: 24000165 cycles: 5842034 heartbeat IPC: 3.053 cumulative IPC: 4.108 (Simulation time: 00 hr 01 min 26 sec)
Heartbeat CPU 0 instructions: 24500171 cycles: 5947555 heartbeat IPC: 4.738 cumulative IPC: 4.119 (Simulation time: 00 hr 01 min 27 sec)
Heartbeat CPU 0 instructions: 25000171 cycles: 6051721 heartbeat IPC: 4.8 cumulative IPC: 4.131 (Simulation time: 00 hr 01 min 29 sec)
Heartbeat CPU 0 instructions: 25500173 cycles: 6158570 heartbeat IPC: 4.68 cumulative IPC: 4.141 (Simulation time: 00 hr 01 min 31 sec)
Heartbeat CPU 0 instructions: 26000177 cycles: 6262918 heartbeat IPC: 4.792 cumulative IPC: 4.151 (Simulation time: 00 hr 01 min 32 sec)
Heartbeat CPU 0 instructions: 26500184 cycles: 6367962 heartbeat IPC: 4.76 cumulative IPC: 4.161 (Simulation time: 00 hr 01 min 34 sec)
Heartbeat CPU 0 instructions: 27000189 cycles: 6471875 heartbeat IPC: 4.812 cumulative IPC: 4.172 (Simulation time: 00 hr 01 min 36 sec)
Heartbeat CPU 0 instructions: 27500192 cycles: 6595794 heartbeat IPC: 4.035 cumulative IPC: 4.169 (Simulation time: 00 hr 01 min 37 sec)
Heartbeat CPU 0 instructions: 28000195 cycles: 6700220 heartbeat IPC: 4.788 cumulative IPC: 4.179 (Simulation time: 00 hr 01 min 39 sec)
Heartbeat CPU 0 instructions: 28500195 cycles: 6805072 heartbeat IPC: 4.769 cumulative IPC: 4.188 (Simulation time: 00 hr 01 min 41 sec)
Heartbeat CPU 0 instructions: 29000196 cycles: 6914490 heartbeat IPC: 4.57 cumulative IPC: 4.194 (Simulation time: 00 hr 01 min 42 sec)
Heartbeat CPU 0 instructions: 29500196 cycles: 7047956 heartbeat IPC: 3.746 cumulative IPC: 4.186 (Simulation time: 00 hr 01 min 44 sec)
Heartbeat CPU 0 instructions: 30000199 cycles: 7149315 heartbeat IPC: 4.933 cumulative IPC: 4.196 (Simulation time: 00 hr 01 min 46 sec)
Heartbeat CPU 0 instructions: 30500206 cycles: 7250966 heartbeat IPC: 4.919 cumulative IPC: 4.206 (Simulation time: 00 hr 01 min 47 sec)
Heartbeat CPU 0 instructions: 31000207 cycles: 7351394 heartbeat IPC: 4.979 cumulative IPC: 4.217 (Simulation time: 00 hr 01 min 48 sec)
Heartbeat CPU 0 instructions: 31500208 cycles: 7451393 heartbeat IPC: 5 cumulative IPC: 4.227 (Simulation time: 00 hr 01 min 50 sec)
Heartbeat CPU 0 instructions: 32000213 cycles: 7555700 heartbeat IPC: 4.794 cumulative IPC: 4.235 (Simulation time: 00 hr 01 min 51 sec)
Heartbeat CPU 0 instructions: 32500216 cycles: 7674846 heartbeat IPC: 4.197 cumulative IPC: 4.235 (Simulation time: 00 hr 01 min 53 sec)
Heartbeat CPU 0 instructions: 33000216 cycles: 7780277 heartbeat IPC: 4.742 cumulative IPC: 4.242 (Simulation time: 00 hr 01 min 54 sec)
Heartbeat CPU 0 instructions: 33500220 cycles: 7894902 heartbeat IPC: 4.362 cumulative IPC: 4.243 (Simulation time: 00 hr 01 min 56 sec)
Heartbeat CPU 0 instructions: 34000224 cycles: 8004975 heartbeat IPC: 4.542 cumulative IPC: 4.247 (Simulation time: 00 hr 01 min 58 sec)
Heartbeat CPU 0 instructions: 34500225 cycles: 8119925 heartbeat IPC: 4.35 cumulative IPC: 4.249 (Simulation time: 00 hr 02 min 00 sec)
Heartbeat CPU 0 instructions: 35000229 cycles: 8231148 heartbeat IPC: 4.496 cumulative IPC: 4.252 (Simulation time: 00 hr 02 min 01 sec)
Heartbeat CPU 0 instructions: 35500233 cycles: 8352296 heartbeat IPC: 4.127 cumulative IPC: 4.25 (Simulation time: 00 hr 02 min 03 sec)
Heartbeat CPU 0 instructions: 36000233 cycles: 8463673 heartbeat IPC: 4.489 cumulative IPC: 4.253 (Simulation time: 00 hr 02 min 05 sec)
Heartbeat CPU 0 instructions: 36500237 cycles: 8590298 heartbeat IPC: 3.949 cumulative IPC: 4.249 (Simulation time: 00 hr 02 min 07 sec)
Heartbeat CPU 0 instructions: 37000237 cycles: 8692523 heartbeat IPC: 4.891 cumulative IPC: 4.257 (Simulation time: 00 hr 02 min 08 sec)
Heartbeat CPU 0 instructions: 37500241 cycles: 8793390 heartbeat IPC: 4.957 cumulative IPC: 4.265 (Simulation time: 00 hr 02 min 09 sec)
Heartbeat CPU 0 instructions: 38000241 cycles: 8893736 heartbeat IPC: 4.983 cumulative IPC: 4.273 (Simulation time: 00 hr 02 min 11 sec)
Heartbeat CPU 0 instructions: 38500248 cycles: 8993737 heartbeat IPC: 5 cumulative IPC: 4.281 (Simulation time: 00 hr 02 min 12 sec)
Heartbeat CPU 0 instructions: 39000254 cycles: 9098613 heartbeat IPC: 4.768 cumulative IPC: 4.286 (Simulation time: 00 hr 02 min 13 sec)
Heartbeat CPU 0 instructions: 39500254 cycles: 9222571 heartbeat IPC: 4.034 cumulative IPC: 4.283 (Simulation time: 00 hr 02 min 15 sec)
Heartbeat CPU 0 instructions: 40000256 cycles: 9326908 heartbeat IPC: 4.792 cumulative IPC: 4.289 (Simulation time: 00 hr 02 min 17 sec)
Heartbeat CPU 0 instructions: 40500257 cycles: 9431461 heartbeat IPC: 4.782 cumulative IPC: 4.294 (Simulation time: 00 hr 02 min 18 sec)
Heartbeat CPU 0 instructions: 41000261 cycles: 9534469 heartbeat IPC: 4.854 cumulative IPC: 4.3 (Simulation time: 00 hr 02 min 20 sec)
Heartbeat CPU 0 instructions: 41500262 cycles: 9640530 heartbeat IPC: 4.714 cumulative IPC: 4.305 (Simulation time: 00 hr 02 min 22 sec)
Heartbeat CPU 0 instructions: 42000267 cycles: 9746751 heartbeat IPC: 4.707 cumulative IPC: 4.309 (Simulation time: 00 hr 02 min 23 sec)
Heartbeat CPU 0 instructions: 42500268 cycles: 9851419 heartbeat IPC: 4.777 cumulative IPC: 4.314 (Simulation time: 00 hr 02 min 25 sec)
Heartbeat CPU 0 instructions: 43000274 cycles: 9954312 heartbeat IPC: 4.859 cumulative IPC: 4.32 (Simulation time: 00 hr 02 min 26 sec)
Heartbeat CPU 0 instructions: 43500280 cycles: 10061225 heartbeat IPC: 4.677 cumulative IPC: 4.324 (Simulation time: 00 hr 02 min 28 sec)
Heartbeat CPU 0 instructions: 44000281 cycles: 10166679 heartbeat IPC: 4.741 cumulative IPC: 4.328 (Simulation time: 00 hr 02 min 30 sec)
Heartbeat CPU 0 instructions: 44500288 cycles: 10270959 heartbeat IPC: 4.795 cumulative IPC: 4.333 (Simulation time: 00 hr 02 min 31 sec)
Heartbeat CPU 0 instructions: 45000290 cycles: 10374578 heartbeat IPC: 4.825 cumulative IPC: 4.338 (Simulation time: 00 hr 02 min 33 sec)
Heartbeat CPU 0 instructions: 45500295 cycles: 10480261 heartbeat IPC: 4.731 cumulative IPC: 4.342 (Simulation time: 00 hr 02 min 35 sec)
Heartbeat CPU 0 instructions: 46000301 cycles: 10590638 heartbeat IPC: 4.53 cumulative IPC: 4.343 (Simulation time: 00 hr 02 min 36 sec)
Heartbeat CPU 0 instructions: 46500303 cycles: 10693116 heartbeat IPC: 4.879 cumulative IPC: 4.349 (Simulation time: 00 hr 02 min 38 sec)
Heartbeat CPU 0 instructions: 47000306 cycles: 10796415 heartbeat IPC: 4.84 cumulative IPC: 4.353 (Simulation time: 00 hr 02 min 40 sec)
Heartbeat CPU 0 instructions: 47500307 cycles: 10944676 heartbeat IPC: 3.372 cumulative IPC: 4.34 (Simulation time: 00 hr 02 min 42 sec)
Heartbeat CPU 0 instructions: 48000312 cycles: 11046317 heartbeat IPC: 4.919 cumulative IPC: 4.345 (Simulation time: 00 hr 02 min 43 sec)
Heartbeat CPU 0 instructions: 48500314 cycles: 11186781 heartbeat IPC: 3.56 cumulative IPC: 4.336 (Simulation time: 00 hr 02 min 45 sec)
Heartbeat CPU 0 instructions: 49000315 cycles: 11287735 heartbeat IPC: 4.953 cumulative IPC: 4.341 (Simulation time: 00 hr 02 min 46 sec)
Heartbeat CPU 0 instructions: 49500316 cycles: 11387736 heartbeat IPC: 5 cumulative IPC: 4.347 (Simulation time: 00 hr 02 min 47 sec)
Warmup finished CPU 0 instructions: 50000005 cycles: 11489686 cumulative IPC: 4.352 (Simulation time: 00 hr 02 min 49 sec)
Warmup complete CPU 0 instructions: 50000005 cycles: 11489686 cumulative IPC: 4.352 (Simulation time: 00 hr 02 min 49 sec)
Heartbeat CPU 0 instructions: 50000317 cycles: 11489987 heartbeat IPC: 4.89 cumulative IPC: 1.037 (Simulation time: 00 hr 02 min 49 sec)
Heartbeat CPU 0 instructions: 50500317 cycles: 12535667 heartbeat IPC: 0.4782 cumulative IPC: 0.4783 (Simulation time: 00 hr 02 min 56 sec)
Heartbeat CPU 0 instructions: 51000317 cycles: 13301159 heartbeat IPC: 0.6532 cumulative IPC: 0.5522 (Simulation time: 00 hr 03 min 01 sec)
Heartbeat CPU 0 instructions: 51500323 cycles: 13696646 heartbeat IPC: 1.264 cumulative IPC: 0.6798 (Simulation time: 00 hr 03 min 05 sec)
Heartbeat CPU 0 instructions: 52000326 cycles: 14083812 heartbeat IPC: 1.291 cumulative IPC: 0.7711 (Simulation time: 00 hr 03 min 08 sec)
Heartbeat CPU 0 instructions: 52500327 cycles: 14474185 heartbeat IPC: 1.281 cumulative IPC: 0.8378 (Simulation time: 00 hr 03 min 11 sec)
Heartbeat CPU 0 instructions: 53000328 cycles: 15067854 heartbeat IPC: 0.8422 cumulative IPC: 0.8385 (Simulation time: 00 hr 03 min 16 sec)
Heartbeat CPU 0 instructions: 53500330 cycles: 15369076 heartbeat IPC: 1.66 cumulative IPC: 0.9023 (Simulation time: 00 hr 03 min 18 sec)
Heartbeat CPU 0 instructions: 54000335 cycles: 15650452 heartbeat IPC: 1.777 cumulative IPC: 0.9614 (Simulation time: 00 hr 03 min 20 sec)
Heartbeat CPU 0 instructions: 54500336 cycles: 15938487 heartbeat IPC: 1.736 cumulative IPC: 1.012 (Simulation time: 00 hr 03 min 23 sec)
Heartbeat CPU 0 instructions: 55000337 cycles: 16191490 heartbeat IPC: 1.976 cumulative IPC: 1.063 (Simulation time: 00 hr 03 min 25 sec)
Heartbeat CPU 0 instructions: 55500339 cycles: 16439675 heartbeat IPC: 2.015 cumulative IPC: 1.111 (Simulation time: 00 hr 03 min 27 sec)
Heartbeat CPU 0 instructions: 56000346 cycles: 17428546 heartbeat IPC: 0.5056 cumulative IPC: 1.01 (Simulation time: 00 hr 03 min 34 sec)
Heartbeat CPU 0 instructions: 56500350 cycles: 18484149 heartbeat IPC: 0.4737 cumulative IPC: 0.9294 (Simulation time: 00 hr 03 min 42 sec)
Heartbeat CPU 0 instructions: 57000350 cycles: 20592131 heartbeat IPC: 0.2372 cumulative IPC: 0.7691 (Simulation time: 00 hr 03 min 55 sec)
Heartbeat CPU 0 instructions: 57500352 cycles: 21205033 heartbeat IPC: 0.8158 cumulative IPC: 0.772 (Simulation time: 00 hr 03 min 59 sec)
Heartbeat CPU 0 instructions: 58000355 cycles: 21562551 heartbeat IPC: 1.399 cumulative IPC: 0.7942 (Simulation time: 00 hr 04 min 02 sec)
Heartbeat CPU 0 instructions: 58500357 cycles: 22037578 heartbeat IPC: 1.053 cumulative IPC: 0.8059 (Simulation time: 00 hr 04 min 06 sec)
Heartbeat CPU 0 instructions: 59000359 cycles: 22394535 heartbeat IPC: 1.401 cumulative IPC: 0.8254 (Simulation time: 00 hr 04 min 09 sec)
Heartbeat CPU 0 instructions: 59500360 cycles: 22763450 heartbeat IPC: 1.355 cumulative IPC: 0.8427 (Simulation time: 00 hr 04 min 13 sec)
Heartbeat CPU 0 instructions: 60000361 cycles: 23139220 heartbeat IPC: 1.331 cumulative IPC: 0.8584 (Simulation time: 00 hr 04 min 16 sec)
Heartbeat CPU 0 instructions: 60500362 cycles: 23443234 heartbeat IPC: 1.645 cumulative IPC: 0.8784 (Simulation time: 00 hr 04 min 19 sec)
Heartbeat CPU 0 instructions: 61000367 cycles: 24455100 heartbeat IPC: 0.4941 cumulative IPC: 0.8484 (Simulation time: 00 hr 04 min 26 sec)
Heartbeat CPU 0 instructions: 61500367 cycles: 24892034 heartbeat IPC: 1.144 cumulative IPC: 0.8581 (Simulation time: 00 hr 04 min 30 sec)
Heartbeat CPU 0 instructions: 62000370 cycles: 25261904 heartbeat IPC: 1.352 cumulative IPC: 0.8713 (Simulation time: 00 hr 04 min 33 sec)
Heartbeat CPU 0 instructions: 62500370 cycles: 25740235 heartbeat IPC: 1.045 cumulative IPC: 0.8772 (Simulation time: 00 hr 04 min 37 sec)
Heartbeat CPU 0 instructions: 63000375 cycles: 26144546 heartbeat IPC: 1.237 cumulative IPC: 0.8871 (Simulation time: 00 hr 04 min 40 sec)
Heartbeat CPU 0 instructions: 63500378 cycles: 26451106 heartbeat IPC: 1.631 cumulative IPC: 0.9023 (Simulation time: 00 hr 04 min 43 sec)
Heartbeat CPU 0 instructions: 64000380 cycles: 26826318 heartbeat IPC: 1.333 cumulative IPC: 0.9129 (Simulation time: 00 hr 04 min 46 sec)
Heartbeat CPU 0 instructions: 64500381 cycles: 27180447 heartbeat IPC: 1.412 cumulative IPC: 0.9241 (Simulation time: 00 hr 04 min 49 sec)
Heartbeat CPU 0 instructions: 65000385 cycles: 27535102 heartbeat IPC: 1.41 cumulative IPC: 0.9349 (Simulation time: 00 hr 04 min 52 sec)
Heartbeat CPU 0 instructions: 65500388 cycles: 27884847 heartbeat IPC: 1.43 cumulative IPC: 0.9454 (Simulation time: 00 hr 04 min 56 sec)
Heartbeat CPU 0 instructions: 66000392 cycles: 28220501 heartbeat IPC: 1.49 cumulative IPC: 0.9563 (Simulation time: 00 hr 04 min 59 sec)
Heartbeat CPU 0 instructions: 66500395 cycles: 28567880 heartbeat IPC: 1.439 cumulative IPC: 0.9662 (Simulation time: 00 hr 05 min 02 sec)
Heartbeat CPU 0 instructions: 67000398 cycles: 28938793 heartbeat IPC: 1.348 cumulative IPC: 0.9743 (Simulation time: 00 hr 05 min 05 sec)
Heartbeat CPU 0 instructions: 67500403 cycles: 29330389 heartbeat IPC: 1.277 cumulative IPC: 0.9809 (Simulation time: 00 hr 05 min 08 sec)
Heartbeat CPU 0 instructions: 68000404 cycles: 29588470 heartbeat IPC: 1.937 cumulative IPC: 0.9946 (Simulation time: 00 hr 05 min 11 sec)
Heartbeat CPU 0 instructions: 68500406 cycles: 29916094 heartbeat IPC: 1.526 cumulative IPC: 1.004 (Simulation time: 00 hr 05 min 14 sec)
Heartbeat CPU 0 instructions: 69000407 cycles: 30274472 heartbeat IPC: 1.395 cumulative IPC: 1.011 (Simulation time: 00 hr 05 min 17 sec)
Heartbeat CPU 0 instructions: 69500408 cycles: 30716056 heartbeat IPC: 1.132 cumulative IPC: 1.014 (Simulation time: 00 hr 05 min 21 sec)
Heartbeat CPU 0 instructions: 70000408 cycles: 31141305 heartbeat IPC: 1.176 cumulative IPC: 1.018 (Simulation time: 00 hr 05 min 25 sec)
Heartbeat CPU 0 instructions: 70500415 cycles: 31480885 heartbeat IPC: 1.472 cumulative IPC: 1.025 (Simulation time: 00 hr 05 min 28 sec)
Heartbeat CPU 0 instructions: 71000417 cycles: 33508619 heartbeat IPC: 0.2466 cumulative IPC: 0.9537 (Simulation time: 00 hr 05 min 40 sec)
Heartbeat CPU 0 instructions: 71500419 cycles: 33823701 heartbeat IPC: 1.587 cumulative IPC: 0.9627 (Simulation time: 00 hr 05 min 42 sec)
Heartbeat CPU 0 instructions: 72000420 cycles: 34118357 heartbeat IPC: 1.697 cumulative IPC: 0.9722 (Simulation time: 00 hr 05 min 45 sec)
Heartbeat CPU 0 instructions: 72500420 cycles: 34417447 heartbeat IPC: 1.672 cumulative IPC: 0.9814 (Simulation time: 00 hr 05 min 47 sec)
Heartbeat CPU 0 instructions: 73000421 cycles: 34683000 heartbeat IPC: 1.883 cumulative IPC: 0.9917 (Simulation time: 00 hr 05 min 49 sec)
Heartbeat CPU 0 instructions: 73500421 cycles: 34920640 heartbeat IPC: 2.104 cumulative IPC: 1.003 (Simulation time: 00 hr 05 min 51 sec)
Heartbeat CPU 0 instructions: 74000424 cycles: 35486945 heartbeat IPC: 0.8829 cumulative IPC: 1 (Simulation time: 00 hr 05 min 56 sec)
Heartbeat CPU 0 instructions: 74500424 cycles: 36013573 heartbeat IPC: 0.9494 cumulative IPC: 0.999 (Simulation time: 00 hr 06 min 00 sec)
Heartbeat CPU 0 instructions: 75000425 cycles: 36299866 heartbeat IPC: 1.746 cumulative IPC: 1.008 (Simulation time: 00 hr 06 min 03 sec)
Heartbeat CPU 0 instructions: 75500425 cycles: 36889926 heartbeat IPC: 0.8474 cumulative IPC: 1.004 (Simulation time: 00 hr 06 min 07 sec)
Heartbeat CPU 0 instructions: 76000425 cycles: 37200147 heartbeat IPC: 1.612 cumulative IPC: 1.011 (Simulation time: 00 hr 06 min 10 sec)
Heartbeat CPU 0 instructions: 76500429 cycles: 37484539 heartbeat IPC: 1.758 cumulative IPC: 1.019 (Simulation time: 00 hr 06 min 13 sec)
Heartbeat CPU 0 instructions: 77000432 cycles: 37811837 heartbeat IPC: 1.528 cumulative IPC: 1.026 (Simulation time: 00 hr 06 min 16 sec)
Heartbeat CPU 0 instructions: 77500437 cycles: 38258086 heartbeat IPC: 1.12 cumulative IPC: 1.027 (Simulation time: 00 hr 06 min 20 sec)
Heartbeat CPU 0 instructions: 78000437 cycles: 38585486 heartbeat IPC: 1.527 cumulative IPC: 1.033 (Simulation time: 00 hr 06 min 23 sec)
Heartbeat CPU 0 instructions: 78500437 cycles: 38870293 heartbeat IPC: 1.756 cumulative IPC: 1.041 (Simulation time: 00 hr 06 min 25 sec)
Heartbeat CPU 0 instructions: 79000437 cycles: 39263437 heartbeat IPC: 1.272 cumulative IPC: 1.044 (Simulation time: 00 hr 06 min 29 sec)
Heartbeat CPU 0 instructions: 79500442 cycles: 39605713 heartbeat IPC: 1.461 cumulative IPC: 1.049 (Simulation time: 00 hr 06 min 32 sec)
Heartbeat CPU 0 instructions: 80000442 cycles: 39907148 heartbeat IPC: 1.659 cumulative IPC: 1.056 (Simulation time: 00 hr 06 min 35 sec)
Heartbeat CPU 0 instructions: 80500442 cycles: 40248505 heartbeat IPC: 1.465 cumulative IPC: 1.061 (Simulation time: 00 hr 06 min 38 sec)
Heartbeat CPU 0 instructions: 81000445 cycles: 40587967 heartbeat IPC: 1.473 cumulative IPC: 1.065 (Simulation time: 00 hr 06 min 41 sec)
Heartbeat CPU 0 instructions: 81500450 cycles: 40970435 heartbeat IPC: 1.307 cumulative IPC: 1.069 (Simulation time: 00 hr 06 min 45 sec)
Heartbeat CPU 0 instructions: 82000454 cycles: 41375095 heartbeat IPC: 1.236 cumulative IPC: 1.071 (Simulation time: 00 hr 06 min 48 sec)
Heartbeat CPU 0 instructions: 82500458 cycles: 41859594 heartbeat IPC: 1.032 cumulative IPC: 1.07 (Simulation time: 00 hr 06 min 52 sec)
Heartbeat CPU 0 instructions: 83000462 cycles: 42285725 heartbeat IPC: 1.173 cumulative IPC: 1.072 (Simulation time: 00 hr 06 min 56 sec)
Heartbeat CPU 0 instructions: 83500465 cycles: 44574909 heartbeat IPC: 0.2184 cumulative IPC: 1.013 (Simulation time: 00 hr 07 min 10 sec)
Heartbeat CPU 0 instructions: 84000465 cycles: 44867177 heartbeat IPC: 1.711 cumulative IPC: 1.019 (Simulation time: 00 hr 07 min 12 sec)
Heartbeat CPU 0 instructions: 84500469 cycles: 45151128 heartbeat IPC: 1.761 cumulative IPC: 1.025 (Simulation time: 00 hr 07 min 14 sec)
Heartbeat CPU 0 instructions: 85000469 cycles: 45448264 heartbeat IPC: 1.683 cumulative IPC: 1.031 (Simulation time: 00 hr 07 min 16 sec)
Heartbeat CPU 0 instructions: 85500469 cycles: 45905891 heartbeat IPC: 1.093 cumulative IPC: 1.032 (Simulation time: 00 hr 07 min 20 sec)
Heartbeat CPU 0 instructions: 86000471 cycles: 46287700 heartbeat IPC: 1.31 cumulative IPC: 1.035 (Simulation time: 00 hr 07 min 23 sec)
Heartbeat CPU 0 instructions: 86500471 cycles: 47076852 heartbeat IPC: 0.6336 cumulative IPC: 1.026 (Simulation time: 00 hr 07 min 29 sec)
Heartbeat CPU 0 instructions: 87000471 cycles: 47528267 heartbeat IPC: 1.108 cumulative IPC: 1.027 (Simulation time: 00 hr 07 min 32 sec)
Heartbeat CPU 0 instructions: 87500471 cycles: 47934444 heartbeat IPC: 1.231 cumulative IPC: 1.029 (Simulation time: 00 hr 07 min 36 sec)
Heartbeat CPU 0 instructions: 88000472 cycles: 48242948 heartbeat IPC: 1.621 cumulative IPC: 1.034 (Simulation time: 00 hr 07 min 39 sec)
Heartbeat CPU 0 instructions: 88500475 cycles: 48564482 heartbeat IPC: 1.555 cumulative IPC: 1.038 (Simulation time: 00 hr 07 min 42 sec)
Heartbeat CPU 0 instructions: 89000479 cycles: 48918461 heartbeat IPC: 1.413 cumulative IPC: 1.042 (Simulation time: 00 hr 07 min 45 sec)
Heartbeat CPU 0 instructions: 89500480 cycles: 49270078 heartbeat IPC: 1.422 cumulative IPC: 1.046 (Simulation time: 00 hr 07 min 48 sec)
Heartbeat CPU 0 instructions: 90000485 cycles: 49588564 heartbeat IPC: 1.57 cumulative IPC: 1.05 (Simulation time: 00 hr 07 min 51 sec)
Heartbeat CPU 0 instructions: 90500489 cycles: 49870935 heartbeat IPC: 1.771 cumulative IPC: 1.055 (Simulation time: 00 hr 07 min 53 sec)
Heartbeat CPU 0 instructions: 91000491 cycles: 50235625 heartbeat IPC: 1.371 cumulative IPC: 1.058 (Simulation time: 00 hr 07 min 57 sec)
Heartbeat CPU 0 instructions: 91500491 cycles: 50558677 heartbeat IPC: 1.548 cumulative IPC: 1.062 (Simulation time: 00 hr 08 min 00 sec)
Heartbeat CPU 0 instructions: 92000495 cycles: 50879386 heartbeat IPC: 1.559 cumulative IPC: 1.066 (Simulation time: 00 hr 08 min 03 sec)
Heartbeat CPU 0 instructions: 92500498 cycles: 51183792 heartbeat IPC: 1.643 cumulative IPC: 1.071 (Simulation time: 00 hr 08 min 05 sec)
Heartbeat CPU 0 instructions: 93000498 cycles: 51460175 heartbeat IPC: 1.809 cumulative IPC: 1.076 (Simulation time: 00 hr 08 min 08 sec)
Heartbeat CPU 0 instructions: 93500498 cycles: 51811082 heartbeat IPC: 1.425 cumulative IPC: 1.079 (Simulation time: 00 hr 08 min 11 sec)
Heartbeat CPU 0 instructions: 94000498 cycles: 52166672 heartbeat IPC: 1.406 cumulative IPC: 1.082 (Simulation time: 00 hr 08 min 14 sec)
Heartbeat CPU 0 instructions: 94500501 cycles: 52500302 heartbeat IPC: 1.499 cumulative IPC: 1.085 (Simulation time: 00 hr 08 min 17 sec)
Heartbeat CPU 0 instructions: 95000501 cycles: 52894209 heartbeat IPC: 1.269 cumulative IPC: 1.087 (Simulation time: 00 hr 08 min 21 sec)
Heartbeat CPU 0 instructions: 95500506 cycles: 53202633 heartbeat IPC: 1.621 cumulative IPC: 1.091 (Simulation time: 00 hr 08 min 24 sec)
Heartbeat CPU 0 instructions: 96000513 cycles: 53589569 heartbeat IPC: 1.292 cumulative IPC: 1.093 (Simulation time: 00 hr 08 min 27 sec)
Heartbeat CPU 0 instructions: 96500517 cycles: 54348521 heartbeat IPC: 0.6588 cumulative IPC: 1.085 (Simulation time: 00 hr 08 min 33 sec)
Heartbeat CPU 0 instructions: 97000517 cycles: 54647623 heartbeat IPC: 1.672 cumulative IPC: 1.089 (Simulation time: 00 hr 08 min 35 sec)
Heartbeat CPU 0 instructions: 97500519 cycles: 54952137 heartbeat IPC: 1.642 cumulative IPC: 1.093 (Simulation time: 00 hr 08 min 38 sec)
Heartbeat CPU 0 instructions: 98000521 cycles: 55253908 heartbeat IPC: 1.657 cumulative IPC: 1.097 (Simulation time: 00 hr 08 min 40 sec)
Heartbeat CPU 0 instructions: 98500523 cycles: 55518586 heartbeat IPC: 1.889 cumulative IPC: 1.102 (Simulation time: 00 hr 08 min 42 sec)
Heartbeat CPU 0 instructions: 99000525 cycles: 55774697 heartbeat IPC: 1.952 cumulative IPC: 1.106 (Simulation time: 00 hr 08 min 44 sec)
Heartbeat CPU 0 instructions: 99500528 cycles: 56450934 heartbeat IPC: 0.7394 cumulative IPC: 1.101 (Simulation time: 00 hr 08 min 49 sec)
Heartbeat CPU 0 instructions: 100000531 cycles: 56932064 heartbeat IPC: 1.039 cumulative IPC: 1.1 (Simulation time: 00 hr 08 min 53 sec)
Heartbeat CPU 0 instructions: 100500536 cycles: 57856271 heartbeat IPC: 0.541 cumulative IPC: 1.089 (Simulation time: 00 hr 09 min 00 sec)
Heartbeat CPU 0 instructions: 101000538 cycles: 58110169 heartbeat IPC: 1.969 cumulative IPC: 1.094 (Simulation time: 00 hr 09 min 03 sec)
Heartbeat CPU 0 instructions: 101500541 cycles: 58247400 heartbeat IPC: 3.644 cumulative IPC: 1.101 (Simulation time: 00 hr 09 min 04 sec)
Heartbeat CPU 0 instructions: 102000548 cycles: 58669114 heartbeat IPC: 1.186 cumulative IPC: 1.102 (Simulation time: 00 hr 09 min 08 sec)
Heartbeat CPU 0 instructions: 102500554 cycles: 58999857 heartbeat IPC: 1.512 cumulative IPC: 1.105 (Simulation time: 00 hr 09 min 11 sec)
Heartbeat CPU 0 instructions: 103000557 cycles: 59342357 heartbeat IPC: 1.46 cumulative IPC: 1.108 (Simulation time: 00 hr 09 min 14 sec)
Heartbeat CPU 0 instructions: 103500558 cycles: 59717377 heartbeat IPC: 1.333 cumulative IPC: 1.109 (Simulation time: 00 hr 09 min 18 sec)
Heartbeat CPU 0 instructions: 104000558 cycles: 60022759 heartbeat IPC: 1.637 cumulative IPC: 1.113 (Simulation time: 00 hr 09 min 21 sec)
Heartbeat CPU 0 instructions: 104500560 cycles: 60447579 heartbeat IPC: 1.177 cumulative IPC: 1.113 (Simulation time: 00 hr 09 min 24 sec)
Heartbeat CPU 0 instructions: 105000562 cycles: 60735265 heartbeat IPC: 1.738 cumulative IPC: 1.117 (Simulation time: 00 hr 09 min 27 sec)
Heartbeat CPU 0 instructions: 105500563 cycles: 61166089 heartbeat IPC: 1.161 cumulative IPC: 1.117 (Simulation time: 00 hr 09 min 31 sec)
Heartbeat CPU 0 instructions: 106000565 cycles: 61473385 heartbeat IPC: 1.627 cumulative IPC: 1.12 (Simulation time: 00 hr 09 min 34 sec)
Heartbeat CPU 0 instructions: 106500568 cycles: 61775169 heartbeat IPC: 1.657 cumulative IPC: 1.124 (Simulation time: 00 hr 09 min 37 sec)
Heartbeat CPU 0 instructions: 107000569 cycles: 62102863 heartbeat IPC: 1.526 cumulative IPC: 1.126 (Simulation time: 00 hr 09 min 39 sec)
Heartbeat CPU 0 instructions: 107500569 cycles: 62289787 heartbeat IPC: 2.675 cumulative IPC: 1.132 (Simulation time: 00 hr 09 min 42 sec)
Heartbeat CPU 0 instructions: 108000575 cycles: 62476811 heartbeat IPC: 2.673 cumulative IPC: 1.138 (Simulation time: 00 hr 09 min 44 sec)
Heartbeat CPU 0 instructions: 108500576 cycles: 62663845 heartbeat IPC: 2.673 cumulative IPC: 1.143 (Simulation time: 00 hr 09 min 46 sec)
Heartbeat CPU 0 instructions: 109000581 cycles: 62847347 heartbeat IPC: 2.725 cumulative IPC: 1.149 (Simulation time: 00 hr 09 min 48 sec)
Heartbeat CPU 0 instructions: 109500582 cycles: 62948170 heartbeat IPC: 4.959 cumulative IPC: 1.156 (Simulation time: 00 hr 09 min 50 sec)
Heartbeat CPU 0 instructions: 110000586 cycles: 63048845 heartbeat IPC: 4.967 cumulative IPC: 1.164 (Simulation time: 00 hr 09 min 51 sec)
Heartbeat CPU 0 instructions: 110500589 cycles: 64047563 heartbeat IPC: 0.5006 cumulative IPC: 1.151 (Simulation time: 00 hr 09 min 57 sec)
Heartbeat CPU 0 instructions: 111000591 cycles: 64235332 heartbeat IPC: 2.663 cumulative IPC: 1.157 (Simulation time: 00 hr 10 min 00 sec)
Heartbeat CPU 0 instructions: 111500596 cycles: 65267615 heartbeat IPC: 0.4844 cumulative IPC: 1.144 (Simulation time: 00 hr 10 min 07 sec)
Heartbeat CPU 0 instructions: 112000598 cycles: 65572416 heartbeat IPC: 1.64 cumulative IPC: 1.146 (Simulation time: 00 hr 10 min 09 sec)
Heartbeat CPU 0 instructions: 112500598 cycles: 65861660 heartbeat IPC: 1.729 cumulative IPC: 1.15 (Simulation time: 00 hr 10 min 11 sec)
Heartbeat CPU 0 instructions: 113000599 cycles: 66165170 heartbeat IPC: 1.647 cumulative IPC: 1.152 (Simulation time: 00 hr 10 min 14 sec)
Heartbeat CPU 0 instructions: 113500599 cycles: 66424990 heartbeat IPC: 1.924 cumulative IPC: 1.156 (Simulation time: 00 hr 10 min 16 sec)
Heartbeat CPU 0 instructions: 114000602 cycles: 66680092 heartbeat IPC: 1.96 cumulative IPC: 1.16 (Simulation time: 00 hr 10 min 18 sec)
Heartbeat CPU 0 instructions: 114500603 cycles: 66979164 heartbeat IPC: 1.672 cumulative IPC: 1.162 (Simulation time: 00 hr 10 min 21 sec)
Heartbeat CPU 0 instructions: 115000607 cycles: 67080411 heartbeat IPC: 4.938 cumulative IPC: 1.169 (Simulation time: 00 hr 10 min 22 sec)
Heartbeat CPU 0 instructions: 115500609 cycles: 67782174 heartbeat IPC: 0.7125 cumulative IPC: 1.164 (Simulation time: 00 hr 10 min 27 sec)
Heartbeat CPU 0 instructions: 116000612 cycles: 67968839 heartbeat IPC: 2.679 cumulative IPC: 1.169 (Simulation time: 00 hr 10 min 29 sec)
Heartbeat CPU 0 instructions: 116500618 cycles: 68155713 heartbeat IPC: 2.676 cumulative IPC: 1.174 (Simulation time: 00 hr 10 min 31 sec)
Heartbeat CPU 0 instructions: 117000618 cycles: 68259666 heartbeat IPC: 4.81 cumulative IPC: 1.18 (Simulation time: 00 hr 10 min 33 sec)
Heartbeat CPU 0 instructions: 117500620 cycles: 68360064 heartbeat IPC: 4.98 cumulative IPC: 1.187 (Simulation time: 00 hr 10 min 34 sec)
Heartbeat CPU 0 instructions: 118000622 cycles: 68617094 heartbeat IPC: 1.945 cumulative IPC: 1.19 (Simulation time: 00 hr 10 min 37 sec)
Heartbeat CPU 0 instructions: 118500629 cycles: 68804702 heartbeat IPC: 2.665 cumulative IPC: 1.195 (Simulation time: 00 hr 10 min 39 sec)
Heartbeat CPU 0 instructions: 119000630 cycles: 68991240 heartbeat IPC: 2.68 cumulative IPC: 1.2 (Simulation time: 00 hr 10 min 41 sec)
Heartbeat CPU 0 instructions: 119500634 cycles: 69217357 heartbeat IPC: 2.211 cumulative IPC: 1.204 (Simulation time: 00 hr 10 min 43 sec)
Heartbeat CPU 0 instructions: 120000634 cycles: 69652092 heartbeat IPC: 1.15 cumulative IPC: 1.204 (Simulation time: 00 hr 10 min 47 sec)
Heartbeat CPU 0 instructions: 120500641 cycles: 70937703 heartbeat IPC: 0.3889 cumulative IPC: 1.186 (Simulation time: 00 hr 10 min 55 sec)
Heartbeat CPU 0 instructions: 121000643 cycles: 71295821 heartbeat IPC: 1.396 cumulative IPC: 1.187 (Simulation time: 00 hr 10 min 58 sec)
Heartbeat CPU 0 instructions: 121500644 cycles: 71607433 heartbeat IPC: 1.605 cumulative IPC: 1.189 (Simulation time: 00 hr 11 min 01 sec)
Heartbeat CPU 0 instructions: 122000647 cycles: 71970166 heartbeat IPC: 1.378 cumulative IPC: 1.19 (Simulation time: 00 hr 11 min 04 sec)
Heartbeat CPU 0 instructions: 122500649 cycles: 72310932 heartbeat IPC: 1.467 cumulative IPC: 1.192 (Simulation time: 00 hr 11 min 07 sec)
Heartbeat CPU 0 instructions: 123000651 cycles: 72586257 heartbeat IPC: 1.816 cumulative IPC: 1.195 (Simulation time: 00 hr 11 min 10 sec)
Heartbeat CPU 0 instructions: 123500657 cycles: 72897333 heartbeat IPC: 1.607 cumulative IPC: 1.197 (Simulation time: 00 hr 11 min 13 sec)
Heartbeat CPU 0 instructions: 124000658 cycles: 73240640 heartbeat IPC: 1.456 cumulative IPC: 1.198 (Simulation time: 00 hr 11 min 16 sec)
Heartbeat CPU 0 instructions: 124500659 cycles: 73565733 heartbeat IPC: 1.538 cumulative IPC: 1.2 (Simulation time: 00 hr 11 min 19 sec)
Heartbeat CPU 0 instructions: 125000659 cycles: 73871985 heartbeat IPC: 1.633 cumulative IPC: 1.202 (Simulation time: 00 hr 11 min 22 sec)
Heartbeat CPU 0 instructions: 125500659 cycles: 74141627 heartbeat IPC: 1.854 cumulative IPC: 1.205 (Simulation time: 00 hr 11 min 25 sec)
Heartbeat CPU 0 instructions: 126000661 cycles: 74521654 heartbeat IPC: 1.316 cumulative IPC: 1.206 (Simulation time: 00 hr 11 min 28 sec)
Heartbeat CPU 0 instructions: 126500664 cycles: 74865000 heartbeat IPC: 1.456 cumulative IPC: 1.207 (Simulation time: 00 hr 11 min 31 sec)
Heartbeat CPU 0 instructions: 127000665 cycles: 75135228 heartbeat IPC: 1.85 cumulative IPC: 1.21 (Simulation time: 00 hr 11 min 34 sec)
Heartbeat CPU 0 instructions: 127500667 cycles: 75398226 heartbeat IPC: 1.901 cumulative IPC: 1.213 (Simulation time: 00 hr 11 min 36 sec)
Heartbeat CPU 0 instructions: 128000672 cycles: 75657150 heartbeat IPC: 1.931 cumulative IPC: 1.216 (Simulation time: 00 hr 11 min 39 sec)
Heartbeat CPU 0 instructions: 128500672 cycles: 75943473 heartbeat IPC: 1.746 cumulative IPC: 1.218 (Simulation time: 00 hr 11 min 42 sec)
Heartbeat CPU 0 instructions: 129000674 cycles: 76205354 heartbeat IPC: 1.909 cumulative IPC: 1.221 (Simulation time: 00 hr 11 min 44 sec)
Heartbeat CPU 0 instructions: 129500676 cycles: 76483861 heartbeat IPC: 1.795 cumulative IPC: 1.223 (Simulation time: 00 hr 11 min 47 sec)
Heartbeat CPU 0 instructions: 130000676 cycles: 76744888 heartbeat IPC: 1.916 cumulative IPC: 1.226 (Simulation time: 00 hr 11 min 50 sec)
Heartbeat CPU 0 instructions: 130500677 cycles: 78526147 heartbeat IPC: 0.2807 cumulative IPC: 1.201 (Simulation time: 00 hr 12 min 02 sec)
Heartbeat CPU 0 instructions: 131000677 cycles: 79698949 heartbeat IPC: 0.4263 cumulative IPC: 1.188 (Simulation time: 00 hr 12 min 11 sec)
Heartbeat CPU 0 instructions: 131500682 cycles: 80677290 heartbeat IPC: 0.5111 cumulative IPC: 1.178 (Simulation time: 00 hr 12 min 20 sec)
Heartbeat CPU 0 instructions: 132000685 cycles: 81545935 heartbeat IPC: 0.5756 cumulative IPC: 1.17 (Simulation time: 00 hr 12 min 27 sec)
Heartbeat CPU 0 instructions: 132500692 cycles: 82292500 heartbeat IPC: 0.6697 cumulative IPC: 1.165 (Simulation time: 00 hr 12 min 33 sec)
Heartbeat CPU 0 instructions: 133000695 cycles: 83095459 heartbeat IPC: 0.6227 cumulative IPC: 1.159 (Simulation time: 00 hr 12 min 40 sec)
Heartbeat CPU 0 instructions: 133500698 cycles: 83937762 heartbeat IPC: 0.5936 cumulative IPC: 1.153 (Simulation time: 00 hr 12 min 47 sec)
Heartbeat CPU 0 instructions: 134000704 cycles: 84691107 heartbeat IPC: 0.6637 cumulative IPC: 1.148 (Simulation time: 00 hr 12 min 53 sec)
Heartbeat CPU 0 instructions: 134500705 cycles: 85385087 heartbeat IPC: 0.7205 cumulative IPC: 1.144 (Simulation time: 00 hr 12 min 59 sec)
Heartbeat CPU 0 instructions: 135000707 cycles: 86287965 heartbeat IPC: 0.5538 cumulative IPC: 1.136 (Simulation time: 00 hr 13 min 05 sec)
Heartbeat CPU 0 instructions: 135500709 cycles: 86579157 heartbeat IPC: 1.717 cumulative IPC: 1.139 (Simulation time: 00 hr 13 min 08 sec)
Heartbeat CPU 0 instructions: 136000711 cycles: 86862930 heartbeat IPC: 1.762 cumulative IPC: 1.141 (Simulation time: 00 hr 13 min 10 sec)
Heartbeat CPU 0 instructions: 136500713 cycles: 87150780 heartbeat IPC: 1.737 cumulative IPC: 1.143 (Simulation time: 00 hr 13 min 12 sec)
Heartbeat CPU 0 instructions: 137000713 cycles: 87395698 heartbeat IPC: 2.041 cumulative IPC: 1.146 (Simulation time: 00 hr 13 min 14 sec)
Heartbeat CPU 0 instructions: 137500719 cycles: 87658687 heartbeat IPC: 1.901 cumulative IPC: 1.149 (Simulation time: 00 hr 13 min 17 sec)
Heartbeat CPU 0 instructions: 138000720 cycles: 88523535 heartbeat IPC: 0.5781 cumulative IPC: 1.142 (Simulation time: 00 hr 13 min 23 sec)
Heartbeat CPU 0 instructions: 138500723 cycles: 88905424 heartbeat IPC: 1.309 cumulative IPC: 1.143 (Simulation time: 00 hr 13 min 26 sec)
Heartbeat CPU 0 instructions: 139000724 cycles: 89188738 heartbeat IPC: 1.765 cumulative IPC: 1.145 (Simulation time: 00 hr 13 min 29 sec)
Heartbeat CPU 0 instructions: 139500730 cycles: 89585859 heartbeat IPC: 1.259 cumulative IPC: 1.146 (Simulation time: 00 hr 13 min 32 sec)
Heartbeat CPU 0 instructions: 140000732 cycles: 89900237 heartbeat IPC: 1.59 cumulative IPC: 1.148 (Simulation time: 00 hr 13 min 35 sec)
Heartbeat CPU 0 instructions: 140500733 cycles: 90287182 heartbeat IPC: 1.292 cumulative IPC: 1.149 (Simulation time: 00 hr 13 min 38 sec)
Heartbeat CPU 0 instructions: 141000735 cycles: 90617838 heartbeat IPC: 1.512 cumulative IPC: 1.15 (Simulation time: 00 hr 13 min 41 sec)
Heartbeat CPU 0 instructions: 141500735 cycles: 90981208 heartbeat IPC: 1.376 cumulative IPC: 1.151 (Simulation time: 00 hr 13 min 45 sec)
Heartbeat CPU 0 instructions: 142000739 cycles: 91262593 heartbeat IPC: 1.777 cumulative IPC: 1.153 (Simulation time: 00 hr 13 min 47 sec)
Heartbeat CPU 0 instructions: 142500741 cycles: 91606328 heartbeat IPC: 1.455 cumulative IPC: 1.155 (Simulation time: 00 hr 13 min 50 sec)
Heartbeat CPU 0 instructions: 143000741 cycles: 91971902 heartbeat IPC: 1.368 cumulative IPC: 1.156 (Simulation time: 00 hr 13 min 53 sec)
Heartbeat CPU 0 instructions: 143500748 cycles: 92312946 heartbeat IPC: 1.466 cumulative IPC: 1.157 (Simulation time: 00 hr 13 min 57 sec)
Heartbeat CPU 0 instructions: 144000754 cycles: 92718438 heartbeat IPC: 1.233 cumulative IPC: 1.157 (Simulation time: 00 hr 14 min 00 sec)
Heartbeat CPU 0 instructions: 144500756 cycles: 93077864 heartbeat IPC: 1.391 cumulative IPC: 1.158 (Simulation time: 00 hr 14 min 03 sec)
Heartbeat CPU 0 instructions: 145000756 cycles: 93413399 heartbeat IPC: 1.49 cumulative IPC: 1.16 (Simulation time: 00 hr 14 min 06 sec)
Heartbeat CPU 0 instructions: 145500757 cycles: 93731143 heartbeat IPC: 1.574 cumulative IPC: 1.161 (Simulation time: 00 hr 14 min 09 sec)
Heartbeat CPU 0 instructions: 146000757 cycles: 94126873 heartbeat IPC: 1.263 cumulative IPC: 1.162 (Simulation time: 00 hr 14 min 13 sec)
Heartbeat CPU 0 instructions: 146500758 cycles: 94449269 heartbeat IPC: 1.551 cumulative IPC: 1.163 (Simulation time: 00 hr 14 min 16 sec)
Heartbeat CPU 0 instructions: 147000762 cycles: 94824352 heartbeat IPC: 1.333 cumulative IPC: 1.164 (Simulation time: 00 hr 14 min 19 sec)
Heartbeat CPU 0 instructions: 147500765 cycles: 95185519 heartbeat IPC: 1.384 cumulative IPC: 1.165 (Simulation time: 00 hr 14 min 22 sec)
Heartbeat CPU 0 instructions: 148000766 cycles: 96310085 heartbeat IPC: 0.4446 cumulative IPC: 1.155 (Simulation time: 00 hr 14 min 30 sec)
Heartbeat CPU 0 instructions: 148500769 cycles: 98100386 heartbeat IPC: 0.2793 cumulative IPC: 1.137 (Simulation time: 00 hr 14 min 41 sec)
Heartbeat CPU 0 instructions: 149000769 cycles: 98467267 heartbeat IPC: 1.363 cumulative IPC: 1.138 (Simulation time: 00 hr 14 min 44 sec)
Heartbeat CPU 0 instructions: 149500776 cycles: 98751186 heartbeat IPC: 1.761 cumulative IPC: 1.14 (Simulation time: 00 hr 14 min 46 sec)
Heartbeat CPU 0 instructions: 150000777 cycles: 99045153 heartbeat IPC: 1.701 cumulative IPC: 1.142 (Simulation time: 00 hr 14 min 49 sec)
Heartbeat CPU 0 instructions: 150500778 cycles: 99305590 heartbeat IPC: 1.92 cumulative IPC: 1.144 (Simulation time: 00 hr 14 min 51 sec)
Heartbeat CPU 0 instructions: 151000779 cycles: 99559400 heartbeat IPC: 1.97 cumulative IPC: 1.147 (Simulation time: 00 hr 14 min 53 sec)
Heartbeat CPU 0 instructions: 151500780 cycles: 99964944 heartbeat IPC: 1.233 cumulative IPC: 1.147 (Simulation time: 00 hr 14 min 56 sec)
Heartbeat CPU 0 instructions: 152000783 cycles: 100426299 heartbeat IPC: 1.084 cumulative IPC: 1.147 (Simulation time: 00 hr 15 min 00 sec)
Heartbeat CPU 0 instructions: 152500785 cycles: 100766790 heartbeat IPC: 1.468 cumulative IPC: 1.148 (Simulation time: 00 hr 15 min 03 sec)
Heartbeat CPU 0 instructions: 153000785 cycles: 101101294 heartbeat IPC: 1.495 cumulative IPC: 1.149 (Simulation time: 00 hr 15 min 06 sec)
Heartbeat CPU 0 instructions: 153500786 cycles: 101522058 heartbeat IPC: 1.188 cumulative IPC: 1.15 (Simulation time: 00 hr 15 min 10 sec)
Heartbeat CPU 0 instructions: 154000788 cycles: 101902809 heartbeat IPC: 1.313 cumulative IPC: 1.15 (Simulation time: 00 hr 15 min 13 sec)
Heartbeat CPU 0 instructions: 154500790 cycles: 102208763 heartbeat IPC: 1.634 cumulative IPC: 1.152 (Simulation time: 00 hr 15 min 16 sec)
Heartbeat CPU 0 instructions: 155000791 cycles: 102474678 heartbeat IPC: 1.88 cumulative IPC: 1.154 (Simulation time: 00 hr 15 min 19 sec)
Heartbeat CPU 0 instructions: 155500796 cycles: 102858560 heartbeat IPC: 1.302 cumulative IPC: 1.155 (Simulation time: 00 hr 15 min 22 sec)
Heartbeat CPU 0 instructions: 156000802 cycles: 103157088 heartbeat IPC: 1.675 cumulative IPC: 1.156 (Simulation time: 00 hr 15 min 25 sec)
Heartbeat CPU 0 instructions: 156500805 cycles: 103542758 heartbeat IPC: 1.296 cumulative IPC: 1.157 (Simulation time: 00 hr 15 min 28 sec)
Heartbeat CPU 0 instructions: 157000805 cycles: 103878509 heartbeat IPC: 1.489 cumulative IPC: 1.158 (Simulation time: 00 hr 15 min 31 sec)
Heartbeat CPU 0 instructions: 157500809 cycles: 104184223 heartbeat IPC: 1.636 cumulative IPC: 1.16 (Simulation time: 00 hr 15 min 34 sec)
Heartbeat CPU 0 instructions: 158000810 cycles: 104481897 heartbeat IPC: 1.68 cumulative IPC: 1.161 (Simulation time: 00 hr 15 min 37 sec)
Heartbeat CPU 0 instructions: 158500814 cycles: 104817728 heartbeat IPC: 1.489 cumulative IPC: 1.163 (Simulation time: 00 hr 15 min 40 sec)
Heartbeat CPU 0 instructions: 159000816 cycles: 105144186 heartbeat IPC: 1.532 cumulative IPC: 1.164 (Simulation time: 00 hr 15 min 43 sec)
Heartbeat CPU 0 instructions: 159500816 cycles: 105512968 heartbeat IPC: 1.356 cumulative IPC: 1.165 (Simulation time: 00 hr 15 min 47 sec)
Heartbeat CPU 0 instructions: 160000817 cycles: 105894812 heartbeat IPC: 1.309 cumulative IPC: 1.165 (Simulation time: 00 hr 15 min 50 sec)
Heartbeat CPU 0 instructions: 160500817 cycles: 106221938 heartbeat IPC: 1.528 cumulative IPC: 1.166 (Simulation time: 00 hr 15 min 53 sec)
Heartbeat CPU 0 instructions: 161000817 cycles: 106592025 heartbeat IPC: 1.351 cumulative IPC: 1.167 (Simulation time: 00 hr 15 min 57 sec)
Heartbeat CPU 0 instructions: 161500822 cycles: 107003094 heartbeat IPC: 1.216 cumulative IPC: 1.167 (Simulation time: 00 hr 16 min 00 sec)
Heartbeat CPU 0 instructions: 162000823 cycles: 107766310 heartbeat IPC: 0.6551 cumulative IPC: 1.163 (Simulation time: 00 hr 16 min 06 sec)
Heartbeat CPU 0 instructions: 162500823 cycles: 108231068 heartbeat IPC: 1.076 cumulative IPC: 1.163 (Simulation time: 00 hr 16 min 10 sec)
Heartbeat CPU 0 instructions: 163000829 cycles: 108721254 heartbeat IPC: 1.02 cumulative IPC: 1.162 (Simulation time: 00 hr 16 min 14 sec)
Heartbeat CPU 0 instructions: 163500836 cycles: 109076276 heartbeat IPC: 1.408 cumulative IPC: 1.163 (Simulation time: 00 hr 16 min 17 sec)
Heartbeat CPU 0 instructions: 164000836 cycles: 109488689 heartbeat IPC: 1.212 cumulative IPC: 1.163 (Simulation time: 00 hr 16 min 21 sec)
Heartbeat CPU 0 instructions: 164500839 cycles: 109843693 heartbeat IPC: 1.408 cumulative IPC: 1.164 (Simulation time: 00 hr 16 min 24 sec)
Heartbeat CPU 0 instructions: 165000843 cycles: 111452810 heartbeat IPC: 0.3107 cumulative IPC: 1.15 (Simulation time: 00 hr 16 min 37 sec)
Heartbeat CPU 0 instructions: 165500843 cycles: 111839757 heartbeat IPC: 1.292 cumulative IPC: 1.151 (Simulation time: 00 hr 16 min 41 sec)
Heartbeat CPU 0 instructions: 166000843 cycles: 112362908 heartbeat IPC: 0.9557 cumulative IPC: 1.15 (Simulation time: 00 hr 16 min 45 sec)
Heartbeat CPU 0 instructions: 166500845 cycles: 113059089 heartbeat IPC: 0.7182 cumulative IPC: 1.147 (Simulation time: 00 hr 16 min 51 sec)
Heartbeat CPU 0 instructions: 167000851 cycles: 113914591 heartbeat IPC: 0.5845 cumulative IPC: 1.142 (Simulation time: 00 hr 16 min 57 sec)
Heartbeat CPU 0 instructions: 167500854 cycles: 114545554 heartbeat IPC: 0.7924 cumulative IPC: 1.14 (Simulation time: 00 hr 17 min 02 sec)
Heartbeat CPU 0 instructions: 168000861 cycles: 115350951 heartbeat IPC: 0.6208 cumulative IPC: 1.136 (Simulation time: 00 hr 17 min 09 sec)
Heartbeat CPU 0 instructions: 168500863 cycles: 116603963 heartbeat IPC: 0.399 cumulative IPC: 1.127 (Simulation time: 00 hr 17 min 18 sec)
Heartbeat CPU 0 instructions: 169000864 cycles: 118052243 heartbeat IPC: 0.3452 cumulative IPC: 1.117 (Simulation time: 00 hr 17 min 26 sec)
Heartbeat CPU 0 instructions: 169500864 cycles: 119347592 heartbeat IPC: 0.386 cumulative IPC: 1.108 (Simulation time: 00 hr 17 min 35 sec)
Heartbeat CPU 0 instructions: 170000864 cycles: 120044370 heartbeat IPC: 0.7176 cumulative IPC: 1.105 (Simulation time: 00 hr 17 min 41 sec)
Heartbeat CPU 0 instructions: 170500865 cycles: 121513267 heartbeat IPC: 0.3404 cumulative IPC: 1.095 (Simulation time: 00 hr 17 min 50 sec)
Heartbeat CPU 0 instructions: 171000867 cycles: 123436020 heartbeat IPC: 0.26 cumulative IPC: 1.081 (Simulation time: 00 hr 18 min 02 sec)
Heartbeat CPU 0 instructions: 171500867 cycles: 125224664 heartbeat IPC: 0.2795 cumulative IPC: 1.068 (Simulation time: 00 hr 18 min 14 sec)
Heartbeat CPU 0 instructions: 172000867 cycles: 126230976 heartbeat IPC: 0.4969 cumulative IPC: 1.063 (Simulation time: 00 hr 18 min 20 sec)
Heartbeat CPU 0 instructions: 172500871 cycles: 126698347 heartbeat IPC: 1.07 cumulative IPC: 1.063 (Simulation time: 00 hr 18 min 24 sec)
Heartbeat CPU 0 instructions: 173000871 cycles: 127034092 heartbeat IPC: 1.489 cumulative IPC: 1.065 (Simulation time: 00 hr 18 min 27 sec)
Heartbeat CPU 0 instructions: 173500874 cycles: 127375979 heartbeat IPC: 1.462 cumulative IPC: 1.066 (Simulation time: 00 hr 18 min 30 sec)
Heartbeat CPU 0 instructions: 174000875 cycles: 127720440 heartbeat IPC: 1.452 cumulative IPC: 1.067 (Simulation time: 00 hr 18 min 33 sec)
Heartbeat CPU 0 instructions: 174500879 cycles: 128036238 heartbeat IPC: 1.583 cumulative IPC: 1.068 (Simulation time: 00 hr 18 min 36 sec)
Heartbeat CPU 0 instructions: 175000880 cycles: 128390958 heartbeat IPC: 1.41 cumulative IPC: 1.069 (Simulation time: 00 hr 18 min 40 sec)
Heartbeat CPU 0 instructions: 175500880 cycles: 128788462 heartbeat IPC: 1.258 cumulative IPC: 1.07 (Simulation time: 00 hr 18 min 44 sec)
Heartbeat CPU 0 instructions: 176000882 cycles: 129166731 heartbeat IPC: 1.322 cumulative IPC: 1.071 (Simulation time: 00 hr 18 min 48 sec)
Heartbeat CPU 0 instructions: 176500885 cycles: 129518135 heartbeat IPC: 1.423 cumulative IPC: 1.072 (Simulation time: 00 hr 18 min 52 sec)
Heartbeat CPU 0 instructions: 177000891 cycles: 129872949 heartbeat IPC: 1.409 cumulative IPC: 1.073 (Simulation time: 00 hr 18 min 55 sec)
Heartbeat CPU 0 instructions: 177500893 cycles: 130166983 heartbeat IPC: 1.7 cumulative IPC: 1.074 (Simulation time: 00 hr 18 min 58 sec)
Heartbeat CPU 0 instructions: 178000893 cycles: 130585226 heartbeat IPC: 1.195 cumulative IPC: 1.075 (Simulation time: 00 hr 19 min 03 sec)
Heartbeat CPU 0 instructions: 178500895 cycles: 130965056 heartbeat IPC: 1.316 cumulative IPC: 1.076 (Simulation time: 00 hr 19 min 06 sec)
Heartbeat CPU 0 instructions: 179000899 cycles: 131354717 heartbeat IPC: 1.283 cumulative IPC: 1.076 (Simulation time: 00 hr 19 min 10 sec)
Heartbeat CPU 0 instructions: 179500900 cycles: 131891527 heartbeat IPC: 0.9314 cumulative IPC: 1.076 (Simulation time: 00 hr 19 min 16 sec)
Heartbeat CPU 0 instructions: 180000900 cycles: 132216074 heartbeat IPC: 1.541 cumulative IPC: 1.077 (Simulation time: 00 hr 19 min 19 sec)
Heartbeat CPU 0 instructions: 180500905 cycles: 132468263 heartbeat IPC: 1.983 cumulative IPC: 1.079 (Simulation time: 00 hr 19 min 22 sec)
Heartbeat CPU 0 instructions: 181000911 cycles: 132720113 heartbeat IPC: 1.985 cumulative IPC: 1.081 (Simulation time: 00 hr 19 min 25 sec)
Heartbeat CPU 0 instructions: 181500913 cycles: 132968202 heartbeat IPC: 2.015 cumulative IPC: 1.083 (Simulation time: 00 hr 19 min 28 sec)
Heartbeat CPU 0 instructions: 182000917 cycles: 133219293 heartbeat IPC: 1.991 cumulative IPC: 1.084 (Simulation time: 00 hr 19 min 31 sec)
Heartbeat CPU 0 instructions: 182500924 cycles: 133509494 heartbeat IPC: 1.723 cumulative IPC: 1.086 (Simulation time: 00 hr 19 min 35 sec)
Heartbeat CPU 0 instructions: 183000928 cycles: 133765751 heartbeat IPC: 1.951 cumulative IPC: 1.088 (Simulation time: 00 hr 19 min 38 sec)
Heartbeat CPU 0 instructions: 183500930 cycles: 134022360 heartbeat IPC: 1.948 cumulative IPC: 1.09 (Simulation time: 00 hr 19 min 41 sec)
Heartbeat CPU 0 instructions: 184000932 cycles: 134264949 heartbeat IPC: 2.061 cumulative IPC: 1.091 (Simulation time: 00 hr 19 min 44 sec)
Heartbeat CPU 0 instructions: 184500933 cycles: 134507134 heartbeat IPC: 2.065 cumulative IPC: 1.093 (Simulation time: 00 hr 19 min 47 sec)
Heartbeat CPU 0 instructions: 185000934 cycles: 134927591 heartbeat IPC: 1.189 cumulative IPC: 1.094 (Simulation time: 00 hr 19 min 51 sec)
Heartbeat CPU 0 instructions: 185500935 cycles: 135329095 heartbeat IPC: 1.245 cumulative IPC: 1.094 (Simulation time: 00 hr 19 min 56 sec)
Heartbeat CPU 0 instructions: 186000939 cycles: 135625890 heartbeat IPC: 1.685 cumulative IPC: 1.096 (Simulation time: 00 hr 19 min 59 sec)
Heartbeat CPU 0 instructions: 186500939 cycles: 136042829 heartbeat IPC: 1.199 cumulative IPC: 1.096 (Simulation time: 00 hr 20 min 03 sec)
Heartbeat CPU 0 instructions: 187000940 cycles: 136538548 heartbeat IPC: 1.009 cumulative IPC: 1.096 (Simulation time: 00 hr 20 min 08 sec)
Heartbeat CPU 0 instructions: 187500942 cycles: 137160107 heartbeat IPC: 0.8044 cumulative IPC: 1.094 (Simulation time: 00 hr 20 min 14 sec)
Heartbeat CPU 0 instructions: 188000944 cycles: 137466907 heartbeat IPC: 1.63 cumulative IPC: 1.095 (Simulation time: 00 hr 20 min 16 sec)
Heartbeat CPU 0 instructions: 188500945 cycles: 137759761 heartbeat IPC: 1.707 cumulative IPC: 1.097 (Simulation time: 00 hr 20 min 19 sec)
Heartbeat CPU 0 instructions: 189000947 cycles: 138059685 heartbeat IPC: 1.667 cumulative IPC: 1.098 (Simulation time: 00 hr 20 min 22 sec)
Heartbeat CPU 0 instructions: 189500949 cycles: 138323353 heartbeat IPC: 1.896 cumulative IPC: 1.1 (Simulation time: 00 hr 20 min 24 sec)
Heartbeat CPU 0 instructions: 190000950 cycles: 138581892 heartbeat IPC: 1.934 cumulative IPC: 1.102 (Simulation time: 00 hr 20 min 26 sec)
Heartbeat CPU 0 instructions: 190500950 cycles: 139332218 heartbeat IPC: 0.6664 cumulative IPC: 1.099 (Simulation time: 00 hr 20 min 32 sec)
Heartbeat CPU 0 instructions: 191000951 cycles: 139782990 heartbeat IPC: 1.109 cumulative IPC: 1.099 (Simulation time: 00 hr 20 min 35 sec)
Heartbeat CPU 0 instructions: 191500952 cycles: 140206851 heartbeat IPC: 1.18 cumulative IPC: 1.099 (Simulation time: 00 hr 20 min 39 sec)
Heartbeat CPU 0 instructions: 192000956 cycles: 140510444 heartbeat IPC: 1.647 cumulative IPC: 1.101 (Simulation time: 00 hr 20 min 42 sec)
Heartbeat CPU 0 instructions: 192500961 cycles: 140940620 heartbeat IPC: 1.162 cumulative IPC: 1.101 (Simulation time: 00 hr 20 min 46 sec)
Heartbeat CPU 0 instructions: 193000967 cycles: 141304236 heartbeat IPC: 1.375 cumulative IPC: 1.102 (Simulation time: 00 hr 20 min 50 sec)
Heartbeat CPU 0 instructions: 193500969 cycles: 141609994 heartbeat IPC: 1.635 cumulative IPC: 1.103 (Simulation time: 00 hr 20 min 53 sec)
Heartbeat CPU 0 instructions: 194000969 cycles: 141930746 heartbeat IPC: 1.559 cumulative IPC: 1.104 (Simulation time: 00 hr 20 min 56 sec)
Heartbeat CPU 0 instructions: 194500969 cycles: 142289280 heartbeat IPC: 1.395 cumulative IPC: 1.105 (Simulation time: 00 hr 20 min 59 sec)
Heartbeat CPU 0 instructions: 195000969 cycles: 142682351 heartbeat IPC: 1.272 cumulative IPC: 1.105 (Simulation time: 00 hr 21 min 02 sec)
Heartbeat CPU 0 instructions: 195500976 cycles: 143047156 heartbeat IPC: 1.371 cumulative IPC: 1.106 (Simulation time: 00 hr 21 min 06 sec)
Heartbeat CPU 0 instructions: 196000983 cycles: 143404648 heartbeat IPC: 1.399 cumulative IPC: 1.107 (Simulation time: 00 hr 21 min 09 sec)
Heartbeat CPU 0 instructions: 196500984 cycles: 143837736 heartbeat IPC: 1.155 cumulative IPC: 1.107 (Simulation time: 00 hr 21 min 13 sec)
Heartbeat CPU 0 instructions: 197000986 cycles: 144149858 heartbeat IPC: 1.602 cumulative IPC: 1.108 (Simulation time: 00 hr 21 min 16 sec)
Heartbeat CPU 0 instructions: 197500987 cycles: 144567936 heartbeat IPC: 1.196 cumulative IPC: 1.108 (Simulation time: 00 hr 21 min 19 sec)
Heartbeat CPU 0 instructions: 198000989 cycles: 145027523 heartbeat IPC: 1.088 cumulative IPC: 1.108 (Simulation time: 00 hr 21 min 23 sec)
Heartbeat CPU 0 instructions: 198500996 cycles: 145416327 heartbeat IPC: 1.286 cumulative IPC: 1.109 (Simulation time: 00 hr 21 min 26 sec)
Heartbeat CPU 0 instructions: 199000996 cycles: 145879229 heartbeat IPC: 1.08 cumulative IPC: 1.109 (Simulation time: 00 hr 21 min 30 sec)
Heartbeat CPU 0 instructions: 199500998 cycles: 146293015 heartbeat IPC: 1.208 cumulative IPC: 1.109 (Simulation time: 00 hr 21 min 34 sec)
Heartbeat CPU 0 instructions: 200001000 cycles: 146682188 heartbeat IPC: 1.285 cumulative IPC: 1.11 (Simulation time: 00 hr 21 min 37 sec)
Heartbeat CPU 0 instructions: 200501000 cycles: 147080018 heartbeat IPC: 1.257 cumulative IPC: 1.11 (Simulation time: 00 hr 21 min 41 sec)
Heartbeat CPU 0 instructions: 201001002 cycles: 147460721 heartbeat IPC: 1.313 cumulative IPC: 1.111 (Simulation time: 00 hr 21 min 44 sec)
Heartbeat CPU 0 instructions: 201501002 cycles: 148067790 heartbeat IPC: 0.8236 cumulative IPC: 1.109 (Simulation time: 00 hr 21 min 49 sec)
Heartbeat CPU 0 instructions: 202001004 cycles: 148486020 heartbeat IPC: 1.196 cumulative IPC: 1.11 (Simulation time: 00 hr 21 min 52 sec)
Heartbeat CPU 0 instructions: 202501009 cycles: 148930483 heartbeat IPC: 1.125 cumulative IPC: 1.11 (Simulation time: 00 hr 21 min 56 sec)
Heartbeat CPU 0 instructions: 203001011 cycles: 149241691 heartbeat IPC: 1.607 cumulative IPC: 1.111 (Simulation time: 00 hr 21 min 59 sec)
Heartbeat CPU 0 instructions: 203501011 cycles: 149620035 heartbeat IPC: 1.322 cumulative IPC: 1.111 (Simulation time: 00 hr 22 min 03 sec)
Heartbeat CPU 0 instructions: 204001013 cycles: 149964441 heartbeat IPC: 1.452 cumulative IPC: 1.112 (Simulation time: 00 hr 22 min 06 sec)
Heartbeat CPU 0 instructions: 204501018 cycles: 150307528 heartbeat IPC: 1.457 cumulative IPC: 1.113 (Simulation time: 00 hr 22 min 09 sec)
Heartbeat CPU 0 instructions: 205001019 cycles: 150882636 heartbeat IPC: 0.8694 cumulative IPC: 1.112 (Simulation time: 00 hr 22 min 13 sec)
Heartbeat CPU 0 instructions: 205501022 cycles: 151140384 heartbeat IPC: 1.94 cumulative IPC: 1.113 (Simulation time: 00 hr 22 min 16 sec)
Heartbeat CPU 0 instructions: 206001022 cycles: 151402705 heartbeat IPC: 1.906 cumulative IPC: 1.115 (Simulation time: 00 hr 22 min 19 sec)
Heartbeat CPU 0 instructions: 206501022 cycles: 151673589 heartbeat IPC: 1.846 cumulative IPC: 1.116 (Simulation time: 00 hr 22 min 21 sec)
Heartbeat CPU 0 instructions: 207001023 cycles: 151940158 heartbeat IPC: 1.876 cumulative IPC: 1.118 (Simulation time: 00 hr 22 min 24 sec)
Heartbeat CPU 0 instructions: 207501030 cycles: 152200219 heartbeat IPC: 1.923 cumulative IPC: 1.119 (Simulation time: 00 hr 22 min 27 sec)
Heartbeat CPU 0 instructions: 208001030 cycles: 152484690 heartbeat IPC: 1.758 cumulative IPC: 1.121 (Simulation time: 00 hr 22 min 29 sec)
Heartbeat CPU 0 instructions: 208501032 cycles: 152858348 heartbeat IPC: 1.338 cumulative IPC: 1.121 (Simulation time: 00 hr 22 min 33 sec)
Heartbeat CPU 0 instructions: 209001034 cycles: 153132470 heartbeat IPC: 1.824 cumulative IPC: 1.123 (Simulation time: 00 hr 22 min 35 sec)
Heartbeat CPU 0 instructions: 209501035 cycles: 153552568 heartbeat IPC: 1.19 cumulative IPC: 1.123 (Simulation time: 00 hr 22 min 39 sec)
Heartbeat CPU 0 instructions: 210001035 cycles: 153827881 heartbeat IPC: 1.816 cumulative IPC: 1.124 (Simulation time: 00 hr 22 min 42 sec)
Heartbeat CPU 0 instructions: 210501041 cycles: 154072223 heartbeat IPC: 2.046 cumulative IPC: 1.126 (Simulation time: 00 hr 22 min 44 sec)
Heartbeat CPU 0 instructions: 211001047 cycles: 154328079 heartbeat IPC: 1.954 cumulative IPC: 1.127 (Simulation time: 00 hr 22 min 47 sec)
Heartbeat CPU 0 instructions: 211501052 cycles: 154898235 heartbeat IPC: 0.877 cumulative IPC: 1.126 (Simulation time: 00 hr 22 min 51 sec)
Heartbeat CPU 0 instructions: 212001057 cycles: 155188185 heartbeat IPC: 1.724 cumulative IPC: 1.127 (Simulation time: 00 hr 22 min 53 sec)
Heartbeat CPU 0 instructions: 212501057 cycles: 155503365 heartbeat IPC: 1.586 cumulative IPC: 1.128 (Simulation time: 00 hr 22 min 56 sec)
Heartbeat CPU 0 instructions: 213001059 cycles: 155803318 heartbeat IPC: 1.667 cumulative IPC: 1.129 (Simulation time: 00 hr 22 min 58 sec)
Heartbeat CPU 0 instructions: 213501061 cycles: 156052150 heartbeat IPC: 2.009 cumulative IPC: 1.131 (Simulation time: 00 hr 23 min 00 sec)
Heartbeat CPU 0 instructions: 214001065 cycles: 156346153 heartbeat IPC: 1.701 cumulative IPC: 1.132 (Simulation time: 00 hr 23 min 02 sec)
Heartbeat CPU 0 instructions: 214501065 cycles: 156910635 heartbeat IPC: 0.8858 cumulative IPC: 1.131 (Simulation time: 00 hr 23 min 07 sec)
Heartbeat CPU 0 instructions: 215001069 cycles: 157267569 heartbeat IPC: 1.401 cumulative IPC: 1.132 (Simulation time: 00 hr 23 min 10 sec)
Heartbeat CPU 0 instructions: 215501069 cycles: 157882368 heartbeat IPC: 0.8133 cumulative IPC: 1.131 (Simulation time: 00 hr 23 min 15 sec)
Heartbeat CPU 0 instructions: 216001069 cycles: 158158001 heartbeat IPC: 1.814 cumulative IPC: 1.132 (Simulation time: 00 hr 23 min 17 sec)
Heartbeat CPU 0 instructions: 216501070 cycles: 158491458 heartbeat IPC: 1.499 cumulative IPC: 1.133 (Simulation time: 00 hr 23 min 20 sec)
Heartbeat CPU 0 instructions: 217001073 cycles: 158915757 heartbeat IPC: 1.178 cumulative IPC: 1.133 (Simulation time: 00 hr 23 min 24 sec)
Heartbeat CPU 0 instructions: 217501077 cycles: 159329520 heartbeat IPC: 1.208 cumulative IPC: 1.133 (Simulation time: 00 hr 23 min 27 sec)
Heartbeat CPU 0 instructions: 218001079 cycles: 159616194 heartbeat IPC: 1.744 cumulative IPC: 1.134 (Simulation time: 00 hr 23 min 29 sec)
Heartbeat CPU 0 instructions: 218501085 cycles: 159927127 heartbeat IPC: 1.608 cumulative IPC: 1.135 (Simulation time: 00 hr 23 min 32 sec)
Heartbeat CPU 0 instructions: 219001089 cycles: 160642990 heartbeat IPC: 0.6985 cumulative IPC: 1.133 (Simulation time: 00 hr 23 min 37 sec)
Heartbeat CPU 0 instructions: 219501090 cycles: 160991514 heartbeat IPC: 1.435 cumulative IPC: 1.134 (Simulation time: 00 hr 23 min 39 sec)
Heartbeat CPU 0 instructions: 220001090 cycles: 161235676 heartbeat IPC: 2.048 cumulative IPC: 1.135 (Simulation time: 00 hr 23 min 41 sec)
Heartbeat CPU 0 instructions: 220501095 cycles: 161480159 heartbeat IPC: 2.045 cumulative IPC: 1.137 (Simulation time: 00 hr 23 min 44 sec)
Heartbeat CPU 0 instructions: 221001095 cycles: 161950460 heartbeat IPC: 1.063 cumulative IPC: 1.137 (Simulation time: 00 hr 23 min 47 sec)
Heartbeat CPU 0 instructions: 221501095 cycles: 162313208 heartbeat IPC: 1.378 cumulative IPC: 1.137 (Simulation time: 00 hr 23 min 51 sec)
Heartbeat CPU 0 instructions: 222001095 cycles: 162661350 heartbeat IPC: 1.436 cumulative IPC: 1.138 (Simulation time: 00 hr 23 min 54 sec)
Heartbeat CPU 0 instructions: 222501098 cycles: 163009679 heartbeat IPC: 1.435 cumulative IPC: 1.138 (Simulation time: 00 hr 23 min 57 sec)
Heartbeat CPU 0 instructions: 223001104 cycles: 163354071 heartbeat IPC: 1.452 cumulative IPC: 1.139 (Simulation time: 00 hr 24 min 00 sec)
Heartbeat CPU 0 instructions: 223501104 cycles: 163596671 heartbeat IPC: 2.061 cumulative IPC: 1.141 (Simulation time: 00 hr 24 min 03 sec)
Heartbeat CPU 0 instructions: 224001104 cycles: 163910878 heartbeat IPC: 1.591 cumulative IPC: 1.142 (Simulation time: 00 hr 24 min 06 sec)
Heartbeat CPU 0 instructions: 224501108 cycles: 164254951 heartbeat IPC: 1.453 cumulative IPC: 1.142 (Simulation time: 00 hr 24 min 09 sec)
Heartbeat CPU 0 instructions: 225001111 cycles: 164544155 heartbeat IPC: 1.729 cumulative IPC: 1.143 (Simulation time: 00 hr 24 min 12 sec)
Heartbeat CPU 0 instructions: 225501113 cycles: 164819119 heartbeat IPC: 1.818 cumulative IPC: 1.145 (Simulation time: 00 hr 24 min 15 sec)
Heartbeat CPU 0 instructions: 226001120 cycles: 165182123 heartbeat IPC: 1.377 cumulative IPC: 1.145 (Simulation time: 00 hr 24 min 18 sec)
Heartbeat CPU 0 instructions: 226501120 cycles: 165457736 heartbeat IPC: 1.814 cumulative IPC: 1.146 (Simulation time: 00 hr 24 min 20 sec)
Heartbeat CPU 0 instructions: 227001121 cycles: 165744341 heartbeat IPC: 1.745 cumulative IPC: 1.147 (Simulation time: 00 hr 24 min 23 sec)
Heartbeat CPU 0 instructions: 227501125 cycles: 166061246 heartbeat IPC: 1.578 cumulative IPC: 1.148 (Simulation time: 00 hr 24 min 26 sec)
Heartbeat CPU 0 instructions: 228001127 cycles: 166403523 heartbeat IPC: 1.461 cumulative IPC: 1.149 (Simulation time: 00 hr 24 min 29 sec)
Heartbeat CPU 0 instructions: 228501128 cycles: 166772672 heartbeat IPC: 1.354 cumulative IPC: 1.15 (Simulation time: 00 hr 24 min 32 sec)
Heartbeat CPU 0 instructions: 229001129 cycles: 167068525 heartbeat IPC: 1.69 cumulative IPC: 1.151 (Simulation time: 00 hr 24 min 35 sec)
Heartbeat CPU 0 instructions: 229501131 cycles: 167380952 heartbeat IPC: 1.6 cumulative IPC: 1.151 (Simulation time: 00 hr 24 min 38 sec)
Heartbeat CPU 0 instructions: 230001131 cycles: 168526117 heartbeat IPC: 0.4366 cumulative IPC: 1.146 (Simulation time: 00 hr 24 min 46 sec)
Heartbeat CPU 0 instructions: 230501136 cycles: 168914703 heartbeat IPC: 1.287 cumulative IPC: 1.147 (Simulation time: 00 hr 24 min 49 sec)
Heartbeat CPU 0 instructions: 231001136 cycles: 169278899 heartbeat IPC: 1.373 cumulative IPC: 1.147 (Simulation time: 00 hr 24 min 52 sec)
Heartbeat CPU 0 instructions: 231501139 cycles: 169800540 heartbeat IPC: 0.9585 cumulative IPC: 1.146 (Simulation time: 00 hr 24 min 57 sec)
Heartbeat CPU 0 instructions: 232001141 cycles: 170195171 heartbeat IPC: 1.267 cumulative IPC: 1.147 (Simulation time: 00 hr 25 min 00 sec)
Heartbeat CPU 0 instructions: 232501141 cycles: 170529770 heartbeat IPC: 1.494 cumulative IPC: 1.148 (Simulation time: 00 hr 25 min 03 sec)
Heartbeat CPU 0 instructions: 233001147 cycles: 170870126 heartbeat IPC: 1.469 cumulative IPC: 1.148 (Simulation time: 00 hr 25 min 06 sec)
Heartbeat CPU 0 instructions: 233501151 cycles: 171306884 heartbeat IPC: 1.145 cumulative IPC: 1.148 (Simulation time: 00 hr 25 min 10 sec)
Heartbeat CPU 0 instructions: 234001153 cycles: 171752575 heartbeat IPC: 1.122 cumulative IPC: 1.148 (Simulation time: 00 hr 25 min 13 sec)
Heartbeat CPU 0 instructions: 234501159 cycles: 172089237 heartbeat IPC: 1.485 cumulative IPC: 1.149 (Simulation time: 00 hr 25 min 16 sec)
Heartbeat CPU 0 instructions: 235001161 cycles: 172471761 heartbeat IPC: 1.307 cumulative IPC: 1.149 (Simulation time: 00 hr 25 min 20 sec)
Heartbeat CPU 0 instructions: 235501165 cycles: 172771306 heartbeat IPC: 1.669 cumulative IPC: 1.15 (Simulation time: 00 hr 25 min 22 sec)
Heartbeat CPU 0 instructions: 236001165 cycles: 173176899 heartbeat IPC: 1.233 cumulative IPC: 1.15 (Simulation time: 00 hr 25 min 26 sec)
Heartbeat CPU 0 instructions: 236501169 cycles: 173597671 heartbeat IPC: 1.188 cumulative IPC: 1.15 (Simulation time: 00 hr 25 min 29 sec)
Heartbeat CPU 0 instructions: 237001170 cycles: 175030202 heartbeat IPC: 0.349 cumulative IPC: 1.143 (Simulation time: 00 hr 25 min 39 sec)
Heartbeat CPU 0 instructions: 237501170 cycles: 175935979 heartbeat IPC: 0.552 cumulative IPC: 1.14 (Simulation time: 00 hr 25 min 44 sec)
Heartbeat CPU 0 instructions: 238001174 cycles: 176230982 heartbeat IPC: 1.695 cumulative IPC: 1.141 (Simulation time: 00 hr 25 min 47 sec)
Heartbeat CPU 0 instructions: 238501174 cycles: 176511695 heartbeat IPC: 1.781 cumulative IPC: 1.142 (Simulation time: 00 hr 25 min 49 sec)
Heartbeat CPU 0 instructions: 239001176 cycles: 176804434 heartbeat IPC: 1.708 cumulative IPC: 1.143 (Simulation time: 00 hr 25 min 51 sec)
Heartbeat CPU 0 instructions: 239501176 cycles: 177052869 heartbeat IPC: 2.013 cumulative IPC: 1.145 (Simulation time: 00 hr 25 min 53 sec)
Heartbeat CPU 0 instructions: 240001179 cycles: 177309279 heartbeat IPC: 1.95 cumulative IPC: 1.146 (Simulation time: 00 hr 25 min 55 sec)
Heartbeat CPU 0 instructions: 240501181 cycles: 178622453 heartbeat IPC: 0.3808 cumulative IPC: 1.14 (Simulation time: 00 hr 26 min 04 sec)
Heartbeat CPU 0 instructions: 241001184 cycles: 179850749 heartbeat IPC: 0.4071 cumulative IPC: 1.134 (Simulation time: 00 hr 26 min 12 sec)
Heartbeat CPU 0 instructions: 241501188 cycles: 180495082 heartbeat IPC: 0.776 cumulative IPC: 1.133 (Simulation time: 00 hr 26 min 17 sec)
Heartbeat CPU 0 instructions: 242001190 cycles: 181221964 heartbeat IPC: 0.6879 cumulative IPC: 1.131 (Simulation time: 00 hr 26 min 23 sec)
Heartbeat CPU 0 instructions: 242501191 cycles: 181974263 heartbeat IPC: 0.6646 cumulative IPC: 1.129 (Simulation time: 00 hr 26 min 29 sec)
Heartbeat CPU 0 instructions: 243001191 cycles: 182724119 heartbeat IPC: 0.6668 cumulative IPC: 1.127 (Simulation time: 00 hr 26 min 35 sec)
Heartbeat CPU 0 instructions: 243501191 cycles: 183533895 heartbeat IPC: 0.6175 cumulative IPC: 1.125 (Simulation time: 00 hr 26 min 42 sec)
Heartbeat CPU 0 instructions: 244001192 cycles: 184828852 heartbeat IPC: 0.3861 cumulative IPC: 1.119 (Simulation time: 00 hr 26 min 50 sec)
Heartbeat CPU 0 instructions: 244501196 cycles: 185593373 heartbeat IPC: 0.654 cumulative IPC: 1.117 (Simulation time: 00 hr 26 min 56 sec)
Heartbeat CPU 0 instructions: 245001198 cycles: 185989916 heartbeat IPC: 1.261 cumulative IPC: 1.117 (Simulation time: 00 hr 26 min 59 sec)
Heartbeat CPU 0 instructions: 245501201 cycles: 186293879 heartbeat IPC: 1.645 cumulative IPC: 1.118 (Simulation time: 00 hr 27 min 02 sec)
Heartbeat CPU 0 instructions: 246001207 cycles: 186720021 heartbeat IPC: 1.173 cumulative IPC: 1.119 (Simulation time: 00 hr 27 min 05 sec)
Heartbeat CPU 0 instructions: 246501208 cycles: 187088218 heartbeat IPC: 1.358 cumulative IPC: 1.119 (Simulation time: 00 hr 27 min 09 sec)
Heartbeat CPU 0 instructions: 247001208 cycles: 187407649 heartbeat IPC: 1.565 cumulative IPC: 1.12 (Simulation time: 00 hr 27 min 11 sec)
Heartbeat CPU 0 instructions: 247501208 cycles: 187681992 heartbeat IPC: 1.823 cumulative IPC: 1.121 (Simulation time: 00 hr 27 min 14 sec)
Heartbeat CPU 0 instructions: 248001209 cycles: 188160792 heartbeat IPC: 1.044 cumulative IPC: 1.121 (Simulation time: 00 hr 27 min 17 sec)
Heartbeat CPU 0 instructions: 248501210 cycles: 188451736 heartbeat IPC: 1.719 cumulative IPC: 1.122 (Simulation time: 00 hr 27 min 20 sec)
Heartbeat CPU 0 instructions: 249001210 cycles: 188733344 heartbeat IPC: 1.776 cumulative IPC: 1.123 (Simulation time: 00 hr 27 min 22 sec)
Heartbeat CPU 0 instructions: 249501210 cycles: 189029161 heartbeat IPC: 1.69 cumulative IPC: 1.124 (Simulation time: 00 hr 27 min 24 sec)
Simulation finished CPU 0 instructions: 200000000 cycles: 177788811 cumulative IPC: 1.125 (Simulation time: 00 hr 27 min 26 sec)
Simulation complete CPU 0 instructions: 200000000 cycles: 177788811 cumulative IPC: 1.125 (Simulation time: 00 hr 27 min 26 sec)

ChampSim completed all CPUs

=== Simulation ===
CPU 0 runs /local-ssd/ben/dpc4-traces/gtraces_v2/charlie_0000.champsim.gz

Region of Interest Statistics

CPU 0 cumulative IPC: 1.125 instructions: 200000000 cycles: 177788811
CPU 0 Branch Prediction Accuracy: 94.35% MPKI: 11.62 Average ROB Occupancy at Mispredict: 39.47
Branch type MPKI
BRANCH_DIRECT_JUMP: 0.13
BRANCH_INDIRECT: 0.322
BRANCH_CONDITIONAL: 10.67
BRANCH_DIRECT_CALL: 0.07052
BRANCH_INDIRECT_CALL: 0.322
BRANCH_RETURN: 0.1003

cpu0->cpu0_STLB TOTAL        ACCESS:     321568 HIT:     235797 MISS:      85771 MSHR_MERGE:          0
cpu0->cpu0_STLB LOAD         ACCESS:     321568 HIT:     235797 MISS:      85771 MSHR_MERGE:          0
cpu0->cpu0_STLB RFO          ACCESS:          0 HIT:          0 MISS:          0 MSHR_MERGE:          0
cpu0->cpu0_STLB PREFETCH     ACCESS:          0 HIT:          0 MISS:          0 MSHR_MERGE:          0
cpu0->cpu0_STLB WRITE        ACCESS:          0 HIT:          0 MISS:          0 MSHR_MERGE:          0
cpu0->cpu0_STLB TRANSLATION  ACCESS:          0 HIT:          0 MISS:          0 MSHR_MERGE:          0
cpu0->cpu0_STLB PREFETCH REQUESTED:          0 ISSUED:          0 USEFUL:          0 USELESS:          0
cpu0->cpu0_STLB AVERAGE MISS LATENCY: 370.8 cycles
cpu0->cpu0_L2C TOTAL        ACCESS:    7903615 HIT:    5875295 MISS:    2028320 MSHR_MERGE:     785808
cpu0->cpu0_L2C LOAD         ACCESS:     955011 HIT:     800705 MISS:     154306 MSHR_MERGE:      29889
cpu0->cpu0_L2C RFO          ACCESS:     358860 HIT:     144019 MISS:     214841 MSHR_MERGE:      21142
cpu0->cpu0_L2C PREFETCH     ACCESS:    5765092 HIT:    4155653 MISS:    1609439 MSHR_MERGE:     734777
cpu0->cpu0_L2C WRITE        ACCESS:     735328 HIT:     735305 MISS:         23 MSHR_MERGE:          0
cpu0->cpu0_L2C TRANSLATION  ACCESS:      89324 HIT:      39613 MISS:      49711 MSHR_MERGE:          0
cpu0->cpu0_L2C PREFETCH REQUESTED:    5514644 ISSUED:    5150184 USEFUL:     592859 USELESS:     182380
cpu0->cpu0_L2C AVERAGE MISS LATENCY: 509.5 cycles
cpu0->cpu0_L1I TOTAL        ACCESS:   12690332 HIT:   11909916 MISS:     780416 MSHR_MERGE:     199300
cpu0->cpu0_L1I LOAD         ACCESS:   12690332 HIT:   11909916 MISS:     780416 MSHR_MERGE:     199300
cpu0->cpu0_L1I RFO          ACCESS:          0 HIT:          0 MISS:          0 MSHR_MERGE:          0
cpu0->cpu0_L1I PREFETCH     ACCESS:          0 HIT:          0 MISS:          0 MSHR_MERGE:          0
cpu0->cpu0_L1I WRITE        ACCESS:          0 HIT:          0 MISS:          0 MSHR_MERGE:          0
cpu0->cpu0_L1I TRANSLATION  ACCESS:          0 HIT:          0 MISS:          0 MSHR_MERGE:          0
cpu0->cpu0_L1I PREFETCH REQUESTED:          0 ISSUED:          0 USEFUL:          0 USELESS:          0
cpu0->cpu0_L1I AVERAGE MISS LATENCY: 42.89 cycles
cpu0->cpu0_L1D TOTAL        ACCESS:   53279113 HIT:   50197556 MISS:    3081557 MSHR_MERGE:    1644562
cpu0->cpu0_L1D LOAD         ACCESS:   33058944 HIT:   32450910 MISS:     608034 MSHR_MERGE:     234139
cpu0->cpu0_L1D RFO          ACCESS:          0 HIT:          0 MISS:          0 MSHR_MERGE:          0
cpu0->cpu0_L1D PREFETCH     ACCESS:     960229 HIT:     317965 MISS:     642264 MSHR_MERGE:      27354
cpu0->cpu0_L1D WRITE        ACCESS:   19033085 HIT:   17292756 MISS:    1740329 MSHR_MERGE:    1381463
cpu0->cpu0_L1D TRANSLATION  ACCESS:     226855 HIT:     135925 MISS:      90930 MSHR_MERGE:       1606
cpu0->cpu0_L1D PREFETCH REQUESTED:     980179 ISSUED:     960221 USEFUL:     471255 USELESS:     143609
cpu0->cpu0_L1D AVERAGE MISS LATENCY: 244.2 cycles
cpu0->cpu0_ITLB TOTAL        ACCESS:   10161261 HIT:   10095719 MISS:      65542 MSHR_MERGE:      31646
cpu0->cpu0_ITLB LOAD         ACCESS:   10161261 HIT:   10095719 MISS:      65542 MSHR_MERGE:      31646
cpu0->cpu0_ITLB RFO          ACCESS:          0 HIT:          0 MISS:          0 MSHR_MERGE:          0
cpu0->cpu0_ITLB PREFETCH     ACCESS:          0 HIT:          0 MISS:          0 MSHR_MERGE:          0
cpu0->cpu0_ITLB WRITE        ACCESS:          0 HIT:          0 MISS:          0 MSHR_MERGE:          0
cpu0->cpu0_ITLB TRANSLATION  ACCESS:          0 HIT:          0 MISS:          0 MSHR_MERGE:          0
cpu0->cpu0_ITLB PREFETCH REQUESTED:          0 ISSUED:          0 USEFUL:          0 USELESS:          0
cpu0->cpu0_ITLB AVERAGE MISS LATENCY: 65.05 cycles
cpu0->cpu0_DTLB TOTAL        ACCESS:   50209463 HIT:   49673529 MISS:     535934 MSHR_MERGE:     248262
cpu0->cpu0_DTLB LOAD         ACCESS:   50209463 HIT:   49673529 MISS:     535934 MSHR_MERGE:     248262
cpu0->cpu0_DTLB RFO          ACCESS:          0 HIT:          0 MISS:          0 MSHR_MERGE:          0
cpu0->cpu0_DTLB PREFETCH     ACCESS:          0 HIT:          0 MISS:          0 MSHR_MERGE:          0
cpu0->cpu0_DTLB WRITE        ACCESS:          0 HIT:          0 MISS:          0 MSHR_MERGE:          0
cpu0->cpu0_DTLB TRANSLATION  ACCESS:          0 HIT:          0 MISS:          0 MSHR_MERGE:          0
cpu0->cpu0_DTLB PREFETCH REQUESTED:          0 ISSUED:          0 USEFUL:          0 USELESS:          0
cpu0->cpu0_DTLB AVERAGE MISS LATENCY: 108.8 cycles
cpu0->LLC TOTAL        ACCESS:    1898048 HIT:      85830 MISS:    1812218 MSHR_MERGE:          0
cpu0->LLC LOAD         ACCESS:     124417 HIT:       8014 MISS:     116403 MSHR_MERGE:          0
cpu0->LLC RFO          ACCESS:     193699 HIT:       4286 MISS:     189413 MSHR_MERGE:          0
cpu0->LLC PREFETCH     ACCESS:     874662 HIT:      12631 MISS:     862031 MSHR_MERGE:          0
cpu0->LLC WRITE        ACCESS:     655559 HIT:      58504 MISS:     597055 MSHR_MERGE:          0
cpu0->LLC TRANSLATION  ACCESS:      49711 HIT:       2395 MISS:      47316 MSHR_MERGE:          0
cpu0->LLC PREFETCH REQUESTED:          0 ISSUED:          0 USEFUL:          0 USELESS:          0
cpu0->LLC AVERAGE MISS LATENCY: 206.5 cycles

DRAM Statistics

Channel 0 RQ ROW_BUFFER_HIT:      45902
  ROW_BUFFER_MISS:    1169249
  AVG DBUS CONGESTED CYCLE: 4.135
Channel 0 WQ ROW_BUFFER_HIT:      70088
  ROW_BUFFER_MISS:     574419
  FULL:        296
Channel 0 REFRESHES ISSUED:      14816
