[VMEM] WARNING: physical memory size is smaller than virtual memory size.

*** ChampSim Multicore Out-of-Order Simulator ***
Warmup Instructions: 50000000
Simulation Instructions: 200000000
Number of CPUs: 1
Page size: 4096
Core 0: /local-ssd/ben/dpc4-traces/gtraces_v2/sierra.a.6_0000.champsim.gz
 L1D Berti prefetcher
Off-chip DRAM Size: 64 GiB Channels: 1 Width: 64-bit Data Rate: 800 MT/s
[BTB] WARNING: target of return is a lower address than the corresponding call. This is usually a problem with your trace.
[BTB] WARNING: target of return is a lower address than the corresponding call. This is usually a problem with your trace.
Heartbeat CPU 0 instructions: 500000 cycles: 241813 heartbeat IPC: 2.068 cumulative IPC: 2.068 (Simulation time: 00 hr 00 min 06 sec)
[BTB] WARNING: target of return is a lower address than the corresponding call. This is usually a problem with your trace.
[BTB] WARNING: target of return is a lower address than the corresponding call. This is usually a problem with your trace.
[BTB] WARNING: target of return is a lower address than the corresponding call. This is usually a problem with your trace.
[BTB] WARNING: target of return is a lower address than the corresponding call. This is usually a problem with your trace.
[BTB] WARNING: target of return is a lower address than the corresponding call. This is usually a problem with your trace.
[BTB] WARNING: target of return is a lower address than the corresponding call. This is usually a problem with your trace.
[BTB] WARNING: target of return is a lower address than the corresponding call. This is usually a problem with your trace.
[BTB] WARNING: target of return is a lower address than the corresponding call. This is usually a problem with your trace.
Heartbeat CPU 0 instructions: 1000004 cycles: 451524 heartbeat IPC: 2.384 cumulative IPC: 2.215 (Simulation time: 00 hr 00 min 09 sec)
Heartbeat CPU 0 instructions: 1500007 cycles: 635942 heartbeat IPC: 2.711 cumulative IPC: 2.359 (Simulation time: 00 hr 00 min 11 sec)
Heartbeat CPU 0 instructions: 2000013 cycles: 833302 heartbeat IPC: 2.533 cumulative IPC: 2.4 (Simulation time: 00 hr 00 min 14 sec)
Heartbeat CPU 0 instructions: 2500015 cycles: 1028417 heartbeat IPC: 2.563 cumulative IPC: 2.431 (Simulation time: 00 hr 00 min 17 sec)
Heartbeat CPU 0 instructions: 3000018 cycles: 1202127 heartbeat IPC: 2.878 cumulative IPC: 2.496 (Simulation time: 00 hr 00 min 20 sec)
Heartbeat CPU 0 instructions: 3500024 cycles: 1352722 heartbeat IPC: 3.32 cumulative IPC: 2.587 (Simulation time: 00 hr 00 min 22 sec)
Heartbeat CPU 0 instructions: 4000027 cycles: 1490257 heartbeat IPC: 3.635 cumulative IPC: 2.684 (Simulation time: 00 hr 00 min 25 sec)
Heartbeat CPU 0 instructions: 4500030 cycles: 1620216 heartbeat IPC: 3.847 cumulative IPC: 2.777 (Simulation time: 00 hr 00 min 27 sec)
Heartbeat CPU 0 instructions: 5000031 cycles: 1766892 heartbeat IPC: 3.409 cumulative IPC: 2.83 (Simulation time: 00 hr 00 min 30 sec)
Heartbeat CPU 0 instructions: 5500038 cycles: 1901865 heartbeat IPC: 3.704 cumulative IPC: 2.892 (Simulation time: 00 hr 00 min 33 sec)
Heartbeat CPU 0 instructions: 6000039 cycles: 2031089 heartbeat IPC: 3.869 cumulative IPC: 2.954 (Simulation time: 00 hr 00 min 35 sec)
Heartbeat CPU 0 instructions: 6500043 cycles: 2161397 heartbeat IPC: 3.837 cumulative IPC: 3.007 (Simulation time: 00 hr 00 min 38 sec)
Heartbeat CPU 0 instructions: 7000047 cycles: 2298197 heartbeat IPC: 3.655 cumulative IPC: 3.046 (Simulation time: 00 hr 00 min 40 sec)
Heartbeat CPU 0 instructions: 7500050 cycles: 2461742 heartbeat IPC: 3.057 cumulative IPC: 3.047 (Simulation time: 00 hr 00 min 43 sec)
Heartbeat CPU 0 instructions: 8000053 cycles: 2616451 heartbeat IPC: 3.232 cumulative IPC: 3.058 (Simulation time: 00 hr 00 min 46 sec)
Heartbeat CPU 0 instructions: 8500054 cycles: 2735178 heartbeat IPC: 4.211 cumulative IPC: 3.108 (Simulation time: 00 hr 00 min 48 sec)
Heartbeat CPU 0 instructions: 9000055 cycles: 2859832 heartbeat IPC: 4.011 cumulative IPC: 3.147 (Simulation time: 00 hr 00 min 50 sec)
Heartbeat CPU 0 instructions: 9500057 cycles: 2979375 heartbeat IPC: 4.183 cumulative IPC: 3.189 (Simulation time: 00 hr 00 min 52 sec)
Heartbeat CPU 0 instructions: 10000058 cycles: 3114015 heartbeat IPC: 3.714 cumulative IPC: 3.211 (Simulation time: 00 hr 00 min 55 sec)
Heartbeat CPU 0 instructions: 10500062 cycles: 3243204 heartbeat IPC: 3.87 cumulative IPC: 3.238 (Simulation time: 00 hr 00 min 57 sec)
Heartbeat CPU 0 instructions: 11000062 cycles: 3374068 heartbeat IPC: 3.821 cumulative IPC: 3.26 (Simulation time: 00 hr 01 min 00 sec)
Heartbeat CPU 0 instructions: 11500063 cycles: 3496676 heartbeat IPC: 4.078 cumulative IPC: 3.289 (Simulation time: 00 hr 01 min 02 sec)
Heartbeat CPU 0 instructions: 12000070 cycles: 3619279 heartbeat IPC: 4.078 cumulative IPC: 3.316 (Simulation time: 00 hr 01 min 05 sec)
Heartbeat CPU 0 instructions: 12500072 cycles: 3754975 heartbeat IPC: 3.685 cumulative IPC: 3.329 (Simulation time: 00 hr 01 min 07 sec)
Heartbeat CPU 0 instructions: 13000074 cycles: 3883978 heartbeat IPC: 3.876 cumulative IPC: 3.347 (Simulation time: 00 hr 01 min 10 sec)
Heartbeat CPU 0 instructions: 13500076 cycles: 4005123 heartbeat IPC: 4.127 cumulative IPC: 3.371 (Simulation time: 00 hr 01 min 12 sec)
Heartbeat CPU 0 instructions: 14000079 cycles: 4127756 heartbeat IPC: 4.077 cumulative IPC: 3.392 (Simulation time: 00 hr 01 min 15 sec)
Heartbeat CPU 0 instructions: 14500079 cycles: 4250534 heartbeat IPC: 4.072 cumulative IPC: 3.411 (Simulation time: 00 hr 01 min 17 sec)
Heartbeat CPU 0 instructions: 15000080 cycles: 4370472 heartbeat IPC: 4.169 cumulative IPC: 3.432 (Simulation time: 00 hr 01 min 19 sec)
Heartbeat CPU 0 instructions: 15500085 cycles: 4508736 heartbeat IPC: 3.616 cumulative IPC: 3.438 (Simulation time: 00 hr 01 min 22 sec)
Heartbeat CPU 0 instructions: 16000085 cycles: 4650003 heartbeat IPC: 3.539 cumulative IPC: 3.441 (Simulation time: 00 hr 01 min 25 sec)
Heartbeat CPU 0 instructions: 16500090 cycles: 4837146 heartbeat IPC: 2.672 cumulative IPC: 3.411 (Simulation time: 00 hr 01 min 28 sec)
Heartbeat CPU 0 instructions: 17000094 cycles: 4966086 heartbeat IPC: 3.878 cumulative IPC: 3.423 (Simulation time: 00 hr 01 min 30 sec)
Heartbeat CPU 0 instructions: 17500096 cycles: 5093755 heartbeat IPC: 3.916 cumulative IPC: 3.436 (Simulation time: 00 hr 01 min 33 sec)
Heartbeat CPU 0 instructions: 18000097 cycles: 5220689 heartbeat IPC: 3.939 cumulative IPC: 3.448 (Simulation time: 00 hr 01 min 35 sec)
Heartbeat CPU 0 instructions: 18500102 cycles: 5397117 heartbeat IPC: 2.834 cumulative IPC: 3.428 (Simulation time: 00 hr 01 min 38 sec)
Heartbeat CPU 0 instructions: 19000109 cycles: 5548963 heartbeat IPC: 3.293 cumulative IPC: 3.424 (Simulation time: 00 hr 01 min 41 sec)
Heartbeat CPU 0 instructions: 19500111 cycles: 5696816 heartbeat IPC: 3.382 cumulative IPC: 3.423 (Simulation time: 00 hr 01 min 44 sec)
Heartbeat CPU 0 instructions: 20000111 cycles: 5871621 heartbeat IPC: 2.86 cumulative IPC: 3.406 (Simulation time: 00 hr 01 min 46 sec)
Heartbeat CPU 0 instructions: 20500112 cycles: 6049922 heartbeat IPC: 2.804 cumulative IPC: 3.388 (Simulation time: 00 hr 01 min 49 sec)
Heartbeat CPU 0 instructions: 21000117 cycles: 6218028 heartbeat IPC: 2.974 cumulative IPC: 3.377 (Simulation time: 00 hr 01 min 52 sec)
Heartbeat CPU 0 instructions: 21500121 cycles: 6372757 heartbeat IPC: 3.231 cumulative IPC: 3.374 (Simulation time: 00 hr 01 min 55 sec)
Heartbeat CPU 0 instructions: 22000124 cycles: 6522612 heartbeat IPC: 3.337 cumulative IPC: 3.373 (Simulation time: 00 hr 01 min 57 sec)
Heartbeat CPU 0 instructions: 22500131 cycles: 6665671 heartbeat IPC: 3.495 cumulative IPC: 3.376 (Simulation time: 00 hr 02 min 00 sec)
Heartbeat CPU 0 instructions: 23000138 cycles: 6801671 heartbeat IPC: 3.677 cumulative IPC: 3.382 (Simulation time: 00 hr 02 min 03 sec)
Heartbeat CPU 0 instructions: 23500145 cycles: 6957809 heartbeat IPC: 3.202 cumulative IPC: 3.378 (Simulation time: 00 hr 02 min 05 sec)
Heartbeat CPU 0 instructions: 24000148 cycles: 7103090 heartbeat IPC: 3.442 cumulative IPC: 3.379 (Simulation time: 00 hr 02 min 08 sec)
Heartbeat CPU 0 instructions: 24500155 cycles: 7244139 heartbeat IPC: 3.545 cumulative IPC: 3.382 (Simulation time: 00 hr 02 min 11 sec)
Heartbeat CPU 0 instructions: 25000155 cycles: 7390389 heartbeat IPC: 3.419 cumulative IPC: 3.383 (Simulation time: 00 hr 02 min 13 sec)
Heartbeat CPU 0 instructions: 25500159 cycles: 7530548 heartbeat IPC: 3.567 cumulative IPC: 3.386 (Simulation time: 00 hr 02 min 16 sec)
Heartbeat CPU 0 instructions: 26000161 cycles: 7668899 heartbeat IPC: 3.614 cumulative IPC: 3.39 (Simulation time: 00 hr 02 min 18 sec)
Heartbeat CPU 0 instructions: 26500161 cycles: 7813351 heartbeat IPC: 3.461 cumulative IPC: 3.392 (Simulation time: 00 hr 02 min 21 sec)
Heartbeat CPU 0 instructions: 27000163 cycles: 7970469 heartbeat IPC: 3.182 cumulative IPC: 3.388 (Simulation time: 00 hr 02 min 23 sec)
Heartbeat CPU 0 instructions: 27500166 cycles: 8105427 heartbeat IPC: 3.705 cumulative IPC: 3.393 (Simulation time: 00 hr 02 min 26 sec)
Heartbeat CPU 0 instructions: 28000171 cycles: 8246091 heartbeat IPC: 3.555 cumulative IPC: 3.396 (Simulation time: 00 hr 02 min 28 sec)
Heartbeat CPU 0 instructions: 28500174 cycles: 8384904 heartbeat IPC: 3.602 cumulative IPC: 3.399 (Simulation time: 00 hr 02 min 31 sec)
Heartbeat CPU 0 instructions: 29000176 cycles: 8510905 heartbeat IPC: 3.968 cumulative IPC: 3.407 (Simulation time: 00 hr 02 min 33 sec)
Heartbeat CPU 0 instructions: 29500178 cycles: 8658620 heartbeat IPC: 3.385 cumulative IPC: 3.407 (Simulation time: 00 hr 02 min 35 sec)
Heartbeat CPU 0 instructions: 30000182 cycles: 8795304 heartbeat IPC: 3.658 cumulative IPC: 3.411 (Simulation time: 00 hr 02 min 38 sec)
Heartbeat CPU 0 instructions: 30500184 cycles: 8925094 heartbeat IPC: 3.852 cumulative IPC: 3.417 (Simulation time: 00 hr 02 min 41 sec)
Heartbeat CPU 0 instructions: 31000187 cycles: 9047256 heartbeat IPC: 4.093 cumulative IPC: 3.426 (Simulation time: 00 hr 02 min 43 sec)
Heartbeat CPU 0 instructions: 31500187 cycles: 9188740 heartbeat IPC: 3.534 cumulative IPC: 3.428 (Simulation time: 00 hr 02 min 45 sec)
Heartbeat CPU 0 instructions: 32000187 cycles: 9321635 heartbeat IPC: 3.762 cumulative IPC: 3.433 (Simulation time: 00 hr 02 min 48 sec)
Heartbeat CPU 0 instructions: 32500190 cycles: 9452687 heartbeat IPC: 3.815 cumulative IPC: 3.438 (Simulation time: 00 hr 02 min 50 sec)
Heartbeat CPU 0 instructions: 33000195 cycles: 9589317 heartbeat IPC: 3.66 cumulative IPC: 3.441 (Simulation time: 00 hr 02 min 53 sec)
Heartbeat CPU 0 instructions: 33500199 cycles: 9725231 heartbeat IPC: 3.679 cumulative IPC: 3.445 (Simulation time: 00 hr 02 min 55 sec)
Heartbeat CPU 0 instructions: 34000200 cycles: 9859003 heartbeat IPC: 3.738 cumulative IPC: 3.449 (Simulation time: 00 hr 02 min 58 sec)
Heartbeat CPU 0 instructions: 34500206 cycles: 9984825 heartbeat IPC: 3.974 cumulative IPC: 3.455 (Simulation time: 00 hr 03 min 00 sec)
Heartbeat CPU 0 instructions: 35000206 cycles: 10111564 heartbeat IPC: 3.945 cumulative IPC: 3.461 (Simulation time: 00 hr 03 min 03 sec)
Heartbeat CPU 0 instructions: 35500206 cycles: 10232190 heartbeat IPC: 4.145 cumulative IPC: 3.469 (Simulation time: 00 hr 03 min 05 sec)
Heartbeat CPU 0 instructions: 36000206 cycles: 10364703 heartbeat IPC: 3.773 cumulative IPC: 3.473 (Simulation time: 00 hr 03 min 07 sec)
Heartbeat CPU 0 instructions: 36500210 cycles: 10490792 heartbeat IPC: 3.965 cumulative IPC: 3.479 (Simulation time: 00 hr 03 min 10 sec)
Heartbeat CPU 0 instructions: 37000212 cycles: 10619308 heartbeat IPC: 3.891 cumulative IPC: 3.484 (Simulation time: 00 hr 03 min 12 sec)
Heartbeat CPU 0 instructions: 37500219 cycles: 10740904 heartbeat IPC: 4.112 cumulative IPC: 3.491 (Simulation time: 00 hr 03 min 15 sec)
Heartbeat CPU 0 instructions: 38000223 cycles: 10868700 heartbeat IPC: 3.913 cumulative IPC: 3.496 (Simulation time: 00 hr 03 min 17 sec)
Heartbeat CPU 0 instructions: 38500223 cycles: 11003712 heartbeat IPC: 3.703 cumulative IPC: 3.499 (Simulation time: 00 hr 03 min 19 sec)
Heartbeat CPU 0 instructions: 39000229 cycles: 11127608 heartbeat IPC: 4.036 cumulative IPC: 3.505 (Simulation time: 00 hr 03 min 21 sec)
Heartbeat CPU 0 instructions: 39500234 cycles: 11257429 heartbeat IPC: 3.851 cumulative IPC: 3.509 (Simulation time: 00 hr 03 min 24 sec)
Heartbeat CPU 0 instructions: 40000238 cycles: 11387205 heartbeat IPC: 3.853 cumulative IPC: 3.513 (Simulation time: 00 hr 03 min 26 sec)
Heartbeat CPU 0 instructions: 40500243 cycles: 11500795 heartbeat IPC: 4.402 cumulative IPC: 3.522 (Simulation time: 00 hr 03 min 28 sec)
Heartbeat CPU 0 instructions: 41000247 cycles: 11625295 heartbeat IPC: 4.016 cumulative IPC: 3.527 (Simulation time: 00 hr 03 min 30 sec)
Heartbeat CPU 0 instructions: 41500254 cycles: 11748055 heartbeat IPC: 4.073 cumulative IPC: 3.533 (Simulation time: 00 hr 03 min 32 sec)
Heartbeat CPU 0 instructions: 42000259 cycles: 11875557 heartbeat IPC: 3.922 cumulative IPC: 3.537 (Simulation time: 00 hr 03 min 35 sec)
Heartbeat CPU 0 instructions: 42500263 cycles: 12003495 heartbeat IPC: 3.908 cumulative IPC: 3.541 (Simulation time: 00 hr 03 min 37 sec)
Heartbeat CPU 0 instructions: 43000268 cycles: 12130412 heartbeat IPC: 3.94 cumulative IPC: 3.545 (Simulation time: 00 hr 03 min 40 sec)
Heartbeat CPU 0 instructions: 43500273 cycles: 12261584 heartbeat IPC: 3.812 cumulative IPC: 3.548 (Simulation time: 00 hr 03 min 42 sec)
Heartbeat CPU 0 instructions: 44000279 cycles: 12398039 heartbeat IPC: 3.664 cumulative IPC: 3.549 (Simulation time: 00 hr 03 min 45 sec)
Heartbeat CPU 0 instructions: 44500279 cycles: 12536110 heartbeat IPC: 3.621 cumulative IPC: 3.55 (Simulation time: 00 hr 03 min 47 sec)
Heartbeat CPU 0 instructions: 45000280 cycles: 12683474 heartbeat IPC: 3.393 cumulative IPC: 3.548 (Simulation time: 00 hr 03 min 50 sec)
Heartbeat CPU 0 instructions: 45500280 cycles: 12814584 heartbeat IPC: 3.814 cumulative IPC: 3.551 (Simulation time: 00 hr 03 min 52 sec)
Heartbeat CPU 0 instructions: 46000286 cycles: 12940568 heartbeat IPC: 3.969 cumulative IPC: 3.555 (Simulation time: 00 hr 03 min 55 sec)
Heartbeat CPU 0 instructions: 46500293 cycles: 13084033 heartbeat IPC: 3.485 cumulative IPC: 3.554 (Simulation time: 00 hr 03 min 57 sec)
Heartbeat CPU 0 instructions: 47000294 cycles: 13216942 heartbeat IPC: 3.762 cumulative IPC: 3.556 (Simulation time: 00 hr 04 min 00 sec)
Heartbeat CPU 0 instructions: 47500294 cycles: 13352400 heartbeat IPC: 3.691 cumulative IPC: 3.557 (Simulation time: 00 hr 04 min 02 sec)
Heartbeat CPU 0 instructions: 48000301 cycles: 13459456 heartbeat IPC: 4.671 cumulative IPC: 3.566 (Simulation time: 00 hr 04 min 04 sec)
Heartbeat CPU 0 instructions: 48500306 cycles: 13567488 heartbeat IPC: 4.628 cumulative IPC: 3.575 (Simulation time: 00 hr 04 min 06 sec)
Heartbeat CPU 0 instructions: 49000307 cycles: 13673876 heartbeat IPC: 4.7 cumulative IPC: 3.583 (Simulation time: 00 hr 04 min 07 sec)
Heartbeat CPU 0 instructions: 49500313 cycles: 13780911 heartbeat IPC: 4.671 cumulative IPC: 3.592 (Simulation time: 00 hr 04 min 09 sec)
Warmup finished CPU 0 instructions: 50000002 cycles: 13891396 cumulative IPC: 3.599 (Simulation time: 00 hr 04 min 11 sec)
Warmup complete CPU 0 instructions: 50000002 cycles: 13891396 cumulative IPC: 3.599 (Simulation time: 00 hr 04 min 11 sec)
Heartbeat CPU 0 instructions: 50000317 cycles: 13891442 heartbeat IPC: 4.524 cumulative IPC: 6.848 (Simulation time: 00 hr 04 min 11 sec)
Heartbeat CPU 0 instructions: 50500317 cycles: 15572930 heartbeat IPC: 0.2974 cumulative IPC: 0.2975 (Simulation time: 00 hr 04 min 22 sec)
Heartbeat CPU 0 instructions: 51000321 cycles: 17146425 heartbeat IPC: 0.3178 cumulative IPC: 0.3073 (Simulation time: 00 hr 04 min 32 sec)
Heartbeat CPU 0 instructions: 51500323 cycles: 18221378 heartbeat IPC: 0.4651 cumulative IPC: 0.3465 (Simulation time: 00 hr 04 min 39 sec)
Heartbeat CPU 0 instructions: 52000324 cycles: 19307524 heartbeat IPC: 0.4603 cumulative IPC: 0.3693 (Simulation time: 00 hr 04 min 47 sec)
Heartbeat CPU 0 instructions: 52500329 cycles: 20267258 heartbeat IPC: 0.521 cumulative IPC: 0.3922 (Simulation time: 00 hr 04 min 54 sec)
Heartbeat CPU 0 instructions: 53000329 cycles: 21498922 heartbeat IPC: 0.406 cumulative IPC: 0.3944 (Simulation time: 00 hr 05 min 02 sec)
Heartbeat CPU 0 instructions: 53500329 cycles: 21863216 heartbeat IPC: 1.373 cumulative IPC: 0.4391 (Simulation time: 00 hr 05 min 05 sec)
Heartbeat CPU 0 instructions: 54000332 cycles: 22214705 heartbeat IPC: 1.423 cumulative IPC: 0.4806 (Simulation time: 00 hr 05 min 08 sec)
Heartbeat CPU 0 instructions: 54500333 cycles: 22555778 heartbeat IPC: 1.466 cumulative IPC: 0.5194 (Simulation time: 00 hr 05 min 11 sec)
Heartbeat CPU 0 instructions: 55000337 cycles: 22892648 heartbeat IPC: 1.484 cumulative IPC: 0.5555 (Simulation time: 00 hr 05 min 14 sec)
Heartbeat CPU 0 instructions: 55500340 cycles: 23874089 heartbeat IPC: 0.5095 cumulative IPC: 0.551 (Simulation time: 00 hr 05 min 21 sec)
Heartbeat CPU 0 instructions: 56000342 cycles: 25420543 heartbeat IPC: 0.3233 cumulative IPC: 0.5204 (Simulation time: 00 hr 05 min 31 sec)
Heartbeat CPU 0 instructions: 56500348 cycles: 26819767 heartbeat IPC: 0.3573 cumulative IPC: 0.5028 (Simulation time: 00 hr 05 min 41 sec)
Heartbeat CPU 0 instructions: 57000353 cycles: 28055722 heartbeat IPC: 0.4045 cumulative IPC: 0.4942 (Simulation time: 00 hr 05 min 49 sec)
Heartbeat CPU 0 instructions: 57500353 cycles: 29394539 heartbeat IPC: 0.3735 cumulative IPC: 0.4838 (Simulation time: 00 hr 05 min 58 sec)
Heartbeat CPU 0 instructions: 58000353 cycles: 31026685 heartbeat IPC: 0.3063 cumulative IPC: 0.4669 (Simulation time: 00 hr 06 min 08 sec)
Heartbeat CPU 0 instructions: 58500355 cycles: 32656764 heartbeat IPC: 0.3067 cumulative IPC: 0.453 (Simulation time: 00 hr 06 min 19 sec)
Heartbeat CPU 0 instructions: 59000356 cycles: 33968440 heartbeat IPC: 0.3812 cumulative IPC: 0.4483 (Simulation time: 00 hr 06 min 28 sec)
Heartbeat CPU 0 instructions: 59500356 cycles: 35321245 heartbeat IPC: 0.3696 cumulative IPC: 0.4433 (Simulation time: 00 hr 06 min 37 sec)
Heartbeat CPU 0 instructions: 60000356 cycles: 36554297 heartbeat IPC: 0.4055 cumulative IPC: 0.4413 (Simulation time: 00 hr 06 min 45 sec)
Heartbeat CPU 0 instructions: 60500356 cycles: 38019276 heartbeat IPC: 0.3413 cumulative IPC: 0.4352 (Simulation time: 00 hr 06 min 55 sec)
Heartbeat CPU 0 instructions: 61000358 cycles: 39025872 heartbeat IPC: 0.4967 cumulative IPC: 0.4377 (Simulation time: 00 hr 07 min 02 sec)
Heartbeat CPU 0 instructions: 61500363 cycles: 40101321 heartbeat IPC: 0.4649 cumulative IPC: 0.4388 (Simulation time: 00 hr 07 min 10 sec)
Heartbeat CPU 0 instructions: 62000367 cycles: 41541675 heartbeat IPC: 0.3471 cumulative IPC: 0.434 (Simulation time: 00 hr 07 min 20 sec)
Heartbeat CPU 0 instructions: 62500367 cycles: 42805883 heartbeat IPC: 0.3955 cumulative IPC: 0.4323 (Simulation time: 00 hr 07 min 28 sec)
Heartbeat CPU 0 instructions: 63000367 cycles: 43796736 heartbeat IPC: 0.5046 cumulative IPC: 0.4347 (Simulation time: 00 hr 07 min 35 sec)
Heartbeat CPU 0 instructions: 63500374 cycles: 45374965 heartbeat IPC: 0.3168 cumulative IPC: 0.4288 (Simulation time: 00 hr 07 min 46 sec)
Heartbeat CPU 0 instructions: 64000374 cycles: 46745242 heartbeat IPC: 0.3649 cumulative IPC: 0.4261 (Simulation time: 00 hr 07 min 55 sec)
Heartbeat CPU 0 instructions: 64500374 cycles: 48172853 heartbeat IPC: 0.3502 cumulative IPC: 0.423 (Simulation time: 00 hr 08 min 05 sec)
Heartbeat CPU 0 instructions: 65000374 cycles: 49258468 heartbeat IPC: 0.4606 cumulative IPC: 0.4241 (Simulation time: 00 hr 08 min 12 sec)
Heartbeat CPU 0 instructions: 65500378 cycles: 50707066 heartbeat IPC: 0.3452 cumulative IPC: 0.421 (Simulation time: 00 hr 08 min 22 sec)
Heartbeat CPU 0 instructions: 66000378 cycles: 52186952 heartbeat IPC: 0.3379 cumulative IPC: 0.4178 (Simulation time: 00 hr 08 min 32 sec)
Heartbeat CPU 0 instructions: 66500378 cycles: 53537370 heartbeat IPC: 0.3703 cumulative IPC: 0.4162 (Simulation time: 00 hr 08 min 42 sec)
Heartbeat CPU 0 instructions: 67000378 cycles: 54577731 heartbeat IPC: 0.4806 cumulative IPC: 0.4178 (Simulation time: 00 hr 08 min 49 sec)
Heartbeat CPU 0 instructions: 67500379 cycles: 55664330 heartbeat IPC: 0.4602 cumulative IPC: 0.4189 (Simulation time: 00 hr 08 min 57 sec)
Heartbeat CPU 0 instructions: 68000381 cycles: 56565079 heartbeat IPC: 0.5551 cumulative IPC: 0.4218 (Simulation time: 00 hr 09 min 03 sec)
Heartbeat CPU 0 instructions: 68500381 cycles: 58585300 heartbeat IPC: 0.2475 cumulative IPC: 0.4139 (Simulation time: 00 hr 09 min 16 sec)
Heartbeat CPU 0 instructions: 69000381 cycles: 59630362 heartbeat IPC: 0.4784 cumulative IPC: 0.4154 (Simulation time: 00 hr 09 min 23 sec)
Heartbeat CPU 0 instructions: 69500386 cycles: 60652410 heartbeat IPC: 0.4892 cumulative IPC: 0.417 (Simulation time: 00 hr 09 min 30 sec)
Heartbeat CPU 0 instructions: 70000388 cycles: 61584036 heartbeat IPC: 0.5367 cumulative IPC: 0.4194 (Simulation time: 00 hr 09 min 37 sec)
Heartbeat CPU 0 instructions: 70500388 cycles: 62758181 heartbeat IPC: 0.4258 cumulative IPC: 0.4195 (Simulation time: 00 hr 09 min 45 sec)
Heartbeat CPU 0 instructions: 71000389 cycles: 64018365 heartbeat IPC: 0.3968 cumulative IPC: 0.4189 (Simulation time: 00 hr 09 min 53 sec)
Heartbeat CPU 0 instructions: 71500395 cycles: 65028825 heartbeat IPC: 0.4948 cumulative IPC: 0.4204 (Simulation time: 00 hr 10 min 01 sec)
Heartbeat CPU 0 instructions: 72000395 cycles: 65774056 heartbeat IPC: 0.6709 cumulative IPC: 0.424 (Simulation time: 00 hr 10 min 06 sec)
Heartbeat CPU 0 instructions: 72500395 cycles: 66161750 heartbeat IPC: 1.29 cumulative IPC: 0.4305 (Simulation time: 00 hr 10 min 09 sec)
Heartbeat CPU 0 instructions: 73000396 cycles: 66506746 heartbeat IPC: 1.449 cumulative IPC: 0.4371 (Simulation time: 00 hr 10 min 13 sec)
Heartbeat CPU 0 instructions: 73500399 cycles: 66861288 heartbeat IPC: 1.41 cumulative IPC: 0.4437 (Simulation time: 00 hr 10 min 16 sec)
Heartbeat CPU 0 instructions: 74000401 cycles: 67998493 heartbeat IPC: 0.4397 cumulative IPC: 0.4436 (Simulation time: 00 hr 10 min 23 sec)
Heartbeat CPU 0 instructions: 74500401 cycles: 70114523 heartbeat IPC: 0.2363 cumulative IPC: 0.4358 (Simulation time: 00 hr 10 min 37 sec)
Heartbeat CPU 0 instructions: 75000403 cycles: 72548360 heartbeat IPC: 0.2054 cumulative IPC: 0.4262 (Simulation time: 00 hr 10 min 52 sec)
Heartbeat CPU 0 instructions: 75500409 cycles: 73760098 heartbeat IPC: 0.4126 cumulative IPC: 0.4259 (Simulation time: 00 hr 11 min 00 sec)
Heartbeat CPU 0 instructions: 76000410 cycles: 75223322 heartbeat IPC: 0.3417 cumulative IPC: 0.4239 (Simulation time: 00 hr 11 min 10 sec)
Heartbeat CPU 0 instructions: 76500412 cycles: 76710532 heartbeat IPC: 0.3362 cumulative IPC: 0.4219 (Simulation time: 00 hr 11 min 20 sec)
Heartbeat CPU 0 instructions: 77000412 cycles: 78506764 heartbeat IPC: 0.2784 cumulative IPC: 0.4179 (Simulation time: 00 hr 11 min 32 sec)
Heartbeat CPU 0 instructions: 77500417 cycles: 80222719 heartbeat IPC: 0.2914 cumulative IPC: 0.4146 (Simulation time: 00 hr 11 min 43 sec)
Heartbeat CPU 0 instructions: 78000418 cycles: 81231211 heartbeat IPC: 0.4958 cumulative IPC: 0.4158 (Simulation time: 00 hr 11 min 50 sec)
Heartbeat CPU 0 instructions: 78500418 cycles: 82348970 heartbeat IPC: 0.4473 cumulative IPC: 0.4163 (Simulation time: 00 hr 11 min 58 sec)
Heartbeat CPU 0 instructions: 79000419 cycles: 83871763 heartbeat IPC: 0.3283 cumulative IPC: 0.4144 (Simulation time: 00 hr 12 min 08 sec)
Heartbeat CPU 0 instructions: 79500420 cycles: 85383816 heartbeat IPC: 0.3307 cumulative IPC: 0.4126 (Simulation time: 00 hr 12 min 18 sec)
Heartbeat CPU 0 instructions: 80000422 cycles: 86923826 heartbeat IPC: 0.3247 cumulative IPC: 0.4108 (Simulation time: 00 hr 12 min 29 sec)
Heartbeat CPU 0 instructions: 80500426 cycles: 88001061 heartbeat IPC: 0.4642 cumulative IPC: 0.4116 (Simulation time: 00 hr 12 min 36 sec)
Heartbeat CPU 0 instructions: 81000428 cycles: 89025330 heartbeat IPC: 0.4882 cumulative IPC: 0.4126 (Simulation time: 00 hr 12 min 43 sec)
Heartbeat CPU 0 instructions: 81500428 cycles: 90359884 heartbeat IPC: 0.3747 cumulative IPC: 0.4119 (Simulation time: 00 hr 12 min 52 sec)
Heartbeat CPU 0 instructions: 82000428 cycles: 91695717 heartbeat IPC: 0.3743 cumulative IPC: 0.4113 (Simulation time: 00 hr 13 min 01 sec)
Heartbeat CPU 0 instructions: 82500429 cycles: 92800581 heartbeat IPC: 0.4525 cumulative IPC: 0.4119 (Simulation time: 00 hr 13 min 09 sec)
Heartbeat CPU 0 instructions: 83000429 cycles: 93962879 heartbeat IPC: 0.4302 cumulative IPC: 0.4121 (Simulation time: 00 hr 13 min 16 sec)
Heartbeat CPU 0 instructions: 83500429 cycles: 95514408 heartbeat IPC: 0.3223 cumulative IPC: 0.4104 (Simulation time: 00 hr 13 min 26 sec)
Heartbeat CPU 0 instructions: 84000432 cycles: 96694478 heartbeat IPC: 0.4237 cumulative IPC: 0.4106 (Simulation time: 00 hr 13 min 34 sec)
Heartbeat CPU 0 instructions: 84500432 cycles: 97886577 heartbeat IPC: 0.4194 cumulative IPC: 0.4107 (Simulation time: 00 hr 13 min 43 sec)
Heartbeat CPU 0 instructions: 85000433 cycles: 98826544 heartbeat IPC: 0.5319 cumulative IPC: 0.4121 (Simulation time: 00 hr 13 min 49 sec)
Heartbeat CPU 0 instructions: 85500440 cycles: 99538070 heartbeat IPC: 0.7027 cumulative IPC: 0.4145 (Simulation time: 00 hr 13 min 54 sec)
Heartbeat CPU 0 instructions: 86000441 cycles: 101030096 heartbeat IPC: 0.3351 cumulative IPC: 0.4131 (Simulation time: 00 hr 14 min 04 sec)
Heartbeat CPU 0 instructions: 86500441 cycles: 101873297 heartbeat IPC: 0.593 cumulative IPC: 0.4149 (Simulation time: 00 hr 14 min 10 sec)
Heartbeat CPU 0 instructions: 87000442 cycles: 102216004 heartbeat IPC: 1.459 cumulative IPC: 0.4189 (Simulation time: 00 hr 14 min 13 sec)
Heartbeat CPU 0 instructions: 87500443 cycles: 102546745 heartbeat IPC: 1.512 cumulative IPC: 0.423 (Simulation time: 00 hr 14 min 16 sec)
Heartbeat CPU 0 instructions: 88000443 cycles: 102869989 heartbeat IPC: 1.547 cumulative IPC: 0.4271 (Simulation time: 00 hr 14 min 19 sec)
Heartbeat CPU 0 instructions: 88500449 cycles: 103200668 heartbeat IPC: 1.512 cumulative IPC: 0.4311 (Simulation time: 00 hr 14 min 22 sec)
Heartbeat CPU 0 instructions: 89000456 cycles: 103504768 heartbeat IPC: 1.644 cumulative IPC: 0.4352 (Simulation time: 00 hr 14 min 25 sec)
Heartbeat CPU 0 instructions: 89500456 cycles: 103779040 heartbeat IPC: 1.823 cumulative IPC: 0.4394 (Simulation time: 00 hr 14 min 28 sec)
Heartbeat CPU 0 instructions: 90000458 cycles: 105221256 heartbeat IPC: 0.3467 cumulative IPC: 0.438 (Simulation time: 00 hr 14 min 37 sec)
Heartbeat CPU 0 instructions: 90500464 cycles: 106705912 heartbeat IPC: 0.3368 cumulative IPC: 0.4364 (Simulation time: 00 hr 14 min 47 sec)
Heartbeat CPU 0 instructions: 91000467 cycles: 107823497 heartbeat IPC: 0.4474 cumulative IPC: 0.4365 (Simulation time: 00 hr 14 min 56 sec)
Heartbeat CPU 0 instructions: 91500468 cycles: 109082172 heartbeat IPC: 0.3972 cumulative IPC: 0.436 (Simulation time: 00 hr 15 min 04 sec)
Heartbeat CPU 0 instructions: 92000468 cycles: 110912279 heartbeat IPC: 0.2732 cumulative IPC: 0.4329 (Simulation time: 00 hr 15 min 16 sec)
Heartbeat CPU 0 instructions: 92500468 cycles: 111970277 heartbeat IPC: 0.4726 cumulative IPC: 0.4333 (Simulation time: 00 hr 15 min 23 sec)
Heartbeat CPU 0 instructions: 93000473 cycles: 113234131 heartbeat IPC: 0.3956 cumulative IPC: 0.4328 (Simulation time: 00 hr 15 min 32 sec)
Heartbeat CPU 0 instructions: 93500473 cycles: 114360116 heartbeat IPC: 0.4441 cumulative IPC: 0.433 (Simulation time: 00 hr 15 min 40 sec)
Heartbeat CPU 0 instructions: 94000473 cycles: 115705591 heartbeat IPC: 0.3716 cumulative IPC: 0.4322 (Simulation time: 00 hr 15 min 49 sec)
Heartbeat CPU 0 instructions: 94500477 cycles: 117138322 heartbeat IPC: 0.349 cumulative IPC: 0.431 (Simulation time: 00 hr 15 min 59 sec)
Heartbeat CPU 0 instructions: 95000477 cycles: 118834055 heartbeat IPC: 0.2949 cumulative IPC: 0.4288 (Simulation time: 00 hr 16 min 10 sec)
Heartbeat CPU 0 instructions: 95500478 cycles: 119895879 heartbeat IPC: 0.4709 cumulative IPC: 0.4292 (Simulation time: 00 hr 16 min 18 sec)
Heartbeat CPU 0 instructions: 96000484 cycles: 121028989 heartbeat IPC: 0.4413 cumulative IPC: 0.4294 (Simulation time: 00 hr 16 min 25 sec)
Heartbeat CPU 0 instructions: 96500485 cycles: 122060649 heartbeat IPC: 0.4847 cumulative IPC: 0.4299 (Simulation time: 00 hr 16 min 33 sec)
Heartbeat CPU 0 instructions: 97000487 cycles: 122986848 heartbeat IPC: 0.5398 cumulative IPC: 0.4308 (Simulation time: 00 hr 16 min 39 sec)
Heartbeat CPU 0 instructions: 97500490 cycles: 123971758 heartbeat IPC: 0.5077 cumulative IPC: 0.4315 (Simulation time: 00 hr 16 min 46 sec)
Heartbeat CPU 0 instructions: 98000497 cycles: 125520323 heartbeat IPC: 0.3229 cumulative IPC: 0.43 (Simulation time: 00 hr 16 min 56 sec)
Heartbeat CPU 0 instructions: 98500498 cycles: 126316312 heartbeat IPC: 0.6282 cumulative IPC: 0.4314 (Simulation time: 00 hr 17 min 02 sec)
Heartbeat CPU 0 instructions: 99000499 cycles: 127569212 heartbeat IPC: 0.3991 cumulative IPC: 0.431 (Simulation time: 00 hr 17 min 11 sec)
Heartbeat CPU 0 instructions: 99500500 cycles: 128687613 heartbeat IPC: 0.4471 cumulative IPC: 0.4312 (Simulation time: 00 hr 17 min 18 sec)
Heartbeat CPU 0 instructions: 100000501 cycles: 129639293 heartbeat IPC: 0.5254 cumulative IPC: 0.432 (Simulation time: 00 hr 17 min 25 sec)
Heartbeat CPU 0 instructions: 100500502 cycles: 130787341 heartbeat IPC: 0.4355 cumulative IPC: 0.432 (Simulation time: 00 hr 17 min 33 sec)
Heartbeat CPU 0 instructions: 101000508 cycles: 131860967 heartbeat IPC: 0.4657 cumulative IPC: 0.4323 (Simulation time: 00 hr 17 min 40 sec)
Heartbeat CPU 0 instructions: 101500508 cycles: 132987964 heartbeat IPC: 0.4437 cumulative IPC: 0.4324 (Simulation time: 00 hr 17 min 48 sec)
Heartbeat CPU 0 instructions: 102000508 cycles: 134212269 heartbeat IPC: 0.4084 cumulative IPC: 0.4322 (Simulation time: 00 hr 17 min 56 sec)
Heartbeat CPU 0 instructions: 102500508 cycles: 135297489 heartbeat IPC: 0.4607 cumulative IPC: 0.4324 (Simulation time: 00 hr 18 min 03 sec)
Heartbeat CPU 0 instructions: 103000510 cycles: 137308523 heartbeat IPC: 0.2486 cumulative IPC: 0.4294 (Simulation time: 00 hr 18 min 16 sec)
Heartbeat CPU 0 instructions: 103500515 cycles: 139010989 heartbeat IPC: 0.2937 cumulative IPC: 0.4276 (Simulation time: 00 hr 18 min 27 sec)
Heartbeat CPU 0 instructions: 104000515 cycles: 140769686 heartbeat IPC: 0.2843 cumulative IPC: 0.4256 (Simulation time: 00 hr 18 min 39 sec)
Heartbeat CPU 0 instructions: 104500520 cycles: 141905934 heartbeat IPC: 0.44 cumulative IPC: 0.4257 (Simulation time: 00 hr 18 min 49 sec)
Heartbeat CPU 0 instructions: 105000523 cycles: 143145202 heartbeat IPC: 0.4035 cumulative IPC: 0.4255 (Simulation time: 00 hr 18 min 58 sec)
Heartbeat CPU 0 instructions: 105500530 cycles: 144454871 heartbeat IPC: 0.3818 cumulative IPC: 0.4251 (Simulation time: 00 hr 19 min 09 sec)
Heartbeat CPU 0 instructions: 106000531 cycles: 145840683 heartbeat IPC: 0.3608 cumulative IPC: 0.4244 (Simulation time: 00 hr 19 min 20 sec)
Heartbeat CPU 0 instructions: 106500534 cycles: 146990107 heartbeat IPC: 0.435 cumulative IPC: 0.4245 (Simulation time: 00 hr 19 min 29 sec)
Heartbeat CPU 0 instructions: 107000535 cycles: 147990076 heartbeat IPC: 0.5 cumulative IPC: 0.4251 (Simulation time: 00 hr 19 min 37 sec)
Heartbeat CPU 0 instructions: 107500541 cycles: 149123522 heartbeat IPC: 0.4411 cumulative IPC: 0.4252 (Simulation time: 00 hr 19 min 46 sec)
Heartbeat CPU 0 instructions: 108000541 cycles: 150188799 heartbeat IPC: 0.4694 cumulative IPC: 0.4255 (Simulation time: 00 hr 19 min 55 sec)
Heartbeat CPU 0 instructions: 108500547 cycles: 151570933 heartbeat IPC: 0.3618 cumulative IPC: 0.4249 (Simulation time: 00 hr 20 min 06 sec)
Heartbeat CPU 0 instructions: 109000547 cycles: 152512356 heartbeat IPC: 0.5311 cumulative IPC: 0.4256 (Simulation time: 00 hr 20 min 14 sec)
Heartbeat CPU 0 instructions: 109500548 cycles: 153497183 heartbeat IPC: 0.5077 cumulative IPC: 0.4262 (Simulation time: 00 hr 20 min 22 sec)
Heartbeat CPU 0 instructions: 110000554 cycles: 155170416 heartbeat IPC: 0.2988 cumulative IPC: 0.4247 (Simulation time: 00 hr 20 min 34 sec)
Heartbeat CPU 0 instructions: 110500559 cycles: 156442082 heartbeat IPC: 0.3932 cumulative IPC: 0.4244 (Simulation time: 00 hr 20 min 42 sec)
Heartbeat CPU 0 instructions: 111000561 cycles: 158018792 heartbeat IPC: 0.3171 cumulative IPC: 0.4232 (Simulation time: 00 hr 20 min 52 sec)
Heartbeat CPU 0 instructions: 111500562 cycles: 158926471 heartbeat IPC: 0.5509 cumulative IPC: 0.424 (Simulation time: 00 hr 20 min 59 sec)
Heartbeat CPU 0 instructions: 112000562 cycles: 160688434 heartbeat IPC: 0.2838 cumulative IPC: 0.4224 (Simulation time: 00 hr 21 min 11 sec)
Heartbeat CPU 0 instructions: 112500562 cycles: 162028983 heartbeat IPC: 0.373 cumulative IPC: 0.4219 (Simulation time: 00 hr 21 min 20 sec)
Heartbeat CPU 0 instructions: 113000566 cycles: 162967838 heartbeat IPC: 0.5326 cumulative IPC: 0.4226 (Simulation time: 00 hr 21 min 26 sec)
Heartbeat CPU 0 instructions: 113500570 cycles: 164931033 heartbeat IPC: 0.2547 cumulative IPC: 0.4204 (Simulation time: 00 hr 21 min 39 sec)
Heartbeat CPU 0 instructions: 114000570 cycles: 165289842 heartbeat IPC: 1.393 cumulative IPC: 0.4227 (Simulation time: 00 hr 21 min 42 sec)
Heartbeat CPU 0 instructions: 114500570 cycles: 166254612 heartbeat IPC: 0.5183 cumulative IPC: 0.4233 (Simulation time: 00 hr 21 min 48 sec)
Heartbeat CPU 0 instructions: 115000570 cycles: 167833469 heartbeat IPC: 0.3167 cumulative IPC: 0.4222 (Simulation time: 00 hr 21 min 58 sec)
Heartbeat CPU 0 instructions: 115500572 cycles: 169060776 heartbeat IPC: 0.4074 cumulative IPC: 0.4221 (Simulation time: 00 hr 22 min 06 sec)
Heartbeat CPU 0 instructions: 116000575 cycles: 170351128 heartbeat IPC: 0.3875 cumulative IPC: 0.4218 (Simulation time: 00 hr 22 min 15 sec)
Heartbeat CPU 0 instructions: 116500577 cycles: 171848437 heartbeat IPC: 0.3339 cumulative IPC: 0.421 (Simulation time: 00 hr 22 min 25 sec)
Heartbeat CPU 0 instructions: 117000579 cycles: 173016751 heartbeat IPC: 0.428 cumulative IPC: 0.4211 (Simulation time: 00 hr 22 min 32 sec)
Heartbeat CPU 0 instructions: 117500579 cycles: 173365479 heartbeat IPC: 1.434 cumulative IPC: 0.4233 (Simulation time: 00 hr 22 min 36 sec)
Heartbeat CPU 0 instructions: 118000581 cycles: 174268727 heartbeat IPC: 0.5536 cumulative IPC: 0.424 (Simulation time: 00 hr 22 min 42 sec)
Heartbeat CPU 0 instructions: 118500587 cycles: 176402034 heartbeat IPC: 0.2344 cumulative IPC: 0.4215 (Simulation time: 00 hr 22 min 55 sec)
Heartbeat CPU 0 instructions: 119000589 cycles: 177661010 heartbeat IPC: 0.3971 cumulative IPC: 0.4213 (Simulation time: 00 hr 23 min 03 sec)
Heartbeat CPU 0 instructions: 119500590 cycles: 178798387 heartbeat IPC: 0.4396 cumulative IPC: 0.4215 (Simulation time: 00 hr 23 min 11 sec)
Heartbeat CPU 0 instructions: 120000590 cycles: 180151002 heartbeat IPC: 0.3697 cumulative IPC: 0.421 (Simulation time: 00 hr 23 min 20 sec)
Heartbeat CPU 0 instructions: 120500590 cycles: 181089774 heartbeat IPC: 0.5326 cumulative IPC: 0.4217 (Simulation time: 00 hr 23 min 27 sec)
Heartbeat CPU 0 instructions: 121000597 cycles: 182432018 heartbeat IPC: 0.3725 cumulative IPC: 0.4213 (Simulation time: 00 hr 23 min 36 sec)
Heartbeat CPU 0 instructions: 121500598 cycles: 183719460 heartbeat IPC: 0.3884 cumulative IPC: 0.421 (Simulation time: 00 hr 23 min 45 sec)
Heartbeat CPU 0 instructions: 122000598 cycles: 186321332 heartbeat IPC: 0.1922 cumulative IPC: 0.4176 (Simulation time: 00 hr 24 min 00 sec)
Heartbeat CPU 0 instructions: 122500598 cycles: 188134567 heartbeat IPC: 0.2758 cumulative IPC: 0.4161 (Simulation time: 00 hr 24 min 12 sec)
Heartbeat CPU 0 instructions: 123000599 cycles: 189464278 heartbeat IPC: 0.376 cumulative IPC: 0.4158 (Simulation time: 00 hr 24 min 21 sec)
Heartbeat CPU 0 instructions: 123500600 cycles: 191384485 heartbeat IPC: 0.2604 cumulative IPC: 0.4141 (Simulation time: 00 hr 24 min 34 sec)
Heartbeat CPU 0 instructions: 124000602 cycles: 193144760 heartbeat IPC: 0.284 cumulative IPC: 0.4128 (Simulation time: 00 hr 24 min 44 sec)
Heartbeat CPU 0 instructions: 124500602 cycles: 195091524 heartbeat IPC: 0.2568 cumulative IPC: 0.4112 (Simulation time: 00 hr 24 min 56 sec)
Heartbeat CPU 0 instructions: 125000605 cycles: 196137179 heartbeat IPC: 0.4782 cumulative IPC: 0.4115 (Simulation time: 00 hr 25 min 04 sec)
Heartbeat CPU 0 instructions: 125500608 cycles: 197513965 heartbeat IPC: 0.3632 cumulative IPC: 0.4112 (Simulation time: 00 hr 25 min 13 sec)
Heartbeat CPU 0 instructions: 126000608 cycles: 198105976 heartbeat IPC: 0.8446 cumulative IPC: 0.4126 (Simulation time: 00 hr 25 min 17 sec)
Heartbeat CPU 0 instructions: 126500609 cycles: 199405000 heartbeat IPC: 0.3849 cumulative IPC: 0.4124 (Simulation time: 00 hr 25 min 25 sec)
Heartbeat CPU 0 instructions: 127000612 cycles: 200272228 heartbeat IPC: 0.5766 cumulative IPC: 0.4131 (Simulation time: 00 hr 25 min 31 sec)
Heartbeat CPU 0 instructions: 127500612 cycles: 201380935 heartbeat IPC: 0.451 cumulative IPC: 0.4134 (Simulation time: 00 hr 25 min 39 sec)
Heartbeat CPU 0 instructions: 128000612 cycles: 202485632 heartbeat IPC: 0.4526 cumulative IPC: 0.4136 (Simulation time: 00 hr 25 min 46 sec)
Heartbeat CPU 0 instructions: 128500612 cycles: 203785843 heartbeat IPC: 0.3846 cumulative IPC: 0.4134 (Simulation time: 00 hr 25 min 55 sec)
Heartbeat CPU 0 instructions: 129000618 cycles: 205155592 heartbeat IPC: 0.365 cumulative IPC: 0.413 (Simulation time: 00 hr 26 min 03 sec)
Heartbeat CPU 0 instructions: 129500621 cycles: 206515532 heartbeat IPC: 0.3677 cumulative IPC: 0.4127 (Simulation time: 00 hr 26 min 12 sec)
Heartbeat CPU 0 instructions: 130000624 cycles: 207588613 heartbeat IPC: 0.466 cumulative IPC: 0.413 (Simulation time: 00 hr 26 min 20 sec)
Heartbeat CPU 0 instructions: 130500630 cycles: 208742593 heartbeat IPC: 0.4333 cumulative IPC: 0.4131 (Simulation time: 00 hr 26 min 27 sec)
Heartbeat CPU 0 instructions: 131000630 cycles: 210574902 heartbeat IPC: 0.2729 cumulative IPC: 0.4118 (Simulation time: 00 hr 26 min 39 sec)
Heartbeat CPU 0 instructions: 131500631 cycles: 212062200 heartbeat IPC: 0.3362 cumulative IPC: 0.4113 (Simulation time: 00 hr 26 min 48 sec)
Heartbeat CPU 0 instructions: 132000631 cycles: 213755861 heartbeat IPC: 0.2952 cumulative IPC: 0.4103 (Simulation time: 00 hr 26 min 59 sec)
Heartbeat CPU 0 instructions: 132500637 cycles: 215536676 heartbeat IPC: 0.2808 cumulative IPC: 0.4091 (Simulation time: 00 hr 27 min 10 sec)
Heartbeat CPU 0 instructions: 133000639 cycles: 216540358 heartbeat IPC: 0.4982 cumulative IPC: 0.4096 (Simulation time: 00 hr 27 min 16 sec)
Heartbeat CPU 0 instructions: 133500639 cycles: 217636803 heartbeat IPC: 0.456 cumulative IPC: 0.4098 (Simulation time: 00 hr 27 min 24 sec)
Heartbeat CPU 0 instructions: 134000639 cycles: 219438069 heartbeat IPC: 0.2776 cumulative IPC: 0.4087 (Simulation time: 00 hr 27 min 35 sec)
Heartbeat CPU 0 instructions: 134500642 cycles: 221152510 heartbeat IPC: 0.2916 cumulative IPC: 0.4077 (Simulation time: 00 hr 27 min 46 sec)
Heartbeat CPU 0 instructions: 135000642 cycles: 222225327 heartbeat IPC: 0.4661 cumulative IPC: 0.408 (Simulation time: 00 hr 27 min 53 sec)
Heartbeat CPU 0 instructions: 135500644 cycles: 222772509 heartbeat IPC: 0.9138 cumulative IPC: 0.4093 (Simulation time: 00 hr 27 min 57 sec)
Heartbeat CPU 0 instructions: 136000649 cycles: 223104188 heartbeat IPC: 1.507 cumulative IPC: 0.4111 (Simulation time: 00 hr 28 min 00 sec)
Heartbeat CPU 0 instructions: 136500649 cycles: 223689551 heartbeat IPC: 0.8542 cumulative IPC: 0.4123 (Simulation time: 00 hr 28 min 04 sec)
Heartbeat CPU 0 instructions: 137000649 cycles: 225722073 heartbeat IPC: 0.246 cumulative IPC: 0.4107 (Simulation time: 00 hr 28 min 16 sec)
Heartbeat CPU 0 instructions: 137500650 cycles: 227309207 heartbeat IPC: 0.315 cumulative IPC: 0.41 (Simulation time: 00 hr 28 min 26 sec)
Heartbeat CPU 0 instructions: 138000651 cycles: 229183191 heartbeat IPC: 0.2668 cumulative IPC: 0.4088 (Simulation time: 00 hr 28 min 37 sec)
Heartbeat CPU 0 instructions: 138500658 cycles: 230847784 heartbeat IPC: 0.3004 cumulative IPC: 0.4079 (Simulation time: 00 hr 28 min 48 sec)
Heartbeat CPU 0 instructions: 139000658 cycles: 232765513 heartbeat IPC: 0.2607 cumulative IPC: 0.4066 (Simulation time: 00 hr 28 min 59 sec)
Heartbeat CPU 0 instructions: 139500660 cycles: 233977741 heartbeat IPC: 0.4125 cumulative IPC: 0.4067 (Simulation time: 00 hr 29 min 07 sec)
Heartbeat CPU 0 instructions: 140000661 cycles: 235869611 heartbeat IPC: 0.2643 cumulative IPC: 0.4054 (Simulation time: 00 hr 29 min 19 sec)
Heartbeat CPU 0 instructions: 140500662 cycles: 237425587 heartbeat IPC: 0.3213 cumulative IPC: 0.4049 (Simulation time: 00 hr 29 min 29 sec)
Heartbeat CPU 0 instructions: 141000662 cycles: 238582966 heartbeat IPC: 0.432 cumulative IPC: 0.405 (Simulation time: 00 hr 29 min 37 sec)
Heartbeat CPU 0 instructions: 141500665 cycles: 240409763 heartbeat IPC: 0.2737 cumulative IPC: 0.4039 (Simulation time: 00 hr 29 min 50 sec)
Heartbeat CPU 0 instructions: 142000665 cycles: 242126880 heartbeat IPC: 0.2912 cumulative IPC: 0.4031 (Simulation time: 00 hr 30 min 03 sec)
Heartbeat CPU 0 instructions: 142500667 cycles: 243187651 heartbeat IPC: 0.4714 cumulative IPC: 0.4034 (Simulation time: 00 hr 30 min 12 sec)
Heartbeat CPU 0 instructions: 143000669 cycles: 244967319 heartbeat IPC: 0.281 cumulative IPC: 0.4025 (Simulation time: 00 hr 30 min 25 sec)
Heartbeat CPU 0 instructions: 143500670 cycles: 245782588 heartbeat IPC: 0.6133 cumulative IPC: 0.4032 (Simulation time: 00 hr 30 min 31 sec)
Heartbeat CPU 0 instructions: 144000670 cycles: 247917688 heartbeat IPC: 0.2342 cumulative IPC: 0.4017 (Simulation time: 00 hr 30 min 46 sec)
Heartbeat CPU 0 instructions: 144500676 cycles: 249649808 heartbeat IPC: 0.2887 cumulative IPC: 0.4008 (Simulation time: 00 hr 30 min 59 sec)
Heartbeat CPU 0 instructions: 145000681 cycles: 250883536 heartbeat IPC: 0.4053 cumulative IPC: 0.4009 (Simulation time: 00 hr 31 min 09 sec)
Heartbeat CPU 0 instructions: 145500681 cycles: 252206558 heartbeat IPC: 0.3779 cumulative IPC: 0.4007 (Simulation time: 00 hr 31 min 20 sec)
Heartbeat CPU 0 instructions: 146000684 cycles: 253359005 heartbeat IPC: 0.4339 cumulative IPC: 0.4009 (Simulation time: 00 hr 31 min 29 sec)
Heartbeat CPU 0 instructions: 146500685 cycles: 254672206 heartbeat IPC: 0.3807 cumulative IPC: 0.4008 (Simulation time: 00 hr 31 min 40 sec)
Heartbeat CPU 0 instructions: 147000685 cycles: 256119136 heartbeat IPC: 0.3456 cumulative IPC: 0.4005 (Simulation time: 00 hr 31 min 51 sec)
Heartbeat CPU 0 instructions: 147500685 cycles: 257854939 heartbeat IPC: 0.2881 cumulative IPC: 0.3997 (Simulation time: 00 hr 32 min 04 sec)
Heartbeat CPU 0 instructions: 148000685 cycles: 259143218 heartbeat IPC: 0.3881 cumulative IPC: 0.3996 (Simulation time: 00 hr 32 min 14 sec)
Heartbeat CPU 0 instructions: 148500685 cycles: 261038667 heartbeat IPC: 0.2638 cumulative IPC: 0.3986 (Simulation time: 00 hr 32 min 27 sec)
Heartbeat CPU 0 instructions: 149000687 cycles: 262610858 heartbeat IPC: 0.318 cumulative IPC: 0.398 (Simulation time: 00 hr 32 min 39 sec)
Heartbeat CPU 0 instructions: 149500687 cycles: 263177462 heartbeat IPC: 0.8825 cumulative IPC: 0.3991 (Simulation time: 00 hr 32 min 44 sec)
Heartbeat CPU 0 instructions: 150000687 cycles: 263547681 heartbeat IPC: 1.351 cumulative IPC: 0.4006 (Simulation time: 00 hr 32 min 47 sec)
Heartbeat CPU 0 instructions: 150500687 cycles: 263916380 heartbeat IPC: 1.356 cumulative IPC: 0.402 (Simulation time: 00 hr 32 min 51 sec)
Heartbeat CPU 0 instructions: 151000689 cycles: 264291659 heartbeat IPC: 1.332 cumulative IPC: 0.4034 (Simulation time: 00 hr 32 min 55 sec)
Heartbeat CPU 0 instructions: 151500689 cycles: 265752422 heartbeat IPC: 0.3423 cumulative IPC: 0.403 (Simulation time: 00 hr 33 min 05 sec)
Heartbeat CPU 0 instructions: 152000695 cycles: 267110552 heartbeat IPC: 0.3682 cumulative IPC: 0.4028 (Simulation time: 00 hr 33 min 16 sec)
Heartbeat CPU 0 instructions: 152500698 cycles: 268759356 heartbeat IPC: 0.3033 cumulative IPC: 0.4022 (Simulation time: 00 hr 33 min 28 sec)
Heartbeat CPU 0 instructions: 153000704 cycles: 269954325 heartbeat IPC: 0.4184 cumulative IPC: 0.4022 (Simulation time: 00 hr 33 min 37 sec)
Heartbeat CPU 0 instructions: 153500704 cycles: 271311127 heartbeat IPC: 0.3685 cumulative IPC: 0.4021 (Simulation time: 00 hr 33 min 48 sec)
Heartbeat CPU 0 instructions: 154000704 cycles: 272288125 heartbeat IPC: 0.5118 cumulative IPC: 0.4025 (Simulation time: 00 hr 33 min 56 sec)
Heartbeat CPU 0 instructions: 154500711 cycles: 273774054 heartbeat IPC: 0.3365 cumulative IPC: 0.4021 (Simulation time: 00 hr 34 min 07 sec)
Heartbeat CPU 0 instructions: 155000712 cycles: 275562685 heartbeat IPC: 0.2795 cumulative IPC: 0.4013 (Simulation time: 00 hr 34 min 20 sec)
Heartbeat CPU 0 instructions: 155500712 cycles: 276736893 heartbeat IPC: 0.4258 cumulative IPC: 0.4014 (Simulation time: 00 hr 34 min 30 sec)
Heartbeat CPU 0 instructions: 156000712 cycles: 277406514 heartbeat IPC: 0.7467 cumulative IPC: 0.4023 (Simulation time: 00 hr 34 min 35 sec)
Heartbeat CPU 0 instructions: 156500712 cycles: 279336084 heartbeat IPC: 0.2591 cumulative IPC: 0.4012 (Simulation time: 00 hr 34 min 49 sec)
Heartbeat CPU 0 instructions: 157000718 cycles: 280833686 heartbeat IPC: 0.3339 cumulative IPC: 0.4008 (Simulation time: 00 hr 35 min 00 sec)
Heartbeat CPU 0 instructions: 157500718 cycles: 283066166 heartbeat IPC: 0.224 cumulative IPC: 0.3994 (Simulation time: 00 hr 35 min 16 sec)
Heartbeat CPU 0 instructions: 158000719 cycles: 284617895 heartbeat IPC: 0.3222 cumulative IPC: 0.3989 (Simulation time: 00 hr 35 min 28 sec)
Heartbeat CPU 0 instructions: 158500725 cycles: 285832788 heartbeat IPC: 0.4116 cumulative IPC: 0.399 (Simulation time: 00 hr 35 min 38 sec)
Heartbeat CPU 0 instructions: 159000728 cycles: 287643783 heartbeat IPC: 0.2761 cumulative IPC: 0.3982 (Simulation time: 00 hr 35 min 51 sec)
Heartbeat CPU 0 instructions: 159500728 cycles: 288691713 heartbeat IPC: 0.4771 cumulative IPC: 0.3985 (Simulation time: 00 hr 36 min 00 sec)
Heartbeat CPU 0 instructions: 160000728 cycles: 289831455 heartbeat IPC: 0.4387 cumulative IPC: 0.3986 (Simulation time: 00 hr 36 min 09 sec)
Heartbeat CPU 0 instructions: 160500730 cycles: 290901184 heartbeat IPC: 0.4674 cumulative IPC: 0.3989 (Simulation time: 00 hr 36 min 17 sec)
Heartbeat CPU 0 instructions: 161000731 cycles: 291740775 heartbeat IPC: 0.5955 cumulative IPC: 0.3995 (Simulation time: 00 hr 36 min 25 sec)
Heartbeat CPU 0 instructions: 161500731 cycles: 292684054 heartbeat IPC: 0.5301 cumulative IPC: 0.3999 (Simulation time: 00 hr 36 min 32 sec)
Heartbeat CPU 0 instructions: 162000734 cycles: 293488771 heartbeat IPC: 0.6213 cumulative IPC: 0.4006 (Simulation time: 00 hr 36 min 39 sec)
Heartbeat CPU 0 instructions: 162500734 cycles: 294463450 heartbeat IPC: 0.513 cumulative IPC: 0.401 (Simulation time: 00 hr 36 min 47 sec)
Heartbeat CPU 0 instructions: 163000734 cycles: 295953719 heartbeat IPC: 0.3355 cumulative IPC: 0.4006 (Simulation time: 00 hr 36 min 58 sec)
Heartbeat CPU 0 instructions: 163500736 cycles: 297155737 heartbeat IPC: 0.416 cumulative IPC: 0.4007 (Simulation time: 00 hr 37 min 07 sec)
Heartbeat CPU 0 instructions: 164000736 cycles: 298323637 heartbeat IPC: 0.4281 cumulative IPC: 0.4008 (Simulation time: 00 hr 37 min 16 sec)
Heartbeat CPU 0 instructions: 164500738 cycles: 298720624 heartbeat IPC: 1.259 cumulative IPC: 0.402 (Simulation time: 00 hr 37 min 20 sec)
Heartbeat CPU 0 instructions: 165000740 cycles: 299065701 heartbeat IPC: 1.449 cumulative IPC: 0.4033 (Simulation time: 00 hr 37 min 24 sec)
Heartbeat CPU 0 instructions: 165500740 cycles: 299688688 heartbeat IPC: 0.8026 cumulative IPC: 0.4041 (Simulation time: 00 hr 37 min 29 sec)
Heartbeat CPU 0 instructions: 166000740 cycles: 302242849 heartbeat IPC: 0.1958 cumulative IPC: 0.4023 (Simulation time: 00 hr 37 min 46 sec)
Heartbeat CPU 0 instructions: 166500741 cycles: 303725062 heartbeat IPC: 0.3373 cumulative IPC: 0.402 (Simulation time: 00 hr 37 min 57 sec)
Heartbeat CPU 0 instructions: 167000742 cycles: 304749814 heartbeat IPC: 0.4879 cumulative IPC: 0.4023 (Simulation time: 00 hr 38 min 06 sec)
Heartbeat CPU 0 instructions: 167500742 cycles: 305713601 heartbeat IPC: 0.5188 cumulative IPC: 0.4026 (Simulation time: 00 hr 38 min 13 sec)
Heartbeat CPU 0 instructions: 168000742 cycles: 306553255 heartbeat IPC: 0.5955 cumulative IPC: 0.4032 (Simulation time: 00 hr 38 min 20 sec)
Heartbeat CPU 0 instructions: 168500742 cycles: 306937422 heartbeat IPC: 1.302 cumulative IPC: 0.4044 (Simulation time: 00 hr 38 min 24 sec)
Heartbeat CPU 0 instructions: 169000748 cycles: 307326634 heartbeat IPC: 1.285 cumulative IPC: 0.4055 (Simulation time: 00 hr 38 min 28 sec)
Heartbeat CPU 0 instructions: 169500749 cycles: 307729083 heartbeat IPC: 1.242 cumulative IPC: 0.4067 (Simulation time: 00 hr 38 min 32 sec)
Heartbeat CPU 0 instructions: 170000749 cycles: 308596903 heartbeat IPC: 0.5762 cumulative IPC: 0.4072 (Simulation time: 00 hr 38 min 38 sec)
Heartbeat CPU 0 instructions: 170500749 cycles: 310916006 heartbeat IPC: 0.2156 cumulative IPC: 0.4057 (Simulation time: 00 hr 38 min 55 sec)
Heartbeat CPU 0 instructions: 171000750 cycles: 312298223 heartbeat IPC: 0.3617 cumulative IPC: 0.4055 (Simulation time: 00 hr 39 min 05 sec)
Heartbeat CPU 0 instructions: 171500755 cycles: 313710875 heartbeat IPC: 0.3539 cumulative IPC: 0.4052 (Simulation time: 00 hr 39 min 16 sec)
Heartbeat CPU 0 instructions: 172000755 cycles: 314623267 heartbeat IPC: 0.548 cumulative IPC: 0.4057 (Simulation time: 00 hr 39 min 23 sec)
Heartbeat CPU 0 instructions: 172500755 cycles: 315023702 heartbeat IPC: 1.249 cumulative IPC: 0.4068 (Simulation time: 00 hr 39 min 27 sec)
Heartbeat CPU 0 instructions: 173000755 cycles: 315404954 heartbeat IPC: 1.311 cumulative IPC: 0.4079 (Simulation time: 00 hr 39 min 31 sec)
Heartbeat CPU 0 instructions: 173500758 cycles: 317136177 heartbeat IPC: 0.2888 cumulative IPC: 0.4073 (Simulation time: 00 hr 39 min 43 sec)
Heartbeat CPU 0 instructions: 174000759 cycles: 318094145 heartbeat IPC: 0.5219 cumulative IPC: 0.4076 (Simulation time: 00 hr 39 min 51 sec)
Heartbeat CPU 0 instructions: 174500759 cycles: 319279809 heartbeat IPC: 0.4217 cumulative IPC: 0.4077 (Simulation time: 00 hr 40 min 00 sec)
Heartbeat CPU 0 instructions: 175000763 cycles: 320292795 heartbeat IPC: 0.4936 cumulative IPC: 0.408 (Simulation time: 00 hr 40 min 08 sec)
Heartbeat CPU 0 instructions: 175500763 cycles: 321103173 heartbeat IPC: 0.617 cumulative IPC: 0.4085 (Simulation time: 00 hr 40 min 15 sec)
Heartbeat CPU 0 instructions: 176000763 cycles: 322682011 heartbeat IPC: 0.3167 cumulative IPC: 0.408 (Simulation time: 00 hr 40 min 27 sec)
Heartbeat CPU 0 instructions: 176500765 cycles: 324280438 heartbeat IPC: 0.3128 cumulative IPC: 0.4076 (Simulation time: 00 hr 40 min 39 sec)
Heartbeat CPU 0 instructions: 177000765 cycles: 325561647 heartbeat IPC: 0.3903 cumulative IPC: 0.4075 (Simulation time: 00 hr 40 min 48 sec)
Heartbeat CPU 0 instructions: 177500765 cycles: 326847765 heartbeat IPC: 0.3888 cumulative IPC: 0.4074 (Simulation time: 00 hr 40 min 58 sec)
Heartbeat CPU 0 instructions: 178000765 cycles: 327808034 heartbeat IPC: 0.5207 cumulative IPC: 0.4078 (Simulation time: 00 hr 41 min 06 sec)
Heartbeat CPU 0 instructions: 178500765 cycles: 329125877 heartbeat IPC: 0.3794 cumulative IPC: 0.4076 (Simulation time: 00 hr 41 min 16 sec)
Heartbeat CPU 0 instructions: 179000765 cycles: 330338494 heartbeat IPC: 0.4123 cumulative IPC: 0.4077 (Simulation time: 00 hr 41 min 26 sec)
Heartbeat CPU 0 instructions: 179500770 cycles: 331216540 heartbeat IPC: 0.5695 cumulative IPC: 0.4081 (Simulation time: 00 hr 41 min 33 sec)
Heartbeat CPU 0 instructions: 180000775 cycles: 332358070 heartbeat IPC: 0.438 cumulative IPC: 0.4082 (Simulation time: 00 hr 41 min 42 sec)
Heartbeat CPU 0 instructions: 180500775 cycles: 333378713 heartbeat IPC: 0.4899 cumulative IPC: 0.4085 (Simulation time: 00 hr 41 min 50 sec)
Heartbeat CPU 0 instructions: 181000776 cycles: 334202048 heartbeat IPC: 0.6073 cumulative IPC: 0.409 (Simulation time: 00 hr 41 min 57 sec)
Heartbeat CPU 0 instructions: 181500776 cycles: 335542698 heartbeat IPC: 0.373 cumulative IPC: 0.4088 (Simulation time: 00 hr 42 min 07 sec)
Heartbeat CPU 0 instructions: 182000776 cycles: 336683811 heartbeat IPC: 0.4382 cumulative IPC: 0.4089 (Simulation time: 00 hr 42 min 16 sec)
Heartbeat CPU 0 instructions: 182500779 cycles: 338247821 heartbeat IPC: 0.3197 cumulative IPC: 0.4085 (Simulation time: 00 hr 42 min 28 sec)
Heartbeat CPU 0 instructions: 183000785 cycles: 339289948 heartbeat IPC: 0.4798 cumulative IPC: 0.4087 (Simulation time: 00 hr 42 min 36 sec)
Heartbeat CPU 0 instructions: 183500788 cycles: 340839063 heartbeat IPC: 0.3228 cumulative IPC: 0.4083 (Simulation time: 00 hr 42 min 47 sec)
Heartbeat CPU 0 instructions: 184000788 cycles: 341648499 heartbeat IPC: 0.6177 cumulative IPC: 0.4088 (Simulation time: 00 hr 42 min 54 sec)
Heartbeat CPU 0 instructions: 184500791 cycles: 342787140 heartbeat IPC: 0.4391 cumulative IPC: 0.4089 (Simulation time: 00 hr 43 min 03 sec)
Heartbeat CPU 0 instructions: 185000796 cycles: 344187675 heartbeat IPC: 0.357 cumulative IPC: 0.4087 (Simulation time: 00 hr 43 min 14 sec)
Heartbeat CPU 0 instructions: 185500796 cycles: 345511545 heartbeat IPC: 0.3777 cumulative IPC: 0.4086 (Simulation time: 00 hr 43 min 24 sec)
Heartbeat CPU 0 instructions: 186000796 cycles: 345887950 heartbeat IPC: 1.328 cumulative IPC: 0.4096 (Simulation time: 00 hr 43 min 27 sec)
Heartbeat CPU 0 instructions: 186500800 cycles: 346259038 heartbeat IPC: 1.347 cumulative IPC: 0.4107 (Simulation time: 00 hr 43 min 31 sec)
Heartbeat CPU 0 instructions: 187000807 cycles: 346581938 heartbeat IPC: 1.548 cumulative IPC: 0.4118 (Simulation time: 00 hr 43 min 34 sec)
Heartbeat CPU 0 instructions: 187500807 cycles: 346926538 heartbeat IPC: 1.451 cumulative IPC: 0.4129 (Simulation time: 00 hr 43 min 38 sec)
Heartbeat CPU 0 instructions: 188000814 cycles: 347723211 heartbeat IPC: 0.6276 cumulative IPC: 0.4134 (Simulation time: 00 hr 43 min 44 sec)
Heartbeat CPU 0 instructions: 188500817 cycles: 349690738 heartbeat IPC: 0.2541 cumulative IPC: 0.4125 (Simulation time: 00 hr 43 min 58 sec)
Heartbeat CPU 0 instructions: 189000819 cycles: 351022748 heartbeat IPC: 0.3754 cumulative IPC: 0.4123 (Simulation time: 00 hr 44 min 08 sec)
Heartbeat CPU 0 instructions: 189500820 cycles: 352103377 heartbeat IPC: 0.4627 cumulative IPC: 0.4125 (Simulation time: 00 hr 44 min 17 sec)
Heartbeat CPU 0 instructions: 190000823 cycles: 354330395 heartbeat IPC: 0.2245 cumulative IPC: 0.4112 (Simulation time: 00 hr 44 min 32 sec)
Heartbeat CPU 0 instructions: 190500827 cycles: 356071815 heartbeat IPC: 0.2871 cumulative IPC: 0.4106 (Simulation time: 00 hr 44 min 45 sec)
Heartbeat CPU 0 instructions: 191000828 cycles: 357436927 heartbeat IPC: 0.3663 cumulative IPC: 0.4104 (Simulation time: 00 hr 44 min 56 sec)
Heartbeat CPU 0 instructions: 191500828 cycles: 358797831 heartbeat IPC: 0.3674 cumulative IPC: 0.4103 (Simulation time: 00 hr 45 min 06 sec)
Heartbeat CPU 0 instructions: 192000828 cycles: 359568079 heartbeat IPC: 0.6491 cumulative IPC: 0.4108 (Simulation time: 00 hr 45 min 13 sec)
Heartbeat CPU 0 instructions: 192500833 cycles: 360213327 heartbeat IPC: 0.7749 cumulative IPC: 0.4115 (Simulation time: 00 hr 45 min 19 sec)
Heartbeat CPU 0 instructions: 193000834 cycles: 361856552 heartbeat IPC: 0.3043 cumulative IPC: 0.411 (Simulation time: 00 hr 45 min 30 sec)
Heartbeat CPU 0 instructions: 193500837 cycles: 363030030 heartbeat IPC: 0.4261 cumulative IPC: 0.411 (Simulation time: 00 hr 45 min 40 sec)
Heartbeat CPU 0 instructions: 194000837 cycles: 364458444 heartbeat IPC: 0.35 cumulative IPC: 0.4108 (Simulation time: 00 hr 45 min 50 sec)
Heartbeat CPU 0 instructions: 194500839 cycles: 365788768 heartbeat IPC: 0.3758 cumulative IPC: 0.4106 (Simulation time: 00 hr 46 min 00 sec)
Heartbeat CPU 0 instructions: 195000845 cycles: 367219225 heartbeat IPC: 0.3495 cumulative IPC: 0.4104 (Simulation time: 00 hr 46 min 11 sec)
Heartbeat CPU 0 instructions: 195500845 cycles: 368577264 heartbeat IPC: 0.3682 cumulative IPC: 0.4102 (Simulation time: 00 hr 46 min 21 sec)
Heartbeat CPU 0 instructions: 196000845 cycles: 369694567 heartbeat IPC: 0.4475 cumulative IPC: 0.4103 (Simulation time: 00 hr 46 min 29 sec)
Heartbeat CPU 0 instructions: 196500847 cycles: 371018511 heartbeat IPC: 0.3777 cumulative IPC: 0.4102 (Simulation time: 00 hr 46 min 40 sec)
Heartbeat CPU 0 instructions: 197000847 cycles: 371944870 heartbeat IPC: 0.5397 cumulative IPC: 0.4106 (Simulation time: 00 hr 46 min 47 sec)
Heartbeat CPU 0 instructions: 197500853 cycles: 372898953 heartbeat IPC: 0.5241 cumulative IPC: 0.4109 (Simulation time: 00 hr 46 min 55 sec)
Heartbeat CPU 0 instructions: 198000860 cycles: 373256242 heartbeat IPC: 1.399 cumulative IPC: 0.4118 (Simulation time: 00 hr 46 min 58 sec)
Heartbeat CPU 0 instructions: 198500862 cycles: 373582614 heartbeat IPC: 1.532 cumulative IPC: 0.4129 (Simulation time: 00 hr 47 min 02 sec)
Heartbeat CPU 0 instructions: 199000862 cycles: 373914138 heartbeat IPC: 1.508 cumulative IPC: 0.4139 (Simulation time: 00 hr 47 min 05 sec)
Heartbeat CPU 0 instructions: 199500865 cycles: 374285993 heartbeat IPC: 1.345 cumulative IPC: 0.4148 (Simulation time: 00 hr 47 min 09 sec)
Heartbeat CPU 0 instructions: 200000870 cycles: 374632540 heartbeat IPC: 1.443 cumulative IPC: 0.4158 (Simulation time: 00 hr 47 min 12 sec)
Heartbeat CPU 0 instructions: 200500873 cycles: 376553912 heartbeat IPC: 0.2602 cumulative IPC: 0.415 (Simulation time: 00 hr 47 min 25 sec)
Heartbeat CPU 0 instructions: 201000874 cycles: 376938536 heartbeat IPC: 1.3 cumulative IPC: 0.4159 (Simulation time: 00 hr 47 min 29 sec)
Heartbeat CPU 0 instructions: 201500874 cycles: 377798200 heartbeat IPC: 0.5816 cumulative IPC: 0.4163 (Simulation time: 00 hr 47 min 36 sec)
Heartbeat CPU 0 instructions: 202000877 cycles: 379799501 heartbeat IPC: 0.2498 cumulative IPC: 0.4154 (Simulation time: 00 hr 47 min 50 sec)
Heartbeat CPU 0 instructions: 202500878 cycles: 381606201 heartbeat IPC: 0.2767 cumulative IPC: 0.4147 (Simulation time: 00 hr 48 min 03 sec)
Heartbeat CPU 0 instructions: 203000881 cycles: 383246075 heartbeat IPC: 0.3049 cumulative IPC: 0.4142 (Simulation time: 00 hr 48 min 16 sec)
Heartbeat CPU 0 instructions: 203500888 cycles: 384325779 heartbeat IPC: 0.4631 cumulative IPC: 0.4144 (Simulation time: 00 hr 48 min 24 sec)
Heartbeat CPU 0 instructions: 204000892 cycles: 385473925 heartbeat IPC: 0.4355 cumulative IPC: 0.4144 (Simulation time: 00 hr 48 min 34 sec)
Heartbeat CPU 0 instructions: 204500894 cycles: 386555828 heartbeat IPC: 0.4622 cumulative IPC: 0.4146 (Simulation time: 00 hr 48 min 43 sec)
Heartbeat CPU 0 instructions: 205000901 cycles: 387805547 heartbeat IPC: 0.4001 cumulative IPC: 0.4145 (Simulation time: 00 hr 48 min 53 sec)
Heartbeat CPU 0 instructions: 205500903 cycles: 389189213 heartbeat IPC: 0.3614 cumulative IPC: 0.4143 (Simulation time: 00 hr 49 min 03 sec)
Heartbeat CPU 0 instructions: 206000904 cycles: 390820317 heartbeat IPC: 0.3065 cumulative IPC: 0.4139 (Simulation time: 00 hr 49 min 15 sec)
Heartbeat CPU 0 instructions: 206500908 cycles: 392431046 heartbeat IPC: 0.3104 cumulative IPC: 0.4134 (Simulation time: 00 hr 49 min 28 sec)
Heartbeat CPU 0 instructions: 207000908 cycles: 393784312 heartbeat IPC: 0.3695 cumulative IPC: 0.4133 (Simulation time: 00 hr 49 min 39 sec)
Heartbeat CPU 0 instructions: 207500912 cycles: 394834213 heartbeat IPC: 0.4762 cumulative IPC: 0.4135 (Simulation time: 00 hr 49 min 47 sec)
Heartbeat CPU 0 instructions: 208000912 cycles: 395782407 heartbeat IPC: 0.5273 cumulative IPC: 0.4137 (Simulation time: 00 hr 49 min 55 sec)
Heartbeat CPU 0 instructions: 208500913 cycles: 396792490 heartbeat IPC: 0.495 cumulative IPC: 0.4139 (Simulation time: 00 hr 50 min 03 sec)
Heartbeat CPU 0 instructions: 209000919 cycles: 397819087 heartbeat IPC: 0.4871 cumulative IPC: 0.4141 (Simulation time: 00 hr 50 min 12 sec)
Heartbeat CPU 0 instructions: 209500924 cycles: 398724066 heartbeat IPC: 0.5525 cumulative IPC: 0.4145 (Simulation time: 00 hr 50 min 19 sec)
Heartbeat CPU 0 instructions: 210000925 cycles: 400149687 heartbeat IPC: 0.3507 cumulative IPC: 0.4142 (Simulation time: 00 hr 50 min 30 sec)
Heartbeat CPU 0 instructions: 210500926 cycles: 400888290 heartbeat IPC: 0.677 cumulative IPC: 0.4147 (Simulation time: 00 hr 50 min 36 sec)
Heartbeat CPU 0 instructions: 211000926 cycles: 401754126 heartbeat IPC: 0.5775 cumulative IPC: 0.4151 (Simulation time: 00 hr 50 min 43 sec)
Heartbeat CPU 0 instructions: 211500927 cycles: 403157432 heartbeat IPC: 0.3563 cumulative IPC: 0.4149 (Simulation time: 00 hr 50 min 54 sec)
Heartbeat CPU 0 instructions: 212000927 cycles: 404668558 heartbeat IPC: 0.3309 cumulative IPC: 0.4146 (Simulation time: 00 hr 51 min 05 sec)
Heartbeat CPU 0 instructions: 212500931 cycles: 405626644 heartbeat IPC: 0.5219 cumulative IPC: 0.4148 (Simulation time: 00 hr 51 min 13 sec)
Heartbeat CPU 0 instructions: 213000935 cycles: 406994174 heartbeat IPC: 0.3656 cumulative IPC: 0.4147 (Simulation time: 00 hr 51 min 23 sec)
Heartbeat CPU 0 instructions: 213500935 cycles: 408064511 heartbeat IPC: 0.4671 cumulative IPC: 0.4148 (Simulation time: 00 hr 51 min 32 sec)
Heartbeat CPU 0 instructions: 214000938 cycles: 408982225 heartbeat IPC: 0.5448 cumulative IPC: 0.4151 (Simulation time: 00 hr 51 min 39 sec)
Heartbeat CPU 0 instructions: 214500938 cycles: 409857973 heartbeat IPC: 0.5709 cumulative IPC: 0.4154 (Simulation time: 00 hr 51 min 47 sec)
Heartbeat CPU 0 instructions: 215000941 cycles: 411048044 heartbeat IPC: 0.4201 cumulative IPC: 0.4155 (Simulation time: 00 hr 51 min 56 sec)
Heartbeat CPU 0 instructions: 215500941 cycles: 412517986 heartbeat IPC: 0.3401 cumulative IPC: 0.4152 (Simulation time: 00 hr 52 min 07 sec)
Heartbeat CPU 0 instructions: 216000942 cycles: 414385425 heartbeat IPC: 0.2677 cumulative IPC: 0.4145 (Simulation time: 00 hr 52 min 20 sec)
Heartbeat CPU 0 instructions: 216500948 cycles: 416183644 heartbeat IPC: 0.2781 cumulative IPC: 0.4139 (Simulation time: 00 hr 52 min 33 sec)
Heartbeat CPU 0 instructions: 217000953 cycles: 417364720 heartbeat IPC: 0.4233 cumulative IPC: 0.4139 (Simulation time: 00 hr 52 min 43 sec)
Heartbeat CPU 0 instructions: 217500954 cycles: 419142076 heartbeat IPC: 0.2813 cumulative IPC: 0.4133 (Simulation time: 00 hr 52 min 56 sec)
Heartbeat CPU 0 instructions: 218000958 cycles: 420594517 heartbeat IPC: 0.3443 cumulative IPC: 0.4131 (Simulation time: 00 hr 53 min 06 sec)
Heartbeat CPU 0 instructions: 218500960 cycles: 421269535 heartbeat IPC: 0.7407 cumulative IPC: 0.4136 (Simulation time: 00 hr 53 min 12 sec)
Heartbeat CPU 0 instructions: 219000965 cycles: 422199476 heartbeat IPC: 0.5377 cumulative IPC: 0.4139 (Simulation time: 00 hr 53 min 20 sec)
Heartbeat CPU 0 instructions: 219500967 cycles: 423119848 heartbeat IPC: 0.5433 cumulative IPC: 0.4142 (Simulation time: 00 hr 53 min 27 sec)
Heartbeat CPU 0 instructions: 220000968 cycles: 424101777 heartbeat IPC: 0.5092 cumulative IPC: 0.4144 (Simulation time: 00 hr 53 min 35 sec)
Heartbeat CPU 0 instructions: 220500972 cycles: 425547822 heartbeat IPC: 0.3458 cumulative IPC: 0.4142 (Simulation time: 00 hr 53 min 46 sec)
Heartbeat CPU 0 instructions: 221000975 cycles: 426913226 heartbeat IPC: 0.3662 cumulative IPC: 0.414 (Simulation time: 00 hr 53 min 56 sec)
Heartbeat CPU 0 instructions: 221500980 cycles: 428636045 heartbeat IPC: 0.2902 cumulative IPC: 0.4135 (Simulation time: 00 hr 54 min 08 sec)
Heartbeat CPU 0 instructions: 222000982 cycles: 429641729 heartbeat IPC: 0.4972 cumulative IPC: 0.4137 (Simulation time: 00 hr 54 min 16 sec)
Heartbeat CPU 0 instructions: 222500983 cycles: 431176976 heartbeat IPC: 0.3257 cumulative IPC: 0.4134 (Simulation time: 00 hr 54 min 27 sec)
Heartbeat CPU 0 instructions: 223000990 cycles: 432754981 heartbeat IPC: 0.3169 cumulative IPC: 0.413 (Simulation time: 00 hr 54 min 38 sec)
Heartbeat CPU 0 instructions: 223500991 cycles: 433571660 heartbeat IPC: 0.6122 cumulative IPC: 0.4134 (Simulation time: 00 hr 54 min 45 sec)
Heartbeat CPU 0 instructions: 224000994 cycles: 434844164 heartbeat IPC: 0.3929 cumulative IPC: 0.4134 (Simulation time: 00 hr 54 min 55 sec)
Heartbeat CPU 0 instructions: 224500996 cycles: 436569848 heartbeat IPC: 0.2897 cumulative IPC: 0.4128 (Simulation time: 00 hr 55 min 07 sec)
Heartbeat CPU 0 instructions: 225000998 cycles: 438180098 heartbeat IPC: 0.3105 cumulative IPC: 0.4125 (Simulation time: 00 hr 55 min 19 sec)
Heartbeat CPU 0 instructions: 225501000 cycles: 439934240 heartbeat IPC: 0.285 cumulative IPC: 0.4119 (Simulation time: 00 hr 55 min 31 sec)
Heartbeat CPU 0 instructions: 226001000 cycles: 441187189 heartbeat IPC: 0.3991 cumulative IPC: 0.4119 (Simulation time: 00 hr 55 min 41 sec)
Heartbeat CPU 0 instructions: 226501001 cycles: 443206061 heartbeat IPC: 0.2477 cumulative IPC: 0.4111 (Simulation time: 00 hr 55 min 55 sec)
Heartbeat CPU 0 instructions: 227001001 cycles: 444747755 heartbeat IPC: 0.3243 cumulative IPC: 0.4108 (Simulation time: 00 hr 56 min 06 sec)
Heartbeat CPU 0 instructions: 227501007 cycles: 445493029 heartbeat IPC: 0.6709 cumulative IPC: 0.4113 (Simulation time: 00 hr 56 min 12 sec)
Heartbeat CPU 0 instructions: 228001010 cycles: 446499691 heartbeat IPC: 0.4967 cumulative IPC: 0.4115 (Simulation time: 00 hr 56 min 20 sec)
Heartbeat CPU 0 instructions: 228501011 cycles: 447835072 heartbeat IPC: 0.3744 cumulative IPC: 0.4113 (Simulation time: 00 hr 56 min 29 sec)
Heartbeat CPU 0 instructions: 229001014 cycles: 449038935 heartbeat IPC: 0.4153 cumulative IPC: 0.4114 (Simulation time: 00 hr 56 min 38 sec)
Heartbeat CPU 0 instructions: 229501021 cycles: 450551328 heartbeat IPC: 0.3306 cumulative IPC: 0.4111 (Simulation time: 00 hr 56 min 49 sec)
Heartbeat CPU 0 instructions: 230001023 cycles: 451688671 heartbeat IPC: 0.4396 cumulative IPC: 0.4112 (Simulation time: 00 hr 56 min 57 sec)
Heartbeat CPU 0 instructions: 230501024 cycles: 452573305 heartbeat IPC: 0.5652 cumulative IPC: 0.4115 (Simulation time: 00 hr 57 min 04 sec)
Heartbeat CPU 0 instructions: 231001031 cycles: 454058109 heartbeat IPC: 0.3367 cumulative IPC: 0.4112 (Simulation time: 00 hr 57 min 15 sec)
Heartbeat CPU 0 instructions: 231501036 cycles: 455629765 heartbeat IPC: 0.3181 cumulative IPC: 0.4109 (Simulation time: 00 hr 57 min 26 sec)
Heartbeat CPU 0 instructions: 232001036 cycles: 456916697 heartbeat IPC: 0.3885 cumulative IPC: 0.4108 (Simulation time: 00 hr 57 min 35 sec)
Heartbeat CPU 0 instructions: 232501038 cycles: 458116169 heartbeat IPC: 0.4169 cumulative IPC: 0.4108 (Simulation time: 00 hr 57 min 44 sec)
Heartbeat CPU 0 instructions: 233001043 cycles: 459460936 heartbeat IPC: 0.3718 cumulative IPC: 0.4107 (Simulation time: 00 hr 57 min 53 sec)
Heartbeat CPU 0 instructions: 233501049 cycles: 460610183 heartbeat IPC: 0.4351 cumulative IPC: 0.4108 (Simulation time: 00 hr 58 min 02 sec)
Heartbeat CPU 0 instructions: 234001054 cycles: 461697599 heartbeat IPC: 0.4598 cumulative IPC: 0.4109 (Simulation time: 00 hr 58 min 10 sec)
Heartbeat CPU 0 instructions: 234501054 cycles: 462461417 heartbeat IPC: 0.6546 cumulative IPC: 0.4113 (Simulation time: 00 hr 58 min 16 sec)
Heartbeat CPU 0 instructions: 235001054 cycles: 463174975 heartbeat IPC: 0.7007 cumulative IPC: 0.4118 (Simulation time: 00 hr 58 min 22 sec)
Heartbeat CPU 0 instructions: 235501054 cycles: 464154373 heartbeat IPC: 0.5105 cumulative IPC: 0.412 (Simulation time: 00 hr 58 min 29 sec)
Heartbeat CPU 0 instructions: 236001055 cycles: 465309703 heartbeat IPC: 0.4328 cumulative IPC: 0.412 (Simulation time: 00 hr 58 min 37 sec)
Heartbeat CPU 0 instructions: 236501058 cycles: 466630654 heartbeat IPC: 0.3785 cumulative IPC: 0.4119 (Simulation time: 00 hr 58 min 47 sec)
Heartbeat CPU 0 instructions: 237001065 cycles: 467513437 heartbeat IPC: 0.5664 cumulative IPC: 0.4122 (Simulation time: 00 hr 58 min 54 sec)
Heartbeat CPU 0 instructions: 237501072 cycles: 468379707 heartbeat IPC: 0.5772 cumulative IPC: 0.4126 (Simulation time: 00 hr 59 min 01 sec)
Heartbeat CPU 0 instructions: 238001072 cycles: 469729678 heartbeat IPC: 0.3704 cumulative IPC: 0.4124 (Simulation time: 00 hr 59 min 10 sec)
Heartbeat CPU 0 instructions: 238501072 cycles: 470700597 heartbeat IPC: 0.515 cumulative IPC: 0.4126 (Simulation time: 00 hr 59 min 17 sec)
Heartbeat CPU 0 instructions: 239001074 cycles: 471677025 heartbeat IPC: 0.5121 cumulative IPC: 0.4129 (Simulation time: 00 hr 59 min 25 sec)
Heartbeat CPU 0 instructions: 239501079 cycles: 472876820 heartbeat IPC: 0.4167 cumulative IPC: 0.4129 (Simulation time: 00 hr 59 min 33 sec)
Heartbeat CPU 0 instructions: 240001079 cycles: 473847078 heartbeat IPC: 0.5153 cumulative IPC: 0.4131 (Simulation time: 00 hr 59 min 41 sec)
Heartbeat CPU 0 instructions: 240501081 cycles: 475222020 heartbeat IPC: 0.3637 cumulative IPC: 0.4129 (Simulation time: 00 hr 59 min 50 sec)
Heartbeat CPU 0 instructions: 241001081 cycles: 476994475 heartbeat IPC: 0.2821 cumulative IPC: 0.4124 (Simulation time: 01 hr 00 min 02 sec)
Heartbeat CPU 0 instructions: 241501084 cycles: 477796598 heartbeat IPC: 0.6233 cumulative IPC: 0.4128 (Simulation time: 01 hr 00 min 08 sec)
Heartbeat CPU 0 instructions: 242001084 cycles: 478833394 heartbeat IPC: 0.4823 cumulative IPC: 0.413 (Simulation time: 01 hr 00 min 16 sec)
Heartbeat CPU 0 instructions: 242501086 cycles: 479813804 heartbeat IPC: 0.51 cumulative IPC: 0.4132 (Simulation time: 01 hr 00 min 23 sec)
Heartbeat CPU 0 instructions: 243001087 cycles: 480750677 heartbeat IPC: 0.5337 cumulative IPC: 0.4134 (Simulation time: 01 hr 00 min 30 sec)
Heartbeat CPU 0 instructions: 243501087 cycles: 481901596 heartbeat IPC: 0.4344 cumulative IPC: 0.4135 (Simulation time: 01 hr 00 min 38 sec)
Heartbeat CPU 0 instructions: 244001087 cycles: 482729731 heartbeat IPC: 0.6038 cumulative IPC: 0.4138 (Simulation time: 01 hr 00 min 44 sec)
Heartbeat CPU 0 instructions: 244501088 cycles: 483472529 heartbeat IPC: 0.6731 cumulative IPC: 0.4142 (Simulation time: 01 hr 00 min 50 sec)
Heartbeat CPU 0 instructions: 245001088 cycles: 484533441 heartbeat IPC: 0.4713 cumulative IPC: 0.4143 (Simulation time: 01 hr 00 min 58 sec)
Heartbeat CPU 0 instructions: 245501093 cycles: 486497491 heartbeat IPC: 0.2546 cumulative IPC: 0.4137 (Simulation time: 01 hr 01 min 10 sec)
Heartbeat CPU 0 instructions: 246001093 cycles: 488326312 heartbeat IPC: 0.2734 cumulative IPC: 0.4131 (Simulation time: 01 hr 01 min 22 sec)
Heartbeat CPU 0 instructions: 246501093 cycles: 490118304 heartbeat IPC: 0.279 cumulative IPC: 0.4126 (Simulation time: 01 hr 01 min 34 sec)
Heartbeat CPU 0 instructions: 247001094 cycles: 491404716 heartbeat IPC: 0.3887 cumulative IPC: 0.4126 (Simulation time: 01 hr 01 min 42 sec)
Heartbeat CPU 0 instructions: 247501095 cycles: 492622277 heartbeat IPC: 0.4107 cumulative IPC: 0.4126 (Simulation time: 01 hr 01 min 51 sec)
Heartbeat CPU 0 instructions: 248001096 cycles: 493711721 heartbeat IPC: 0.459 cumulative IPC: 0.4127 (Simulation time: 01 hr 01 min 58 sec)
Heartbeat CPU 0 instructions: 248501097 cycles: 495514461 heartbeat IPC: 0.2774 cumulative IPC: 0.4122 (Simulation time: 01 hr 02 min 09 sec)
Heartbeat CPU 0 instructions: 249001098 cycles: 497178566 heartbeat IPC: 0.3005 cumulative IPC: 0.4118 (Simulation time: 01 hr 02 min 20 sec)
Heartbeat CPU 0 instructions: 249501102 cycles: 498037268 heartbeat IPC: 0.5823 cumulative IPC: 0.4121 (Simulation time: 01 hr 02 min 26 sec)
Simulation finished CPU 0 instructions: 200000000 cycles: 485280344 cumulative IPC: 0.4121 (Simulation time: 01 hr 02 min 34 sec)
Simulation complete CPU 0 instructions: 200000000 cycles: 485280344 cumulative IPC: 0.4121 (Simulation time: 01 hr 02 min 34 sec)

ChampSim completed all CPUs

=== Simulation ===
CPU 0 runs /local-ssd/ben/dpc4-traces/gtraces_v2/sierra.a.6_0000.champsim.gz

Region of Interest Statistics

CPU 0 cumulative IPC: 0.4121 instructions: 200000000 cycles: 485280344
CPU 0 Branch Prediction Accuracy: 87.72% MPKI: 23.85 Average ROB Occupancy at Mispredict: 20.25
Branch type MPKI
BRANCH_DIRECT_JUMP: 1.588
BRANCH_INDIRECT: 0.2289
BRANCH_CONDITIONAL: 19.83
BRANCH_DIRECT_CALL: 1.021
BRANCH_INDIRECT_CALL: 0.274
BRANCH_RETURN: 0.9121

cpu0->cpu0_STLB TOTAL        ACCESS:    3533881 HIT:    2752719 MISS:     781162 MSHR_MERGE:          0
cpu0->cpu0_STLB LOAD         ACCESS:    3533881 HIT:    2752719 MISS:     781162 MSHR_MERGE:          0
cpu0->cpu0_STLB RFO          ACCESS:          0 HIT:          0 MISS:          0 MSHR_MERGE:          0
cpu0->cpu0_STLB PREFETCH     ACCESS:          0 HIT:          0 MISS:          0 MSHR_MERGE:          0
cpu0->cpu0_STLB WRITE        ACCESS:          0 HIT:          0 MISS:          0 MSHR_MERGE:          0
cpu0->cpu0_STLB TRANSLATION  ACCESS:          0 HIT:          0 MISS:          0 MSHR_MERGE:          0
cpu0->cpu0_STLB PREFETCH REQUESTED:          0 ISSUED:          0 USEFUL:          0 USELESS:          0
cpu0->cpu0_STLB AVERAGE MISS LATENCY: 161.9 cycles
cpu0->cpu0_L2C TOTAL        ACCESS:   44521140 HIT:   37301141 MISS:    7219999 MSHR_MERGE:    2298472
cpu0->cpu0_L2C LOAD         ACCESS:   10054596 HIT:    8691685 MISS:    1362911 MSHR_MERGE:     212975
cpu0->cpu0_L2C RFO          ACCESS:     981169 HIT:     591117 MISS:     390052 MSHR_MERGE:       7633
cpu0->cpu0_L2C PREFETCH     ACCESS:   30688266 HIT:   25589474 MISS:    5098792 MSHR_MERGE:    2077864
cpu0->cpu0_L2C WRITE        ACCESS:    1923107 HIT:    1923034 MISS:         73 MSHR_MERGE:          0
cpu0->cpu0_L2C TRANSLATION  ACCESS:     874002 HIT:     505831 MISS:     368171 MSHR_MERGE:          0
cpu0->cpu0_L2C PREFETCH REQUESTED:   35227526 ISSUED:   29423077 USEFUL:    1209360 USELESS:    1332006
cpu0->cpu0_L2C AVERAGE MISS LATENCY: 299 cycles
cpu0->cpu0_L1I TOTAL        ACCESS:   22929491 HIT:   13055614 MISS:    9873877 MSHR_MERGE:    2495776
cpu0->cpu0_L1I LOAD         ACCESS:   22929491 HIT:   13055614 MISS:    9873877 MSHR_MERGE:    2495776
cpu0->cpu0_L1I RFO          ACCESS:          0 HIT:          0 MISS:          0 MSHR_MERGE:          0
cpu0->cpu0_L1I PREFETCH     ACCESS:          0 HIT:          0 MISS:          0 MSHR_MERGE:          0
cpu0->cpu0_L1I WRITE        ACCESS:          0 HIT:          0 MISS:          0 MSHR_MERGE:          0
cpu0->cpu0_L1I TRANSLATION  ACCESS:          0 HIT:          0 MISS:          0 MSHR_MERGE:          0
cpu0->cpu0_L1I PREFETCH REQUESTED:          0 ISSUED:          0 USEFUL:          0 USELESS:          0
cpu0->cpu0_L1I AVERAGE MISS LATENCY: 25.65 cycles
cpu0->cpu0_L1D TOTAL        ACCESS:   64690800 HIT:   55872659 MISS:    8818141 MSHR_MERGE:    3021222
cpu0->cpu0_L1D LOAD         ACCESS:   34952153 HIT:   31507815 MISS:    3444338 MSHR_MERGE:     767822
cpu0->cpu0_L1D RFO          ACCESS:          0 HIT:          0 MISS:          0 MSHR_MERGE:          0
cpu0->cpu0_L1D PREFETCH     ACCESS:    2521071 HIT:    1187006 MISS:    1334065 MSHR_MERGE:      68869
cpu0->cpu0_L1D WRITE        ACCESS:   25169703 HIT:   22009753 MISS:    3159950 MSHR_MERGE:    2178745
cpu0->cpu0_L1D TRANSLATION  ACCESS:    2047873 HIT:    1168085 MISS:     879788 MSHR_MERGE:       5786
cpu0->cpu0_L1D PREFETCH REQUESTED:    2540183 ISSUED:    2521071 USEFUL:     385790 USELESS:     879297
cpu0->cpu0_L1D AVERAGE MISS LATENCY: 118.6 cycles
cpu0->cpu0_ITLB TOTAL        ACCESS:   18617427 HIT:   17600448 MISS:    1016979 MSHR_MERGE:     476038
cpu0->cpu0_ITLB LOAD         ACCESS:   18617427 HIT:   17600448 MISS:    1016979 MSHR_MERGE:     476038
cpu0->cpu0_ITLB RFO          ACCESS:          0 HIT:          0 MISS:          0 MSHR_MERGE:          0
cpu0->cpu0_ITLB PREFETCH     ACCESS:          0 HIT:          0 MISS:          0 MSHR_MERGE:          0
cpu0->cpu0_ITLB WRITE        ACCESS:          0 HIT:          0 MISS:          0 MSHR_MERGE:          0
cpu0->cpu0_ITLB TRANSLATION  ACCESS:          0 HIT:          0 MISS:          0 MSHR_MERGE:          0
cpu0->cpu0_ITLB PREFETCH REQUESTED:          0 ISSUED:          0 USEFUL:          0 USELESS:          0
cpu0->cpu0_ITLB AVERAGE MISS LATENCY: 19.19 cycles
cpu0->cpu0_DTLB TOTAL        ACCESS:   59921270 HIT:   55213345 MISS:    4707925 MSHR_MERGE:    1714985
cpu0->cpu0_DTLB LOAD         ACCESS:   59921270 HIT:   55213345 MISS:    4707925 MSHR_MERGE:    1714985
cpu0->cpu0_DTLB RFO          ACCESS:          0 HIT:          0 MISS:          0 MSHR_MERGE:          0
cpu0->cpu0_DTLB PREFETCH     ACCESS:          0 HIT:          0 MISS:          0 MSHR_MERGE:          0
cpu0->cpu0_DTLB WRITE        ACCESS:          0 HIT:          0 MISS:          0 MSHR_MERGE:          0
cpu0->cpu0_DTLB TRANSLATION  ACCESS:          0 HIT:          0 MISS:          0 MSHR_MERGE:          0
cpu0->cpu0_DTLB PREFETCH REQUESTED:          0 ISSUED:          0 USEFUL:          0 USELESS:          0
cpu0->cpu0_DTLB AVERAGE MISS LATENCY: 44.95 cycles
cpu0->LLC TOTAL        ACCESS:    5844150 HIT:    1667368 MISS:    4176782 MSHR_MERGE:          0
cpu0->LLC LOAD         ACCESS:    1149936 HIT:     241451 MISS:     908485 MSHR_MERGE:          0
cpu0->LLC RFO          ACCESS:     382419 HIT:      22696 MISS:     359723 MSHR_MERGE:          0
cpu0->LLC PREFETCH     ACCESS:    3020928 HIT:     605616 MISS:    2415312 MSHR_MERGE:          0
cpu0->LLC WRITE        ACCESS:     922696 HIT:     695867 MISS:     226829 MSHR_MERGE:          0
cpu0->LLC TRANSLATION  ACCESS:     368171 HIT:     101738 MISS:     266433 MSHR_MERGE:          0
cpu0->LLC PREFETCH REQUESTED:          0 ISSUED:          0 USEFUL:          0 USELESS:          0
cpu0->LLC AVERAGE MISS LATENCY: 312.9 cycles

DRAM Statistics

Channel 0 RQ ROW_BUFFER_HIT:      32031
  ROW_BUFFER_MISS:    3917726
  AVG DBUS CONGESTED CYCLE: 4.101
Channel 0 WQ ROW_BUFFER_HIT:     167084
  ROW_BUFFER_MISS:     689187
  FULL:          0
Channel 0 REFRESHES ISSUED:      40440
