[VMEM] WARNING: physical memory size is smaller than virtual memory size.

*** ChampSim Multicore Out-of-Order Simulator ***
Warmup Instructions: 50000000
Simulation Instructions: 200000000
Number of CPUs: 1
Page size: 4096
Core 0: /local-ssd/ben/dpc4-traces/SPEC17/621.wrf_s-6673B.champsimtrace.xz
 L1D Berti prefetcher
Off-chip DRAM Size: 64 GiB Channels: 1 Width: 64-bit Data Rate: 800 MT/s
Heartbeat CPU 0 instructions: 500002 cycles: 112091 heartbeat IPC: 4.461 cumulative IPC: 4.461 (Simulation time: 00 hr 00 min 04 sec)
Heartbeat CPU 0 instructions: 1000009 cycles: 220570 heartbeat IPC: 4.609 cumulative IPC: 4.534 (Simulation time: 00 hr 00 min 06 sec)
Heartbeat CPU 0 instructions: 1500016 cycles: 333379 heartbeat IPC: 4.432 cumulative IPC: 4.499 (Simulation time: 00 hr 00 min 08 sec)
Heartbeat CPU 0 instructions: 2000019 cycles: 449548 heartbeat IPC: 4.304 cumulative IPC: 4.449 (Simulation time: 00 hr 00 min 09 sec)
Heartbeat CPU 0 instructions: 2500021 cycles: 562426 heartbeat IPC: 4.43 cumulative IPC: 4.445 (Simulation time: 00 hr 00 min 11 sec)
Heartbeat CPU 0 instructions: 3000028 cycles: 674581 heartbeat IPC: 4.458 cumulative IPC: 4.447 (Simulation time: 00 hr 00 min 14 sec)
Heartbeat CPU 0 instructions: 3500032 cycles: 786487 heartbeat IPC: 4.468 cumulative IPC: 4.45 (Simulation time: 00 hr 00 min 16 sec)
Heartbeat CPU 0 instructions: 4000035 cycles: 898017 heartbeat IPC: 4.483 cumulative IPC: 4.454 (Simulation time: 00 hr 00 min 18 sec)
Heartbeat CPU 0 instructions: 4500035 cycles: 1010199 heartbeat IPC: 4.457 cumulative IPC: 4.455 (Simulation time: 00 hr 00 min 20 sec)
Heartbeat CPU 0 instructions: 5000042 cycles: 1122320 heartbeat IPC: 4.46 cumulative IPC: 4.455 (Simulation time: 00 hr 00 min 22 sec)
Heartbeat CPU 0 instructions: 5500046 cycles: 1234351 heartbeat IPC: 4.463 cumulative IPC: 4.456 (Simulation time: 00 hr 00 min 24 sec)
Heartbeat CPU 0 instructions: 6000046 cycles: 1346258 heartbeat IPC: 4.468 cumulative IPC: 4.457 (Simulation time: 00 hr 00 min 26 sec)
Heartbeat CPU 0 instructions: 6500047 cycles: 1457976 heartbeat IPC: 4.476 cumulative IPC: 4.458 (Simulation time: 00 hr 00 min 28 sec)
Heartbeat CPU 0 instructions: 7000052 cycles: 1569835 heartbeat IPC: 4.47 cumulative IPC: 4.459 (Simulation time: 00 hr 00 min 30 sec)
Heartbeat CPU 0 instructions: 7500052 cycles: 1681676 heartbeat IPC: 4.471 cumulative IPC: 4.46 (Simulation time: 00 hr 00 min 32 sec)
Heartbeat CPU 0 instructions: 8000054 cycles: 1793522 heartbeat IPC: 4.47 cumulative IPC: 4.461 (Simulation time: 00 hr 00 min 34 sec)
Heartbeat CPU 0 instructions: 8500061 cycles: 1905336 heartbeat IPC: 4.472 cumulative IPC: 4.461 (Simulation time: 00 hr 00 min 36 sec)
Heartbeat CPU 0 instructions: 9000063 cycles: 2017155 heartbeat IPC: 4.472 cumulative IPC: 4.462 (Simulation time: 00 hr 00 min 39 sec)
Heartbeat CPU 0 instructions: 9500066 cycles: 2128601 heartbeat IPC: 4.487 cumulative IPC: 4.463 (Simulation time: 00 hr 00 min 41 sec)
Heartbeat CPU 0 instructions: 10000073 cycles: 2239351 heartbeat IPC: 4.515 cumulative IPC: 4.466 (Simulation time: 00 hr 00 min 42 sec)
Heartbeat CPU 0 instructions: 10500079 cycles: 2349167 heartbeat IPC: 4.553 cumulative IPC: 4.47 (Simulation time: 00 hr 00 min 44 sec)
Heartbeat CPU 0 instructions: 11000085 cycles: 2458659 heartbeat IPC: 4.567 cumulative IPC: 4.474 (Simulation time: 00 hr 00 min 45 sec)
Heartbeat CPU 0 instructions: 11500086 cycles: 2565808 heartbeat IPC: 4.666 cumulative IPC: 4.482 (Simulation time: 00 hr 00 min 47 sec)
Heartbeat CPU 0 instructions: 12000086 cycles: 2672596 heartbeat IPC: 4.682 cumulative IPC: 4.49 (Simulation time: 00 hr 00 min 48 sec)
Heartbeat CPU 0 instructions: 12500087 cycles: 2777013 heartbeat IPC: 4.789 cumulative IPC: 4.501 (Simulation time: 00 hr 00 min 50 sec)
Heartbeat CPU 0 instructions: 13000092 cycles: 2881273 heartbeat IPC: 4.796 cumulative IPC: 4.512 (Simulation time: 00 hr 00 min 52 sec)
Heartbeat CPU 0 instructions: 13500099 cycles: 2985624 heartbeat IPC: 4.792 cumulative IPC: 4.522 (Simulation time: 00 hr 00 min 53 sec)
Heartbeat CPU 0 instructions: 14000099 cycles: 3089181 heartbeat IPC: 4.828 cumulative IPC: 4.532 (Simulation time: 00 hr 00 min 55 sec)
Heartbeat CPU 0 instructions: 14500102 cycles: 3189402 heartbeat IPC: 4.989 cumulative IPC: 4.546 (Simulation time: 00 hr 00 min 56 sec)
Heartbeat CPU 0 instructions: 15000108 cycles: 3289511 heartbeat IPC: 4.995 cumulative IPC: 4.56 (Simulation time: 00 hr 00 min 58 sec)
Heartbeat CPU 0 instructions: 15500115 cycles: 3389652 heartbeat IPC: 4.993 cumulative IPC: 4.573 (Simulation time: 00 hr 00 min 59 sec)
Heartbeat CPU 0 instructions: 16000116 cycles: 3490638 heartbeat IPC: 4.951 cumulative IPC: 4.584 (Simulation time: 00 hr 01 min 01 sec)
Heartbeat CPU 0 instructions: 16500120 cycles: 3590652 heartbeat IPC: 4.999 cumulative IPC: 4.595 (Simulation time: 00 hr 01 min 02 sec)
Heartbeat CPU 0 instructions: 17000124 cycles: 3690755 heartbeat IPC: 4.995 cumulative IPC: 4.606 (Simulation time: 00 hr 01 min 04 sec)
Heartbeat CPU 0 instructions: 17500125 cycles: 3797739 heartbeat IPC: 4.674 cumulative IPC: 4.608 (Simulation time: 00 hr 01 min 05 sec)
Heartbeat CPU 0 instructions: 18000129 cycles: 3897741 heartbeat IPC: 5 cumulative IPC: 4.618 (Simulation time: 00 hr 01 min 06 sec)
Heartbeat CPU 0 instructions: 18500134 cycles: 3997741 heartbeat IPC: 5 cumulative IPC: 4.628 (Simulation time: 00 hr 01 min 08 sec)
Heartbeat CPU 0 instructions: 19000139 cycles: 4097957 heartbeat IPC: 4.989 cumulative IPC: 4.636 (Simulation time: 00 hr 01 min 09 sec)
Heartbeat CPU 0 instructions: 19500142 cycles: 4197958 heartbeat IPC: 5 cumulative IPC: 4.645 (Simulation time: 00 hr 01 min 11 sec)
Heartbeat CPU 0 instructions: 20000146 cycles: 4297961 heartbeat IPC: 5 cumulative IPC: 4.653 (Simulation time: 00 hr 01 min 12 sec)
Heartbeat CPU 0 instructions: 20500152 cycles: 4397965 heartbeat IPC: 5 cumulative IPC: 4.661 (Simulation time: 00 hr 01 min 14 sec)
Heartbeat CPU 0 instructions: 21000152 cycles: 4498172 heartbeat IPC: 4.99 cumulative IPC: 4.669 (Simulation time: 00 hr 01 min 15 sec)
Heartbeat CPU 0 instructions: 21500152 cycles: 4598170 heartbeat IPC: 5 cumulative IPC: 4.676 (Simulation time: 00 hr 01 min 17 sec)
Heartbeat CPU 0 instructions: 22000157 cycles: 4698171 heartbeat IPC: 5 cumulative IPC: 4.683 (Simulation time: 00 hr 01 min 19 sec)
Heartbeat CPU 0 instructions: 22500158 cycles: 4798174 heartbeat IPC: 5 cumulative IPC: 4.689 (Simulation time: 00 hr 01 min 20 sec)
Heartbeat CPU 0 instructions: 23000161 cycles: 4898186 heartbeat IPC: 4.999 cumulative IPC: 4.696 (Simulation time: 00 hr 01 min 22 sec)
Heartbeat CPU 0 instructions: 23500161 cycles: 5002580 heartbeat IPC: 4.79 cumulative IPC: 4.698 (Simulation time: 00 hr 01 min 23 sec)
Heartbeat CPU 0 instructions: 24000166 cycles: 5105990 heartbeat IPC: 4.835 cumulative IPC: 4.7 (Simulation time: 00 hr 01 min 24 sec)
Heartbeat CPU 0 instructions: 24500168 cycles: 5209433 heartbeat IPC: 4.834 cumulative IPC: 4.703 (Simulation time: 00 hr 01 min 26 sec)
Heartbeat CPU 0 instructions: 25000174 cycles: 5313048 heartbeat IPC: 4.826 cumulative IPC: 4.705 (Simulation time: 00 hr 01 min 27 sec)
Heartbeat CPU 0 instructions: 25500176 cycles: 5417151 heartbeat IPC: 4.803 cumulative IPC: 4.707 (Simulation time: 00 hr 01 min 29 sec)
Heartbeat CPU 0 instructions: 26000176 cycles: 5521261 heartbeat IPC: 4.803 cumulative IPC: 4.709 (Simulation time: 00 hr 01 min 30 sec)
Heartbeat CPU 0 instructions: 26500178 cycles: 5625365 heartbeat IPC: 4.803 cumulative IPC: 4.711 (Simulation time: 00 hr 01 min 32 sec)
Heartbeat CPU 0 instructions: 27000178 cycles: 5730021 heartbeat IPC: 4.778 cumulative IPC: 4.712 (Simulation time: 00 hr 01 min 33 sec)
Heartbeat CPU 0 instructions: 27500184 cycles: 5835258 heartbeat IPC: 4.751 cumulative IPC: 4.713 (Simulation time: 00 hr 01 min 34 sec)
Heartbeat CPU 0 instructions: 28000185 cycles: 5940625 heartbeat IPC: 4.745 cumulative IPC: 4.713 (Simulation time: 00 hr 01 min 36 sec)
Heartbeat CPU 0 instructions: 28500186 cycles: 6045985 heartbeat IPC: 4.746 cumulative IPC: 4.714 (Simulation time: 00 hr 01 min 37 sec)
Heartbeat CPU 0 instructions: 29000193 cycles: 6151488 heartbeat IPC: 4.739 cumulative IPC: 4.714 (Simulation time: 00 hr 01 min 39 sec)
Heartbeat CPU 0 instructions: 29500199 cycles: 6256761 heartbeat IPC: 4.75 cumulative IPC: 4.715 (Simulation time: 00 hr 01 min 40 sec)
Heartbeat CPU 0 instructions: 30000206 cycles: 6362052 heartbeat IPC: 4.749 cumulative IPC: 4.715 (Simulation time: 00 hr 01 min 42 sec)
Heartbeat CPU 0 instructions: 30500207 cycles: 6467453 heartbeat IPC: 4.744 cumulative IPC: 4.716 (Simulation time: 00 hr 01 min 43 sec)
Heartbeat CPU 0 instructions: 31000212 cycles: 6572837 heartbeat IPC: 4.745 cumulative IPC: 4.716 (Simulation time: 00 hr 01 min 45 sec)
Heartbeat CPU 0 instructions: 31500214 cycles: 6680142 heartbeat IPC: 4.66 cumulative IPC: 4.716 (Simulation time: 00 hr 01 min 46 sec)
Heartbeat CPU 0 instructions: 32000218 cycles: 6787648 heartbeat IPC: 4.651 cumulative IPC: 4.714 (Simulation time: 00 hr 01 min 48 sec)
Heartbeat CPU 0 instructions: 32500225 cycles: 6894556 heartbeat IPC: 4.677 cumulative IPC: 4.714 (Simulation time: 00 hr 01 min 49 sec)
Heartbeat CPU 0 instructions: 33000230 cycles: 7001500 heartbeat IPC: 4.675 cumulative IPC: 4.713 (Simulation time: 00 hr 01 min 51 sec)
Heartbeat CPU 0 instructions: 33500235 cycles: 7108614 heartbeat IPC: 4.668 cumulative IPC: 4.713 (Simulation time: 00 hr 01 min 52 sec)
Heartbeat CPU 0 instructions: 34000241 cycles: 7258736 heartbeat IPC: 3.331 cumulative IPC: 4.684 (Simulation time: 00 hr 01 min 55 sec)
Heartbeat CPU 0 instructions: 34500247 cycles: 7380526 heartbeat IPC: 4.105 cumulative IPC: 4.674 (Simulation time: 00 hr 01 min 57 sec)
Heartbeat CPU 0 instructions: 35000250 cycles: 7495052 heartbeat IPC: 4.366 cumulative IPC: 4.67 (Simulation time: 00 hr 01 min 59 sec)
Heartbeat CPU 0 instructions: 35500251 cycles: 7609853 heartbeat IPC: 4.355 cumulative IPC: 4.665 (Simulation time: 00 hr 02 min 01 sec)
Heartbeat CPU 0 instructions: 36000258 cycles: 7733276 heartbeat IPC: 4.051 cumulative IPC: 4.655 (Simulation time: 00 hr 02 min 03 sec)
Heartbeat CPU 0 instructions: 36500265 cycles: 7887667 heartbeat IPC: 3.239 cumulative IPC: 4.628 (Simulation time: 00 hr 02 min 05 sec)
Heartbeat CPU 0 instructions: 37000271 cycles: 8051770 heartbeat IPC: 3.047 cumulative IPC: 4.595 (Simulation time: 00 hr 02 min 08 sec)
Heartbeat CPU 0 instructions: 37500278 cycles: 8188151 heartbeat IPC: 3.666 cumulative IPC: 4.58 (Simulation time: 00 hr 02 min 10 sec)
Heartbeat CPU 0 instructions: 38000280 cycles: 8291954 heartbeat IPC: 4.817 cumulative IPC: 4.583 (Simulation time: 00 hr 02 min 12 sec)
Heartbeat CPU 0 instructions: 38500283 cycles: 8409558 heartbeat IPC: 4.252 cumulative IPC: 4.578 (Simulation time: 00 hr 02 min 14 sec)
Heartbeat CPU 0 instructions: 39000289 cycles: 8552294 heartbeat IPC: 3.503 cumulative IPC: 4.56 (Simulation time: 00 hr 02 min 16 sec)
Heartbeat CPU 0 instructions: 39500295 cycles: 8654886 heartbeat IPC: 4.874 cumulative IPC: 4.564 (Simulation time: 00 hr 02 min 17 sec)
Heartbeat CPU 0 instructions: 40000301 cycles: 8757475 heartbeat IPC: 4.874 cumulative IPC: 4.568 (Simulation time: 00 hr 02 min 19 sec)
Heartbeat CPU 0 instructions: 40500306 cycles: 8860388 heartbeat IPC: 4.859 cumulative IPC: 4.571 (Simulation time: 00 hr 02 min 20 sec)
Heartbeat CPU 0 instructions: 41000308 cycles: 8963158 heartbeat IPC: 4.865 cumulative IPC: 4.574 (Simulation time: 00 hr 02 min 22 sec)
Heartbeat CPU 0 instructions: 41500314 cycles: 9065796 heartbeat IPC: 4.872 cumulative IPC: 4.578 (Simulation time: 00 hr 02 min 23 sec)
Heartbeat CPU 0 instructions: 42000319 cycles: 9168414 heartbeat IPC: 4.872 cumulative IPC: 4.581 (Simulation time: 00 hr 02 min 25 sec)
Heartbeat CPU 0 instructions: 42500319 cycles: 9350977 heartbeat IPC: 2.739 cumulative IPC: 4.545 (Simulation time: 00 hr 02 min 27 sec)
Heartbeat CPU 0 instructions: 43000320 cycles: 9583544 heartbeat IPC: 2.15 cumulative IPC: 4.487 (Simulation time: 00 hr 02 min 30 sec)
Heartbeat CPU 0 instructions: 43500322 cycles: 9686610 heartbeat IPC: 4.851 cumulative IPC: 4.491 (Simulation time: 00 hr 02 min 31 sec)
Heartbeat CPU 0 instructions: 44000329 cycles: 9789570 heartbeat IPC: 4.856 cumulative IPC: 4.495 (Simulation time: 00 hr 02 min 33 sec)
Heartbeat CPU 0 instructions: 44500334 cycles: 9892292 heartbeat IPC: 4.868 cumulative IPC: 4.498 (Simulation time: 00 hr 02 min 34 sec)
Heartbeat CPU 0 instructions: 45000340 cycles: 9995253 heartbeat IPC: 4.856 cumulative IPC: 4.502 (Simulation time: 00 hr 02 min 36 sec)
Heartbeat CPU 0 instructions: 45500341 cycles: 10098076 heartbeat IPC: 4.863 cumulative IPC: 4.506 (Simulation time: 00 hr 02 min 37 sec)
Heartbeat CPU 0 instructions: 46000342 cycles: 10199771 heartbeat IPC: 4.917 cumulative IPC: 4.51 (Simulation time: 00 hr 02 min 39 sec)
Heartbeat CPU 0 instructions: 46500342 cycles: 10299771 heartbeat IPC: 5 cumulative IPC: 4.515 (Simulation time: 00 hr 02 min 40 sec)
Heartbeat CPU 0 instructions: 47000343 cycles: 10399772 heartbeat IPC: 5 cumulative IPC: 4.519 (Simulation time: 00 hr 02 min 41 sec)
Heartbeat CPU 0 instructions: 47500346 cycles: 10499773 heartbeat IPC: 5 cumulative IPC: 4.524 (Simulation time: 00 hr 02 min 43 sec)
Heartbeat CPU 0 instructions: 48000353 cycles: 10605758 heartbeat IPC: 4.718 cumulative IPC: 4.526 (Simulation time: 00 hr 02 min 45 sec)
Heartbeat CPU 0 instructions: 48500360 cycles: 10712680 heartbeat IPC: 4.676 cumulative IPC: 4.527 (Simulation time: 00 hr 02 min 47 sec)
Heartbeat CPU 0 instructions: 49000362 cycles: 10819734 heartbeat IPC: 4.671 cumulative IPC: 4.529 (Simulation time: 00 hr 02 min 48 sec)
Heartbeat CPU 0 instructions: 49500363 cycles: 10926460 heartbeat IPC: 4.685 cumulative IPC: 4.53 (Simulation time: 00 hr 02 min 50 sec)
Warmup finished CPU 0 instructions: 50000002 cycles: 11033186 cumulative IPC: 4.532 (Simulation time: 00 hr 02 min 52 sec)
Warmup complete CPU 0 instructions: 50000002 cycles: 11033186 cumulative IPC: 4.532 (Simulation time: 00 hr 02 min 52 sec)
Heartbeat CPU 0 instructions: 50000367 cycles: 11033477 heartbeat IPC: 4.672 cumulative IPC: 1.254 (Simulation time: 00 hr 02 min 52 sec)
Heartbeat CPU 0 instructions: 50500374 cycles: 11518444 heartbeat IPC: 1.031 cumulative IPC: 1.031 (Simulation time: 00 hr 02 min 57 sec)
Heartbeat CPU 0 instructions: 51000375 cycles: 11967744 heartbeat IPC: 1.113 cumulative IPC: 1.07 (Simulation time: 00 hr 03 min 02 sec)
Heartbeat CPU 0 instructions: 51500378 cycles: 12396430 heartbeat IPC: 1.166 cumulative IPC: 1.101 (Simulation time: 00 hr 03 min 06 sec)
Heartbeat CPU 0 instructions: 52000384 cycles: 13074740 heartbeat IPC: 0.7371 cumulative IPC: 0.9798 (Simulation time: 00 hr 03 min 13 sec)
Heartbeat CPU 0 instructions: 52500385 cycles: 13351064 heartbeat IPC: 1.809 cumulative IPC: 1.079 (Simulation time: 00 hr 03 min 16 sec)
Heartbeat CPU 0 instructions: 53000386 cycles: 13629577 heartbeat IPC: 1.795 cumulative IPC: 1.156 (Simulation time: 00 hr 03 min 19 sec)
Heartbeat CPU 0 instructions: 53500386 cycles: 13910862 heartbeat IPC: 1.778 cumulative IPC: 1.216 (Simulation time: 00 hr 03 min 23 sec)
Heartbeat CPU 0 instructions: 54000391 cycles: 14202435 heartbeat IPC: 1.715 cumulative IPC: 1.262 (Simulation time: 00 hr 03 min 26 sec)
Heartbeat CPU 0 instructions: 54500396 cycles: 14493442 heartbeat IPC: 1.718 cumulative IPC: 1.301 (Simulation time: 00 hr 03 min 30 sec)
Heartbeat CPU 0 instructions: 55000398 cycles: 14812933 heartbeat IPC: 1.565 cumulative IPC: 1.323 (Simulation time: 00 hr 03 min 33 sec)
Heartbeat CPU 0 instructions: 55500398 cycles: 15124757 heartbeat IPC: 1.603 cumulative IPC: 1.344 (Simulation time: 00 hr 03 min 37 sec)
Heartbeat CPU 0 instructions: 56000399 cycles: 15751898 heartbeat IPC: 0.7973 cumulative IPC: 1.272 (Simulation time: 00 hr 03 min 43 sec)
Heartbeat CPU 0 instructions: 56500403 cycles: 16979702 heartbeat IPC: 0.4072 cumulative IPC: 1.093 (Simulation time: 00 hr 03 min 54 sec)
Heartbeat CPU 0 instructions: 57000410 cycles: 17471423 heartbeat IPC: 1.017 cumulative IPC: 1.087 (Simulation time: 00 hr 03 min 59 sec)
Heartbeat CPU 0 instructions: 57500416 cycles: 18036226 heartbeat IPC: 0.8853 cumulative IPC: 1.071 (Simulation time: 00 hr 04 min 05 sec)
Heartbeat CPU 0 instructions: 58000416 cycles: 18546623 heartbeat IPC: 0.9796 cumulative IPC: 1.065 (Simulation time: 00 hr 04 min 10 sec)
Heartbeat CPU 0 instructions: 58500418 cycles: 19322351 heartbeat IPC: 0.6446 cumulative IPC: 1.025 (Simulation time: 00 hr 04 min 17 sec)
Heartbeat CPU 0 instructions: 59000421 cycles: 19727204 heartbeat IPC: 1.235 cumulative IPC: 1.035 (Simulation time: 00 hr 04 min 21 sec)
Heartbeat CPU 0 instructions: 59500421 cycles: 20123790 heartbeat IPC: 1.261 cumulative IPC: 1.045 (Simulation time: 00 hr 04 min 26 sec)
Heartbeat CPU 0 instructions: 60000427 cycles: 20535203 heartbeat IPC: 1.215 cumulative IPC: 1.052 (Simulation time: 00 hr 04 min 30 sec)
Heartbeat CPU 0 instructions: 60500427 cycles: 20974639 heartbeat IPC: 1.138 cumulative IPC: 1.056 (Simulation time: 00 hr 04 min 35 sec)
Heartbeat CPU 0 instructions: 61000430 cycles: 21422142 heartbeat IPC: 1.117 cumulative IPC: 1.059 (Simulation time: 00 hr 04 min 39 sec)
Heartbeat CPU 0 instructions: 61500431 cycles: 21869041 heartbeat IPC: 1.119 cumulative IPC: 1.061 (Simulation time: 00 hr 04 min 44 sec)
Heartbeat CPU 0 instructions: 62000432 cycles: 22315563 heartbeat IPC: 1.12 cumulative IPC: 1.064 (Simulation time: 00 hr 04 min 49 sec)
Heartbeat CPU 0 instructions: 62500439 cycles: 22795456 heartbeat IPC: 1.042 cumulative IPC: 1.063 (Simulation time: 00 hr 04 min 54 sec)
Heartbeat CPU 0 instructions: 63000442 cycles: 23241420 heartbeat IPC: 1.121 cumulative IPC: 1.065 (Simulation time: 00 hr 04 min 58 sec)
Heartbeat CPU 0 instructions: 63500449 cycles: 23705897 heartbeat IPC: 1.076 cumulative IPC: 1.065 (Simulation time: 00 hr 05 min 03 sec)
Heartbeat CPU 0 instructions: 64000449 cycles: 24173865 heartbeat IPC: 1.068 cumulative IPC: 1.065 (Simulation time: 00 hr 05 min 08 sec)
Heartbeat CPU 0 instructions: 64500454 cycles: 24662946 heartbeat IPC: 1.022 cumulative IPC: 1.064 (Simulation time: 00 hr 05 min 13 sec)
Heartbeat CPU 0 instructions: 65000461 cycles: 25134201 heartbeat IPC: 1.061 cumulative IPC: 1.064 (Simulation time: 00 hr 05 min 18 sec)
Heartbeat CPU 0 instructions: 65500465 cycles: 25589166 heartbeat IPC: 1.099 cumulative IPC: 1.065 (Simulation time: 00 hr 05 min 23 sec)
Heartbeat CPU 0 instructions: 66000470 cycles: 26065963 heartbeat IPC: 1.049 cumulative IPC: 1.064 (Simulation time: 00 hr 05 min 28 sec)
Heartbeat CPU 0 instructions: 66500470 cycles: 27142316 heartbeat IPC: 0.4645 cumulative IPC: 1.024 (Simulation time: 00 hr 05 min 36 sec)
Heartbeat CPU 0 instructions: 67000470 cycles: 28997611 heartbeat IPC: 0.2695 cumulative IPC: 0.9463 (Simulation time: 00 hr 05 min 50 sec)
Heartbeat CPU 0 instructions: 67500475 cycles: 30837595 heartbeat IPC: 0.2717 cumulative IPC: 0.8837 (Simulation time: 00 hr 06 min 06 sec)
Heartbeat CPU 0 instructions: 68000480 cycles: 32288315 heartbeat IPC: 0.3447 cumulative IPC: 0.8469 (Simulation time: 00 hr 06 min 19 sec)
Heartbeat CPU 0 instructions: 68500486 cycles: 33806163 heartbeat IPC: 0.3294 cumulative IPC: 0.8124 (Simulation time: 00 hr 06 min 33 sec)
Heartbeat CPU 0 instructions: 69000486 cycles: 35273424 heartbeat IPC: 0.3408 cumulative IPC: 0.7838 (Simulation time: 00 hr 06 min 47 sec)
Heartbeat CPU 0 instructions: 69500490 cycles: 36239763 heartbeat IPC: 0.5174 cumulative IPC: 0.7736 (Simulation time: 00 hr 06 min 55 sec)
Heartbeat CPU 0 instructions: 70000491 cycles: 36708311 heartbeat IPC: 1.067 cumulative IPC: 0.779 (Simulation time: 00 hr 07 min 00 sec)
Heartbeat CPU 0 instructions: 70500493 cycles: 37194181 heartbeat IPC: 1.029 cumulative IPC: 0.7836 (Simulation time: 00 hr 07 min 04 sec)
Heartbeat CPU 0 instructions: 71000494 cycles: 37696237 heartbeat IPC: 0.9959 cumulative IPC: 0.7876 (Simulation time: 00 hr 07 min 09 sec)
Heartbeat CPU 0 instructions: 71500500 cycles: 38181989 heartbeat IPC: 1.029 cumulative IPC: 0.792 (Simulation time: 00 hr 07 min 14 sec)
Heartbeat CPU 0 instructions: 72000507 cycles: 38660516 heartbeat IPC: 1.045 cumulative IPC: 0.7963 (Simulation time: 00 hr 07 min 19 sec)
Heartbeat CPU 0 instructions: 72500514 cycles: 39051495 heartbeat IPC: 1.279 cumulative IPC: 0.8031 (Simulation time: 00 hr 07 min 23 sec)
Heartbeat CPU 0 instructions: 73000519 cycles: 39427094 heartbeat IPC: 1.331 cumulative IPC: 0.8101 (Simulation time: 00 hr 07 min 26 sec)
Heartbeat CPU 0 instructions: 73500521 cycles: 39783378 heartbeat IPC: 1.403 cumulative IPC: 0.8174 (Simulation time: 00 hr 07 min 30 sec)
Heartbeat CPU 0 instructions: 74000522 cycles: 40132533 heartbeat IPC: 1.432 cumulative IPC: 0.8248 (Simulation time: 00 hr 07 min 34 sec)
Heartbeat CPU 0 instructions: 74500524 cycles: 40544753 heartbeat IPC: 1.213 cumulative IPC: 0.8302 (Simulation time: 00 hr 07 min 38 sec)
Heartbeat CPU 0 instructions: 75000530 cycles: 40958924 heartbeat IPC: 1.207 cumulative IPC: 0.8354 (Simulation time: 00 hr 07 min 42 sec)
Heartbeat CPU 0 instructions: 75500530 cycles: 41352547 heartbeat IPC: 1.27 cumulative IPC: 0.8411 (Simulation time: 00 hr 07 min 47 sec)
Heartbeat CPU 0 instructions: 76000537 cycles: 41743002 heartbeat IPC: 1.281 cumulative IPC: 0.8467 (Simulation time: 00 hr 07 min 51 sec)
Heartbeat CPU 0 instructions: 76500538 cycles: 42161775 heartbeat IPC: 1.194 cumulative IPC: 0.8513 (Simulation time: 00 hr 07 min 55 sec)
Heartbeat CPU 0 instructions: 77000539 cycles: 42602663 heartbeat IPC: 1.134 cumulative IPC: 0.8553 (Simulation time: 00 hr 08 min 00 sec)
Heartbeat CPU 0 instructions: 77500540 cycles: 43010738 heartbeat IPC: 1.225 cumulative IPC: 0.86 (Simulation time: 00 hr 08 min 04 sec)
Heartbeat CPU 0 instructions: 78000540 cycles: 43411749 heartbeat IPC: 1.247 cumulative IPC: 0.8648 (Simulation time: 00 hr 08 min 08 sec)
Heartbeat CPU 0 instructions: 78500546 cycles: 44186571 heartbeat IPC: 0.6453 cumulative IPC: 0.8597 (Simulation time: 00 hr 08 min 15 sec)
Heartbeat CPU 0 instructions: 79000553 cycles: 44449955 heartbeat IPC: 1.898 cumulative IPC: 0.8678 (Simulation time: 00 hr 08 min 19 sec)
Heartbeat CPU 0 instructions: 79500557 cycles: 44710775 heartbeat IPC: 1.917 cumulative IPC: 0.876 (Simulation time: 00 hr 08 min 22 sec)
Heartbeat CPU 0 instructions: 80000559 cycles: 44981044 heartbeat IPC: 1.85 cumulative IPC: 0.8837 (Simulation time: 00 hr 08 min 25 sec)
Heartbeat CPU 0 instructions: 80500559 cycles: 45263656 heartbeat IPC: 1.769 cumulative IPC: 0.891 (Simulation time: 00 hr 08 min 29 sec)
Heartbeat CPU 0 instructions: 81000561 cycles: 45540308 heartbeat IPC: 1.807 cumulative IPC: 0.8984 (Simulation time: 00 hr 08 min 32 sec)
Heartbeat CPU 0 instructions: 81500565 cycles: 45836230 heartbeat IPC: 1.69 cumulative IPC: 0.9051 (Simulation time: 00 hr 08 min 36 sec)
Heartbeat CPU 0 instructions: 82000565 cycles: 46151383 heartbeat IPC: 1.587 cumulative IPC: 0.9112 (Simulation time: 00 hr 08 min 39 sec)
Heartbeat CPU 0 instructions: 82500572 cycles: 46452558 heartbeat IPC: 1.66 cumulative IPC: 0.9176 (Simulation time: 00 hr 08 min 43 sec)
Heartbeat CPU 0 instructions: 83000573 cycles: 47873626 heartbeat IPC: 0.3518 cumulative IPC: 0.8958 (Simulation time: 00 hr 08 min 55 sec)
Heartbeat CPU 0 instructions: 83500580 cycles: 48292385 heartbeat IPC: 1.194 cumulative IPC: 0.8991 (Simulation time: 00 hr 08 min 59 sec)
Heartbeat CPU 0 instructions: 84000581 cycles: 48834341 heartbeat IPC: 0.9226 cumulative IPC: 0.8995 (Simulation time: 00 hr 09 min 05 sec)
Heartbeat CPU 0 instructions: 84500584 cycles: 49328390 heartbeat IPC: 1.012 cumulative IPC: 0.9009 (Simulation time: 00 hr 09 min 10 sec)
Heartbeat CPU 0 instructions: 85000590 cycles: 50044956 heartbeat IPC: 0.6978 cumulative IPC: 0.8972 (Simulation time: 00 hr 09 min 17 sec)
Heartbeat CPU 0 instructions: 85500596 cycles: 50462419 heartbeat IPC: 1.198 cumulative IPC: 0.9004 (Simulation time: 00 hr 09 min 21 sec)
Heartbeat CPU 0 instructions: 86000601 cycles: 50868203 heartbeat IPC: 1.232 cumulative IPC: 0.9037 (Simulation time: 00 hr 09 min 25 sec)
Heartbeat CPU 0 instructions: 86500608 cycles: 51270997 heartbeat IPC: 1.241 cumulative IPC: 0.9071 (Simulation time: 00 hr 09 min 30 sec)
Heartbeat CPU 0 instructions: 87000611 cycles: 51701778 heartbeat IPC: 1.161 cumulative IPC: 0.9098 (Simulation time: 00 hr 09 min 34 sec)
Heartbeat CPU 0 instructions: 87500618 cycles: 52145224 heartbeat IPC: 1.128 cumulative IPC: 0.9122 (Simulation time: 00 hr 09 min 39 sec)
Heartbeat CPU 0 instructions: 88000620 cycles: 52610079 heartbeat IPC: 1.076 cumulative IPC: 0.914 (Simulation time: 00 hr 09 min 44 sec)
Heartbeat CPU 0 instructions: 88500620 cycles: 53059431 heartbeat IPC: 1.113 cumulative IPC: 0.9161 (Simulation time: 00 hr 09 min 48 sec)
Heartbeat CPU 0 instructions: 89000627 cycles: 53532081 heartbeat IPC: 1.058 cumulative IPC: 0.9177 (Simulation time: 00 hr 09 min 53 sec)
Heartbeat CPU 0 instructions: 89500628 cycles: 53980682 heartbeat IPC: 1.115 cumulative IPC: 0.9197 (Simulation time: 00 hr 09 min 58 sec)
Heartbeat CPU 0 instructions: 90000633 cycles: 54463756 heartbeat IPC: 1.035 cumulative IPC: 0.921 (Simulation time: 00 hr 10 min 03 sec)
Heartbeat CPU 0 instructions: 90500634 cycles: 54944518 heartbeat IPC: 1.04 cumulative IPC: 0.9223 (Simulation time: 00 hr 10 min 08 sec)
Heartbeat CPU 0 instructions: 91000641 cycles: 55426997 heartbeat IPC: 1.036 cumulative IPC: 0.9236 (Simulation time: 00 hr 10 min 13 sec)
Heartbeat CPU 0 instructions: 91500641 cycles: 55908221 heartbeat IPC: 1.039 cumulative IPC: 0.9248 (Simulation time: 00 hr 10 min 18 sec)
Heartbeat CPU 0 instructions: 92000642 cycles: 56377735 heartbeat IPC: 1.065 cumulative IPC: 0.9263 (Simulation time: 00 hr 10 min 23 sec)
Heartbeat CPU 0 instructions: 92500643 cycles: 56864343 heartbeat IPC: 1.028 cumulative IPC: 0.9273 (Simulation time: 00 hr 10 min 28 sec)
Heartbeat CPU 0 instructions: 93000643 cycles: 57405004 heartbeat IPC: 0.9248 cumulative IPC: 0.9273 (Simulation time: 00 hr 10 min 33 sec)
Heartbeat CPU 0 instructions: 93500643 cycles: 59084711 heartbeat IPC: 0.2977 cumulative IPC: 0.9053 (Simulation time: 00 hr 10 min 47 sec)
Heartbeat CPU 0 instructions: 94000643 cycles: 60842192 heartbeat IPC: 0.2845 cumulative IPC: 0.8834 (Simulation time: 00 hr 11 min 02 sec)
Heartbeat CPU 0 instructions: 94500644 cycles: 61987441 heartbeat IPC: 0.4366 cumulative IPC: 0.8733 (Simulation time: 00 hr 11 min 12 sec)
Heartbeat CPU 0 instructions: 95000647 cycles: 62895992 heartbeat IPC: 0.5503 cumulative IPC: 0.8677 (Simulation time: 00 hr 11 min 21 sec)
Heartbeat CPU 0 instructions: 95500648 cycles: 64430416 heartbeat IPC: 0.3259 cumulative IPC: 0.8521 (Simulation time: 00 hr 11 min 35 sec)
Heartbeat CPU 0 instructions: 96000648 cycles: 65798690 heartbeat IPC: 0.3654 cumulative IPC: 0.84 (Simulation time: 00 hr 11 min 48 sec)
Heartbeat CPU 0 instructions: 96500655 cycles: 67449935 heartbeat IPC: 0.3028 cumulative IPC: 0.8242 (Simulation time: 00 hr 12 min 05 sec)
Heartbeat CPU 0 instructions: 97000662 cycles: 68586052 heartbeat IPC: 0.4401 cumulative IPC: 0.8167 (Simulation time: 00 hr 12 min 15 sec)
Heartbeat CPU 0 instructions: 97500666 cycles: 69574340 heartbeat IPC: 0.5059 cumulative IPC: 0.8114 (Simulation time: 00 hr 12 min 24 sec)
Heartbeat CPU 0 instructions: 98000672 cycles: 70631926 heartbeat IPC: 0.4728 cumulative IPC: 0.8054 (Simulation time: 00 hr 12 min 32 sec)
Heartbeat CPU 0 instructions: 98500679 cycles: 71810824 heartbeat IPC: 0.4241 cumulative IPC: 0.798 (Simulation time: 00 hr 12 min 42 sec)
Heartbeat CPU 0 instructions: 99000685 cycles: 73876111 heartbeat IPC: 0.2421 cumulative IPC: 0.7797 (Simulation time: 00 hr 13 min 00 sec)
Heartbeat CPU 0 instructions: 99500686 cycles: 75688115 heartbeat IPC: 0.2759 cumulative IPC: 0.7656 (Simulation time: 00 hr 13 min 15 sec)
Heartbeat CPU 0 instructions: 100000686 cycles: 77850863 heartbeat IPC: 0.2312 cumulative IPC: 0.7483 (Simulation time: 00 hr 13 min 30 sec)
Heartbeat CPU 0 instructions: 100500687 cycles: 78776422 heartbeat IPC: 0.5402 cumulative IPC: 0.7455 (Simulation time: 00 hr 13 min 38 sec)
Heartbeat CPU 0 instructions: 101000688 cycles: 78938938 heartbeat IPC: 3.077 cumulative IPC: 0.7511 (Simulation time: 00 hr 13 min 40 sec)
Heartbeat CPU 0 instructions: 101500692 cycles: 79104592 heartbeat IPC: 3.018 cumulative IPC: 0.7566 (Simulation time: 00 hr 13 min 42 sec)
Heartbeat CPU 0 instructions: 102000695 cycles: 79280061 heartbeat IPC: 2.85 cumulative IPC: 0.7619 (Simulation time: 00 hr 13 min 45 sec)
Heartbeat CPU 0 instructions: 102500700 cycles: 79463813 heartbeat IPC: 2.721 cumulative IPC: 0.7672 (Simulation time: 00 hr 13 min 47 sec)
Heartbeat CPU 0 instructions: 103000706 cycles: 79651078 heartbeat IPC: 2.67 cumulative IPC: 0.7724 (Simulation time: 00 hr 13 min 50 sec)
Heartbeat CPU 0 instructions: 103500709 cycles: 79845447 heartbeat IPC: 2.572 cumulative IPC: 0.7775 (Simulation time: 00 hr 13 min 53 sec)
Heartbeat CPU 0 instructions: 104000713 cycles: 80062442 heartbeat IPC: 2.304 cumulative IPC: 0.7823 (Simulation time: 00 hr 13 min 55 sec)
Heartbeat CPU 0 instructions: 104500716 cycles: 80287700 heartbeat IPC: 2.22 cumulative IPC: 0.787 (Simulation time: 00 hr 13 min 58 sec)
Heartbeat CPU 0 instructions: 105000723 cycles: 80522803 heartbeat IPC: 2.127 cumulative IPC: 0.7915 (Simulation time: 00 hr 14 min 01 sec)
Heartbeat CPU 0 instructions: 105500729 cycles: 80737457 heartbeat IPC: 2.329 cumulative IPC: 0.7962 (Simulation time: 00 hr 14 min 04 sec)
Heartbeat CPU 0 instructions: 106000734 cycles: 80860949 heartbeat IPC: 4.049 cumulative IPC: 0.802 (Simulation time: 00 hr 14 min 06 sec)
Heartbeat CPU 0 instructions: 106500735 cycles: 80980950 heartbeat IPC: 4.167 cumulative IPC: 0.8078 (Simulation time: 00 hr 14 min 08 sec)
Heartbeat CPU 0 instructions: 107000735 cycles: 81104991 heartbeat IPC: 4.031 cumulative IPC: 0.8135 (Simulation time: 00 hr 14 min 10 sec)
Heartbeat CPU 0 instructions: 107500736 cycles: 81221467 heartbeat IPC: 4.293 cumulative IPC: 0.8192 (Simulation time: 00 hr 14 min 11 sec)
Heartbeat CPU 0 instructions: 108000740 cycles: 81344589 heartbeat IPC: 4.061 cumulative IPC: 0.8249 (Simulation time: 00 hr 14 min 13 sec)
Heartbeat CPU 0 instructions: 108500744 cycles: 81467655 heartbeat IPC: 4.063 cumulative IPC: 0.8306 (Simulation time: 00 hr 14 min 15 sec)
Heartbeat CPU 0 instructions: 109000748 cycles: 81589735 heartbeat IPC: 4.096 cumulative IPC: 0.8362 (Simulation time: 00 hr 14 min 17 sec)
Heartbeat CPU 0 instructions: 109500749 cycles: 81712258 heartbeat IPC: 4.081 cumulative IPC: 0.8418 (Simulation time: 00 hr 14 min 19 sec)
Heartbeat CPU 0 instructions: 110000751 cycles: 81838366 heartbeat IPC: 3.965 cumulative IPC: 0.8474 (Simulation time: 00 hr 14 min 21 sec)
Heartbeat CPU 0 instructions: 110500751 cycles: 81954331 heartbeat IPC: 4.312 cumulative IPC: 0.8531 (Simulation time: 00 hr 14 min 23 sec)
Heartbeat CPU 0 instructions: 111000757 cycles: 82113679 heartbeat IPC: 3.138 cumulative IPC: 0.8582 (Simulation time: 00 hr 14 min 25 sec)
Heartbeat CPU 0 instructions: 111500758 cycles: 82238903 heartbeat IPC: 3.993 cumulative IPC: 0.8637 (Simulation time: 00 hr 14 min 27 sec)
Heartbeat CPU 0 instructions: 112000765 cycles: 82371837 heartbeat IPC: 3.761 cumulative IPC: 0.8691 (Simulation time: 00 hr 14 min 29 sec)
Heartbeat CPU 0 instructions: 112500768 cycles: 82493232 heartbeat IPC: 4.119 cumulative IPC: 0.8746 (Simulation time: 00 hr 14 min 31 sec)
Heartbeat CPU 0 instructions: 113000773 cycles: 82623447 heartbeat IPC: 3.84 cumulative IPC: 0.88 (Simulation time: 00 hr 14 min 32 sec)
Heartbeat CPU 0 instructions: 113500778 cycles: 82749678 heartbeat IPC: 3.961 cumulative IPC: 0.8854 (Simulation time: 00 hr 14 min 34 sec)
Heartbeat CPU 0 instructions: 114000779 cycles: 82876111 heartbeat IPC: 3.955 cumulative IPC: 0.8908 (Simulation time: 00 hr 14 min 36 sec)
Heartbeat CPU 0 instructions: 114500779 cycles: 83002771 heartbeat IPC: 3.948 cumulative IPC: 0.8962 (Simulation time: 00 hr 14 min 38 sec)
Heartbeat CPU 0 instructions: 115000786 cycles: 83223182 heartbeat IPC: 2.269 cumulative IPC: 0.9004 (Simulation time: 00 hr 14 min 41 sec)
Heartbeat CPU 0 instructions: 115500792 cycles: 83983614 heartbeat IPC: 0.6575 cumulative IPC: 0.8979 (Simulation time: 00 hr 14 min 47 sec)
Heartbeat CPU 0 instructions: 116000793 cycles: 84139834 heartbeat IPC: 3.201 cumulative IPC: 0.9028 (Simulation time: 00 hr 14 min 49 sec)
Heartbeat CPU 0 instructions: 116500800 cycles: 84916589 heartbeat IPC: 0.6437 cumulative IPC: 0.9001 (Simulation time: 00 hr 14 min 56 sec)
Heartbeat CPU 0 instructions: 117000801 cycles: 86463875 heartbeat IPC: 0.3231 cumulative IPC: 0.8882 (Simulation time: 00 hr 15 min 08 sec)
Heartbeat CPU 0 instructions: 117500805 cycles: 87771314 heartbeat IPC: 0.3824 cumulative IPC: 0.8796 (Simulation time: 00 hr 15 min 18 sec)
Heartbeat CPU 0 instructions: 118000806 cycles: 87925979 heartbeat IPC: 3.233 cumulative IPC: 0.8844 (Simulation time: 00 hr 15 min 20 sec)
Heartbeat CPU 0 instructions: 118500812 cycles: 88074808 heartbeat IPC: 3.36 cumulative IPC: 0.8891 (Simulation time: 00 hr 15 min 22 sec)
Heartbeat CPU 0 instructions: 119000817 cycles: 88214830 heartbeat IPC: 3.571 cumulative IPC: 0.894 (Simulation time: 00 hr 15 min 25 sec)
Heartbeat CPU 0 instructions: 119500821 cycles: 88362378 heartbeat IPC: 3.389 cumulative IPC: 0.8988 (Simulation time: 00 hr 15 min 27 sec)
Heartbeat CPU 0 instructions: 120000826 cycles: 88505427 heartbeat IPC: 3.495 cumulative IPC: 0.9036 (Simulation time: 00 hr 15 min 29 sec)
Heartbeat CPU 0 instructions: 120500831 cycles: 88658514 heartbeat IPC: 3.266 cumulative IPC: 0.9082 (Simulation time: 00 hr 15 min 31 sec)
Heartbeat CPU 0 instructions: 121000835 cycles: 88803787 heartbeat IPC: 3.442 cumulative IPC: 0.913 (Simulation time: 00 hr 15 min 33 sec)
Heartbeat CPU 0 instructions: 121500840 cycles: 88960090 heartbeat IPC: 3.199 cumulative IPC: 0.9175 (Simulation time: 00 hr 15 min 36 sec)
Heartbeat CPU 0 instructions: 122000844 cycles: 89119501 heartbeat IPC: 3.137 cumulative IPC: 0.9221 (Simulation time: 00 hr 15 min 38 sec)
Heartbeat CPU 0 instructions: 122500845 cycles: 89284579 heartbeat IPC: 3.029 cumulative IPC: 0.9265 (Simulation time: 00 hr 15 min 40 sec)
Heartbeat CPU 0 instructions: 123000849 cycles: 89411920 heartbeat IPC: 3.926 cumulative IPC: 0.9314 (Simulation time: 00 hr 15 min 42 sec)
Heartbeat CPU 0 instructions: 123500853 cycles: 89528976 heartbeat IPC: 4.271 cumulative IPC: 0.9364 (Simulation time: 00 hr 15 min 44 sec)
Heartbeat CPU 0 instructions: 124000853 cycles: 89641517 heartbeat IPC: 4.443 cumulative IPC: 0.9414 (Simulation time: 00 hr 15 min 46 sec)
Heartbeat CPU 0 instructions: 124500853 cycles: 89754308 heartbeat IPC: 4.433 cumulative IPC: 0.9464 (Simulation time: 00 hr 15 min 48 sec)
Heartbeat CPU 0 instructions: 125000855 cycles: 89869372 heartbeat IPC: 4.345 cumulative IPC: 0.9514 (Simulation time: 00 hr 15 min 49 sec)
Heartbeat CPU 0 instructions: 125500858 cycles: 89982154 heartbeat IPC: 4.433 cumulative IPC: 0.9563 (Simulation time: 00 hr 15 min 51 sec)
Heartbeat CPU 0 instructions: 126000858 cycles: 90100640 heartbeat IPC: 4.22 cumulative IPC: 0.9612 (Simulation time: 00 hr 15 min 53 sec)
Heartbeat CPU 0 instructions: 126500864 cycles: 90215029 heartbeat IPC: 4.371 cumulative IPC: 0.9661 (Simulation time: 00 hr 15 min 55 sec)
Heartbeat CPU 0 instructions: 127000871 cycles: 90328214 heartbeat IPC: 4.418 cumulative IPC: 0.9711 (Simulation time: 00 hr 15 min 56 sec)
Heartbeat CPU 0 instructions: 127500878 cycles: 90444646 heartbeat IPC: 4.294 cumulative IPC: 0.9759 (Simulation time: 00 hr 15 min 58 sec)
Heartbeat CPU 0 instructions: 128000884 cycles: 90574047 heartbeat IPC: 3.864 cumulative IPC: 0.9806 (Simulation time: 00 hr 16 min 00 sec)
Heartbeat CPU 0 instructions: 128500891 cycles: 90700281 heartbeat IPC: 3.961 cumulative IPC: 0.9854 (Simulation time: 00 hr 16 min 02 sec)
Heartbeat CPU 0 instructions: 129000894 cycles: 90823017 heartbeat IPC: 4.074 cumulative IPC: 0.9901 (Simulation time: 00 hr 16 min 04 sec)
Heartbeat CPU 0 instructions: 129500897 cycles: 90946210 heartbeat IPC: 4.059 cumulative IPC: 0.9948 (Simulation time: 00 hr 16 min 06 sec)
Heartbeat CPU 0 instructions: 130000900 cycles: 91073813 heartbeat IPC: 3.918 cumulative IPC: 0.9995 (Simulation time: 00 hr 16 min 08 sec)
Heartbeat CPU 0 instructions: 130500907 cycles: 91198715 heartbeat IPC: 4.003 cumulative IPC: 1.004 (Simulation time: 00 hr 16 min 10 sec)
Heartbeat CPU 0 instructions: 131000912 cycles: 91319172 heartbeat IPC: 4.151 cumulative IPC: 1.009 (Simulation time: 00 hr 16 min 11 sec)
Heartbeat CPU 0 instructions: 131500914 cycles: 91439926 heartbeat IPC: 4.141 cumulative IPC: 1.014 (Simulation time: 00 hr 16 min 13 sec)
Heartbeat CPU 0 instructions: 132000914 cycles: 91564431 heartbeat IPC: 4.016 cumulative IPC: 1.018 (Simulation time: 00 hr 16 min 15 sec)
Heartbeat CPU 0 instructions: 132500921 cycles: 91800837 heartbeat IPC: 2.115 cumulative IPC: 1.021 (Simulation time: 00 hr 16 min 18 sec)
Heartbeat CPU 0 instructions: 133000927 cycles: 92178701 heartbeat IPC: 1.323 cumulative IPC: 1.023 (Simulation time: 00 hr 16 min 22 sec)
Heartbeat CPU 0 instructions: 133500928 cycles: 92841526 heartbeat IPC: 0.7543 cumulative IPC: 1.021 (Simulation time: 00 hr 16 min 28 sec)
Heartbeat CPU 0 instructions: 134000930 cycles: 93652994 heartbeat IPC: 0.6162 cumulative IPC: 1.017 (Simulation time: 00 hr 16 min 34 sec)
Heartbeat CPU 0 instructions: 134500930 cycles: 94093543 heartbeat IPC: 1.135 cumulative IPC: 1.017 (Simulation time: 00 hr 16 min 39 sec)
Heartbeat CPU 0 instructions: 135000931 cycles: 94241874 heartbeat IPC: 3.371 cumulative IPC: 1.022 (Simulation time: 00 hr 16 min 41 sec)
Heartbeat CPU 0 instructions: 135500937 cycles: 94394550 heartbeat IPC: 3.275 cumulative IPC: 1.026 (Simulation time: 00 hr 16 min 43 sec)
Heartbeat CPU 0 instructions: 136000938 cycles: 94533581 heartbeat IPC: 3.596 cumulative IPC: 1.03 (Simulation time: 00 hr 16 min 45 sec)
Heartbeat CPU 0 instructions: 136500939 cycles: 94683892 heartbeat IPC: 3.326 cumulative IPC: 1.034 (Simulation time: 00 hr 16 min 47 sec)
Heartbeat CPU 0 instructions: 137000941 cycles: 94824267 heartbeat IPC: 3.562 cumulative IPC: 1.038 (Simulation time: 00 hr 16 min 49 sec)
Heartbeat CPU 0 instructions: 137500944 cycles: 94967217 heartbeat IPC: 3.498 cumulative IPC: 1.042 (Simulation time: 00 hr 16 min 52 sec)
Heartbeat CPU 0 instructions: 138000944 cycles: 95110773 heartbeat IPC: 3.483 cumulative IPC: 1.047 (Simulation time: 00 hr 16 min 54 sec)
Heartbeat CPU 0 instructions: 138500951 cycles: 95255397 heartbeat IPC: 3.457 cumulative IPC: 1.051 (Simulation time: 00 hr 16 min 56 sec)
Heartbeat CPU 0 instructions: 139000952 cycles: 95403881 heartbeat IPC: 3.367 cumulative IPC: 1.055 (Simulation time: 00 hr 16 min 58 sec)
Heartbeat CPU 0 instructions: 139500953 cycles: 95548028 heartbeat IPC: 3.469 cumulative IPC: 1.059 (Simulation time: 00 hr 17 min 00 sec)
Heartbeat CPU 0 instructions: 140000955 cycles: 95666106 heartbeat IPC: 4.235 cumulative IPC: 1.063 (Simulation time: 00 hr 17 min 02 sec)
Heartbeat CPU 0 instructions: 140500956 cycles: 95779589 heartbeat IPC: 4.406 cumulative IPC: 1.068 (Simulation time: 00 hr 17 min 04 sec)
Heartbeat CPU 0 instructions: 141000958 cycles: 95895488 heartbeat IPC: 4.314 cumulative IPC: 1.072 (Simulation time: 00 hr 17 min 06 sec)
Heartbeat CPU 0 instructions: 141500959 cycles: 96011124 heartbeat IPC: 4.324 cumulative IPC: 1.077 (Simulation time: 00 hr 17 min 07 sec)
Heartbeat CPU 0 instructions: 142000959 cycles: 96126871 heartbeat IPC: 4.32 cumulative IPC: 1.081 (Simulation time: 00 hr 17 min 09 sec)
Heartbeat CPU 0 instructions: 142500963 cycles: 96239696 heartbeat IPC: 4.432 cumulative IPC: 1.086 (Simulation time: 00 hr 17 min 11 sec)
Heartbeat CPU 0 instructions: 143000967 cycles: 96353566 heartbeat IPC: 4.391 cumulative IPC: 1.09 (Simulation time: 00 hr 17 min 13 sec)
Heartbeat CPU 0 instructions: 143500973 cycles: 96469682 heartbeat IPC: 4.306 cumulative IPC: 1.094 (Simulation time: 00 hr 17 min 14 sec)
Heartbeat CPU 0 instructions: 144000973 cycles: 96583492 heartbeat IPC: 4.393 cumulative IPC: 1.099 (Simulation time: 00 hr 17 min 16 sec)
Heartbeat CPU 0 instructions: 144500974 cycles: 96700119 heartbeat IPC: 4.287 cumulative IPC: 1.103 (Simulation time: 00 hr 17 min 18 sec)
Heartbeat CPU 0 instructions: 145000976 cycles: 96827386 heartbeat IPC: 3.929 cumulative IPC: 1.107 (Simulation time: 00 hr 17 min 20 sec)
Heartbeat CPU 0 instructions: 145500980 cycles: 96953284 heartbeat IPC: 3.972 cumulative IPC: 1.112 (Simulation time: 00 hr 17 min 22 sec)
Heartbeat CPU 0 instructions: 146000981 cycles: 97078111 heartbeat IPC: 4.006 cumulative IPC: 1.116 (Simulation time: 00 hr 17 min 24 sec)
Heartbeat CPU 0 instructions: 146500988 cycles: 97206744 heartbeat IPC: 3.887 cumulative IPC: 1.12 (Simulation time: 00 hr 17 min 25 sec)
Heartbeat CPU 0 instructions: 147000988 cycles: 97328694 heartbeat IPC: 4.1 cumulative IPC: 1.124 (Simulation time: 00 hr 17 min 27 sec)
Heartbeat CPU 0 instructions: 147500989 cycles: 97453977 heartbeat IPC: 3.991 cumulative IPC: 1.128 (Simulation time: 00 hr 17 min 29 sec)
Heartbeat CPU 0 instructions: 148000996 cycles: 97576366 heartbeat IPC: 4.085 cumulative IPC: 1.132 (Simulation time: 00 hr 17 min 31 sec)
Heartbeat CPU 0 instructions: 148500999 cycles: 97697850 heartbeat IPC: 4.116 cumulative IPC: 1.137 (Simulation time: 00 hr 17 min 33 sec)
Heartbeat CPU 0 instructions: 149001001 cycles: 97938642 heartbeat IPC: 2.076 cumulative IPC: 1.139 (Simulation time: 00 hr 17 min 36 sec)
Heartbeat CPU 0 instructions: 149501002 cycles: 98088281 heartbeat IPC: 3.341 cumulative IPC: 1.143 (Simulation time: 00 hr 17 min 38 sec)
Heartbeat CPU 0 instructions: 150001005 cycles: 98598451 heartbeat IPC: 0.9801 cumulative IPC: 1.142 (Simulation time: 00 hr 17 min 42 sec)
Heartbeat CPU 0 instructions: 150501012 cycles: 99323828 heartbeat IPC: 0.6893 cumulative IPC: 1.138 (Simulation time: 00 hr 17 min 49 sec)
Heartbeat CPU 0 instructions: 151001015 cycles: 100236290 heartbeat IPC: 0.548 cumulative IPC: 1.132 (Simulation time: 00 hr 17 min 56 sec)
Heartbeat CPU 0 instructions: 151501015 cycles: 100408982 heartbeat IPC: 2.895 cumulative IPC: 1.136 (Simulation time: 00 hr 17 min 59 sec)
Heartbeat CPU 0 instructions: 152001022 cycles: 100555538 heartbeat IPC: 3.412 cumulative IPC: 1.139 (Simulation time: 00 hr 18 min 01 sec)
Heartbeat CPU 0 instructions: 152501025 cycles: 100699971 heartbeat IPC: 3.462 cumulative IPC: 1.143 (Simulation time: 00 hr 18 min 03 sec)
Heartbeat CPU 0 instructions: 153001025 cycles: 100838809 heartbeat IPC: 3.601 cumulative IPC: 1.147 (Simulation time: 00 hr 18 min 05 sec)
Heartbeat CPU 0 instructions: 153501032 cycles: 100986847 heartbeat IPC: 3.378 cumulative IPC: 1.151 (Simulation time: 00 hr 18 min 07 sec)
Heartbeat CPU 0 instructions: 154001036 cycles: 101124410 heartbeat IPC: 3.635 cumulative IPC: 1.154 (Simulation time: 00 hr 18 min 09 sec)
Heartbeat CPU 0 instructions: 154501037 cycles: 101262200 heartbeat IPC: 3.629 cumulative IPC: 1.158 (Simulation time: 00 hr 18 min 11 sec)
Heartbeat CPU 0 instructions: 155001038 cycles: 101400481 heartbeat IPC: 3.616 cumulative IPC: 1.162 (Simulation time: 00 hr 18 min 14 sec)
Heartbeat CPU 0 instructions: 155501040 cycles: 101547722 heartbeat IPC: 3.396 cumulative IPC: 1.166 (Simulation time: 00 hr 18 min 16 sec)
Heartbeat CPU 0 instructions: 156001045 cycles: 101693904 heartbeat IPC: 3.42 cumulative IPC: 1.169 (Simulation time: 00 hr 18 min 18 sec)
Heartbeat CPU 0 instructions: 156501049 cycles: 101824076 heartbeat IPC: 3.841 cumulative IPC: 1.173 (Simulation time: 00 hr 18 min 20 sec)
Heartbeat CPU 0 instructions: 157001051 cycles: 101939013 heartbeat IPC: 4.35 cumulative IPC: 1.177 (Simulation time: 00 hr 18 min 22 sec)
Heartbeat CPU 0 instructions: 157501055 cycles: 102052290 heartbeat IPC: 4.414 cumulative IPC: 1.181 (Simulation time: 00 hr 18 min 23 sec)
Heartbeat CPU 0 instructions: 158001059 cycles: 102165168 heartbeat IPC: 4.43 cumulative IPC: 1.185 (Simulation time: 00 hr 18 min 25 sec)
Heartbeat CPU 0 instructions: 158501066 cycles: 102276860 heartbeat IPC: 4.477 cumulative IPC: 1.189 (Simulation time: 00 hr 18 min 27 sec)
Heartbeat CPU 0 instructions: 159001070 cycles: 102389748 heartbeat IPC: 4.429 cumulative IPC: 1.193 (Simulation time: 00 hr 18 min 29 sec)
Heartbeat CPU 0 instructions: 159501070 cycles: 102503553 heartbeat IPC: 4.393 cumulative IPC: 1.197 (Simulation time: 00 hr 18 min 30 sec)
Heartbeat CPU 0 instructions: 160001074 cycles: 102616893 heartbeat IPC: 4.412 cumulative IPC: 1.201 (Simulation time: 00 hr 18 min 32 sec)
Heartbeat CPU 0 instructions: 160501075 cycles: 102729268 heartbeat IPC: 4.449 cumulative IPC: 1.205 (Simulation time: 00 hr 18 min 34 sec)
Heartbeat CPU 0 instructions: 161001077 cycles: 102846295 heartbeat IPC: 4.273 cumulative IPC: 1.209 (Simulation time: 00 hr 18 min 36 sec)
Heartbeat CPU 0 instructions: 161501077 cycles: 102961853 heartbeat IPC: 4.327 cumulative IPC: 1.213 (Simulation time: 00 hr 18 min 38 sec)
Heartbeat CPU 0 instructions: 162001083 cycles: 103093989 heartbeat IPC: 3.784 cumulative IPC: 1.217 (Simulation time: 00 hr 18 min 41 sec)
Heartbeat CPU 0 instructions: 162501088 cycles: 103216683 heartbeat IPC: 4.075 cumulative IPC: 1.22 (Simulation time: 00 hr 18 min 43 sec)
Heartbeat CPU 0 instructions: 163001093 cycles: 103335757 heartbeat IPC: 4.199 cumulative IPC: 1.224 (Simulation time: 00 hr 18 min 45 sec)
Heartbeat CPU 0 instructions: 163501096 cycles: 103458584 heartbeat IPC: 4.071 cumulative IPC: 1.228 (Simulation time: 00 hr 18 min 47 sec)
Heartbeat CPU 0 instructions: 164001098 cycles: 103580607 heartbeat IPC: 4.098 cumulative IPC: 1.232 (Simulation time: 00 hr 18 min 49 sec)
Heartbeat CPU 0 instructions: 164501098 cycles: 103704165 heartbeat IPC: 4.047 cumulative IPC: 1.236 (Simulation time: 00 hr 18 min 51 sec)
Heartbeat CPU 0 instructions: 165001100 cycles: 103827043 heartbeat IPC: 4.069 cumulative IPC: 1.239 (Simulation time: 00 hr 18 min 54 sec)
Heartbeat CPU 0 instructions: 165501100 cycles: 103951152 heartbeat IPC: 4.029 cumulative IPC: 1.243 (Simulation time: 00 hr 18 min 56 sec)
Heartbeat CPU 0 instructions: 166001107 cycles: 104207967 heartbeat IPC: 1.947 cumulative IPC: 1.245 (Simulation time: 00 hr 18 min 59 sec)
Heartbeat CPU 0 instructions: 166501107 cycles: 104461672 heartbeat IPC: 1.971 cumulative IPC: 1.247 (Simulation time: 00 hr 19 min 02 sec)
Heartbeat CPU 0 instructions: 167001113 cycles: 105049826 heartbeat IPC: 0.8501 cumulative IPC: 1.244 (Simulation time: 00 hr 19 min 09 sec)
Heartbeat CPU 0 instructions: 167501114 cycles: 105839121 heartbeat IPC: 0.6335 cumulative IPC: 1.239 (Simulation time: 00 hr 19 min 17 sec)
Heartbeat CPU 0 instructions: 168001116 cycles: 106451732 heartbeat IPC: 0.8162 cumulative IPC: 1.237 (Simulation time: 00 hr 19 min 23 sec)
Heartbeat CPU 0 instructions: 168501123 cycles: 106605673 heartbeat IPC: 3.248 cumulative IPC: 1.24 (Simulation time: 00 hr 19 min 26 sec)
Heartbeat CPU 0 instructions: 169001127 cycles: 106750966 heartbeat IPC: 3.441 cumulative IPC: 1.243 (Simulation time: 00 hr 19 min 29 sec)
Heartbeat CPU 0 instructions: 169501130 cycles: 106892124 heartbeat IPC: 3.542 cumulative IPC: 1.247 (Simulation time: 00 hr 19 min 31 sec)
Heartbeat CPU 0 instructions: 170001136 cycles: 107039621 heartbeat IPC: 3.39 cumulative IPC: 1.25 (Simulation time: 00 hr 19 min 34 sec)
Heartbeat CPU 0 instructions: 170501141 cycles: 107171873 heartbeat IPC: 3.781 cumulative IPC: 1.253 (Simulation time: 00 hr 19 min 36 sec)
Heartbeat CPU 0 instructions: 171001148 cycles: 107305909 heartbeat IPC: 3.73 cumulative IPC: 1.257 (Simulation time: 00 hr 19 min 39 sec)
Heartbeat CPU 0 instructions: 171501148 cycles: 107435712 heartbeat IPC: 3.852 cumulative IPC: 1.26 (Simulation time: 00 hr 19 min 41 sec)
Heartbeat CPU 0 instructions: 172001149 cycles: 107575944 heartbeat IPC: 3.566 cumulative IPC: 1.264 (Simulation time: 00 hr 19 min 44 sec)
Heartbeat CPU 0 instructions: 172501151 cycles: 107709630 heartbeat IPC: 3.74 cumulative IPC: 1.267 (Simulation time: 00 hr 19 min 46 sec)
Heartbeat CPU 0 instructions: 173001153 cycles: 107842786 heartbeat IPC: 3.755 cumulative IPC: 1.271 (Simulation time: 00 hr 19 min 49 sec)
Heartbeat CPU 0 instructions: 173501154 cycles: 107966184 heartbeat IPC: 4.052 cumulative IPC: 1.274 (Simulation time: 00 hr 19 min 51 sec)
Heartbeat CPU 0 instructions: 174001156 cycles: 108081447 heartbeat IPC: 4.338 cumulative IPC: 1.278 (Simulation time: 00 hr 19 min 53 sec)
Heartbeat CPU 0 instructions: 174501156 cycles: 108194131 heartbeat IPC: 4.437 cumulative IPC: 1.281 (Simulation time: 00 hr 19 min 55 sec)
Heartbeat CPU 0 instructions: 175001160 cycles: 108308088 heartbeat IPC: 4.388 cumulative IPC: 1.285 (Simulation time: 00 hr 19 min 57 sec)
Heartbeat CPU 0 instructions: 175501161 cycles: 108419743 heartbeat IPC: 4.478 cumulative IPC: 1.289 (Simulation time: 00 hr 19 min 59 sec)
Heartbeat CPU 0 instructions: 176001161 cycles: 108535767 heartbeat IPC: 4.309 cumulative IPC: 1.292 (Simulation time: 00 hr 20 min 01 sec)
Heartbeat CPU 0 instructions: 176501161 cycles: 108650330 heartbeat IPC: 4.364 cumulative IPC: 1.296 (Simulation time: 00 hr 20 min 03 sec)
Heartbeat CPU 0 instructions: 177001164 cycles: 108764202 heartbeat IPC: 4.391 cumulative IPC: 1.299 (Simulation time: 00 hr 20 min 05 sec)
Heartbeat CPU 0 instructions: 177501168 cycles: 108878044 heartbeat IPC: 4.392 cumulative IPC: 1.303 (Simulation time: 00 hr 20 min 07 sec)
Heartbeat CPU 0 instructions: 178001170 cycles: 108991508 heartbeat IPC: 4.407 cumulative IPC: 1.307 (Simulation time: 00 hr 20 min 10 sec)
Heartbeat CPU 0 instructions: 178501170 cycles: 109114199 heartbeat IPC: 4.075 cumulative IPC: 1.31 (Simulation time: 00 hr 20 min 12 sec)
Heartbeat CPU 0 instructions: 179001175 cycles: 109237755 heartbeat IPC: 4.047 cumulative IPC: 1.314 (Simulation time: 00 hr 20 min 14 sec)
Heartbeat CPU 0 instructions: 179501180 cycles: 109364503 heartbeat IPC: 3.945 cumulative IPC: 1.317 (Simulation time: 00 hr 20 min 16 sec)
Heartbeat CPU 0 instructions: 180001185 cycles: 109485773 heartbeat IPC: 4.123 cumulative IPC: 1.32 (Simulation time: 00 hr 20 min 18 sec)
Heartbeat CPU 0 instructions: 180501187 cycles: 109609653 heartbeat IPC: 4.036 cumulative IPC: 1.324 (Simulation time: 00 hr 20 min 21 sec)
Heartbeat CPU 0 instructions: 181001193 cycles: 109732761 heartbeat IPC: 4.062 cumulative IPC: 1.327 (Simulation time: 00 hr 20 min 23 sec)
Heartbeat CPU 0 instructions: 181501200 cycles: 109857053 heartbeat IPC: 4.023 cumulative IPC: 1.331 (Simulation time: 00 hr 20 min 25 sec)
Heartbeat CPU 0 instructions: 182001201 cycles: 109979484 heartbeat IPC: 4.084 cumulative IPC: 1.334 (Simulation time: 00 hr 20 min 26 sec)
Heartbeat CPU 0 instructions: 182501208 cycles: 110102399 heartbeat IPC: 4.068 cumulative IPC: 1.337 (Simulation time: 00 hr 20 min 28 sec)
Heartbeat CPU 0 instructions: 183001209 cycles: 110366729 heartbeat IPC: 1.892 cumulative IPC: 1.339 (Simulation time: 00 hr 20 min 31 sec)
Heartbeat CPU 0 instructions: 183501215 cycles: 110740680 heartbeat IPC: 1.337 cumulative IPC: 1.339 (Simulation time: 00 hr 20 min 35 sec)
Heartbeat CPU 0 instructions: 184001222 cycles: 111401573 heartbeat IPC: 0.7566 cumulative IPC: 1.335 (Simulation time: 00 hr 20 min 41 sec)
Heartbeat CPU 0 instructions: 184501227 cycles: 112424397 heartbeat IPC: 0.4888 cumulative IPC: 1.327 (Simulation time: 00 hr 20 min 49 sec)
Heartbeat CPU 0 instructions: 185001232 cycles: 113721509 heartbeat IPC: 0.3855 cumulative IPC: 1.315 (Simulation time: 00 hr 21 min 01 sec)
Heartbeat CPU 0 instructions: 185501237 cycles: 114022443 heartbeat IPC: 1.662 cumulative IPC: 1.316 (Simulation time: 00 hr 21 min 04 sec)
Heartbeat CPU 0 instructions: 186001237 cycles: 114327924 heartbeat IPC: 1.637 cumulative IPC: 1.317 (Simulation time: 00 hr 21 min 08 sec)
Heartbeat CPU 0 instructions: 186501242 cycles: 114632559 heartbeat IPC: 1.641 cumulative IPC: 1.318 (Simulation time: 00 hr 21 min 11 sec)
Heartbeat CPU 0 instructions: 187001245 cycles: 114938771 heartbeat IPC: 1.633 cumulative IPC: 1.319 (Simulation time: 00 hr 21 min 15 sec)
Heartbeat CPU 0 instructions: 187501247 cycles: 115244843 heartbeat IPC: 1.634 cumulative IPC: 1.319 (Simulation time: 00 hr 21 min 18 sec)
Heartbeat CPU 0 instructions: 188001247 cycles: 115544798 heartbeat IPC: 1.667 cumulative IPC: 1.32 (Simulation time: 00 hr 21 min 22 sec)
Heartbeat CPU 0 instructions: 188501247 cycles: 115845798 heartbeat IPC: 1.661 cumulative IPC: 1.321 (Simulation time: 00 hr 21 min 25 sec)
Heartbeat CPU 0 instructions: 189001254 cycles: 116146034 heartbeat IPC: 1.665 cumulative IPC: 1.322 (Simulation time: 00 hr 21 min 29 sec)
Heartbeat CPU 0 instructions: 189501257 cycles: 116450791 heartbeat IPC: 1.641 cumulative IPC: 1.323 (Simulation time: 00 hr 21 min 33 sec)
Heartbeat CPU 0 instructions: 190001262 cycles: 116754420 heartbeat IPC: 1.647 cumulative IPC: 1.324 (Simulation time: 00 hr 21 min 36 sec)
Heartbeat CPU 0 instructions: 190501263 cycles: 117058303 heartbeat IPC: 1.645 cumulative IPC: 1.325 (Simulation time: 00 hr 21 min 40 sec)
Heartbeat CPU 0 instructions: 191001265 cycles: 117365578 heartbeat IPC: 1.627 cumulative IPC: 1.326 (Simulation time: 00 hr 21 min 43 sec)
Heartbeat CPU 0 instructions: 191501270 cycles: 117665170 heartbeat IPC: 1.669 cumulative IPC: 1.327 (Simulation time: 00 hr 21 min 47 sec)
Heartbeat CPU 0 instructions: 192001270 cycles: 117965358 heartbeat IPC: 1.666 cumulative IPC: 1.328 (Simulation time: 00 hr 21 min 50 sec)
Heartbeat CPU 0 instructions: 192501271 cycles: 118265647 heartbeat IPC: 1.665 cumulative IPC: 1.329 (Simulation time: 00 hr 21 min 54 sec)
Heartbeat CPU 0 instructions: 193001271 cycles: 118571753 heartbeat IPC: 1.633 cumulative IPC: 1.33 (Simulation time: 00 hr 21 min 57 sec)
Heartbeat CPU 0 instructions: 193501277 cycles: 118875313 heartbeat IPC: 1.647 cumulative IPC: 1.331 (Simulation time: 00 hr 22 min 01 sec)
Heartbeat CPU 0 instructions: 194001281 cycles: 119178752 heartbeat IPC: 1.648 cumulative IPC: 1.332 (Simulation time: 00 hr 22 min 04 sec)
Heartbeat CPU 0 instructions: 194501283 cycles: 119482799 heartbeat IPC: 1.644 cumulative IPC: 1.332 (Simulation time: 00 hr 22 min 08 sec)
Heartbeat CPU 0 instructions: 195001283 cycles: 119783522 heartbeat IPC: 1.663 cumulative IPC: 1.333 (Simulation time: 00 hr 22 min 11 sec)
Heartbeat CPU 0 instructions: 195501287 cycles: 120083224 heartbeat IPC: 1.668 cumulative IPC: 1.334 (Simulation time: 00 hr 22 min 15 sec)
Heartbeat CPU 0 instructions: 196001287 cycles: 120382196 heartbeat IPC: 1.672 cumulative IPC: 1.335 (Simulation time: 00 hr 22 min 18 sec)
Heartbeat CPU 0 instructions: 196501291 cycles: 120686440 heartbeat IPC: 1.643 cumulative IPC: 1.336 (Simulation time: 00 hr 22 min 22 sec)
Heartbeat CPU 0 instructions: 197001292 cycles: 120992640 heartbeat IPC: 1.633 cumulative IPC: 1.337 (Simulation time: 00 hr 22 min 25 sec)
Heartbeat CPU 0 instructions: 197501292 cycles: 121297109 heartbeat IPC: 1.642 cumulative IPC: 1.338 (Simulation time: 00 hr 22 min 29 sec)
Heartbeat CPU 0 instructions: 198001297 cycles: 121600434 heartbeat IPC: 1.648 cumulative IPC: 1.339 (Simulation time: 00 hr 22 min 32 sec)
Heartbeat CPU 0 instructions: 198501297 cycles: 121901107 heartbeat IPC: 1.663 cumulative IPC: 1.339 (Simulation time: 00 hr 22 min 36 sec)
Heartbeat CPU 0 instructions: 199001302 cycles: 122203639 heartbeat IPC: 1.653 cumulative IPC: 1.34 (Simulation time: 00 hr 22 min 39 sec)
Heartbeat CPU 0 instructions: 199501302 cycles: 122502582 heartbeat IPC: 1.673 cumulative IPC: 1.341 (Simulation time: 00 hr 22 min 43 sec)
Heartbeat CPU 0 instructions: 200001302 cycles: 122806435 heartbeat IPC: 1.646 cumulative IPC: 1.342 (Simulation time: 00 hr 22 min 46 sec)
Heartbeat CPU 0 instructions: 200501303 cycles: 123112417 heartbeat IPC: 1.634 cumulative IPC: 1.343 (Simulation time: 00 hr 22 min 50 sec)
Heartbeat CPU 0 instructions: 201001303 cycles: 123418593 heartbeat IPC: 1.633 cumulative IPC: 1.344 (Simulation time: 00 hr 22 min 53 sec)
Heartbeat CPU 0 instructions: 201501304 cycles: 123724132 heartbeat IPC: 1.636 cumulative IPC: 1.344 (Simulation time: 00 hr 22 min 57 sec)
Heartbeat CPU 0 instructions: 202001305 cycles: 124027234 heartbeat IPC: 1.65 cumulative IPC: 1.345 (Simulation time: 00 hr 23 min 00 sec)
Heartbeat CPU 0 instructions: 202501308 cycles: 124326773 heartbeat IPC: 1.669 cumulative IPC: 1.346 (Simulation time: 00 hr 23 min 04 sec)
Heartbeat CPU 0 instructions: 203001314 cycles: 124628146 heartbeat IPC: 1.659 cumulative IPC: 1.347 (Simulation time: 00 hr 23 min 07 sec)
Heartbeat CPU 0 instructions: 203501314 cycles: 124933397 heartbeat IPC: 1.638 cumulative IPC: 1.348 (Simulation time: 00 hr 23 min 11 sec)
Heartbeat CPU 0 instructions: 204001314 cycles: 125237271 heartbeat IPC: 1.645 cumulative IPC: 1.348 (Simulation time: 00 hr 23 min 14 sec)
Heartbeat CPU 0 instructions: 204501314 cycles: 125541417 heartbeat IPC: 1.644 cumulative IPC: 1.349 (Simulation time: 00 hr 23 min 18 sec)
Heartbeat CPU 0 instructions: 205001314 cycles: 125847399 heartbeat IPC: 1.634 cumulative IPC: 1.35 (Simulation time: 00 hr 23 min 21 sec)
Heartbeat CPU 0 instructions: 205501314 cycles: 126148516 heartbeat IPC: 1.66 cumulative IPC: 1.351 (Simulation time: 00 hr 23 min 25 sec)
Heartbeat CPU 0 instructions: 206001316 cycles: 126448586 heartbeat IPC: 1.666 cumulative IPC: 1.352 (Simulation time: 00 hr 23 min 28 sec)
Heartbeat CPU 0 instructions: 206501316 cycles: 126748972 heartbeat IPC: 1.665 cumulative IPC: 1.352 (Simulation time: 00 hr 23 min 32 sec)
Heartbeat CPU 0 instructions: 207001320 cycles: 127055006 heartbeat IPC: 1.634 cumulative IPC: 1.353 (Simulation time: 00 hr 23 min 35 sec)
Heartbeat CPU 0 instructions: 207501320 cycles: 127362509 heartbeat IPC: 1.626 cumulative IPC: 1.354 (Simulation time: 00 hr 23 min 39 sec)
Heartbeat CPU 0 instructions: 208001322 cycles: 127666831 heartbeat IPC: 1.643 cumulative IPC: 1.355 (Simulation time: 00 hr 23 min 42 sec)
Heartbeat CPU 0 instructions: 208501326 cycles: 127972841 heartbeat IPC: 1.634 cumulative IPC: 1.355 (Simulation time: 00 hr 23 min 46 sec)
Heartbeat CPU 0 instructions: 209001326 cycles: 128274255 heartbeat IPC: 1.659 cumulative IPC: 1.356 (Simulation time: 00 hr 23 min 49 sec)
Heartbeat CPU 0 instructions: 209501326 cycles: 128573418 heartbeat IPC: 1.671 cumulative IPC: 1.357 (Simulation time: 00 hr 23 min 53 sec)
Heartbeat CPU 0 instructions: 210001330 cycles: 128872147 heartbeat IPC: 1.674 cumulative IPC: 1.358 (Simulation time: 00 hr 23 min 56 sec)
Heartbeat CPU 0 instructions: 210501334 cycles: 129177187 heartbeat IPC: 1.639 cumulative IPC: 1.359 (Simulation time: 00 hr 24 min 00 sec)
Heartbeat CPU 0 instructions: 211001337 cycles: 129483952 heartbeat IPC: 1.63 cumulative IPC: 1.359 (Simulation time: 00 hr 24 min 03 sec)
Heartbeat CPU 0 instructions: 211501340 cycles: 129788979 heartbeat IPC: 1.639 cumulative IPC: 1.36 (Simulation time: 00 hr 24 min 07 sec)
Heartbeat CPU 0 instructions: 212001341 cycles: 130094000 heartbeat IPC: 1.639 cumulative IPC: 1.361 (Simulation time: 00 hr 24 min 10 sec)
Heartbeat CPU 0 instructions: 212501342 cycles: 130395013 heartbeat IPC: 1.661 cumulative IPC: 1.361 (Simulation time: 00 hr 24 min 14 sec)
Heartbeat CPU 0 instructions: 213001342 cycles: 130694864 heartbeat IPC: 1.667 cumulative IPC: 1.362 (Simulation time: 00 hr 24 min 17 sec)
Heartbeat CPU 0 instructions: 213501342 cycles: 130995224 heartbeat IPC: 1.665 cumulative IPC: 1.363 (Simulation time: 00 hr 24 min 21 sec)
Heartbeat CPU 0 instructions: 214001344 cycles: 131298151 heartbeat IPC: 1.651 cumulative IPC: 1.364 (Simulation time: 00 hr 24 min 24 sec)
Heartbeat CPU 0 instructions: 214501344 cycles: 131603917 heartbeat IPC: 1.635 cumulative IPC: 1.364 (Simulation time: 00 hr 24 min 28 sec)
Heartbeat CPU 0 instructions: 215001345 cycles: 131910686 heartbeat IPC: 1.63 cumulative IPC: 1.365 (Simulation time: 00 hr 24 min 31 sec)
Heartbeat CPU 0 instructions: 215501345 cycles: 132214964 heartbeat IPC: 1.643 cumulative IPC: 1.366 (Simulation time: 00 hr 24 min 35 sec)
Heartbeat CPU 0 instructions: 216001349 cycles: 132515572 heartbeat IPC: 1.663 cumulative IPC: 1.366 (Simulation time: 00 hr 24 min 38 sec)
Heartbeat CPU 0 instructions: 216501349 cycles: 132818665 heartbeat IPC: 1.65 cumulative IPC: 1.367 (Simulation time: 00 hr 24 min 42 sec)
Heartbeat CPU 0 instructions: 217001354 cycles: 133118924 heartbeat IPC: 1.665 cumulative IPC: 1.368 (Simulation time: 00 hr 24 min 45 sec)
Heartbeat CPU 0 instructions: 217501354 cycles: 133425243 heartbeat IPC: 1.632 cumulative IPC: 1.369 (Simulation time: 00 hr 24 min 49 sec)
Heartbeat CPU 0 instructions: 218001354 cycles: 133731015 heartbeat IPC: 1.635 cumulative IPC: 1.369 (Simulation time: 00 hr 24 min 52 sec)
Heartbeat CPU 0 instructions: 218501357 cycles: 134037840 heartbeat IPC: 1.63 cumulative IPC: 1.37 (Simulation time: 00 hr 24 min 56 sec)
Heartbeat CPU 0 instructions: 219001361 cycles: 134347146 heartbeat IPC: 1.617 cumulative IPC: 1.37 (Simulation time: 00 hr 24 min 59 sec)
Heartbeat CPU 0 instructions: 219501361 cycles: 134646761 heartbeat IPC: 1.669 cumulative IPC: 1.371 (Simulation time: 00 hr 25 min 03 sec)
Heartbeat CPU 0 instructions: 220001366 cycles: 135566022 heartbeat IPC: 0.5439 cumulative IPC: 1.365 (Simulation time: 00 hr 25 min 11 sec)
Heartbeat CPU 0 instructions: 220501366 cycles: 138090536 heartbeat IPC: 0.1981 cumulative IPC: 1.342 (Simulation time: 00 hr 25 min 32 sec)
Heartbeat CPU 0 instructions: 221001367 cycles: 139603109 heartbeat IPC: 0.3306 cumulative IPC: 1.33 (Simulation time: 00 hr 25 min 44 sec)
Heartbeat CPU 0 instructions: 221501369 cycles: 140972799 heartbeat IPC: 0.365 cumulative IPC: 1.32 (Simulation time: 00 hr 25 min 55 sec)
Heartbeat CPU 0 instructions: 222001371 cycles: 142525440 heartbeat IPC: 0.322 cumulative IPC: 1.308 (Simulation time: 00 hr 26 min 07 sec)
Heartbeat CPU 0 instructions: 222501376 cycles: 142879449 heartbeat IPC: 1.412 cumulative IPC: 1.308 (Simulation time: 00 hr 26 min 11 sec)
Heartbeat CPU 0 instructions: 223001379 cycles: 143171766 heartbeat IPC: 1.71 cumulative IPC: 1.309 (Simulation time: 00 hr 26 min 14 sec)
Heartbeat CPU 0 instructions: 223501382 cycles: 143476226 heartbeat IPC: 1.642 cumulative IPC: 1.31 (Simulation time: 00 hr 26 min 17 sec)
Heartbeat CPU 0 instructions: 224001385 cycles: 143781621 heartbeat IPC: 1.637 cumulative IPC: 1.311 (Simulation time: 00 hr 26 min 20 sec)
Heartbeat CPU 0 instructions: 224501388 cycles: 144118741 heartbeat IPC: 1.483 cumulative IPC: 1.311 (Simulation time: 00 hr 26 min 24 sec)
Heartbeat CPU 0 instructions: 225001388 cycles: 144440648 heartbeat IPC: 1.553 cumulative IPC: 1.312 (Simulation time: 00 hr 26 min 27 sec)
Heartbeat CPU 0 instructions: 225501391 cycles: 144960283 heartbeat IPC: 0.9622 cumulative IPC: 1.31 (Simulation time: 00 hr 26 min 32 sec)
Heartbeat CPU 0 instructions: 226001393 cycles: 145494100 heartbeat IPC: 0.9367 cumulative IPC: 1.309 (Simulation time: 00 hr 26 min 37 sec)
Heartbeat CPU 0 instructions: 226501398 cycles: 146006652 heartbeat IPC: 0.9755 cumulative IPC: 1.308 (Simulation time: 00 hr 26 min 42 sec)
Heartbeat CPU 0 instructions: 227001399 cycles: 146512255 heartbeat IPC: 0.9889 cumulative IPC: 1.306 (Simulation time: 00 hr 26 min 47 sec)
Heartbeat CPU 0 instructions: 227501401 cycles: 146962763 heartbeat IPC: 1.11 cumulative IPC: 1.306 (Simulation time: 00 hr 26 min 51 sec)
Heartbeat CPU 0 instructions: 228001404 cycles: 147426297 heartbeat IPC: 1.079 cumulative IPC: 1.305 (Simulation time: 00 hr 26 min 56 sec)
Heartbeat CPU 0 instructions: 228501408 cycles: 147934777 heartbeat IPC: 0.9833 cumulative IPC: 1.304 (Simulation time: 00 hr 27 min 00 sec)
Heartbeat CPU 0 instructions: 229001414 cycles: 148493202 heartbeat IPC: 0.8954 cumulative IPC: 1.302 (Simulation time: 00 hr 27 min 05 sec)
Heartbeat CPU 0 instructions: 229501418 cycles: 149068449 heartbeat IPC: 0.8692 cumulative IPC: 1.3 (Simulation time: 00 hr 27 min 10 sec)
Heartbeat CPU 0 instructions: 230001418 cycles: 149654379 heartbeat IPC: 0.8533 cumulative IPC: 1.299 (Simulation time: 00 hr 27 min 15 sec)
Heartbeat CPU 0 instructions: 230501424 cycles: 150237017 heartbeat IPC: 0.8582 cumulative IPC: 1.297 (Simulation time: 00 hr 27 min 20 sec)
Heartbeat CPU 0 instructions: 231001425 cycles: 150797838 heartbeat IPC: 0.8916 cumulative IPC: 1.295 (Simulation time: 00 hr 27 min 25 sec)
Heartbeat CPU 0 instructions: 231501430 cycles: 151362431 heartbeat IPC: 0.8856 cumulative IPC: 1.293 (Simulation time: 00 hr 27 min 30 sec)
Heartbeat CPU 0 instructions: 232001433 cycles: 151923558 heartbeat IPC: 0.8911 cumulative IPC: 1.292 (Simulation time: 00 hr 27 min 34 sec)
Heartbeat CPU 0 instructions: 232501437 cycles: 152771351 heartbeat IPC: 0.5898 cumulative IPC: 1.288 (Simulation time: 00 hr 27 min 41 sec)
Heartbeat CPU 0 instructions: 233001438 cycles: 153835554 heartbeat IPC: 0.4698 cumulative IPC: 1.282 (Simulation time: 00 hr 27 min 50 sec)
Heartbeat CPU 0 instructions: 233501444 cycles: 156035297 heartbeat IPC: 0.2273 cumulative IPC: 1.266 (Simulation time: 00 hr 28 min 07 sec)
Heartbeat CPU 0 instructions: 234001444 cycles: 158121145 heartbeat IPC: 0.2397 cumulative IPC: 1.251 (Simulation time: 00 hr 28 min 24 sec)
Heartbeat CPU 0 instructions: 234501446 cycles: 160072806 heartbeat IPC: 0.2562 cumulative IPC: 1.238 (Simulation time: 00 hr 28 min 40 sec)
Heartbeat CPU 0 instructions: 235001448 cycles: 162343442 heartbeat IPC: 0.2202 cumulative IPC: 1.223 (Simulation time: 00 hr 28 min 56 sec)
Heartbeat CPU 0 instructions: 235501448 cycles: 166903248 heartbeat IPC: 0.1097 cumulative IPC: 1.19 (Simulation time: 00 hr 29 min 25 sec)
Heartbeat CPU 0 instructions: 236001450 cycles: 169476554 heartbeat IPC: 0.1943 cumulative IPC: 1.174 (Simulation time: 00 hr 29 min 44 sec)
Heartbeat CPU 0 instructions: 236501455 cycles: 169745456 heartbeat IPC: 1.859 cumulative IPC: 1.175 (Simulation time: 00 hr 29 min 47 sec)
Heartbeat CPU 0 instructions: 237001457 cycles: 170020159 heartbeat IPC: 1.82 cumulative IPC: 1.176 (Simulation time: 00 hr 29 min 51 sec)
Heartbeat CPU 0 instructions: 237501458 cycles: 170280802 heartbeat IPC: 1.918 cumulative IPC: 1.177 (Simulation time: 00 hr 29 min 54 sec)
Heartbeat CPU 0 instructions: 238001460 cycles: 170549018 heartbeat IPC: 1.864 cumulative IPC: 1.179 (Simulation time: 00 hr 29 min 58 sec)
Heartbeat CPU 0 instructions: 238501464 cycles: 170820876 heartbeat IPC: 1.839 cumulative IPC: 1.18 (Simulation time: 00 hr 30 min 02 sec)
Heartbeat CPU 0 instructions: 239001466 cycles: 171099160 heartbeat IPC: 1.797 cumulative IPC: 1.181 (Simulation time: 00 hr 30 min 06 sec)
Heartbeat CPU 0 instructions: 239501468 cycles: 171373869 heartbeat IPC: 1.82 cumulative IPC: 1.182 (Simulation time: 00 hr 30 min 09 sec)
Heartbeat CPU 0 instructions: 240001468 cycles: 171638200 heartbeat IPC: 1.892 cumulative IPC: 1.183 (Simulation time: 00 hr 30 min 13 sec)
Heartbeat CPU 0 instructions: 240501473 cycles: 171907570 heartbeat IPC: 1.856 cumulative IPC: 1.184 (Simulation time: 00 hr 30 min 17 sec)
Heartbeat CPU 0 instructions: 241001475 cycles: 172171119 heartbeat IPC: 1.897 cumulative IPC: 1.185 (Simulation time: 00 hr 30 min 20 sec)
Heartbeat CPU 0 instructions: 241501476 cycles: 172473149 heartbeat IPC: 1.655 cumulative IPC: 1.186 (Simulation time: 00 hr 30 min 24 sec)
Heartbeat CPU 0 instructions: 242001477 cycles: 172616017 heartbeat IPC: 3.5 cumulative IPC: 1.188 (Simulation time: 00 hr 30 min 26 sec)
Heartbeat CPU 0 instructions: 242501478 cycles: 172739619 heartbeat IPC: 4.045 cumulative IPC: 1.19 (Simulation time: 00 hr 30 min 29 sec)
Heartbeat CPU 0 instructions: 243001478 cycles: 172863627 heartbeat IPC: 4.032 cumulative IPC: 1.193 (Simulation time: 00 hr 30 min 31 sec)
Heartbeat CPU 0 instructions: 243501482 cycles: 172985155 heartbeat IPC: 4.114 cumulative IPC: 1.195 (Simulation time: 00 hr 30 min 33 sec)
Heartbeat CPU 0 instructions: 244001488 cycles: 173102901 heartbeat IPC: 4.246 cumulative IPC: 1.197 (Simulation time: 00 hr 30 min 35 sec)
Heartbeat CPU 0 instructions: 244501488 cycles: 173236095 heartbeat IPC: 3.754 cumulative IPC: 1.199 (Simulation time: 00 hr 30 min 37 sec)
Heartbeat CPU 0 instructions: 245001491 cycles: 173360659 heartbeat IPC: 4.014 cumulative IPC: 1.201 (Simulation time: 00 hr 30 min 40 sec)
Heartbeat CPU 0 instructions: 245501492 cycles: 173485044 heartbeat IPC: 4.02 cumulative IPC: 1.203 (Simulation time: 00 hr 30 min 42 sec)
Heartbeat CPU 0 instructions: 246001493 cycles: 173606192 heartbeat IPC: 4.127 cumulative IPC: 1.206 (Simulation time: 00 hr 30 min 44 sec)
Heartbeat CPU 0 instructions: 246501497 cycles: 173725990 heartbeat IPC: 4.174 cumulative IPC: 1.208 (Simulation time: 00 hr 30 min 46 sec)
Heartbeat CPU 0 instructions: 247001499 cycles: 173845974 heartbeat IPC: 4.167 cumulative IPC: 1.21 (Simulation time: 00 hr 30 min 48 sec)
Heartbeat CPU 0 instructions: 247501505 cycles: 174020874 heartbeat IPC: 2.859 cumulative IPC: 1.212 (Simulation time: 00 hr 30 min 51 sec)
Heartbeat CPU 0 instructions: 248001511 cycles: 174154439 heartbeat IPC: 3.744 cumulative IPC: 1.214 (Simulation time: 00 hr 30 min 53 sec)
Heartbeat CPU 0 instructions: 248501513 cycles: 174286001 heartbeat IPC: 3.801 cumulative IPC: 1.216 (Simulation time: 00 hr 30 min 56 sec)
Heartbeat CPU 0 instructions: 249001519 cycles: 174417912 heartbeat IPC: 3.79 cumulative IPC: 1.218 (Simulation time: 00 hr 30 min 58 sec)
Heartbeat CPU 0 instructions: 249501522 cycles: 174549070 heartbeat IPC: 3.812 cumulative IPC: 1.22 (Simulation time: 00 hr 31 min 00 sec)
Simulation finished CPU 0 instructions: 200000001 cycles: 163648830 cumulative IPC: 1.222 (Simulation time: 00 hr 31 min 02 sec)
Simulation complete CPU 0 instructions: 200000001 cycles: 163648830 cumulative IPC: 1.222 (Simulation time: 00 hr 31 min 02 sec)

ChampSim completed all CPUs

=== Simulation ===
CPU 0 runs /local-ssd/ben/dpc4-traces/SPEC17/621.wrf_s-6673B.champsimtrace.xz

Region of Interest Statistics

CPU 0 cumulative IPC: 1.222 instructions: 200000001 cycles: 163648830
CPU 0 Branch Prediction Accuracy: 97.9% MPKI: 1.262 Average ROB Occupancy at Mispredict: 252.5
Branch type MPKI
BRANCH_DIRECT_JUMP: 0.000425
BRANCH_INDIRECT: 2e-05
BRANCH_CONDITIONAL: 1.257
BRANCH_DIRECT_CALL: 0.00229
BRANCH_INDIRECT_CALL: 0
BRANCH_RETURN: 0.001585

cpu0->cpu0_STLB TOTAL        ACCESS:     186309 HIT:     158605 MISS:      27704 MSHR_MERGE:          0
cpu0->cpu0_STLB LOAD         ACCESS:     186309 HIT:     158605 MISS:      27704 MSHR_MERGE:          0
cpu0->cpu0_STLB RFO          ACCESS:          0 HIT:          0 MISS:          0 MSHR_MERGE:          0
cpu0->cpu0_STLB PREFETCH     ACCESS:          0 HIT:          0 MISS:          0 MSHR_MERGE:          0
cpu0->cpu0_STLB WRITE        ACCESS:          0 HIT:          0 MISS:          0 MSHR_MERGE:          0
cpu0->cpu0_STLB TRANSLATION  ACCESS:          0 HIT:          0 MISS:          0 MSHR_MERGE:          0
cpu0->cpu0_STLB PREFETCH REQUESTED:          0 ISSUED:          0 USEFUL:          0 USELESS:          0
cpu0->cpu0_STLB AVERAGE MISS LATENCY: 232.5 cycles
cpu0->cpu0_L2C TOTAL        ACCESS:   16454857 HIT:   10612512 MISS:    5842345 MSHR_MERGE:    3370340
cpu0->cpu0_L2C LOAD         ACCESS:     715380 HIT:     485146 MISS:     230234 MSHR_MERGE:      96612
cpu0->cpu0_L2C RFO          ACCESS:     686903 HIT:     186985 MISS:     499918 MSHR_MERGE:       1471
cpu0->cpu0_L2C PREFETCH     ACCESS:   13652542 HIT:    8545557 MISS:    5106985 MSHR_MERGE:    3272257
cpu0->cpu0_L2C WRITE        ACCESS:    1391216 HIT:    1390485 MISS:        731 MSHR_MERGE:          0
cpu0->cpu0_L2C TRANSLATION  ACCESS:       8816 HIT:       4339 MISS:       4477 MSHR_MERGE:          0
cpu0->cpu0_L2C PREFETCH REQUESTED:   14221497 ISSUED:   11354480 USEFUL:    1274541 USELESS:     413957
cpu0->cpu0_L2C AVERAGE MISS LATENCY: 935.4 cycles
cpu0->cpu0_L1I TOTAL        ACCESS:   30492003 HIT:   30485973 MISS:       6030 MSHR_MERGE:       1716
cpu0->cpu0_L1I LOAD         ACCESS:   30492003 HIT:   30485973 MISS:       6030 MSHR_MERGE:       1716
cpu0->cpu0_L1I RFO          ACCESS:          0 HIT:          0 MISS:          0 MSHR_MERGE:          0
cpu0->cpu0_L1I PREFETCH     ACCESS:          0 HIT:          0 MISS:          0 MSHR_MERGE:          0
cpu0->cpu0_L1I WRITE        ACCESS:          0 HIT:          0 MISS:          0 MSHR_MERGE:          0
cpu0->cpu0_L1I TRANSLATION  ACCESS:          0 HIT:          0 MISS:          0 MSHR_MERGE:          0
cpu0->cpu0_L1I PREFETCH REQUESTED:          0 ISSUED:          0 USEFUL:          0 USELESS:          0
cpu0->cpu0_L1I AVERAGE MISS LATENCY: 337.9 cycles
cpu0->cpu0_L1D TOTAL        ACCESS:   43073149 HIT:   36277265 MISS:    6795884 MSHR_MERGE:    3090925
cpu0->cpu0_L1D LOAD         ACCESS:   29506243 HIT:   27999495 MISS:    1506748 MSHR_MERGE:     795675
cpu0->cpu0_L1D RFO          ACCESS:          0 HIT:          0 MISS:          0 MSHR_MERGE:          0
cpu0->cpu0_L1D PREFETCH     ACCESS:    2716519 HIT:     335728 MISS:    2380791 MSHR_MERGE:      82722
cpu0->cpu0_L1D WRITE        ACCESS:   10795265 HIT:    7896210 MISS:    2899055 MSHR_MERGE:    2212054
cpu0->cpu0_L1D TRANSLATION  ACCESS:      55122 HIT:      45832 MISS:       9290 MSHR_MERGE:        474
cpu0->cpu0_L1D PREFETCH REQUESTED:    2989321 ISSUED:    2716511 USEFUL:    2216402 USELESS:      81658
cpu0->cpu0_L1D AVERAGE MISS LATENCY: 485.4 cycles
cpu0->cpu0_ITLB TOTAL        ACCESS:   24558787 HIT:   24558322 MISS:        465 MSHR_MERGE:        296
cpu0->cpu0_ITLB LOAD         ACCESS:   24558787 HIT:   24558322 MISS:        465 MSHR_MERGE:        296
cpu0->cpu0_ITLB RFO          ACCESS:          0 HIT:          0 MISS:          0 MSHR_MERGE:          0
cpu0->cpu0_ITLB PREFETCH     ACCESS:          0 HIT:          0 MISS:          0 MSHR_MERGE:          0
cpu0->cpu0_ITLB WRITE        ACCESS:          0 HIT:          0 MISS:          0 MSHR_MERGE:          0
cpu0->cpu0_ITLB TRANSLATION  ACCESS:          0 HIT:          0 MISS:          0 MSHR_MERGE:          0
cpu0->cpu0_ITLB PREFETCH REQUESTED:          0 ISSUED:          0 USEFUL:          0 USELESS:          0
cpu0->cpu0_ITLB AVERAGE MISS LATENCY: 554.5 cycles
cpu0->cpu0_DTLB TOTAL        ACCESS:   40739248 HIT:   40417732 MISS:     321516 MSHR_MERGE:     135376
cpu0->cpu0_DTLB LOAD         ACCESS:   40739248 HIT:   40417732 MISS:     321516 MSHR_MERGE:     135376
cpu0->cpu0_DTLB RFO          ACCESS:          0 HIT:          0 MISS:          0 MSHR_MERGE:          0
cpu0->cpu0_DTLB PREFETCH     ACCESS:          0 HIT:          0 MISS:          0 MSHR_MERGE:          0
cpu0->cpu0_DTLB WRITE        ACCESS:          0 HIT:          0 MISS:          0 MSHR_MERGE:          0
cpu0->cpu0_DTLB TRANSLATION  ACCESS:          0 HIT:          0 MISS:          0 MSHR_MERGE:          0
cpu0->cpu0_DTLB PREFETCH REQUESTED:          0 ISSUED:          0 USEFUL:          0 USELESS:          0
cpu0->cpu0_DTLB AVERAGE MISS LATENCY: 39.3 cycles
cpu0->LLC TOTAL        ACCESS:    3401765 HIT:     845842 MISS:    2555923 MSHR_MERGE:          0
cpu0->LLC LOAD         ACCESS:     133622 HIT:      30735 MISS:     102887 MSHR_MERGE:          0
cpu0->LLC RFO          ACCESS:     498447 HIT:     106852 MISS:     391595 MSHR_MERGE:          0
cpu0->LLC PREFETCH     ACCESS:    1834727 HIT:     354702 MISS:    1480025 MSHR_MERGE:          0
cpu0->LLC WRITE        ACCESS:     930492 HIT:     353526 MISS:     576966 MSHR_MERGE:          0
cpu0->LLC TRANSLATION  ACCESS:       4477 HIT:         27 MISS:       4450 MSHR_MERGE:          0
cpu0->LLC PREFETCH REQUESTED:          0 ISSUED:          0 USEFUL:          0 USELESS:          0
cpu0->LLC AVERAGE MISS LATENCY: 575.1 cycles

DRAM Statistics

Channel 0 RQ ROW_BUFFER_HIT:     114076
  ROW_BUFFER_MISS:    1864140
  AVG DBUS CONGESTED CYCLE: 4.084
Channel 0 WQ ROW_BUFFER_HIT:      12303
  ROW_BUFFER_MISS:     650013
  FULL:      41586
Channel 0 REFRESHES ISSUED:      13637
