[VMEM] WARNING: physical memory size is smaller than virtual memory size.

*** ChampSim Multicore Out-of-Order Simulator ***
Warmup Instructions: 50000000
Simulation Instructions: 200000000
Number of CPUs: 1
Page size: 4096
Core 0: /local-ssd/ben/dpc4-traces/ai-ml/llama2.c-stories42M.2.champsimtrace.gz
 L1D Berti prefetcher
Off-chip DRAM Size: 64 GiB Channels: 1 Width: 64-bit Data Rate: 4807 MT/s
Heartbeat CPU 0 instructions: 500001 cycles: 127945 heartbeat IPC: 3.908 cumulative IPC: 3.908 (Simulation time: 00 hr 00 min 02 sec)
Heartbeat CPU 0 instructions: 1000008 cycles: 254234 heartbeat IPC: 3.959 cumulative IPC: 3.933 (Simulation time: 00 hr 00 min 04 sec)
Heartbeat CPU 0 instructions: 1500014 cycles: 380731 heartbeat IPC: 3.953 cumulative IPC: 3.94 (Simulation time: 00 hr 00 min 06 sec)
Heartbeat CPU 0 instructions: 2000015 cycles: 507005 heartbeat IPC: 3.96 cumulative IPC: 3.945 (Simulation time: 00 hr 00 min 08 sec)
Heartbeat CPU 0 instructions: 2500016 cycles: 633813 heartbeat IPC: 3.943 cumulative IPC: 3.944 (Simulation time: 00 hr 00 min 10 sec)
Heartbeat CPU 0 instructions: 3000021 cycles: 760376 heartbeat IPC: 3.951 cumulative IPC: 3.945 (Simulation time: 00 hr 00 min 12 sec)
Heartbeat CPU 0 instructions: 3500028 cycles: 887370 heartbeat IPC: 3.937 cumulative IPC: 3.944 (Simulation time: 00 hr 00 min 14 sec)
Heartbeat CPU 0 instructions: 4000033 cycles: 1014174 heartbeat IPC: 3.943 cumulative IPC: 3.944 (Simulation time: 00 hr 00 min 16 sec)
Heartbeat CPU 0 instructions: 4500038 cycles: 1139753 heartbeat IPC: 3.982 cumulative IPC: 3.948 (Simulation time: 00 hr 00 min 18 sec)
Heartbeat CPU 0 instructions: 5000040 cycles: 1266293 heartbeat IPC: 3.951 cumulative IPC: 3.949 (Simulation time: 00 hr 00 min 20 sec)
Heartbeat CPU 0 instructions: 5500046 cycles: 1392779 heartbeat IPC: 3.953 cumulative IPC: 3.949 (Simulation time: 00 hr 00 min 22 sec)
Heartbeat CPU 0 instructions: 6000050 cycles: 1518854 heartbeat IPC: 3.966 cumulative IPC: 3.95 (Simulation time: 00 hr 00 min 24 sec)
Heartbeat CPU 0 instructions: 6500051 cycles: 1645362 heartbeat IPC: 3.952 cumulative IPC: 3.951 (Simulation time: 00 hr 00 min 26 sec)
Heartbeat CPU 0 instructions: 7000057 cycles: 1771632 heartbeat IPC: 3.96 cumulative IPC: 3.951 (Simulation time: 00 hr 00 min 28 sec)
Heartbeat CPU 0 instructions: 7500057 cycles: 1897936 heartbeat IPC: 3.959 cumulative IPC: 3.952 (Simulation time: 00 hr 00 min 30 sec)
Heartbeat CPU 0 instructions: 8000061 cycles: 2023309 heartbeat IPC: 3.988 cumulative IPC: 3.954 (Simulation time: 00 hr 00 min 32 sec)
Heartbeat CPU 0 instructions: 8500066 cycles: 2149698 heartbeat IPC: 3.956 cumulative IPC: 3.954 (Simulation time: 00 hr 00 min 34 sec)
Heartbeat CPU 0 instructions: 9000067 cycles: 2276140 heartbeat IPC: 3.954 cumulative IPC: 3.954 (Simulation time: 00 hr 00 min 36 sec)
Heartbeat CPU 0 instructions: 9500072 cycles: 2402294 heartbeat IPC: 3.963 cumulative IPC: 3.955 (Simulation time: 00 hr 00 min 38 sec)
Heartbeat CPU 0 instructions: 10000076 cycles: 2528474 heartbeat IPC: 3.963 cumulative IPC: 3.955 (Simulation time: 00 hr 00 min 40 sec)
Heartbeat CPU 0 instructions: 10500079 cycles: 2652635 heartbeat IPC: 4.027 cumulative IPC: 3.958 (Simulation time: 00 hr 00 min 42 sec)
Heartbeat CPU 0 instructions: 11000081 cycles: 2778641 heartbeat IPC: 3.968 cumulative IPC: 3.959 (Simulation time: 00 hr 00 min 44 sec)
Heartbeat CPU 0 instructions: 11500081 cycles: 2905150 heartbeat IPC: 3.952 cumulative IPC: 3.959 (Simulation time: 00 hr 00 min 46 sec)
Heartbeat CPU 0 instructions: 12000086 cycles: 3031225 heartbeat IPC: 3.966 cumulative IPC: 3.959 (Simulation time: 00 hr 00 min 48 sec)
Heartbeat CPU 0 instructions: 12500086 cycles: 3157731 heartbeat IPC: 3.952 cumulative IPC: 3.959 (Simulation time: 00 hr 00 min 50 sec)
Heartbeat CPU 0 instructions: 13000092 cycles: 3283804 heartbeat IPC: 3.966 cumulative IPC: 3.959 (Simulation time: 00 hr 00 min 52 sec)
Heartbeat CPU 0 instructions: 13500098 cycles: 3409107 heartbeat IPC: 3.99 cumulative IPC: 3.96 (Simulation time: 00 hr 00 min 54 sec)
Heartbeat CPU 0 instructions: 14000103 cycles: 3535501 heartbeat IPC: 3.956 cumulative IPC: 3.96 (Simulation time: 00 hr 00 min 56 sec)
Heartbeat CPU 0 instructions: 14500108 cycles: 3662094 heartbeat IPC: 3.95 cumulative IPC: 3.96 (Simulation time: 00 hr 00 min 58 sec)
Heartbeat CPU 0 instructions: 15000114 cycles: 3788485 heartbeat IPC: 3.956 cumulative IPC: 3.959 (Simulation time: 00 hr 01 min 00 sec)
Heartbeat CPU 0 instructions: 15500117 cycles: 3914730 heartbeat IPC: 3.961 cumulative IPC: 3.959 (Simulation time: 00 hr 01 min 02 sec)
Heartbeat CPU 0 instructions: 16000118 cycles: 4038928 heartbeat IPC: 4.026 cumulative IPC: 3.961 (Simulation time: 00 hr 01 min 04 sec)
Heartbeat CPU 0 instructions: 16500118 cycles: 4165139 heartbeat IPC: 3.962 cumulative IPC: 3.961 (Simulation time: 00 hr 01 min 06 sec)
Heartbeat CPU 0 instructions: 17000124 cycles: 4291407 heartbeat IPC: 3.96 cumulative IPC: 3.961 (Simulation time: 00 hr 01 min 08 sec)
Heartbeat CPU 0 instructions: 17500124 cycles: 4417713 heartbeat IPC: 3.959 cumulative IPC: 3.961 (Simulation time: 00 hr 01 min 10 sec)
Heartbeat CPU 0 instructions: 18000129 cycles: 4543777 heartbeat IPC: 3.966 cumulative IPC: 3.961 (Simulation time: 00 hr 01 min 12 sec)
Heartbeat CPU 0 instructions: 18500133 cycles: 4669864 heartbeat IPC: 3.966 cumulative IPC: 3.962 (Simulation time: 00 hr 01 min 14 sec)
Heartbeat CPU 0 instructions: 19000135 cycles: 4796344 heartbeat IPC: 3.953 cumulative IPC: 3.961 (Simulation time: 00 hr 01 min 16 sec)
Heartbeat CPU 0 instructions: 19500140 cycles: 4921478 heartbeat IPC: 3.996 cumulative IPC: 3.962 (Simulation time: 00 hr 01 min 18 sec)
Heartbeat CPU 0 instructions: 20000142 cycles: 5048090 heartbeat IPC: 3.949 cumulative IPC: 3.962 (Simulation time: 00 hr 01 min 20 sec)
Heartbeat CPU 0 instructions: 20500145 cycles: 5174594 heartbeat IPC: 3.952 cumulative IPC: 3.962 (Simulation time: 00 hr 01 min 22 sec)
Heartbeat CPU 0 instructions: 21000146 cycles: 5300730 heartbeat IPC: 3.964 cumulative IPC: 3.962 (Simulation time: 00 hr 01 min 24 sec)
Heartbeat CPU 0 instructions: 21500146 cycles: 5426698 heartbeat IPC: 3.969 cumulative IPC: 3.962 (Simulation time: 00 hr 01 min 26 sec)
Heartbeat CPU 0 instructions: 22000149 cycles: 5550890 heartbeat IPC: 4.026 cumulative IPC: 3.963 (Simulation time: 00 hr 01 min 28 sec)
Heartbeat CPU 0 instructions: 22500153 cycles: 5677356 heartbeat IPC: 3.954 cumulative IPC: 3.963 (Simulation time: 00 hr 01 min 30 sec)
Heartbeat CPU 0 instructions: 23000159 cycles: 5803427 heartbeat IPC: 3.966 cumulative IPC: 3.963 (Simulation time: 00 hr 01 min 32 sec)
Heartbeat CPU 0 instructions: 23500162 cycles: 5929725 heartbeat IPC: 3.959 cumulative IPC: 3.963 (Simulation time: 00 hr 01 min 34 sec)
Heartbeat CPU 0 instructions: 24000164 cycles: 6056011 heartbeat IPC: 3.959 cumulative IPC: 3.963 (Simulation time: 00 hr 01 min 36 sec)
Heartbeat CPU 0 instructions: 24500164 cycles: 6182286 heartbeat IPC: 3.96 cumulative IPC: 3.963 (Simulation time: 00 hr 01 min 38 sec)
Heartbeat CPU 0 instructions: 25000169 cycles: 6307364 heartbeat IPC: 3.998 cumulative IPC: 3.964 (Simulation time: 00 hr 01 min 40 sec)
Heartbeat CPU 0 instructions: 25500175 cycles: 6434172 heartbeat IPC: 3.943 cumulative IPC: 3.963 (Simulation time: 00 hr 01 min 42 sec)
Heartbeat CPU 0 instructions: 26000180 cycles: 6560769 heartbeat IPC: 3.95 cumulative IPC: 3.963 (Simulation time: 00 hr 01 min 44 sec)
Heartbeat CPU 0 instructions: 26500182 cycles: 6686811 heartbeat IPC: 3.967 cumulative IPC: 3.963 (Simulation time: 00 hr 01 min 46 sec)
Heartbeat CPU 0 instructions: 27000182 cycles: 6812977 heartbeat IPC: 3.963 cumulative IPC: 3.963 (Simulation time: 00 hr 01 min 48 sec)
Heartbeat CPU 0 instructions: 27500182 cycles: 6938937 heartbeat IPC: 3.97 cumulative IPC: 3.963 (Simulation time: 00 hr 01 min 50 sec)
Heartbeat CPU 0 instructions: 28000186 cycles: 7065105 heartbeat IPC: 3.963 cumulative IPC: 3.963 (Simulation time: 00 hr 01 min 52 sec)
Heartbeat CPU 0 instructions: 28500190 cycles: 7191269 heartbeat IPC: 3.963 cumulative IPC: 3.963 (Simulation time: 00 hr 01 min 54 sec)
Heartbeat CPU 0 instructions: 29000190 cycles: 7317430 heartbeat IPC: 3.963 cumulative IPC: 3.963 (Simulation time: 00 hr 01 min 56 sec)
Heartbeat CPU 0 instructions: 29500190 cycles: 7443386 heartbeat IPC: 3.97 cumulative IPC: 3.963 (Simulation time: 00 hr 01 min 58 sec)
Heartbeat CPU 0 instructions: 30000190 cycles: 7569547 heartbeat IPC: 3.963 cumulative IPC: 3.963 (Simulation time: 00 hr 02 min 00 sec)
Heartbeat CPU 0 instructions: 30500190 cycles: 7695706 heartbeat IPC: 3.963 cumulative IPC: 3.963 (Simulation time: 00 hr 02 min 02 sec)
Heartbeat CPU 0 instructions: 31000190 cycles: 7821664 heartbeat IPC: 3.97 cumulative IPC: 3.963 (Simulation time: 00 hr 02 min 04 sec)
Heartbeat CPU 0 instructions: 31500190 cycles: 7947823 heartbeat IPC: 3.963 cumulative IPC: 3.963 (Simulation time: 00 hr 02 min 07 sec)
Heartbeat CPU 0 instructions: 32000190 cycles: 8073781 heartbeat IPC: 3.97 cumulative IPC: 3.963 (Simulation time: 00 hr 02 min 09 sec)
Heartbeat CPU 0 instructions: 32500190 cycles: 8199940 heartbeat IPC: 3.963 cumulative IPC: 3.963 (Simulation time: 00 hr 02 min 11 sec)
Heartbeat CPU 0 instructions: 33000190 cycles: 8325898 heartbeat IPC: 3.97 cumulative IPC: 3.964 (Simulation time: 00 hr 02 min 13 sec)
Heartbeat CPU 0 instructions: 33500190 cycles: 8452057 heartbeat IPC: 3.963 cumulative IPC: 3.964 (Simulation time: 00 hr 02 min 15 sec)
Heartbeat CPU 0 instructions: 34000190 cycles: 8578015 heartbeat IPC: 3.97 cumulative IPC: 3.964 (Simulation time: 00 hr 02 min 17 sec)
Heartbeat CPU 0 instructions: 34500190 cycles: 8704174 heartbeat IPC: 3.963 cumulative IPC: 3.964 (Simulation time: 00 hr 02 min 19 sec)
Heartbeat CPU 0 instructions: 35000190 cycles: 8830132 heartbeat IPC: 3.97 cumulative IPC: 3.964 (Simulation time: 00 hr 02 min 21 sec)
Heartbeat CPU 0 instructions: 35500190 cycles: 8956291 heartbeat IPC: 3.963 cumulative IPC: 3.964 (Simulation time: 00 hr 02 min 23 sec)
Heartbeat CPU 0 instructions: 36000190 cycles: 9082249 heartbeat IPC: 3.97 cumulative IPC: 3.964 (Simulation time: 00 hr 02 min 25 sec)
Heartbeat CPU 0 instructions: 36500190 cycles: 9208408 heartbeat IPC: 3.963 cumulative IPC: 3.964 (Simulation time: 00 hr 02 min 27 sec)
Heartbeat CPU 0 instructions: 37000190 cycles: 9334366 heartbeat IPC: 3.97 cumulative IPC: 3.964 (Simulation time: 00 hr 02 min 29 sec)
Heartbeat CPU 0 instructions: 37500190 cycles: 9460525 heartbeat IPC: 3.963 cumulative IPC: 3.964 (Simulation time: 00 hr 02 min 31 sec)
Heartbeat CPU 0 instructions: 38000190 cycles: 9586684 heartbeat IPC: 3.963 cumulative IPC: 3.964 (Simulation time: 00 hr 02 min 33 sec)
Heartbeat CPU 0 instructions: 38500190 cycles: 9712642 heartbeat IPC: 3.97 cumulative IPC: 3.964 (Simulation time: 00 hr 02 min 35 sec)
Heartbeat CPU 0 instructions: 39000190 cycles: 9838803 heartbeat IPC: 3.963 cumulative IPC: 3.964 (Simulation time: 00 hr 02 min 37 sec)
Heartbeat CPU 0 instructions: 39500190 cycles: 9964759 heartbeat IPC: 3.97 cumulative IPC: 3.964 (Simulation time: 00 hr 02 min 39 sec)
Heartbeat CPU 0 instructions: 40000196 cycles: 10090922 heartbeat IPC: 3.963 cumulative IPC: 3.964 (Simulation time: 00 hr 02 min 41 sec)
Heartbeat CPU 0 instructions: 40500200 cycles: 10216885 heartbeat IPC: 3.969 cumulative IPC: 3.964 (Simulation time: 00 hr 02 min 43 sec)
Heartbeat CPU 0 instructions: 41000200 cycles: 10343050 heartbeat IPC: 3.963 cumulative IPC: 3.964 (Simulation time: 00 hr 02 min 45 sec)
Heartbeat CPU 0 instructions: 41500204 cycles: 10469011 heartbeat IPC: 3.97 cumulative IPC: 3.964 (Simulation time: 00 hr 02 min 47 sec)
Heartbeat CPU 0 instructions: 42000204 cycles: 10595178 heartbeat IPC: 3.963 cumulative IPC: 3.964 (Simulation time: 00 hr 02 min 49 sec)
Heartbeat CPU 0 instructions: 42500204 cycles: 10721345 heartbeat IPC: 3.963 cumulative IPC: 3.964 (Simulation time: 00 hr 02 min 51 sec)
Heartbeat CPU 0 instructions: 43000204 cycles: 10847506 heartbeat IPC: 3.963 cumulative IPC: 3.964 (Simulation time: 00 hr 02 min 53 sec)
Heartbeat CPU 0 instructions: 43500204 cycles: 10973462 heartbeat IPC: 3.97 cumulative IPC: 3.964 (Simulation time: 00 hr 02 min 55 sec)
Heartbeat CPU 0 instructions: 44000204 cycles: 11099623 heartbeat IPC: 3.963 cumulative IPC: 3.964 (Simulation time: 00 hr 02 min 57 sec)
Heartbeat CPU 0 instructions: 44500204 cycles: 11225579 heartbeat IPC: 3.97 cumulative IPC: 3.964 (Simulation time: 00 hr 02 min 59 sec)
Heartbeat CPU 0 instructions: 45000204 cycles: 11351740 heartbeat IPC: 3.963 cumulative IPC: 3.964 (Simulation time: 00 hr 03 min 01 sec)
Heartbeat CPU 0 instructions: 45500204 cycles: 11477696 heartbeat IPC: 3.97 cumulative IPC: 3.964 (Simulation time: 00 hr 03 min 03 sec)
Heartbeat CPU 0 instructions: 46000204 cycles: 11603855 heartbeat IPC: 3.963 cumulative IPC: 3.964 (Simulation time: 00 hr 03 min 05 sec)
Heartbeat CPU 0 instructions: 46500204 cycles: 11730016 heartbeat IPC: 3.963 cumulative IPC: 3.964 (Simulation time: 00 hr 03 min 07 sec)
Heartbeat CPU 0 instructions: 47000204 cycles: 11855972 heartbeat IPC: 3.97 cumulative IPC: 3.964 (Simulation time: 00 hr 03 min 09 sec)
Heartbeat CPU 0 instructions: 47500204 cycles: 11982133 heartbeat IPC: 3.963 cumulative IPC: 3.964 (Simulation time: 00 hr 03 min 11 sec)
Heartbeat CPU 0 instructions: 48000204 cycles: 12108089 heartbeat IPC: 3.97 cumulative IPC: 3.964 (Simulation time: 00 hr 03 min 13 sec)
Heartbeat CPU 0 instructions: 48500204 cycles: 12234250 heartbeat IPC: 3.963 cumulative IPC: 3.964 (Simulation time: 00 hr 03 min 15 sec)
Heartbeat CPU 0 instructions: 49000204 cycles: 12360206 heartbeat IPC: 3.97 cumulative IPC: 3.964 (Simulation time: 00 hr 03 min 17 sec)
Heartbeat CPU 0 instructions: 49500204 cycles: 12486367 heartbeat IPC: 3.963 cumulative IPC: 3.964 (Simulation time: 00 hr 03 min 19 sec)
Warmup finished CPU 0 instructions: 50000004 cycles: 12612298 cumulative IPC: 3.964 (Simulation time: 00 hr 03 min 21 sec)
Warmup complete CPU 0 instructions: 50000004 cycles: 12612298 cumulative IPC: 3.964 (Simulation time: 00 hr 03 min 21 sec)
Heartbeat CPU 0 instructions: 50000204 cycles: 12612323 heartbeat IPC: 3.97 cumulative IPC: 8 (Simulation time: 00 hr 03 min 21 sec)
Heartbeat CPU 0 instructions: 50500207 cycles: 12933681 heartbeat IPC: 1.556 cumulative IPC: 1.556 (Simulation time: 00 hr 03 min 25 sec)
Heartbeat CPU 0 instructions: 51000210 cycles: 13253211 heartbeat IPC: 1.565 cumulative IPC: 1.561 (Simulation time: 00 hr 03 min 29 sec)
Heartbeat CPU 0 instructions: 51500212 cycles: 13572723 heartbeat IPC: 1.565 cumulative IPC: 1.562 (Simulation time: 00 hr 03 min 33 sec)
Heartbeat CPU 0 instructions: 52000218 cycles: 13892041 heartbeat IPC: 1.566 cumulative IPC: 1.563 (Simulation time: 00 hr 03 min 37 sec)
Heartbeat CPU 0 instructions: 52500224 cycles: 14212687 heartbeat IPC: 1.559 cumulative IPC: 1.562 (Simulation time: 00 hr 03 min 40 sec)
Heartbeat CPU 0 instructions: 53000230 cycles: 14534199 heartbeat IPC: 1.555 cumulative IPC: 1.561 (Simulation time: 00 hr 03 min 44 sec)
Heartbeat CPU 0 instructions: 53500236 cycles: 14855051 heartbeat IPC: 1.558 cumulative IPC: 1.561 (Simulation time: 00 hr 03 min 48 sec)
Heartbeat CPU 0 instructions: 54000242 cycles: 15175263 heartbeat IPC: 1.561 cumulative IPC: 1.561 (Simulation time: 00 hr 03 min 52 sec)
Heartbeat CPU 0 instructions: 54500248 cycles: 15497903 heartbeat IPC: 1.55 cumulative IPC: 1.56 (Simulation time: 00 hr 03 min 56 sec)
Heartbeat CPU 0 instructions: 55000254 cycles: 15815818 heartbeat IPC: 1.573 cumulative IPC: 1.561 (Simulation time: 00 hr 04 min 00 sec)
Heartbeat CPU 0 instructions: 55500258 cycles: 16167357 heartbeat IPC: 1.422 cumulative IPC: 1.547 (Simulation time: 00 hr 04 min 04 sec)
Heartbeat CPU 0 instructions: 56000260 cycles: 16480617 heartbeat IPC: 1.596 cumulative IPC: 1.551 (Simulation time: 00 hr 04 min 07 sec)
Heartbeat CPU 0 instructions: 56500262 cycles: 16799097 heartbeat IPC: 1.57 cumulative IPC: 1.553 (Simulation time: 00 hr 04 min 11 sec)
Heartbeat CPU 0 instructions: 57000264 cycles: 17123382 heartbeat IPC: 1.542 cumulative IPC: 1.552 (Simulation time: 00 hr 04 min 15 sec)
Heartbeat CPU 0 instructions: 57500266 cycles: 17439246 heartbeat IPC: 1.583 cumulative IPC: 1.554 (Simulation time: 00 hr 04 min 19 sec)
Heartbeat CPU 0 instructions: 58000271 cycles: 17764072 heartbeat IPC: 1.539 cumulative IPC: 1.553 (Simulation time: 00 hr 04 min 22 sec)
Heartbeat CPU 0 instructions: 58500276 cycles: 18084115 heartbeat IPC: 1.562 cumulative IPC: 1.553 (Simulation time: 00 hr 04 min 26 sec)
Heartbeat CPU 0 instructions: 59000276 cycles: 18409160 heartbeat IPC: 1.538 cumulative IPC: 1.553 (Simulation time: 00 hr 04 min 30 sec)
Heartbeat CPU 0 instructions: 59500279 cycles: 18730751 heartbeat IPC: 1.555 cumulative IPC: 1.553 (Simulation time: 00 hr 04 min 34 sec)
Heartbeat CPU 0 instructions: 60000280 cycles: 19064726 heartbeat IPC: 1.497 cumulative IPC: 1.55 (Simulation time: 00 hr 04 min 38 sec)
Heartbeat CPU 0 instructions: 60500281 cycles: 19387112 heartbeat IPC: 1.551 cumulative IPC: 1.55 (Simulation time: 00 hr 04 min 42 sec)
Heartbeat CPU 0 instructions: 61000285 cycles: 19711951 heartbeat IPC: 1.539 cumulative IPC: 1.549 (Simulation time: 00 hr 04 min 46 sec)
Heartbeat CPU 0 instructions: 61500289 cycles: 20035329 heartbeat IPC: 1.546 cumulative IPC: 1.549 (Simulation time: 00 hr 04 min 49 sec)
Heartbeat CPU 0 instructions: 62000293 cycles: 20359301 heartbeat IPC: 1.543 cumulative IPC: 1.549 (Simulation time: 00 hr 04 min 53 sec)
Heartbeat CPU 0 instructions: 62500295 cycles: 20684294 heartbeat IPC: 1.539 cumulative IPC: 1.549 (Simulation time: 00 hr 04 min 57 sec)
Heartbeat CPU 0 instructions: 63000297 cycles: 21007659 heartbeat IPC: 1.546 cumulative IPC: 1.549 (Simulation time: 00 hr 05 min 01 sec)
Heartbeat CPU 0 instructions: 63500299 cycles: 21333810 heartbeat IPC: 1.533 cumulative IPC: 1.548 (Simulation time: 00 hr 05 min 05 sec)
Heartbeat CPU 0 instructions: 64000304 cycles: 21659186 heartbeat IPC: 1.537 cumulative IPC: 1.548 (Simulation time: 00 hr 05 min 08 sec)
Heartbeat CPU 0 instructions: 64500304 cycles: 21981301 heartbeat IPC: 1.552 cumulative IPC: 1.548 (Simulation time: 00 hr 05 min 12 sec)
Heartbeat CPU 0 instructions: 65000309 cycles: 22304737 heartbeat IPC: 1.546 cumulative IPC: 1.548 (Simulation time: 00 hr 05 min 16 sec)
Heartbeat CPU 0 instructions: 65500314 cycles: 22630535 heartbeat IPC: 1.535 cumulative IPC: 1.547 (Simulation time: 00 hr 05 min 20 sec)
Heartbeat CPU 0 instructions: 66000320 cycles: 22963167 heartbeat IPC: 1.503 cumulative IPC: 1.546 (Simulation time: 00 hr 05 min 24 sec)
Heartbeat CPU 0 instructions: 66500324 cycles: 23289627 heartbeat IPC: 1.532 cumulative IPC: 1.545 (Simulation time: 00 hr 05 min 28 sec)
Heartbeat CPU 0 instructions: 67000326 cycles: 23613532 heartbeat IPC: 1.544 cumulative IPC: 1.545 (Simulation time: 00 hr 05 min 32 sec)
Heartbeat CPU 0 instructions: 67500327 cycles: 23932275 heartbeat IPC: 1.569 cumulative IPC: 1.546 (Simulation time: 00 hr 05 min 36 sec)
Heartbeat CPU 0 instructions: 68000330 cycles: 24251761 heartbeat IPC: 1.565 cumulative IPC: 1.546 (Simulation time: 00 hr 05 min 39 sec)
Heartbeat CPU 0 instructions: 68500332 cycles: 24575606 heartbeat IPC: 1.544 cumulative IPC: 1.546 (Simulation time: 00 hr 05 min 43 sec)
Heartbeat CPU 0 instructions: 69000334 cycles: 24893148 heartbeat IPC: 1.575 cumulative IPC: 1.547 (Simulation time: 00 hr 05 min 47 sec)
Heartbeat CPU 0 instructions: 69500336 cycles: 25216930 heartbeat IPC: 1.544 cumulative IPC: 1.547 (Simulation time: 00 hr 05 min 51 sec)
Heartbeat CPU 0 instructions: 70000337 cycles: 25539951 heartbeat IPC: 1.548 cumulative IPC: 1.547 (Simulation time: 00 hr 05 min 54 sec)
Heartbeat CPU 0 instructions: 70500337 cycles: 25864108 heartbeat IPC: 1.542 cumulative IPC: 1.547 (Simulation time: 00 hr 05 min 58 sec)
Heartbeat CPU 0 instructions: 71000342 cycles: 26184701 heartbeat IPC: 1.56 cumulative IPC: 1.547 (Simulation time: 00 hr 06 min 02 sec)
Heartbeat CPU 0 instructions: 71500342 cycles: 26516712 heartbeat IPC: 1.506 cumulative IPC: 1.546 (Simulation time: 00 hr 06 min 06 sec)
Heartbeat CPU 0 instructions: 72000342 cycles: 26840035 heartbeat IPC: 1.546 cumulative IPC: 1.546 (Simulation time: 00 hr 06 min 10 sec)
Heartbeat CPU 0 instructions: 72500343 cycles: 27166366 heartbeat IPC: 1.532 cumulative IPC: 1.546 (Simulation time: 00 hr 06 min 14 sec)
Heartbeat CPU 0 instructions: 73000343 cycles: 27490278 heartbeat IPC: 1.544 cumulative IPC: 1.546 (Simulation time: 00 hr 06 min 18 sec)
Heartbeat CPU 0 instructions: 73500347 cycles: 27810064 heartbeat IPC: 1.564 cumulative IPC: 1.546 (Simulation time: 00 hr 06 min 22 sec)
Heartbeat CPU 0 instructions: 74000349 cycles: 28132233 heartbeat IPC: 1.552 cumulative IPC: 1.546 (Simulation time: 00 hr 06 min 25 sec)
Heartbeat CPU 0 instructions: 74500353 cycles: 28456686 heartbeat IPC: 1.541 cumulative IPC: 1.546 (Simulation time: 00 hr 06 min 29 sec)
Heartbeat CPU 0 instructions: 75000353 cycles: 28779044 heartbeat IPC: 1.551 cumulative IPC: 1.546 (Simulation time: 00 hr 06 min 33 sec)
Heartbeat CPU 0 instructions: 75500358 cycles: 29083398 heartbeat IPC: 1.643 cumulative IPC: 1.548 (Simulation time: 00 hr 06 min 37 sec)
Heartbeat CPU 0 instructions: 76000358 cycles: 29355808 heartbeat IPC: 1.835 cumulative IPC: 1.553 (Simulation time: 00 hr 06 min 40 sec)
Heartbeat CPU 0 instructions: 76500363 cycles: 29629501 heartbeat IPC: 1.827 cumulative IPC: 1.557 (Simulation time: 00 hr 06 min 43 sec)
Heartbeat CPU 0 instructions: 77000365 cycles: 29898933 heartbeat IPC: 1.856 cumulative IPC: 1.562 (Simulation time: 00 hr 06 min 47 sec)
Heartbeat CPU 0 instructions: 77500371 cycles: 30180983 heartbeat IPC: 1.773 cumulative IPC: 1.565 (Simulation time: 00 hr 06 min 50 sec)
Heartbeat CPU 0 instructions: 78000375 cycles: 30454179 heartbeat IPC: 1.83 cumulative IPC: 1.569 (Simulation time: 00 hr 06 min 54 sec)
Heartbeat CPU 0 instructions: 78500378 cycles: 30739104 heartbeat IPC: 1.755 cumulative IPC: 1.572 (Simulation time: 00 hr 06 min 57 sec)
Heartbeat CPU 0 instructions: 79000383 cycles: 31017517 heartbeat IPC: 1.796 cumulative IPC: 1.576 (Simulation time: 00 hr 07 min 01 sec)
Heartbeat CPU 0 instructions: 79500384 cycles: 31290651 heartbeat IPC: 1.831 cumulative IPC: 1.579 (Simulation time: 00 hr 07 min 04 sec)
Heartbeat CPU 0 instructions: 80000385 cycles: 31591119 heartbeat IPC: 1.664 cumulative IPC: 1.581 (Simulation time: 00 hr 07 min 07 sec)
Heartbeat CPU 0 instructions: 80500387 cycles: 31883186 heartbeat IPC: 1.712 cumulative IPC: 1.583 (Simulation time: 00 hr 07 min 11 sec)
Heartbeat CPU 0 instructions: 81000393 cycles: 32154186 heartbeat IPC: 1.845 cumulative IPC: 1.586 (Simulation time: 00 hr 07 min 14 sec)
Heartbeat CPU 0 instructions: 81500398 cycles: 32424595 heartbeat IPC: 1.849 cumulative IPC: 1.59 (Simulation time: 00 hr 07 min 17 sec)
Heartbeat CPU 0 instructions: 82000398 cycles: 32697113 heartbeat IPC: 1.835 cumulative IPC: 1.593 (Simulation time: 00 hr 07 min 21 sec)
Heartbeat CPU 0 instructions: 82500403 cycles: 32970006 heartbeat IPC: 1.832 cumulative IPC: 1.596 (Simulation time: 00 hr 07 min 24 sec)
Heartbeat CPU 0 instructions: 83000403 cycles: 33254139 heartbeat IPC: 1.76 cumulative IPC: 1.599 (Simulation time: 00 hr 07 min 28 sec)
Heartbeat CPU 0 instructions: 83500404 cycles: 33540530 heartbeat IPC: 1.746 cumulative IPC: 1.601 (Simulation time: 00 hr 07 min 31 sec)
Heartbeat CPU 0 instructions: 84000408 cycles: 33832098 heartbeat IPC: 1.715 cumulative IPC: 1.602 (Simulation time: 00 hr 07 min 35 sec)
Heartbeat CPU 0 instructions: 84500408 cycles: 34102530 heartbeat IPC: 1.849 cumulative IPC: 1.605 (Simulation time: 00 hr 07 min 38 sec)
Heartbeat CPU 0 instructions: 85000412 cycles: 34365626 heartbeat IPC: 1.9 cumulative IPC: 1.609 (Simulation time: 00 hr 07 min 42 sec)
Heartbeat CPU 0 instructions: 85500417 cycles: 34632688 heartbeat IPC: 1.872 cumulative IPC: 1.612 (Simulation time: 00 hr 07 min 45 sec)
Heartbeat CPU 0 instructions: 86000421 cycles: 34915928 heartbeat IPC: 1.765 cumulative IPC: 1.614 (Simulation time: 00 hr 07 min 48 sec)
Heartbeat CPU 0 instructions: 86500422 cycles: 35184242 heartbeat IPC: 1.863 cumulative IPC: 1.617 (Simulation time: 00 hr 07 min 52 sec)
Heartbeat CPU 0 instructions: 87000427 cycles: 35453006 heartbeat IPC: 1.86 cumulative IPC: 1.62 (Simulation time: 00 hr 07 min 55 sec)
Heartbeat CPU 0 instructions: 87500430 cycles: 35723436 heartbeat IPC: 1.849 cumulative IPC: 1.623 (Simulation time: 00 hr 07 min 58 sec)
Heartbeat CPU 0 instructions: 88000431 cycles: 35996901 heartbeat IPC: 1.828 cumulative IPC: 1.625 (Simulation time: 00 hr 08 min 02 sec)
Heartbeat CPU 0 instructions: 88500436 cycles: 36268681 heartbeat IPC: 1.84 cumulative IPC: 1.627 (Simulation time: 00 hr 08 min 05 sec)
Heartbeat CPU 0 instructions: 89000436 cycles: 36561531 heartbeat IPC: 1.707 cumulative IPC: 1.628 (Simulation time: 00 hr 08 min 09 sec)
Heartbeat CPU 0 instructions: 89500440 cycles: 36847112 heartbeat IPC: 1.751 cumulative IPC: 1.63 (Simulation time: 00 hr 08 min 12 sec)
Heartbeat CPU 0 instructions: 90000440 cycles: 37134362 heartbeat IPC: 1.741 cumulative IPC: 1.631 (Simulation time: 00 hr 08 min 16 sec)
Heartbeat CPU 0 instructions: 90500440 cycles: 37414341 heartbeat IPC: 1.786 cumulative IPC: 1.633 (Simulation time: 00 hr 08 min 19 sec)
Heartbeat CPU 0 instructions: 91000442 cycles: 37683802 heartbeat IPC: 1.856 cumulative IPC: 1.635 (Simulation time: 00 hr 08 min 23 sec)
Heartbeat CPU 0 instructions: 91500446 cycles: 37956666 heartbeat IPC: 1.832 cumulative IPC: 1.637 (Simulation time: 00 hr 08 min 26 sec)
Heartbeat CPU 0 instructions: 92000446 cycles: 38228710 heartbeat IPC: 1.838 cumulative IPC: 1.64 (Simulation time: 00 hr 08 min 29 sec)
Heartbeat CPU 0 instructions: 92500451 cycles: 38497300 heartbeat IPC: 1.862 cumulative IPC: 1.642 (Simulation time: 00 hr 08 min 33 sec)
Heartbeat CPU 0 instructions: 93000452 cycles: 38767656 heartbeat IPC: 1.849 cumulative IPC: 1.644 (Simulation time: 00 hr 08 min 36 sec)
Heartbeat CPU 0 instructions: 93500452 cycles: 39042610 heartbeat IPC: 1.818 cumulative IPC: 1.646 (Simulation time: 00 hr 08 min 40 sec)
Heartbeat CPU 0 instructions: 94000454 cycles: 39315930 heartbeat IPC: 1.829 cumulative IPC: 1.648 (Simulation time: 00 hr 08 min 43 sec)
Heartbeat CPU 0 instructions: 94500454 cycles: 39596426 heartbeat IPC: 1.783 cumulative IPC: 1.649 (Simulation time: 00 hr 08 min 47 sec)
Heartbeat CPU 0 instructions: 95000454 cycles: 39881832 heartbeat IPC: 1.752 cumulative IPC: 1.65 (Simulation time: 00 hr 08 min 50 sec)
Heartbeat CPU 0 instructions: 95500459 cycles: 40171764 heartbeat IPC: 1.725 cumulative IPC: 1.651 (Simulation time: 00 hr 08 min 54 sec)
Heartbeat CPU 0 instructions: 96000459 cycles: 40454816 heartbeat IPC: 1.766 cumulative IPC: 1.652 (Simulation time: 00 hr 08 min 57 sec)
Heartbeat CPU 0 instructions: 96500459 cycles: 40725438 heartbeat IPC: 1.848 cumulative IPC: 1.654 (Simulation time: 00 hr 09 min 01 sec)
Heartbeat CPU 0 instructions: 97000460 cycles: 40997088 heartbeat IPC: 1.841 cumulative IPC: 1.656 (Simulation time: 00 hr 09 min 04 sec)
Heartbeat CPU 0 instructions: 97500460 cycles: 41268043 heartbeat IPC: 1.845 cumulative IPC: 1.658 (Simulation time: 00 hr 09 min 07 sec)
Heartbeat CPU 0 instructions: 98000465 cycles: 41539374 heartbeat IPC: 1.843 cumulative IPC: 1.659 (Simulation time: 00 hr 09 min 11 sec)
Heartbeat CPU 0 instructions: 98500470 cycles: 41806877 heartbeat IPC: 1.869 cumulative IPC: 1.661 (Simulation time: 00 hr 09 min 14 sec)
Heartbeat CPU 0 instructions: 99000476 cycles: 42079904 heartbeat IPC: 1.831 cumulative IPC: 1.663 (Simulation time: 00 hr 09 min 17 sec)
Heartbeat CPU 0 instructions: 99500476 cycles: 42349973 heartbeat IPC: 1.851 cumulative IPC: 1.665 (Simulation time: 00 hr 09 min 21 sec)
Heartbeat CPU 0 instructions: 100000476 cycles: 42622464 heartbeat IPC: 1.835 cumulative IPC: 1.666 (Simulation time: 00 hr 09 min 24 sec)
Heartbeat CPU 0 instructions: 100500480 cycles: 42906268 heartbeat IPC: 1.762 cumulative IPC: 1.667 (Simulation time: 00 hr 09 min 28 sec)
Heartbeat CPU 0 instructions: 101000484 cycles: 43192576 heartbeat IPC: 1.746 cumulative IPC: 1.668 (Simulation time: 00 hr 09 min 31 sec)
Heartbeat CPU 0 instructions: 101500490 cycles: 43474714 heartbeat IPC: 1.772 cumulative IPC: 1.669 (Simulation time: 00 hr 09 min 35 sec)
Heartbeat CPU 0 instructions: 102000490 cycles: 43754461 heartbeat IPC: 1.787 cumulative IPC: 1.67 (Simulation time: 00 hr 09 min 38 sec)
Heartbeat CPU 0 instructions: 102500496 cycles: 44032136 heartbeat IPC: 1.801 cumulative IPC: 1.671 (Simulation time: 00 hr 09 min 42 sec)
Heartbeat CPU 0 instructions: 103000502 cycles: 44308115 heartbeat IPC: 1.812 cumulative IPC: 1.672 (Simulation time: 00 hr 09 min 45 sec)
Heartbeat CPU 0 instructions: 103500508 cycles: 44584056 heartbeat IPC: 1.812 cumulative IPC: 1.673 (Simulation time: 00 hr 09 min 48 sec)
Heartbeat CPU 0 instructions: 104000514 cycles: 44858920 heartbeat IPC: 1.819 cumulative IPC: 1.675 (Simulation time: 00 hr 09 min 52 sec)
Heartbeat CPU 0 instructions: 104500520 cycles: 45132891 heartbeat IPC: 1.825 cumulative IPC: 1.676 (Simulation time: 00 hr 09 min 55 sec)
Heartbeat CPU 0 instructions: 105000526 cycles: 45406178 heartbeat IPC: 1.83 cumulative IPC: 1.677 (Simulation time: 00 hr 09 min 59 sec)
Heartbeat CPU 0 instructions: 105500532 cycles: 45681252 heartbeat IPC: 1.818 cumulative IPC: 1.678 (Simulation time: 00 hr 10 min 02 sec)
Heartbeat CPU 0 instructions: 106000538 cycles: 45956204 heartbeat IPC: 1.819 cumulative IPC: 1.679 (Simulation time: 00 hr 10 min 06 sec)
Heartbeat CPU 0 instructions: 106500545 cycles: 46233604 heartbeat IPC: 1.802 cumulative IPC: 1.68 (Simulation time: 00 hr 10 min 09 sec)
Heartbeat CPU 0 instructions: 107000545 cycles: 46508376 heartbeat IPC: 1.82 cumulative IPC: 1.682 (Simulation time: 00 hr 10 min 12 sec)
Heartbeat CPU 0 instructions: 107500551 cycles: 46781408 heartbeat IPC: 1.831 cumulative IPC: 1.683 (Simulation time: 00 hr 10 min 16 sec)
Heartbeat CPU 0 instructions: 108000557 cycles: 47054551 heartbeat IPC: 1.831 cumulative IPC: 1.684 (Simulation time: 00 hr 10 min 19 sec)
Heartbeat CPU 0 instructions: 108500563 cycles: 47330570 heartbeat IPC: 1.811 cumulative IPC: 1.685 (Simulation time: 00 hr 10 min 23 sec)
Heartbeat CPU 0 instructions: 109000569 cycles: 47600373 heartbeat IPC: 1.853 cumulative IPC: 1.686 (Simulation time: 00 hr 10 min 26 sec)
Heartbeat CPU 0 instructions: 109500575 cycles: 47875893 heartbeat IPC: 1.815 cumulative IPC: 1.687 (Simulation time: 00 hr 10 min 30 sec)
Heartbeat CPU 0 instructions: 110000581 cycles: 48152336 heartbeat IPC: 1.809 cumulative IPC: 1.688 (Simulation time: 00 hr 10 min 33 sec)
Heartbeat CPU 0 instructions: 110500587 cycles: 48423094 heartbeat IPC: 1.847 cumulative IPC: 1.689 (Simulation time: 00 hr 10 min 36 sec)
Heartbeat CPU 0 instructions: 111000593 cycles: 48697772 heartbeat IPC: 1.82 cumulative IPC: 1.69 (Simulation time: 00 hr 10 min 40 sec)
Heartbeat CPU 0 instructions: 111500599 cycles: 48970692 heartbeat IPC: 1.832 cumulative IPC: 1.692 (Simulation time: 00 hr 10 min 43 sec)
Heartbeat CPU 0 instructions: 112000605 cycles: 49242736 heartbeat IPC: 1.838 cumulative IPC: 1.693 (Simulation time: 00 hr 10 min 47 sec)
Heartbeat CPU 0 instructions: 112500611 cycles: 49514783 heartbeat IPC: 1.838 cumulative IPC: 1.694 (Simulation time: 00 hr 10 min 50 sec)
Heartbeat CPU 0 instructions: 113000616 cycles: 49787232 heartbeat IPC: 1.835 cumulative IPC: 1.695 (Simulation time: 00 hr 10 min 53 sec)
Heartbeat CPU 0 instructions: 113500616 cycles: 50060155 heartbeat IPC: 1.832 cumulative IPC: 1.696 (Simulation time: 00 hr 10 min 57 sec)
Heartbeat CPU 0 instructions: 114000617 cycles: 50336542 heartbeat IPC: 1.809 cumulative IPC: 1.697 (Simulation time: 00 hr 11 min 00 sec)
Heartbeat CPU 0 instructions: 114500624 cycles: 50607440 heartbeat IPC: 1.846 cumulative IPC: 1.698 (Simulation time: 00 hr 11 min 04 sec)
Heartbeat CPU 0 instructions: 115000629 cycles: 50883318 heartbeat IPC: 1.812 cumulative IPC: 1.698 (Simulation time: 00 hr 11 min 07 sec)
Heartbeat CPU 0 instructions: 115500632 cycles: 51154628 heartbeat IPC: 1.843 cumulative IPC: 1.699 (Simulation time: 00 hr 11 min 11 sec)
Heartbeat CPU 0 instructions: 116000634 cycles: 51427294 heartbeat IPC: 1.834 cumulative IPC: 1.7 (Simulation time: 00 hr 11 min 14 sec)
Heartbeat CPU 0 instructions: 116500640 cycles: 51702811 heartbeat IPC: 1.815 cumulative IPC: 1.701 (Simulation time: 00 hr 11 min 17 sec)
Heartbeat CPU 0 instructions: 117000646 cycles: 51977844 heartbeat IPC: 1.818 cumulative IPC: 1.702 (Simulation time: 00 hr 11 min 21 sec)
Heartbeat CPU 0 instructions: 117500652 cycles: 52247171 heartbeat IPC: 1.857 cumulative IPC: 1.703 (Simulation time: 00 hr 11 min 24 sec)
Heartbeat CPU 0 instructions: 118000658 cycles: 52519496 heartbeat IPC: 1.836 cumulative IPC: 1.704 (Simulation time: 00 hr 11 min 28 sec)
Heartbeat CPU 0 instructions: 118500664 cycles: 52793316 heartbeat IPC: 1.826 cumulative IPC: 1.705 (Simulation time: 00 hr 11 min 31 sec)
Heartbeat CPU 0 instructions: 119000670 cycles: 53068726 heartbeat IPC: 1.815 cumulative IPC: 1.706 (Simulation time: 00 hr 11 min 35 sec)
Heartbeat CPU 0 instructions: 119500676 cycles: 53344893 heartbeat IPC: 1.811 cumulative IPC: 1.706 (Simulation time: 00 hr 11 min 38 sec)
Heartbeat CPU 0 instructions: 120000677 cycles: 53618250 heartbeat IPC: 1.829 cumulative IPC: 1.707 (Simulation time: 00 hr 11 min 41 sec)
Heartbeat CPU 0 instructions: 120500683 cycles: 53896688 heartbeat IPC: 1.796 cumulative IPC: 1.708 (Simulation time: 00 hr 11 min 45 sec)
Heartbeat CPU 0 instructions: 121000689 cycles: 54170798 heartbeat IPC: 1.824 cumulative IPC: 1.708 (Simulation time: 00 hr 11 min 48 sec)
Heartbeat CPU 0 instructions: 121500695 cycles: 54443571 heartbeat IPC: 1.833 cumulative IPC: 1.709 (Simulation time: 00 hr 11 min 52 sec)
Heartbeat CPU 0 instructions: 122000701 cycles: 54715050 heartbeat IPC: 1.842 cumulative IPC: 1.71 (Simulation time: 00 hr 11 min 55 sec)
Heartbeat CPU 0 instructions: 122500707 cycles: 54990487 heartbeat IPC: 1.815 cumulative IPC: 1.711 (Simulation time: 00 hr 11 min 59 sec)
Heartbeat CPU 0 instructions: 123000713 cycles: 55262779 heartbeat IPC: 1.836 cumulative IPC: 1.712 (Simulation time: 00 hr 12 min 02 sec)
Heartbeat CPU 0 instructions: 123500719 cycles: 55537327 heartbeat IPC: 1.821 cumulative IPC: 1.712 (Simulation time: 00 hr 12 min 05 sec)
Heartbeat CPU 0 instructions: 124000725 cycles: 55809167 heartbeat IPC: 1.839 cumulative IPC: 1.713 (Simulation time: 00 hr 12 min 09 sec)
Heartbeat CPU 0 instructions: 124500731 cycles: 56080834 heartbeat IPC: 1.841 cumulative IPC: 1.714 (Simulation time: 00 hr 12 min 12 sec)
Heartbeat CPU 0 instructions: 125000737 cycles: 56353738 heartbeat IPC: 1.832 cumulative IPC: 1.715 (Simulation time: 00 hr 12 min 16 sec)
Heartbeat CPU 0 instructions: 125500743 cycles: 56629986 heartbeat IPC: 1.81 cumulative IPC: 1.715 (Simulation time: 00 hr 12 min 19 sec)
Heartbeat CPU 0 instructions: 126000749 cycles: 56904808 heartbeat IPC: 1.819 cumulative IPC: 1.716 (Simulation time: 00 hr 12 min 23 sec)
Heartbeat CPU 0 instructions: 126500750 cycles: 57178201 heartbeat IPC: 1.829 cumulative IPC: 1.717 (Simulation time: 00 hr 12 min 26 sec)
Heartbeat CPU 0 instructions: 127000750 cycles: 57452454 heartbeat IPC: 1.823 cumulative IPC: 1.717 (Simulation time: 00 hr 12 min 29 sec)
Heartbeat CPU 0 instructions: 127500755 cycles: 57729450 heartbeat IPC: 1.805 cumulative IPC: 1.718 (Simulation time: 00 hr 12 min 33 sec)
Heartbeat CPU 0 instructions: 128000761 cycles: 58005786 heartbeat IPC: 1.809 cumulative IPC: 1.718 (Simulation time: 00 hr 12 min 36 sec)
Heartbeat CPU 0 instructions: 128500767 cycles: 58278596 heartbeat IPC: 1.833 cumulative IPC: 1.719 (Simulation time: 00 hr 12 min 40 sec)
Heartbeat CPU 0 instructions: 129000773 cycles: 58549116 heartbeat IPC: 1.848 cumulative IPC: 1.72 (Simulation time: 00 hr 12 min 43 sec)
Heartbeat CPU 0 instructions: 129500779 cycles: 58822581 heartbeat IPC: 1.828 cumulative IPC: 1.72 (Simulation time: 00 hr 12 min 46 sec)
Heartbeat CPU 0 instructions: 130000785 cycles: 59098926 heartbeat IPC: 1.809 cumulative IPC: 1.721 (Simulation time: 00 hr 12 min 50 sec)
Heartbeat CPU 0 instructions: 130500791 cycles: 59376082 heartbeat IPC: 1.804 cumulative IPC: 1.721 (Simulation time: 00 hr 12 min 53 sec)
Heartbeat CPU 0 instructions: 131000795 cycles: 59654684 heartbeat IPC: 1.795 cumulative IPC: 1.722 (Simulation time: 00 hr 12 min 57 sec)
Heartbeat CPU 0 instructions: 131500801 cycles: 59928365 heartbeat IPC: 1.827 cumulative IPC: 1.722 (Simulation time: 00 hr 13 min 00 sec)
Heartbeat CPU 0 instructions: 132000801 cycles: 60200701 heartbeat IPC: 1.836 cumulative IPC: 1.723 (Simulation time: 00 hr 13 min 04 sec)
Heartbeat CPU 0 instructions: 132500802 cycles: 60481467 heartbeat IPC: 1.781 cumulative IPC: 1.723 (Simulation time: 00 hr 13 min 07 sec)
Heartbeat CPU 0 instructions: 133000803 cycles: 60751827 heartbeat IPC: 1.849 cumulative IPC: 1.724 (Simulation time: 00 hr 13 min 11 sec)
Heartbeat CPU 0 instructions: 133500804 cycles: 61019497 heartbeat IPC: 1.868 cumulative IPC: 1.725 (Simulation time: 00 hr 13 min 14 sec)
Heartbeat CPU 0 instructions: 134000804 cycles: 61287299 heartbeat IPC: 1.867 cumulative IPC: 1.726 (Simulation time: 00 hr 13 min 17 sec)
Heartbeat CPU 0 instructions: 134500809 cycles: 61561635 heartbeat IPC: 1.823 cumulative IPC: 1.726 (Simulation time: 00 hr 13 min 21 sec)
Heartbeat CPU 0 instructions: 135000814 cycles: 61831663 heartbeat IPC: 1.852 cumulative IPC: 1.727 (Simulation time: 00 hr 13 min 24 sec)
Heartbeat CPU 0 instructions: 135500814 cycles: 62113541 heartbeat IPC: 1.774 cumulative IPC: 1.727 (Simulation time: 00 hr 13 min 28 sec)
Heartbeat CPU 0 instructions: 136000818 cycles: 62400253 heartbeat IPC: 1.744 cumulative IPC: 1.727 (Simulation time: 00 hr 13 min 31 sec)
Heartbeat CPU 0 instructions: 136500825 cycles: 62691398 heartbeat IPC: 1.717 cumulative IPC: 1.727 (Simulation time: 00 hr 13 min 35 sec)
Heartbeat CPU 0 instructions: 137000832 cycles: 62971609 heartbeat IPC: 1.784 cumulative IPC: 1.728 (Simulation time: 00 hr 13 min 39 sec)
Heartbeat CPU 0 instructions: 137500833 cycles: 63243714 heartbeat IPC: 1.838 cumulative IPC: 1.728 (Simulation time: 00 hr 13 min 42 sec)
Heartbeat CPU 0 instructions: 138000835 cycles: 63523422 heartbeat IPC: 1.788 cumulative IPC: 1.729 (Simulation time: 00 hr 13 min 45 sec)
Heartbeat CPU 0 instructions: 138500841 cycles: 63781964 heartbeat IPC: 1.934 cumulative IPC: 1.73 (Simulation time: 00 hr 13 min 48 sec)
Heartbeat CPU 0 instructions: 139000846 cycles: 64051943 heartbeat IPC: 1.852 cumulative IPC: 1.73 (Simulation time: 00 hr 13 min 52 sec)
Heartbeat CPU 0 instructions: 139500851 cycles: 64320835 heartbeat IPC: 1.86 cumulative IPC: 1.731 (Simulation time: 00 hr 13 min 55 sec)
Heartbeat CPU 0 instructions: 140000851 cycles: 64592860 heartbeat IPC: 1.838 cumulative IPC: 1.731 (Simulation time: 00 hr 13 min 59 sec)
Heartbeat CPU 0 instructions: 140500856 cycles: 64863993 heartbeat IPC: 1.844 cumulative IPC: 1.732 (Simulation time: 00 hr 14 min 02 sec)
Heartbeat CPU 0 instructions: 141000858 cycles: 65150189 heartbeat IPC: 1.747 cumulative IPC: 1.732 (Simulation time: 00 hr 14 min 06 sec)
Heartbeat CPU 0 instructions: 141500858 cycles: 65425574 heartbeat IPC: 1.816 cumulative IPC: 1.733 (Simulation time: 00 hr 14 min 09 sec)
Heartbeat CPU 0 instructions: 142000859 cycles: 65715580 heartbeat IPC: 1.724 cumulative IPC: 1.732 (Simulation time: 00 hr 14 min 13 sec)
Heartbeat CPU 0 instructions: 142500859 cycles: 66002273 heartbeat IPC: 1.744 cumulative IPC: 1.733 (Simulation time: 00 hr 14 min 17 sec)
Heartbeat CPU 0 instructions: 143000862 cycles: 66276391 heartbeat IPC: 1.824 cumulative IPC: 1.733 (Simulation time: 00 hr 14 min 20 sec)
Heartbeat CPU 0 instructions: 143500863 cycles: 66547402 heartbeat IPC: 1.845 cumulative IPC: 1.734 (Simulation time: 00 hr 14 min 23 sec)
Heartbeat CPU 0 instructions: 144000864 cycles: 66825072 heartbeat IPC: 1.801 cumulative IPC: 1.734 (Simulation time: 00 hr 14 min 27 sec)
Heartbeat CPU 0 instructions: 144500871 cycles: 67100874 heartbeat IPC: 1.813 cumulative IPC: 1.734 (Simulation time: 00 hr 14 min 30 sec)
Heartbeat CPU 0 instructions: 145000872 cycles: 67372128 heartbeat IPC: 1.843 cumulative IPC: 1.735 (Simulation time: 00 hr 14 min 33 sec)
Heartbeat CPU 0 instructions: 145500872 cycles: 67644361 heartbeat IPC: 1.837 cumulative IPC: 1.735 (Simulation time: 00 hr 14 min 37 sec)
Heartbeat CPU 0 instructions: 146000877 cycles: 67918248 heartbeat IPC: 1.826 cumulative IPC: 1.736 (Simulation time: 00 hr 14 min 40 sec)
Heartbeat CPU 0 instructions: 146500879 cycles: 68191487 heartbeat IPC: 1.83 cumulative IPC: 1.736 (Simulation time: 00 hr 14 min 44 sec)
Heartbeat CPU 0 instructions: 147000884 cycles: 68483696 heartbeat IPC: 1.711 cumulative IPC: 1.736 (Simulation time: 00 hr 14 min 48 sec)
Heartbeat CPU 0 instructions: 147500885 cycles: 68773452 heartbeat IPC: 1.726 cumulative IPC: 1.736 (Simulation time: 00 hr 14 min 51 sec)
Heartbeat CPU 0 instructions: 148000891 cycles: 69063439 heartbeat IPC: 1.724 cumulative IPC: 1.736 (Simulation time: 00 hr 14 min 55 sec)
Heartbeat CPU 0 instructions: 148500893 cycles: 69335893 heartbeat IPC: 1.835 cumulative IPC: 1.737 (Simulation time: 00 hr 14 min 58 sec)
Heartbeat CPU 0 instructions: 149000894 cycles: 69607599 heartbeat IPC: 1.84 cumulative IPC: 1.737 (Simulation time: 00 hr 15 min 02 sec)
Heartbeat CPU 0 instructions: 149500898 cycles: 69883164 heartbeat IPC: 1.814 cumulative IPC: 1.737 (Simulation time: 00 hr 15 min 05 sec)
Heartbeat CPU 0 instructions: 150000902 cycles: 70153602 heartbeat IPC: 1.849 cumulative IPC: 1.738 (Simulation time: 00 hr 15 min 08 sec)
Heartbeat CPU 0 instructions: 150500909 cycles: 70422061 heartbeat IPC: 1.863 cumulative IPC: 1.738 (Simulation time: 00 hr 15 min 12 sec)
Heartbeat CPU 0 instructions: 151000912 cycles: 70691196 heartbeat IPC: 1.858 cumulative IPC: 1.739 (Simulation time: 00 hr 15 min 15 sec)
Heartbeat CPU 0 instructions: 151500912 cycles: 70966584 heartbeat IPC: 1.816 cumulative IPC: 1.739 (Simulation time: 00 hr 15 min 18 sec)
Heartbeat CPU 0 instructions: 152000914 cycles: 71238613 heartbeat IPC: 1.838 cumulative IPC: 1.74 (Simulation time: 00 hr 15 min 22 sec)
Heartbeat CPU 0 instructions: 152500917 cycles: 71523936 heartbeat IPC: 1.752 cumulative IPC: 1.74 (Simulation time: 00 hr 15 min 25 sec)
Heartbeat CPU 0 instructions: 153000918 cycles: 71800322 heartbeat IPC: 1.809 cumulative IPC: 1.74 (Simulation time: 00 hr 15 min 29 sec)
Heartbeat CPU 0 instructions: 153500922 cycles: 72090538 heartbeat IPC: 1.723 cumulative IPC: 1.74 (Simulation time: 00 hr 15 min 33 sec)
Heartbeat CPU 0 instructions: 154000925 cycles: 72374239 heartbeat IPC: 1.762 cumulative IPC: 1.74 (Simulation time: 00 hr 15 min 36 sec)
Heartbeat CPU 0 instructions: 154500926 cycles: 72650499 heartbeat IPC: 1.81 cumulative IPC: 1.741 (Simulation time: 00 hr 15 min 39 sec)
Heartbeat CPU 0 instructions: 155000932 cycles: 72931371 heartbeat IPC: 1.78 cumulative IPC: 1.741 (Simulation time: 00 hr 15 min 43 sec)
Heartbeat CPU 0 instructions: 155500934 cycles: 73234145 heartbeat IPC: 1.651 cumulative IPC: 1.74 (Simulation time: 00 hr 15 min 46 sec)
Heartbeat CPU 0 instructions: 156000939 cycles: 73518756 heartbeat IPC: 1.757 cumulative IPC: 1.74 (Simulation time: 00 hr 15 min 50 sec)
Heartbeat CPU 0 instructions: 156500939 cycles: 73791292 heartbeat IPC: 1.835 cumulative IPC: 1.741 (Simulation time: 00 hr 15 min 53 sec)
Heartbeat CPU 0 instructions: 157000940 cycles: 74059049 heartbeat IPC: 1.867 cumulative IPC: 1.741 (Simulation time: 00 hr 15 min 56 sec)
Heartbeat CPU 0 instructions: 157500945 cycles: 74331669 heartbeat IPC: 1.834 cumulative IPC: 1.742 (Simulation time: 00 hr 16 min 00 sec)
Heartbeat CPU 0 instructions: 158000950 cycles: 74604244 heartbeat IPC: 1.834 cumulative IPC: 1.742 (Simulation time: 00 hr 16 min 03 sec)
Heartbeat CPU 0 instructions: 158500951 cycles: 74893777 heartbeat IPC: 1.727 cumulative IPC: 1.742 (Simulation time: 00 hr 16 min 07 sec)
Heartbeat CPU 0 instructions: 159000955 cycles: 75184014 heartbeat IPC: 1.723 cumulative IPC: 1.742 (Simulation time: 00 hr 16 min 11 sec)
Heartbeat CPU 0 instructions: 159500961 cycles: 75474062 heartbeat IPC: 1.724 cumulative IPC: 1.742 (Simulation time: 00 hr 16 min 14 sec)
Heartbeat CPU 0 instructions: 160000961 cycles: 75751197 heartbeat IPC: 1.804 cumulative IPC: 1.742 (Simulation time: 00 hr 16 min 18 sec)
Heartbeat CPU 0 instructions: 160500963 cycles: 76023524 heartbeat IPC: 1.836 cumulative IPC: 1.743 (Simulation time: 00 hr 16 min 21 sec)
Heartbeat CPU 0 instructions: 161000968 cycles: 76297607 heartbeat IPC: 1.824 cumulative IPC: 1.743 (Simulation time: 00 hr 16 min 25 sec)
Heartbeat CPU 0 instructions: 161500974 cycles: 76568846 heartbeat IPC: 1.843 cumulative IPC: 1.743 (Simulation time: 00 hr 16 min 28 sec)
Heartbeat CPU 0 instructions: 162000978 cycles: 76832801 heartbeat IPC: 1.894 cumulative IPC: 1.744 (Simulation time: 00 hr 16 min 31 sec)
Heartbeat CPU 0 instructions: 162500978 cycles: 77098336 heartbeat IPC: 1.883 cumulative IPC: 1.745 (Simulation time: 00 hr 16 min 35 sec)
Heartbeat CPU 0 instructions: 163000980 cycles: 77369093 heartbeat IPC: 1.847 cumulative IPC: 1.745 (Simulation time: 00 hr 16 min 38 sec)
Heartbeat CPU 0 instructions: 163500985 cycles: 77640030 heartbeat IPC: 1.845 cumulative IPC: 1.745 (Simulation time: 00 hr 16 min 42 sec)
Heartbeat CPU 0 instructions: 164000991 cycles: 77924282 heartbeat IPC: 1.759 cumulative IPC: 1.745 (Simulation time: 00 hr 16 min 45 sec)
Heartbeat CPU 0 instructions: 164500995 cycles: 78211147 heartbeat IPC: 1.743 cumulative IPC: 1.745 (Simulation time: 00 hr 16 min 49 sec)
Heartbeat CPU 0 instructions: 165000996 cycles: 78503534 heartbeat IPC: 1.71 cumulative IPC: 1.745 (Simulation time: 00 hr 16 min 53 sec)
Heartbeat CPU 0 instructions: 165500997 cycles: 78775948 heartbeat IPC: 1.835 cumulative IPC: 1.746 (Simulation time: 00 hr 16 min 56 sec)
Heartbeat CPU 0 instructions: 166000997 cycles: 79042102 heartbeat IPC: 1.879 cumulative IPC: 1.746 (Simulation time: 00 hr 16 min 59 sec)
Heartbeat CPU 0 instructions: 166501003 cycles: 79312190 heartbeat IPC: 1.851 cumulative IPC: 1.747 (Simulation time: 00 hr 17 min 03 sec)
Heartbeat CPU 0 instructions: 167001004 cycles: 79592814 heartbeat IPC: 1.782 cumulative IPC: 1.747 (Simulation time: 00 hr 17 min 06 sec)
Heartbeat CPU 0 instructions: 167501007 cycles: 79863704 heartbeat IPC: 1.846 cumulative IPC: 1.747 (Simulation time: 00 hr 17 min 09 sec)
Heartbeat CPU 0 instructions: 168001008 cycles: 80131932 heartbeat IPC: 1.864 cumulative IPC: 1.748 (Simulation time: 00 hr 17 min 13 sec)
Heartbeat CPU 0 instructions: 168501008 cycles: 80398095 heartbeat IPC: 1.879 cumulative IPC: 1.748 (Simulation time: 00 hr 17 min 16 sec)
Heartbeat CPU 0 instructions: 169001010 cycles: 80671331 heartbeat IPC: 1.83 cumulative IPC: 1.748 (Simulation time: 00 hr 17 min 19 sec)
Heartbeat CPU 0 instructions: 169501011 cycles: 80940186 heartbeat IPC: 1.86 cumulative IPC: 1.749 (Simulation time: 00 hr 17 min 23 sec)
Heartbeat CPU 0 instructions: 170001011 cycles: 81226163 heartbeat IPC: 1.748 cumulative IPC: 1.749 (Simulation time: 00 hr 17 min 27 sec)
Heartbeat CPU 0 instructions: 170501015 cycles: 81514111 heartbeat IPC: 1.736 cumulative IPC: 1.749 (Simulation time: 00 hr 17 min 30 sec)
Heartbeat CPU 0 instructions: 171001017 cycles: 81803879 heartbeat IPC: 1.726 cumulative IPC: 1.749 (Simulation time: 00 hr 17 min 34 sec)
Heartbeat CPU 0 instructions: 171501022 cycles: 82079173 heartbeat IPC: 1.816 cumulative IPC: 1.749 (Simulation time: 00 hr 17 min 37 sec)
Heartbeat CPU 0 instructions: 172001024 cycles: 82352201 heartbeat IPC: 1.831 cumulative IPC: 1.749 (Simulation time: 00 hr 17 min 41 sec)
Heartbeat CPU 0 instructions: 172501030 cycles: 82628966 heartbeat IPC: 1.807 cumulative IPC: 1.75 (Simulation time: 00 hr 17 min 44 sec)
Heartbeat CPU 0 instructions: 173001035 cycles: 82899501 heartbeat IPC: 1.848 cumulative IPC: 1.75 (Simulation time: 00 hr 17 min 47 sec)
Heartbeat CPU 0 instructions: 173501039 cycles: 83169326 heartbeat IPC: 1.853 cumulative IPC: 1.75 (Simulation time: 00 hr 17 min 51 sec)
Heartbeat CPU 0 instructions: 174001046 cycles: 83440291 heartbeat IPC: 1.845 cumulative IPC: 1.751 (Simulation time: 00 hr 17 min 54 sec)
Heartbeat CPU 0 instructions: 174501048 cycles: 83711889 heartbeat IPC: 1.841 cumulative IPC: 1.751 (Simulation time: 00 hr 17 min 58 sec)
Heartbeat CPU 0 instructions: 175001053 cycles: 83986401 heartbeat IPC: 1.821 cumulative IPC: 1.751 (Simulation time: 00 hr 18 min 01 sec)
Heartbeat CPU 0 instructions: 175501058 cycles: 84273195 heartbeat IPC: 1.743 cumulative IPC: 1.751 (Simulation time: 00 hr 18 min 05 sec)
Heartbeat CPU 0 instructions: 176001062 cycles: 84545079 heartbeat IPC: 1.839 cumulative IPC: 1.752 (Simulation time: 00 hr 18 min 08 sec)
Heartbeat CPU 0 instructions: 176501062 cycles: 84819762 heartbeat IPC: 1.82 cumulative IPC: 1.752 (Simulation time: 00 hr 18 min 12 sec)
Heartbeat CPU 0 instructions: 177001064 cycles: 85091854 heartbeat IPC: 1.838 cumulative IPC: 1.752 (Simulation time: 00 hr 18 min 15 sec)
Heartbeat CPU 0 instructions: 177501066 cycles: 85361549 heartbeat IPC: 1.854 cumulative IPC: 1.753 (Simulation time: 00 hr 18 min 18 sec)
Heartbeat CPU 0 instructions: 178001072 cycles: 85635070 heartbeat IPC: 1.828 cumulative IPC: 1.753 (Simulation time: 00 hr 18 min 22 sec)
Heartbeat CPU 0 instructions: 178501078 cycles: 85908561 heartbeat IPC: 1.828 cumulative IPC: 1.753 (Simulation time: 00 hr 18 min 25 sec)
Heartbeat CPU 0 instructions: 179001084 cycles: 86180219 heartbeat IPC: 1.841 cumulative IPC: 1.753 (Simulation time: 00 hr 18 min 28 sec)
Heartbeat CPU 0 instructions: 179501090 cycles: 86451614 heartbeat IPC: 1.842 cumulative IPC: 1.754 (Simulation time: 00 hr 18 min 32 sec)
Heartbeat CPU 0 instructions: 180001096 cycles: 86726454 heartbeat IPC: 1.819 cumulative IPC: 1.754 (Simulation time: 00 hr 18 min 35 sec)
Heartbeat CPU 0 instructions: 180501102 cycles: 87001460 heartbeat IPC: 1.818 cumulative IPC: 1.754 (Simulation time: 00 hr 18 min 39 sec)
Heartbeat CPU 0 instructions: 181001103 cycles: 87277113 heartbeat IPC: 1.814 cumulative IPC: 1.755 (Simulation time: 00 hr 18 min 42 sec)
Heartbeat CPU 0 instructions: 181501109 cycles: 87552459 heartbeat IPC: 1.816 cumulative IPC: 1.755 (Simulation time: 00 hr 18 min 45 sec)
Heartbeat CPU 0 instructions: 182001115 cycles: 87825356 heartbeat IPC: 1.832 cumulative IPC: 1.755 (Simulation time: 00 hr 18 min 49 sec)
Heartbeat CPU 0 instructions: 182501121 cycles: 88098894 heartbeat IPC: 1.828 cumulative IPC: 1.755 (Simulation time: 00 hr 18 min 52 sec)
Heartbeat CPU 0 instructions: 183001127 cycles: 88372033 heartbeat IPC: 1.831 cumulative IPC: 1.756 (Simulation time: 00 hr 18 min 56 sec)
Heartbeat CPU 0 instructions: 183501133 cycles: 88647665 heartbeat IPC: 1.814 cumulative IPC: 1.756 (Simulation time: 00 hr 18 min 59 sec)
Heartbeat CPU 0 instructions: 184001139 cycles: 88928579 heartbeat IPC: 1.78 cumulative IPC: 1.756 (Simulation time: 00 hr 19 min 02 sec)
Heartbeat CPU 0 instructions: 184501145 cycles: 89208696 heartbeat IPC: 1.785 cumulative IPC: 1.756 (Simulation time: 00 hr 19 min 06 sec)
Heartbeat CPU 0 instructions: 185001151 cycles: 89486458 heartbeat IPC: 1.8 cumulative IPC: 1.756 (Simulation time: 00 hr 19 min 09 sec)
Heartbeat CPU 0 instructions: 185501157 cycles: 89762442 heartbeat IPC: 1.812 cumulative IPC: 1.756 (Simulation time: 00 hr 19 min 13 sec)
Heartbeat CPU 0 instructions: 186001163 cycles: 90032332 heartbeat IPC: 1.853 cumulative IPC: 1.757 (Simulation time: 00 hr 19 min 16 sec)
Heartbeat CPU 0 instructions: 186501169 cycles: 90307089 heartbeat IPC: 1.82 cumulative IPC: 1.757 (Simulation time: 00 hr 19 min 20 sec)
Heartbeat CPU 0 instructions: 187001175 cycles: 90579751 heartbeat IPC: 1.834 cumulative IPC: 1.757 (Simulation time: 00 hr 19 min 23 sec)
Heartbeat CPU 0 instructions: 187501182 cycles: 90857659 heartbeat IPC: 1.799 cumulative IPC: 1.757 (Simulation time: 00 hr 19 min 26 sec)
Heartbeat CPU 0 instructions: 188001182 cycles: 91133189 heartbeat IPC: 1.815 cumulative IPC: 1.758 (Simulation time: 00 hr 19 min 30 sec)
Heartbeat CPU 0 instructions: 188501188 cycles: 91409040 heartbeat IPC: 1.813 cumulative IPC: 1.758 (Simulation time: 00 hr 19 min 33 sec)
Heartbeat CPU 0 instructions: 189001194 cycles: 91683314 heartbeat IPC: 1.823 cumulative IPC: 1.758 (Simulation time: 00 hr 19 min 37 sec)
Heartbeat CPU 0 instructions: 189501200 cycles: 91959101 heartbeat IPC: 1.813 cumulative IPC: 1.758 (Simulation time: 00 hr 19 min 40 sec)
Heartbeat CPU 0 instructions: 190001206 cycles: 92232659 heartbeat IPC: 1.828 cumulative IPC: 1.758 (Simulation time: 00 hr 19 min 43 sec)
Heartbeat CPU 0 instructions: 190501212 cycles: 92507967 heartbeat IPC: 1.816 cumulative IPC: 1.759 (Simulation time: 00 hr 19 min 47 sec)
Heartbeat CPU 0 instructions: 191001218 cycles: 92780332 heartbeat IPC: 1.836 cumulative IPC: 1.759 (Simulation time: 00 hr 19 min 50 sec)
Heartbeat CPU 0 instructions: 191501224 cycles: 93055178 heartbeat IPC: 1.819 cumulative IPC: 1.759 (Simulation time: 00 hr 19 min 54 sec)
Heartbeat CPU 0 instructions: 192001230 cycles: 93327783 heartbeat IPC: 1.834 cumulative IPC: 1.759 (Simulation time: 00 hr 19 min 57 sec)
Heartbeat CPU 0 instructions: 192501236 cycles: 93605378 heartbeat IPC: 1.801 cumulative IPC: 1.759 (Simulation time: 00 hr 20 min 01 sec)
Heartbeat CPU 0 instructions: 193001242 cycles: 93880255 heartbeat IPC: 1.819 cumulative IPC: 1.76 (Simulation time: 00 hr 20 min 04 sec)
Heartbeat CPU 0 instructions: 193501248 cycles: 94152793 heartbeat IPC: 1.835 cumulative IPC: 1.76 (Simulation time: 00 hr 20 min 07 sec)
Heartbeat CPU 0 instructions: 194001253 cycles: 94425488 heartbeat IPC: 1.834 cumulative IPC: 1.76 (Simulation time: 00 hr 20 min 11 sec)
Heartbeat CPU 0 instructions: 194501253 cycles: 94697198 heartbeat IPC: 1.84 cumulative IPC: 1.76 (Simulation time: 00 hr 20 min 14 sec)
Heartbeat CPU 0 instructions: 195001254 cycles: 94972947 heartbeat IPC: 1.813 cumulative IPC: 1.761 (Simulation time: 00 hr 20 min 17 sec)
Heartbeat CPU 0 instructions: 195501257 cycles: 95245179 heartbeat IPC: 1.837 cumulative IPC: 1.761 (Simulation time: 00 hr 20 min 21 sec)
Heartbeat CPU 0 instructions: 196001259 cycles: 95518678 heartbeat IPC: 1.828 cumulative IPC: 1.761 (Simulation time: 00 hr 20 min 24 sec)
Heartbeat CPU 0 instructions: 196501265 cycles: 95795538 heartbeat IPC: 1.806 cumulative IPC: 1.761 (Simulation time: 00 hr 20 min 28 sec)
Heartbeat CPU 0 instructions: 197001271 cycles: 96073432 heartbeat IPC: 1.799 cumulative IPC: 1.761 (Simulation time: 00 hr 20 min 31 sec)
Heartbeat CPU 0 instructions: 197501277 cycles: 96344810 heartbeat IPC: 1.842 cumulative IPC: 1.762 (Simulation time: 00 hr 20 min 34 sec)
Heartbeat CPU 0 instructions: 198001283 cycles: 96624117 heartbeat IPC: 1.79 cumulative IPC: 1.762 (Simulation time: 00 hr 20 min 38 sec)
Heartbeat CPU 0 instructions: 198501289 cycles: 96899682 heartbeat IPC: 1.814 cumulative IPC: 1.762 (Simulation time: 00 hr 20 min 41 sec)
Heartbeat CPU 0 instructions: 199001295 cycles: 97172775 heartbeat IPC: 1.831 cumulative IPC: 1.762 (Simulation time: 00 hr 20 min 45 sec)
Heartbeat CPU 0 instructions: 199501301 cycles: 97444313 heartbeat IPC: 1.841 cumulative IPC: 1.762 (Simulation time: 00 hr 20 min 48 sec)
Heartbeat CPU 0 instructions: 200001307 cycles: 97717676 heartbeat IPC: 1.829 cumulative IPC: 1.763 (Simulation time: 00 hr 20 min 51 sec)
Heartbeat CPU 0 instructions: 200501313 cycles: 97993032 heartbeat IPC: 1.816 cumulative IPC: 1.763 (Simulation time: 00 hr 20 min 55 sec)
Heartbeat CPU 0 instructions: 201001316 cycles: 98268687 heartbeat IPC: 1.814 cumulative IPC: 1.763 (Simulation time: 00 hr 20 min 58 sec)
Heartbeat CPU 0 instructions: 201501320 cycles: 98543889 heartbeat IPC: 1.817 cumulative IPC: 1.763 (Simulation time: 00 hr 21 min 01 sec)
Heartbeat CPU 0 instructions: 202001326 cycles: 98816810 heartbeat IPC: 1.832 cumulative IPC: 1.763 (Simulation time: 00 hr 21 min 05 sec)
Heartbeat CPU 0 instructions: 202501332 cycles: 99086729 heartbeat IPC: 1.852 cumulative IPC: 1.764 (Simulation time: 00 hr 21 min 08 sec)
Heartbeat CPU 0 instructions: 203001338 cycles: 99359918 heartbeat IPC: 1.83 cumulative IPC: 1.764 (Simulation time: 00 hr 21 min 12 sec)
Heartbeat CPU 0 instructions: 203501344 cycles: 99637693 heartbeat IPC: 1.8 cumulative IPC: 1.764 (Simulation time: 00 hr 21 min 15 sec)
Heartbeat CPU 0 instructions: 204001350 cycles: 99909883 heartbeat IPC: 1.837 cumulative IPC: 1.764 (Simulation time: 00 hr 21 min 18 sec)
Heartbeat CPU 0 instructions: 204501356 cycles: 100182424 heartbeat IPC: 1.835 cumulative IPC: 1.764 (Simulation time: 00 hr 21 min 22 sec)
Heartbeat CPU 0 instructions: 205001362 cycles: 100452354 heartbeat IPC: 1.852 cumulative IPC: 1.765 (Simulation time: 00 hr 21 min 25 sec)
Heartbeat CPU 0 instructions: 205501368 cycles: 100728548 heartbeat IPC: 1.81 cumulative IPC: 1.765 (Simulation time: 00 hr 21 min 28 sec)
Heartbeat CPU 0 instructions: 206001374 cycles: 101003764 heartbeat IPC: 1.817 cumulative IPC: 1.765 (Simulation time: 00 hr 21 min 32 sec)
Heartbeat CPU 0 instructions: 206501376 cycles: 101283249 heartbeat IPC: 1.789 cumulative IPC: 1.765 (Simulation time: 00 hr 21 min 35 sec)
Heartbeat CPU 0 instructions: 207001376 cycles: 101551724 heartbeat IPC: 1.862 cumulative IPC: 1.765 (Simulation time: 00 hr 21 min 38 sec)
Heartbeat CPU 0 instructions: 207501378 cycles: 101821243 heartbeat IPC: 1.855 cumulative IPC: 1.766 (Simulation time: 00 hr 21 min 42 sec)
Heartbeat CPU 0 instructions: 208001380 cycles: 102101188 heartbeat IPC: 1.786 cumulative IPC: 1.766 (Simulation time: 00 hr 21 min 45 sec)
Heartbeat CPU 0 instructions: 208501382 cycles: 102370475 heartbeat IPC: 1.857 cumulative IPC: 1.766 (Simulation time: 00 hr 21 min 48 sec)
Heartbeat CPU 0 instructions: 209001383 cycles: 102641632 heartbeat IPC: 1.844 cumulative IPC: 1.766 (Simulation time: 00 hr 21 min 52 sec)
Heartbeat CPU 0 instructions: 209501383 cycles: 102919878 heartbeat IPC: 1.797 cumulative IPC: 1.766 (Simulation time: 00 hr 21 min 55 sec)
Heartbeat CPU 0 instructions: 210001388 cycles: 103196617 heartbeat IPC: 1.807 cumulative IPC: 1.766 (Simulation time: 00 hr 21 min 58 sec)
Heartbeat CPU 0 instructions: 210501393 cycles: 103470406 heartbeat IPC: 1.826 cumulative IPC: 1.767 (Simulation time: 00 hr 22 min 02 sec)
Heartbeat CPU 0 instructions: 211001394 cycles: 103753865 heartbeat IPC: 1.764 cumulative IPC: 1.766 (Simulation time: 00 hr 22 min 05 sec)
Heartbeat CPU 0 instructions: 211501398 cycles: 104029240 heartbeat IPC: 1.816 cumulative IPC: 1.767 (Simulation time: 00 hr 22 min 09 sec)
Heartbeat CPU 0 instructions: 212001399 cycles: 104312565 heartbeat IPC: 1.765 cumulative IPC: 1.767 (Simulation time: 00 hr 22 min 12 sec)
Heartbeat CPU 0 instructions: 212501400 cycles: 104585045 heartbeat IPC: 1.835 cumulative IPC: 1.767 (Simulation time: 00 hr 22 min 15 sec)
Heartbeat CPU 0 instructions: 213001402 cycles: 104854156 heartbeat IPC: 1.858 cumulative IPC: 1.767 (Simulation time: 00 hr 22 min 18 sec)
Heartbeat CPU 0 instructions: 213501403 cycles: 105131553 heartbeat IPC: 1.802 cumulative IPC: 1.767 (Simulation time: 00 hr 22 min 22 sec)
Heartbeat CPU 0 instructions: 214001409 cycles: 105387309 heartbeat IPC: 1.955 cumulative IPC: 1.768 (Simulation time: 00 hr 22 min 25 sec)
Heartbeat CPU 0 instructions: 214501414 cycles: 105659725 heartbeat IPC: 1.835 cumulative IPC: 1.768 (Simulation time: 00 hr 22 min 28 sec)
Heartbeat CPU 0 instructions: 215001419 cycles: 105928726 heartbeat IPC: 1.859 cumulative IPC: 1.768 (Simulation time: 00 hr 22 min 31 sec)
Heartbeat CPU 0 instructions: 215501419 cycles: 106202392 heartbeat IPC: 1.827 cumulative IPC: 1.768 (Simulation time: 00 hr 22 min 35 sec)
Heartbeat CPU 0 instructions: 216001424 cycles: 106473738 heartbeat IPC: 1.843 cumulative IPC: 1.769 (Simulation time: 00 hr 22 min 38 sec)
Heartbeat CPU 0 instructions: 216501424 cycles: 106757020 heartbeat IPC: 1.765 cumulative IPC: 1.769 (Simulation time: 00 hr 22 min 41 sec)
Heartbeat CPU 0 instructions: 217001428 cycles: 107041390 heartbeat IPC: 1.758 cumulative IPC: 1.769 (Simulation time: 00 hr 22 min 45 sec)
Heartbeat CPU 0 instructions: 217501429 cycles: 107332120 heartbeat IPC: 1.72 cumulative IPC: 1.768 (Simulation time: 00 hr 22 min 48 sec)
Heartbeat CPU 0 instructions: 218001433 cycles: 107614202 heartbeat IPC: 1.773 cumulative IPC: 1.768 (Simulation time: 00 hr 22 min 52 sec)
Heartbeat CPU 0 instructions: 218501436 cycles: 107885523 heartbeat IPC: 1.843 cumulative IPC: 1.769 (Simulation time: 00 hr 22 min 55 sec)
Heartbeat CPU 0 instructions: 219001438 cycles: 108153430 heartbeat IPC: 1.866 cumulative IPC: 1.769 (Simulation time: 00 hr 22 min 58 sec)
Heartbeat CPU 0 instructions: 219501440 cycles: 108435643 heartbeat IPC: 1.772 cumulative IPC: 1.769 (Simulation time: 00 hr 23 min 01 sec)
Heartbeat CPU 0 instructions: 220001445 cycles: 108706230 heartbeat IPC: 1.848 cumulative IPC: 1.769 (Simulation time: 00 hr 23 min 05 sec)
Heartbeat CPU 0 instructions: 220501450 cycles: 108976142 heartbeat IPC: 1.852 cumulative IPC: 1.769 (Simulation time: 00 hr 23 min 08 sec)
Heartbeat CPU 0 instructions: 221001450 cycles: 109249150 heartbeat IPC: 1.831 cumulative IPC: 1.77 (Simulation time: 00 hr 23 min 11 sec)
Heartbeat CPU 0 instructions: 221501455 cycles: 109520621 heartbeat IPC: 1.842 cumulative IPC: 1.77 (Simulation time: 00 hr 23 min 15 sec)
Heartbeat CPU 0 instructions: 222001460 cycles: 109793363 heartbeat IPC: 1.833 cumulative IPC: 1.77 (Simulation time: 00 hr 23 min 18 sec)
Heartbeat CPU 0 instructions: 222501465 cycles: 110092268 heartbeat IPC: 1.673 cumulative IPC: 1.77 (Simulation time: 00 hr 23 min 22 sec)
Heartbeat CPU 0 instructions: 223001466 cycles: 110383008 heartbeat IPC: 1.72 cumulative IPC: 1.769 (Simulation time: 00 hr 23 min 25 sec)
Heartbeat CPU 0 instructions: 223501470 cycles: 110668195 heartbeat IPC: 1.753 cumulative IPC: 1.769 (Simulation time: 00 hr 23 min 29 sec)
Heartbeat CPU 0 instructions: 224001474 cycles: 110946774 heartbeat IPC: 1.795 cumulative IPC: 1.769 (Simulation time: 00 hr 23 min 32 sec)
Heartbeat CPU 0 instructions: 224501476 cycles: 111220010 heartbeat IPC: 1.83 cumulative IPC: 1.77 (Simulation time: 00 hr 23 min 35 sec)
Heartbeat CPU 0 instructions: 225001481 cycles: 111493636 heartbeat IPC: 1.827 cumulative IPC: 1.77 (Simulation time: 00 hr 23 min 38 sec)
Heartbeat CPU 0 instructions: 225501481 cycles: 111757085 heartbeat IPC: 1.898 cumulative IPC: 1.77 (Simulation time: 00 hr 23 min 41 sec)
Heartbeat CPU 0 instructions: 226001481 cycles: 112021784 heartbeat IPC: 1.889 cumulative IPC: 1.77 (Simulation time: 00 hr 23 min 45 sec)
Heartbeat CPU 0 instructions: 226501486 cycles: 112293884 heartbeat IPC: 1.838 cumulative IPC: 1.771 (Simulation time: 00 hr 23 min 48 sec)
Heartbeat CPU 0 instructions: 227001486 cycles: 112566986 heartbeat IPC: 1.831 cumulative IPC: 1.771 (Simulation time: 00 hr 23 min 51 sec)
Heartbeat CPU 0 instructions: 227501491 cycles: 112842546 heartbeat IPC: 1.815 cumulative IPC: 1.771 (Simulation time: 00 hr 23 min 55 sec)
Heartbeat CPU 0 instructions: 228001495 cycles: 113126806 heartbeat IPC: 1.759 cumulative IPC: 1.771 (Simulation time: 00 hr 23 min 58 sec)
Heartbeat CPU 0 instructions: 228501496 cycles: 113400510 heartbeat IPC: 1.827 cumulative IPC: 1.771 (Simulation time: 00 hr 24 min 01 sec)
Heartbeat CPU 0 instructions: 229001500 cycles: 113680237 heartbeat IPC: 1.787 cumulative IPC: 1.771 (Simulation time: 00 hr 24 min 05 sec)
Heartbeat CPU 0 instructions: 229501504 cycles: 113962138 heartbeat IPC: 1.774 cumulative IPC: 1.771 (Simulation time: 00 hr 24 min 08 sec)
Heartbeat CPU 0 instructions: 230001509 cycles: 114232756 heartbeat IPC: 1.848 cumulative IPC: 1.771 (Simulation time: 00 hr 24 min 11 sec)
Heartbeat CPU 0 instructions: 230501512 cycles: 114524577 heartbeat IPC: 1.713 cumulative IPC: 1.771 (Simulation time: 00 hr 24 min 14 sec)
Heartbeat CPU 0 instructions: 231001515 cycles: 114826550 heartbeat IPC: 1.656 cumulative IPC: 1.771 (Simulation time: 00 hr 24 min 18 sec)
Heartbeat CPU 0 instructions: 231501516 cycles: 115102457 heartbeat IPC: 1.812 cumulative IPC: 1.771 (Simulation time: 00 hr 24 min 21 sec)
Heartbeat CPU 0 instructions: 232001517 cycles: 115373725 heartbeat IPC: 1.843 cumulative IPC: 1.771 (Simulation time: 00 hr 24 min 24 sec)
Heartbeat CPU 0 instructions: 232501517 cycles: 115643320 heartbeat IPC: 1.855 cumulative IPC: 1.771 (Simulation time: 00 hr 24 min 27 sec)
Heartbeat CPU 0 instructions: 233001522 cycles: 115917234 heartbeat IPC: 1.825 cumulative IPC: 1.771 (Simulation time: 00 hr 24 min 31 sec)
Heartbeat CPU 0 instructions: 233501527 cycles: 116194641 heartbeat IPC: 1.802 cumulative IPC: 1.772 (Simulation time: 00 hr 24 min 34 sec)
Heartbeat CPU 0 instructions: 234001533 cycles: 116488808 heartbeat IPC: 1.7 cumulative IPC: 1.771 (Simulation time: 00 hr 24 min 38 sec)
Heartbeat CPU 0 instructions: 234501534 cycles: 116779512 heartbeat IPC: 1.72 cumulative IPC: 1.771 (Simulation time: 00 hr 24 min 41 sec)
Heartbeat CPU 0 instructions: 235001534 cycles: 117060941 heartbeat IPC: 1.777 cumulative IPC: 1.771 (Simulation time: 00 hr 24 min 44 sec)
Heartbeat CPU 0 instructions: 235501537 cycles: 117322193 heartbeat IPC: 1.914 cumulative IPC: 1.772 (Simulation time: 00 hr 24 min 48 sec)
Heartbeat CPU 0 instructions: 236001538 cycles: 117593609 heartbeat IPC: 1.842 cumulative IPC: 1.772 (Simulation time: 00 hr 24 min 51 sec)
Heartbeat CPU 0 instructions: 236501538 cycles: 117866145 heartbeat IPC: 1.835 cumulative IPC: 1.772 (Simulation time: 00 hr 24 min 54 sec)
Heartbeat CPU 0 instructions: 237001539 cycles: 118134641 heartbeat IPC: 1.862 cumulative IPC: 1.772 (Simulation time: 00 hr 24 min 57 sec)
Heartbeat CPU 0 instructions: 237501541 cycles: 118404228 heartbeat IPC: 1.855 cumulative IPC: 1.772 (Simulation time: 00 hr 25 min 00 sec)
Heartbeat CPU 0 instructions: 238001546 cycles: 118674524 heartbeat IPC: 1.85 cumulative IPC: 1.773 (Simulation time: 00 hr 25 min 04 sec)
Heartbeat CPU 0 instructions: 238501546 cycles: 118948544 heartbeat IPC: 1.825 cumulative IPC: 1.773 (Simulation time: 00 hr 25 min 07 sec)
Heartbeat CPU 0 instructions: 239001551 cycles: 119219901 heartbeat IPC: 1.843 cumulative IPC: 1.773 (Simulation time: 00 hr 25 min 10 sec)
Heartbeat CPU 0 instructions: 239501556 cycles: 119506849 heartbeat IPC: 1.742 cumulative IPC: 1.773 (Simulation time: 00 hr 25 min 14 sec)
Heartbeat CPU 0 instructions: 240001560 cycles: 119791661 heartbeat IPC: 1.756 cumulative IPC: 1.773 (Simulation time: 00 hr 25 min 17 sec)
Heartbeat CPU 0 instructions: 240501560 cycles: 120079833 heartbeat IPC: 1.735 cumulative IPC: 1.773 (Simulation time: 00 hr 25 min 20 sec)
Heartbeat CPU 0 instructions: 241001561 cycles: 120358437 heartbeat IPC: 1.795 cumulative IPC: 1.773 (Simulation time: 00 hr 25 min 24 sec)
Heartbeat CPU 0 instructions: 241501567 cycles: 120627789 heartbeat IPC: 1.856 cumulative IPC: 1.773 (Simulation time: 00 hr 25 min 27 sec)
Heartbeat CPU 0 instructions: 242001573 cycles: 120897438 heartbeat IPC: 1.854 cumulative IPC: 1.773 (Simulation time: 00 hr 25 min 30 sec)
Heartbeat CPU 0 instructions: 242501576 cycles: 121180056 heartbeat IPC: 1.769 cumulative IPC: 1.773 (Simulation time: 00 hr 25 min 33 sec)
Heartbeat CPU 0 instructions: 243001578 cycles: 121442440 heartbeat IPC: 1.906 cumulative IPC: 1.773 (Simulation time: 00 hr 25 min 36 sec)
Heartbeat CPU 0 instructions: 243501584 cycles: 121710130 heartbeat IPC: 1.868 cumulative IPC: 1.774 (Simulation time: 00 hr 25 min 39 sec)
Heartbeat CPU 0 instructions: 244001584 cycles: 121978617 heartbeat IPC: 1.862 cumulative IPC: 1.774 (Simulation time: 00 hr 25 min 43 sec)
Heartbeat CPU 0 instructions: 244501589 cycles: 122249894 heartbeat IPC: 1.843 cumulative IPC: 1.774 (Simulation time: 00 hr 25 min 46 sec)
Heartbeat CPU 0 instructions: 245001594 cycles: 122521548 heartbeat IPC: 1.841 cumulative IPC: 1.774 (Simulation time: 00 hr 25 min 49 sec)
Heartbeat CPU 0 instructions: 245501597 cycles: 122807811 heartbeat IPC: 1.747 cumulative IPC: 1.774 (Simulation time: 00 hr 25 min 53 sec)
Heartbeat CPU 0 instructions: 246001598 cycles: 123095198 heartbeat IPC: 1.74 cumulative IPC: 1.774 (Simulation time: 00 hr 25 min 56 sec)
Heartbeat CPU 0 instructions: 246501598 cycles: 123382833 heartbeat IPC: 1.738 cumulative IPC: 1.774 (Simulation time: 00 hr 25 min 59 sec)
Heartbeat CPU 0 instructions: 247001598 cycles: 123658603 heartbeat IPC: 1.813 cumulative IPC: 1.774 (Simulation time: 00 hr 26 min 03 sec)
Heartbeat CPU 0 instructions: 247501601 cycles: 123927864 heartbeat IPC: 1.857 cumulative IPC: 1.774 (Simulation time: 00 hr 26 min 06 sec)
Heartbeat CPU 0 instructions: 248001602 cycles: 124195073 heartbeat IPC: 1.871 cumulative IPC: 1.774 (Simulation time: 00 hr 26 min 09 sec)
Heartbeat CPU 0 instructions: 248501604 cycles: 124443947 heartbeat IPC: 2.009 cumulative IPC: 1.775 (Simulation time: 00 hr 26 min 12 sec)
Heartbeat CPU 0 instructions: 249001605 cycles: 124702114 heartbeat IPC: 1.937 cumulative IPC: 1.775 (Simulation time: 00 hr 26 min 14 sec)
Heartbeat CPU 0 instructions: 249501606 cycles: 124962947 heartbeat IPC: 1.917 cumulative IPC: 1.776 (Simulation time: 00 hr 26 min 17 sec)
Simulation finished CPU 0 instructions: 200000004 cycles: 112609381 cumulative IPC: 1.776 (Simulation time: 00 hr 26 min 20 sec)
Simulation complete CPU 0 instructions: 200000004 cycles: 112609381 cumulative IPC: 1.776 (Simulation time: 00 hr 26 min 20 sec)

ChampSim completed all CPUs

=== Simulation ===
CPU 0 runs /local-ssd/ben/dpc4-traces/ai-ml/llama2.c-stories42M.2.champsimtrace.gz

Region of Interest Statistics

CPU 0 cumulative IPC: 1.776 instructions: 200000004 cycles: 112609381
CPU 0 Branch Prediction Accuracy: 99.29% MPKI: 1.012 Average ROB Occupancy at Mispredict: 473.7
Branch type MPKI
BRANCH_DIRECT_JUMP: 0.000105
BRANCH_INDIRECT: 5e-06
BRANCH_CONDITIONAL: 1.011
BRANCH_DIRECT_CALL: 0.000115
BRANCH_INDIRECT_CALL: 3e-05
BRANCH_RETURN: 0.000145

cpu0->cpu0_STLB TOTAL        ACCESS:     109814 HIT:        724 MISS:     109090 MSHR_MERGE:          0
cpu0->cpu0_STLB LOAD         ACCESS:     109814 HIT:        724 MISS:     109090 MSHR_MERGE:          0
cpu0->cpu0_STLB RFO          ACCESS:          0 HIT:          0 MISS:          0 MSHR_MERGE:          0
cpu0->cpu0_STLB PREFETCH     ACCESS:          0 HIT:          0 MISS:          0 MSHR_MERGE:          0
cpu0->cpu0_STLB WRITE        ACCESS:          0 HIT:          0 MISS:          0 MSHR_MERGE:          0
cpu0->cpu0_STLB TRANSLATION  ACCESS:          0 HIT:          0 MISS:          0 MSHR_MERGE:          0
cpu0->cpu0_STLB PREFETCH REQUESTED:          0 ISSUED:          0 USEFUL:          0 USELESS:          0
cpu0->cpu0_STLB AVERAGE MISS LATENCY: 67.59 cycles
cpu0->cpu0_L2C TOTAL        ACCESS:   34159938 HIT:    2155341 MISS:   32004597 MSHR_MERGE:   25038209
cpu0->cpu0_L2C LOAD         ACCESS:    1105501 HIT:     124529 MISS:     980972 MSHR_MERGE:     508216
cpu0->cpu0_L2C RFO          ACCESS:      13854 HIT:       2029 MISS:      11825 MSHR_MERGE:          0
cpu0->cpu0_L2C PREFETCH     ACCESS:   33005360 HIT:    2011037 MISS:   30994323 MSHR_MERGE:   24529993
cpu0->cpu0_L2C WRITE        ACCESS:      20630 HIT:      17508 MISS:       3122 MSHR_MERGE:          0
cpu0->cpu0_L2C TRANSLATION  ACCESS:      14593 HIT:        238 MISS:      14355 MSHR_MERGE:          0
cpu0->cpu0_L2C PREFETCH REQUESTED:   35540187 ISSUED:   27169541 USEFUL:     961341 USELESS:    3861630
cpu0->cpu0_L2C AVERAGE MISS LATENCY: 175.4 cycles
cpu0->cpu0_L1I TOTAL        ACCESS:   23156467 HIT:   23156325 MISS:        142 MSHR_MERGE:          9
cpu0->cpu0_L1I LOAD         ACCESS:   23156467 HIT:   23156325 MISS:        142 MSHR_MERGE:          9
cpu0->cpu0_L1I RFO          ACCESS:          0 HIT:          0 MISS:          0 MSHR_MERGE:          0
cpu0->cpu0_L1I PREFETCH     ACCESS:          0 HIT:          0 MISS:          0 MSHR_MERGE:          0
cpu0->cpu0_L1I WRITE        ACCESS:          0 HIT:          0 MISS:          0 MSHR_MERGE:          0
cpu0->cpu0_L1I TRANSLATION  ACCESS:          0 HIT:          0 MISS:          0 MSHR_MERGE:          0
cpu0->cpu0_L1I PREFETCH REQUESTED:          0 ISSUED:          0 USEFUL:          0 USELESS:          0
cpu0->cpu0_L1I AVERAGE MISS LATENCY: 160.5 cycles
cpu0->cpu0_L1D TOTAL        ACCESS:   43969650 HIT:   25101203 MISS:   18868447 MSHR_MERGE:   11898823
cpu0->cpu0_L1D LOAD         ACCESS:   37024041 HIT:   24479669 MISS:   12544372 MSHR_MERGE:   11439004
cpu0->cpu0_L1D RFO          ACCESS:          0 HIT:          0 MISS:          0 MSHR_MERGE:          0
cpu0->cpu0_L1D PREFETCH     ACCESS:    6410992 HIT:     115989 MISS:    6295003 MSHR_MERGE:     459195
cpu0->cpu0_L1D WRITE        ACCESS:     316097 HIT:     301621 MISS:      14476 MSHR_MERGE:        621
cpu0->cpu0_L1D TRANSLATION  ACCESS:     218520 HIT:     203924 MISS:      14596 MSHR_MERGE:          3
cpu0->cpu0_L1D PREFETCH REQUESTED:    6932206 ISSUED:    6410986 USEFUL:    5829529 USELESS:       6272
cpu0->cpu0_L1D AVERAGE MISS LATENCY: 104.6 cycles
cpu0->cpu0_ITLB TOTAL        ACCESS:   20987879 HIT:   20987855 MISS:         24 MSHR_MERGE:          3
cpu0->cpu0_ITLB LOAD         ACCESS:   20987879 HIT:   20987855 MISS:         24 MSHR_MERGE:          3
cpu0->cpu0_ITLB RFO          ACCESS:          0 HIT:          0 MISS:          0 MSHR_MERGE:          0
cpu0->cpu0_ITLB PREFETCH     ACCESS:          0 HIT:          0 MISS:          0 MSHR_MERGE:          0
cpu0->cpu0_ITLB WRITE        ACCESS:          0 HIT:          0 MISS:          0 MSHR_MERGE:          0
cpu0->cpu0_ITLB TRANSLATION  ACCESS:          0 HIT:          0 MISS:          0 MSHR_MERGE:          0
cpu0->cpu0_ITLB PREFETCH REQUESTED:          0 ISSUED:          0 USEFUL:          0 USELESS:          0
cpu0->cpu0_ITLB AVERAGE MISS LATENCY: 399.3 cycles
cpu0->cpu0_DTLB TOTAL        ACCESS:   38662383 HIT:   38040054 MISS:     622329 MSHR_MERGE:     512536
cpu0->cpu0_DTLB LOAD         ACCESS:   38662383 HIT:   38040054 MISS:     622329 MSHR_MERGE:     512536
cpu0->cpu0_DTLB RFO          ACCESS:          0 HIT:          0 MISS:          0 MSHR_MERGE:          0
cpu0->cpu0_DTLB PREFETCH     ACCESS:          0 HIT:          0 MISS:          0 MSHR_MERGE:          0
cpu0->cpu0_DTLB WRITE        ACCESS:          0 HIT:          0 MISS:          0 MSHR_MERGE:          0
cpu0->cpu0_DTLB TRANSLATION  ACCESS:          0 HIT:          0 MISS:          0 MSHR_MERGE:          0
cpu0->cpu0_DTLB PREFETCH REQUESTED:          0 ISSUED:          0 USEFUL:          0 USELESS:          0
cpu0->cpu0_DTLB AVERAGE MISS LATENCY: 73.08 cycles
cpu0->LLC TOTAL        ACCESS:    6981336 HIT:     143973 MISS:    6837363 MSHR_MERGE:          0
cpu0->LLC LOAD         ACCESS:     472756 HIT:       6963 MISS:     465793 MSHR_MERGE:          0
cpu0->LLC RFO          ACCESS:      11825 HIT:       8535 MISS:       3290 MSHR_MERGE:          0
cpu0->LLC PREFETCH     ACCESS:    6464330 HIT:     112573 MISS:    6351757 MSHR_MERGE:          0
cpu0->LLC WRITE        ACCESS:      18070 HIT:      15514 MISS:       2556 MSHR_MERGE:          0
cpu0->LLC TRANSLATION  ACCESS:      14355 HIT:        388 MISS:      13967 MSHR_MERGE:          0
cpu0->LLC PREFETCH REQUESTED:          0 ISSUED:          0 USEFUL:          0 USELESS:          0
cpu0->LLC AVERAGE MISS LATENCY: 229.9 cycles

DRAM Statistics

Channel 0 RQ ROW_BUFFER_HIT:    2942142
  ROW_BUFFER_MISS:    3892410
  AVG DBUS CONGESTED CYCLE: 6.483
Channel 0 WQ ROW_BUFFER_HIT:        360
  ROW_BUFFER_MISS:       2609
  FULL:          0
Channel 0 REFRESHES ISSUED:       9384
