[VMEM] WARNING: physical memory size is smaller than virtual memory size.

*** ChampSim Multicore Out-of-Order Simulator ***
Warmup Instructions: 50000000
Simulation Instructions: 200000000
Number of CPUs: 1
Page size: 4096
Core 0: /local-ssd/ben/dpc4-traces/ai-ml/biogpt.cpp-ggml-model-tocilizumab.1.champsimtrace.gz
 L1D Berti prefetcher
Off-chip DRAM Size: 64 GiB Channels: 1 Width: 64-bit Data Rate: 4807 MT/s
Heartbeat CPU 0 instructions: 500002 cycles: 360852 heartbeat IPC: 1.386 cumulative IPC: 1.386 (Simulation time: 00 hr 00 min 06 sec)
Heartbeat CPU 0 instructions: 1000007 cycles: 719145 heartbeat IPC: 1.396 cumulative IPC: 1.391 (Simulation time: 00 hr 00 min 11 sec)
Heartbeat CPU 0 instructions: 1500013 cycles: 1096183 heartbeat IPC: 1.326 cumulative IPC: 1.368 (Simulation time: 00 hr 00 min 17 sec)
Heartbeat CPU 0 instructions: 2000020 cycles: 1504425 heartbeat IPC: 1.225 cumulative IPC: 1.329 (Simulation time: 00 hr 00 min 24 sec)
Heartbeat CPU 0 instructions: 2500026 cycles: 1912626 heartbeat IPC: 1.225 cumulative IPC: 1.307 (Simulation time: 00 hr 00 min 30 sec)
Heartbeat CPU 0 instructions: 3000029 cycles: 2291675 heartbeat IPC: 1.319 cumulative IPC: 1.309 (Simulation time: 00 hr 00 min 36 sec)
Heartbeat CPU 0 instructions: 3500031 cycles: 2650091 heartbeat IPC: 1.395 cumulative IPC: 1.321 (Simulation time: 00 hr 00 min 42 sec)
Heartbeat CPU 0 instructions: 4000034 cycles: 2908286 heartbeat IPC: 1.937 cumulative IPC: 1.375 (Simulation time: 00 hr 00 min 47 sec)
Heartbeat CPU 0 instructions: 4500040 cycles: 3226699 heartbeat IPC: 1.57 cumulative IPC: 1.395 (Simulation time: 00 hr 00 min 52 sec)
Heartbeat CPU 0 instructions: 5000046 cycles: 3532134 heartbeat IPC: 1.637 cumulative IPC: 1.416 (Simulation time: 00 hr 00 min 57 sec)
Heartbeat CPU 0 instructions: 5500046 cycles: 3880404 heartbeat IPC: 1.436 cumulative IPC: 1.417 (Simulation time: 00 hr 01 min 02 sec)
Heartbeat CPU 0 instructions: 6000050 cycles: 4238979 heartbeat IPC: 1.394 cumulative IPC: 1.415 (Simulation time: 00 hr 01 min 08 sec)
Heartbeat CPU 0 instructions: 6500055 cycles: 4597669 heartbeat IPC: 1.394 cumulative IPC: 1.414 (Simulation time: 00 hr 01 min 14 sec)
Heartbeat CPU 0 instructions: 7000059 cycles: 4947724 heartbeat IPC: 1.428 cumulative IPC: 1.415 (Simulation time: 00 hr 01 min 20 sec)
Heartbeat CPU 0 instructions: 7500059 cycles: 5355905 heartbeat IPC: 1.225 cumulative IPC: 1.4 (Simulation time: 00 hr 01 min 27 sec)
Heartbeat CPU 0 instructions: 8000059 cycles: 5762944 heartbeat IPC: 1.228 cumulative IPC: 1.388 (Simulation time: 00 hr 01 min 33 sec)
Heartbeat CPU 0 instructions: 8500066 cycles: 6171766 heartbeat IPC: 1.223 cumulative IPC: 1.377 (Simulation time: 00 hr 01 min 40 sec)
Heartbeat CPU 0 instructions: 9000071 cycles: 6519579 heartbeat IPC: 1.438 cumulative IPC: 1.38 (Simulation time: 00 hr 01 min 46 sec)
Heartbeat CPU 0 instructions: 9500076 cycles: 6845594 heartbeat IPC: 1.534 cumulative IPC: 1.388 (Simulation time: 00 hr 01 min 51 sec)
Heartbeat CPU 0 instructions: 10000082 cycles: 7129819 heartbeat IPC: 1.759 cumulative IPC: 1.403 (Simulation time: 00 hr 01 min 56 sec)
Heartbeat CPU 0 instructions: 10500083 cycles: 7394253 heartbeat IPC: 1.891 cumulative IPC: 1.42 (Simulation time: 00 hr 02 min 00 sec)
Heartbeat CPU 0 instructions: 11000085 cycles: 7742149 heartbeat IPC: 1.437 cumulative IPC: 1.421 (Simulation time: 00 hr 02 min 06 sec)
Heartbeat CPU 0 instructions: 11500088 cycles: 8100794 heartbeat IPC: 1.394 cumulative IPC: 1.42 (Simulation time: 00 hr 02 min 12 sec)
Heartbeat CPU 0 instructions: 12000088 cycles: 8458943 heartbeat IPC: 1.396 cumulative IPC: 1.419 (Simulation time: 00 hr 02 min 18 sec)
Heartbeat CPU 0 instructions: 12500092 cycles: 8817154 heartbeat IPC: 1.396 cumulative IPC: 1.418 (Simulation time: 00 hr 02 min 24 sec)
Heartbeat CPU 0 instructions: 13000094 cycles: 9197110 heartbeat IPC: 1.316 cumulative IPC: 1.413 (Simulation time: 00 hr 02 min 30 sec)
Heartbeat CPU 0 instructions: 13500094 cycles: 9605136 heartbeat IPC: 1.225 cumulative IPC: 1.406 (Simulation time: 00 hr 02 min 37 sec)
Heartbeat CPU 0 instructions: 14000094 cycles: 10013232 heartbeat IPC: 1.225 cumulative IPC: 1.398 (Simulation time: 00 hr 02 min 43 sec)
Heartbeat CPU 0 instructions: 14500098 cycles: 10383364 heartbeat IPC: 1.351 cumulative IPC: 1.396 (Simulation time: 00 hr 02 min 49 sec)
Heartbeat CPU 0 instructions: 15000099 cycles: 10741913 heartbeat IPC: 1.395 cumulative IPC: 1.396 (Simulation time: 00 hr 02 min 55 sec)
Heartbeat CPU 0 instructions: 15500103 cycles: 11100125 heartbeat IPC: 1.396 cumulative IPC: 1.396 (Simulation time: 00 hr 03 min 01 sec)
Heartbeat CPU 0 instructions: 16000107 cycles: 11458655 heartbeat IPC: 1.395 cumulative IPC: 1.396 (Simulation time: 00 hr 03 min 07 sec)
Heartbeat CPU 0 instructions: 16500109 cycles: 11816935 heartbeat IPC: 1.396 cumulative IPC: 1.396 (Simulation time: 00 hr 03 min 13 sec)
Heartbeat CPU 0 instructions: 17000114 cycles: 12175382 heartbeat IPC: 1.395 cumulative IPC: 1.396 (Simulation time: 00 hr 03 min 19 sec)
Heartbeat CPU 0 instructions: 17500116 cycles: 12533873 heartbeat IPC: 1.395 cumulative IPC: 1.396 (Simulation time: 00 hr 03 min 25 sec)
Heartbeat CPU 0 instructions: 18000117 cycles: 12892077 heartbeat IPC: 1.396 cumulative IPC: 1.396 (Simulation time: 00 hr 03 min 31 sec)
Heartbeat CPU 0 instructions: 18500121 cycles: 13250748 heartbeat IPC: 1.394 cumulative IPC: 1.396 (Simulation time: 00 hr 03 min 37 sec)
Heartbeat CPU 0 instructions: 19000125 cycles: 13609350 heartbeat IPC: 1.394 cumulative IPC: 1.396 (Simulation time: 00 hr 03 min 44 sec)
Heartbeat CPU 0 instructions: 19500128 cycles: 13967665 heartbeat IPC: 1.395 cumulative IPC: 1.396 (Simulation time: 00 hr 03 min 50 sec)
Heartbeat CPU 0 instructions: 20000130 cycles: 14326194 heartbeat IPC: 1.395 cumulative IPC: 1.396 (Simulation time: 00 hr 03 min 56 sec)
Heartbeat CPU 0 instructions: 20500134 cycles: 14684971 heartbeat IPC: 1.394 cumulative IPC: 1.396 (Simulation time: 00 hr 04 min 02 sec)
Heartbeat CPU 0 instructions: 21000135 cycles: 15043076 heartbeat IPC: 1.396 cumulative IPC: 1.396 (Simulation time: 00 hr 04 min 08 sec)
Heartbeat CPU 0 instructions: 21500139 cycles: 15401648 heartbeat IPC: 1.394 cumulative IPC: 1.396 (Simulation time: 00 hr 04 min 14 sec)
Heartbeat CPU 0 instructions: 22000143 cycles: 15759858 heartbeat IPC: 1.396 cumulative IPC: 1.396 (Simulation time: 00 hr 04 min 20 sec)
Heartbeat CPU 0 instructions: 22500144 cycles: 16118379 heartbeat IPC: 1.395 cumulative IPC: 1.396 (Simulation time: 00 hr 04 min 26 sec)
Heartbeat CPU 0 instructions: 23000144 cycles: 16477060 heartbeat IPC: 1.394 cumulative IPC: 1.396 (Simulation time: 00 hr 04 min 32 sec)
Heartbeat CPU 0 instructions: 23500144 cycles: 16835206 heartbeat IPC: 1.396 cumulative IPC: 1.396 (Simulation time: 00 hr 04 min 38 sec)
Heartbeat CPU 0 instructions: 24000145 cycles: 17193855 heartbeat IPC: 1.394 cumulative IPC: 1.396 (Simulation time: 00 hr 04 min 44 sec)
Heartbeat CPU 0 instructions: 24500145 cycles: 17552299 heartbeat IPC: 1.395 cumulative IPC: 1.396 (Simulation time: 00 hr 04 min 50 sec)
Heartbeat CPU 0 instructions: 25000151 cycles: 17910793 heartbeat IPC: 1.395 cumulative IPC: 1.396 (Simulation time: 00 hr 04 min 56 sec)
Heartbeat CPU 0 instructions: 25500154 cycles: 18269123 heartbeat IPC: 1.395 cumulative IPC: 1.396 (Simulation time: 00 hr 05 min 02 sec)
Heartbeat CPU 0 instructions: 26000158 cycles: 18627614 heartbeat IPC: 1.395 cumulative IPC: 1.396 (Simulation time: 00 hr 05 min 08 sec)
Heartbeat CPU 0 instructions: 26500158 cycles: 18985944 heartbeat IPC: 1.395 cumulative IPC: 1.396 (Simulation time: 00 hr 05 min 14 sec)
Heartbeat CPU 0 instructions: 27000159 cycles: 19344283 heartbeat IPC: 1.395 cumulative IPC: 1.396 (Simulation time: 00 hr 05 min 21 sec)
Heartbeat CPU 0 instructions: 27500165 cycles: 19702282 heartbeat IPC: 1.397 cumulative IPC: 1.396 (Simulation time: 00 hr 05 min 27 sec)
Heartbeat CPU 0 instructions: 28000167 cycles: 20061067 heartbeat IPC: 1.394 cumulative IPC: 1.396 (Simulation time: 00 hr 05 min 33 sec)
Heartbeat CPU 0 instructions: 28500168 cycles: 20419365 heartbeat IPC: 1.395 cumulative IPC: 1.396 (Simulation time: 00 hr 05 min 39 sec)
Heartbeat CPU 0 instructions: 29000172 cycles: 20777819 heartbeat IPC: 1.395 cumulative IPC: 1.396 (Simulation time: 00 hr 05 min 45 sec)
Heartbeat CPU 0 instructions: 29500176 cycles: 21136422 heartbeat IPC: 1.394 cumulative IPC: 1.396 (Simulation time: 00 hr 05 min 51 sec)
Heartbeat CPU 0 instructions: 30000179 cycles: 21494167 heartbeat IPC: 1.398 cumulative IPC: 1.396 (Simulation time: 00 hr 05 min 57 sec)
Heartbeat CPU 0 instructions: 30500181 cycles: 21852630 heartbeat IPC: 1.395 cumulative IPC: 1.396 (Simulation time: 00 hr 06 min 04 sec)
Heartbeat CPU 0 instructions: 31000181 cycles: 22211269 heartbeat IPC: 1.394 cumulative IPC: 1.396 (Simulation time: 00 hr 06 min 10 sec)
Heartbeat CPU 0 instructions: 31500188 cycles: 22569463 heartbeat IPC: 1.396 cumulative IPC: 1.396 (Simulation time: 00 hr 06 min 16 sec)
Heartbeat CPU 0 instructions: 32000190 cycles: 22928155 heartbeat IPC: 1.394 cumulative IPC: 1.396 (Simulation time: 00 hr 06 min 22 sec)
Heartbeat CPU 0 instructions: 32500190 cycles: 23286446 heartbeat IPC: 1.396 cumulative IPC: 1.396 (Simulation time: 00 hr 06 min 28 sec)
Heartbeat CPU 0 instructions: 33000193 cycles: 23745187 heartbeat IPC: 1.09 cumulative IPC: 1.39 (Simulation time: 00 hr 06 min 33 sec)
Heartbeat CPU 0 instructions: 33500194 cycles: 23870919 heartbeat IPC: 3.977 cumulative IPC: 1.403 (Simulation time: 00 hr 06 min 34 sec)
Heartbeat CPU 0 instructions: 34000196 cycles: 23986783 heartbeat IPC: 4.315 cumulative IPC: 1.417 (Simulation time: 00 hr 06 min 36 sec)
Heartbeat CPU 0 instructions: 34500203 cycles: 24095350 heartbeat IPC: 4.606 cumulative IPC: 1.432 (Simulation time: 00 hr 06 min 38 sec)
Heartbeat CPU 0 instructions: 35000203 cycles: 24204901 heartbeat IPC: 4.564 cumulative IPC: 1.446 (Simulation time: 00 hr 06 min 41 sec)
Heartbeat CPU 0 instructions: 35500203 cycles: 24689842 heartbeat IPC: 1.031 cumulative IPC: 1.438 (Simulation time: 00 hr 06 min 44 sec)
Heartbeat CPU 0 instructions: 36000208 cycles: 24978787 heartbeat IPC: 1.73 cumulative IPC: 1.441 (Simulation time: 00 hr 06 min 47 sec)
Heartbeat CPU 0 instructions: 36500213 cycles: 25097337 heartbeat IPC: 4.218 cumulative IPC: 1.454 (Simulation time: 00 hr 06 min 49 sec)
Heartbeat CPU 0 instructions: 37000218 cycles: 25218235 heartbeat IPC: 4.136 cumulative IPC: 1.467 (Simulation time: 00 hr 06 min 51 sec)
Heartbeat CPU 0 instructions: 37500219 cycles: 25335415 heartbeat IPC: 4.267 cumulative IPC: 1.48 (Simulation time: 00 hr 06 min 54 sec)
Heartbeat CPU 0 instructions: 38000219 cycles: 25825535 heartbeat IPC: 1.02 cumulative IPC: 1.471 (Simulation time: 00 hr 06 min 57 sec)
Heartbeat CPU 0 instructions: 38500222 cycles: 25982268 heartbeat IPC: 3.19 cumulative IPC: 1.482 (Simulation time: 00 hr 06 min 59 sec)
Heartbeat CPU 0 instructions: 39000222 cycles: 26326810 heartbeat IPC: 1.451 cumulative IPC: 1.481 (Simulation time: 00 hr 07 min 04 sec)
Heartbeat CPU 0 instructions: 39500224 cycles: 26684439 heartbeat IPC: 1.398 cumulative IPC: 1.48 (Simulation time: 00 hr 07 min 10 sec)
Heartbeat CPU 0 instructions: 40000229 cycles: 26933272 heartbeat IPC: 2.009 cumulative IPC: 1.485 (Simulation time: 00 hr 07 min 14 sec)
Heartbeat CPU 0 instructions: 40500230 cycles: 27223353 heartbeat IPC: 1.724 cumulative IPC: 1.488 (Simulation time: 00 hr 07 min 19 sec)
Heartbeat CPU 0 instructions: 41000235 cycles: 27552041 heartbeat IPC: 1.521 cumulative IPC: 1.488 (Simulation time: 00 hr 07 min 24 sec)
Heartbeat CPU 0 instructions: 41500242 cycles: 27901051 heartbeat IPC: 1.433 cumulative IPC: 1.487 (Simulation time: 00 hr 07 min 30 sec)
Heartbeat CPU 0 instructions: 42000242 cycles: 28259715 heartbeat IPC: 1.394 cumulative IPC: 1.486 (Simulation time: 00 hr 07 min 36 sec)
Heartbeat CPU 0 instructions: 42500244 cycles: 28618210 heartbeat IPC: 1.395 cumulative IPC: 1.485 (Simulation time: 00 hr 07 min 41 sec)
Heartbeat CPU 0 instructions: 43000246 cycles: 28976169 heartbeat IPC: 1.397 cumulative IPC: 1.484 (Simulation time: 00 hr 07 min 47 sec)
Heartbeat CPU 0 instructions: 43500251 cycles: 29386463 heartbeat IPC: 1.219 cumulative IPC: 1.48 (Simulation time: 00 hr 07 min 54 sec)
Heartbeat CPU 0 instructions: 44000257 cycles: 29798792 heartbeat IPC: 1.213 cumulative IPC: 1.477 (Simulation time: 00 hr 08 min 00 sec)
Heartbeat CPU 0 instructions: 44500263 cycles: 30194648 heartbeat IPC: 1.263 cumulative IPC: 1.474 (Simulation time: 00 hr 08 min 07 sec)
Heartbeat CPU 0 instructions: 45000270 cycles: 30552196 heartbeat IPC: 1.398 cumulative IPC: 1.473 (Simulation time: 00 hr 08 min 13 sec)
Heartbeat CPU 0 instructions: 45500276 cycles: 30848852 heartbeat IPC: 1.685 cumulative IPC: 1.475 (Simulation time: 00 hr 08 min 18 sec)
Heartbeat CPU 0 instructions: 46000279 cycles: 31134505 heartbeat IPC: 1.75 cumulative IPC: 1.477 (Simulation time: 00 hr 08 min 23 sec)
Heartbeat CPU 0 instructions: 46500280 cycles: 31396087 heartbeat IPC: 1.911 cumulative IPC: 1.481 (Simulation time: 00 hr 08 min 27 sec)
Heartbeat CPU 0 instructions: 47000284 cycles: 31744207 heartbeat IPC: 1.436 cumulative IPC: 1.481 (Simulation time: 00 hr 08 min 33 sec)
Heartbeat CPU 0 instructions: 47500288 cycles: 32102935 heartbeat IPC: 1.394 cumulative IPC: 1.48 (Simulation time: 00 hr 08 min 38 sec)
Heartbeat CPU 0 instructions: 48000291 cycles: 32461142 heartbeat IPC: 1.396 cumulative IPC: 1.479 (Simulation time: 00 hr 08 min 44 sec)
Heartbeat CPU 0 instructions: 48500293 cycles: 32819695 heartbeat IPC: 1.394 cumulative IPC: 1.478 (Simulation time: 00 hr 08 min 50 sec)
Heartbeat CPU 0 instructions: 49000294 cycles: 33203187 heartbeat IPC: 1.304 cumulative IPC: 1.476 (Simulation time: 00 hr 08 min 57 sec)
Heartbeat CPU 0 instructions: 49500298 cycles: 33612614 heartbeat IPC: 1.221 cumulative IPC: 1.473 (Simulation time: 00 hr 09 min 04 sec)
Warmup finished CPU 0 instructions: 50000003 cycles: 34020468 cumulative IPC: 1.47 (Simulation time: 00 hr 09 min 10 sec)
Warmup complete CPU 0 instructions: 50000003 cycles: 34020468 cumulative IPC: 1.47 (Simulation time: 00 hr 09 min 10 sec)
Heartbeat CPU 0 instructions: 50000303 cycles: 34021779 heartbeat IPC: 1.222 cumulative IPC: 0.2288 (Simulation time: 00 hr 09 min 10 sec)
Heartbeat CPU 0 instructions: 50500307 cycles: 35168205 heartbeat IPC: 0.4361 cumulative IPC: 0.4359 (Simulation time: 00 hr 09 min 23 sec)
Heartbeat CPU 0 instructions: 51000307 cycles: 36312558 heartbeat IPC: 0.4369 cumulative IPC: 0.4364 (Simulation time: 00 hr 09 min 35 sec)
Heartbeat CPU 0 instructions: 51500310 cycles: 36972137 heartbeat IPC: 0.7581 cumulative IPC: 0.5083 (Simulation time: 00 hr 09 min 43 sec)
Heartbeat CPU 0 instructions: 52000310 cycles: 37821432 heartbeat IPC: 0.5887 cumulative IPC: 0.5263 (Simulation time: 00 hr 09 min 52 sec)
Heartbeat CPU 0 instructions: 52500316 cycles: 38925399 heartbeat IPC: 0.4529 cumulative IPC: 0.5098 (Simulation time: 00 hr 10 min 03 sec)
Heartbeat CPU 0 instructions: 53000317 cycles: 40081217 heartbeat IPC: 0.4326 cumulative IPC: 0.495 (Simulation time: 00 hr 10 min 15 sec)
Heartbeat CPU 0 instructions: 53500318 cycles: 41239497 heartbeat IPC: 0.4317 cumulative IPC: 0.4849 (Simulation time: 00 hr 10 min 28 sec)
Heartbeat CPU 0 instructions: 54000319 cycles: 42396186 heartbeat IPC: 0.4323 cumulative IPC: 0.4776 (Simulation time: 00 hr 10 min 40 sec)
Heartbeat CPU 0 instructions: 54500320 cycles: 43536955 heartbeat IPC: 0.4383 cumulative IPC: 0.4729 (Simulation time: 00 hr 10 min 53 sec)
Heartbeat CPU 0 instructions: 55000320 cycles: 44786306 heartbeat IPC: 0.4002 cumulative IPC: 0.4645 (Simulation time: 00 hr 11 min 07 sec)
Heartbeat CPU 0 instructions: 55500321 cycles: 46036754 heartbeat IPC: 0.3999 cumulative IPC: 0.4577 (Simulation time: 00 hr 11 min 22 sec)
Heartbeat CPU 0 instructions: 56000321 cycles: 47231665 heartbeat IPC: 0.4184 cumulative IPC: 0.4542 (Simulation time: 00 hr 11 min 35 sec)
Heartbeat CPU 0 instructions: 56500325 cycles: 48390269 heartbeat IPC: 0.4316 cumulative IPC: 0.4524 (Simulation time: 00 hr 11 min 48 sec)
Heartbeat CPU 0 instructions: 57000328 cycles: 49226626 heartbeat IPC: 0.5978 cumulative IPC: 0.4604 (Simulation time: 00 hr 11 min 57 sec)
Heartbeat CPU 0 instructions: 57500332 cycles: 50193449 heartbeat IPC: 0.5172 cumulative IPC: 0.4638 (Simulation time: 00 hr 12 min 08 sec)
Heartbeat CPU 0 instructions: 58000337 cycles: 51008154 heartbeat IPC: 0.6137 cumulative IPC: 0.4709 (Simulation time: 00 hr 12 min 16 sec)
Heartbeat CPU 0 instructions: 58500339 cycles: 52096740 heartbeat IPC: 0.4593 cumulative IPC: 0.4702 (Simulation time: 00 hr 12 min 27 sec)
Heartbeat CPU 0 instructions: 59000345 cycles: 53220253 heartbeat IPC: 0.445 cumulative IPC: 0.4688 (Simulation time: 00 hr 12 min 39 sec)
Heartbeat CPU 0 instructions: 59500347 cycles: 54344807 heartbeat IPC: 0.4446 cumulative IPC: 0.4674 (Simulation time: 00 hr 12 min 50 sec)
Heartbeat CPU 0 instructions: 60000354 cycles: 55437721 heartbeat IPC: 0.4575 cumulative IPC: 0.4669 (Simulation time: 00 hr 13 min 02 sec)
Heartbeat CPU 0 instructions: 60500356 cycles: 56620952 heartbeat IPC: 0.4226 cumulative IPC: 0.4646 (Simulation time: 00 hr 13 min 14 sec)
Heartbeat CPU 0 instructions: 61000356 cycles: 57827631 heartbeat IPC: 0.4144 cumulative IPC: 0.4621 (Simulation time: 00 hr 13 min 27 sec)
Heartbeat CPU 0 instructions: 61500361 cycles: 59034426 heartbeat IPC: 0.4143 cumulative IPC: 0.4598 (Simulation time: 00 hr 13 min 40 sec)
Heartbeat CPU 0 instructions: 62000364 cycles: 60141961 heartbeat IPC: 0.4515 cumulative IPC: 0.4594 (Simulation time: 00 hr 13 min 52 sec)
Heartbeat CPU 0 instructions: 62500370 cycles: 61266621 heartbeat IPC: 0.4446 cumulative IPC: 0.4588 (Simulation time: 00 hr 14 min 03 sec)
Heartbeat CPU 0 instructions: 63000376 cycles: 61911578 heartbeat IPC: 0.7753 cumulative IPC: 0.4661 (Simulation time: 00 hr 14 min 10 sec)
Heartbeat CPU 0 instructions: 63500383 cycles: 62731044 heartbeat IPC: 0.6102 cumulative IPC: 0.4702 (Simulation time: 00 hr 14 min 19 sec)
Heartbeat CPU 0 instructions: 64000385 cycles: 63817235 heartbeat IPC: 0.4603 cumulative IPC: 0.4699 (Simulation time: 00 hr 14 min 30 sec)
Heartbeat CPU 0 instructions: 64500391 cycles: 64938652 heartbeat IPC: 0.4459 cumulative IPC: 0.469 (Simulation time: 00 hr 14 min 41 sec)
Heartbeat CPU 0 instructions: 65000394 cycles: 66061444 heartbeat IPC: 0.4453 cumulative IPC: 0.4682 (Simulation time: 00 hr 14 min 53 sec)
Heartbeat CPU 0 instructions: 65500394 cycles: 67183376 heartbeat IPC: 0.4457 cumulative IPC: 0.4674 (Simulation time: 00 hr 15 min 04 sec)
Heartbeat CPU 0 instructions: 66000394 cycles: 68296422 heartbeat IPC: 0.4492 cumulative IPC: 0.4668 (Simulation time: 00 hr 15 min 16 sec)
Heartbeat CPU 0 instructions: 66500400 cycles: 69503024 heartbeat IPC: 0.4144 cumulative IPC: 0.465 (Simulation time: 00 hr 15 min 29 sec)
Heartbeat CPU 0 instructions: 67000401 cycles: 70709862 heartbeat IPC: 0.4143 cumulative IPC: 0.4634 (Simulation time: 00 hr 15 min 42 sec)
Heartbeat CPU 0 instructions: 67500408 cycles: 71857002 heartbeat IPC: 0.4359 cumulative IPC: 0.4625 (Simulation time: 00 hr 15 min 54 sec)
Heartbeat CPU 0 instructions: 68000409 cycles: 72979589 heartbeat IPC: 0.4454 cumulative IPC: 0.462 (Simulation time: 00 hr 16 min 06 sec)
Heartbeat CPU 0 instructions: 68500409 cycles: 73716751 heartbeat IPC: 0.6783 cumulative IPC: 0.466 (Simulation time: 00 hr 16 min 14 sec)
Heartbeat CPU 0 instructions: 69000409 cycles: 74740515 heartbeat IPC: 0.4884 cumulative IPC: 0.4666 (Simulation time: 00 hr 16 min 24 sec)
Heartbeat CPU 0 instructions: 69500416 cycles: 75568426 heartbeat IPC: 0.6039 cumulative IPC: 0.4693 (Simulation time: 00 hr 16 min 33 sec)
Heartbeat CPU 0 instructions: 70000418 cycles: 76668142 heartbeat IPC: 0.4547 cumulative IPC: 0.469 (Simulation time: 00 hr 16 min 45 sec)
Heartbeat CPU 0 instructions: 70500418 cycles: 77802642 heartbeat IPC: 0.4407 cumulative IPC: 0.4682 (Simulation time: 00 hr 16 min 56 sec)
Heartbeat CPU 0 instructions: 71000425 cycles: 78937287 heartbeat IPC: 0.4407 cumulative IPC: 0.4675 (Simulation time: 00 hr 17 min 08 sec)
Heartbeat CPU 0 instructions: 71500428 cycles: 80021159 heartbeat IPC: 0.4613 cumulative IPC: 0.4674 (Simulation time: 00 hr 17 min 19 sec)
Heartbeat CPU 0 instructions: 72000428 cycles: 81232022 heartbeat IPC: 0.4129 cumulative IPC: 0.466 (Simulation time: 00 hr 17 min 32 sec)
Heartbeat CPU 0 instructions: 72500429 cycles: 82441859 heartbeat IPC: 0.4133 cumulative IPC: 0.4647 (Simulation time: 00 hr 17 min 45 sec)
Heartbeat CPU 0 instructions: 73000431 cycles: 83652694 heartbeat IPC: 0.4129 cumulative IPC: 0.4634 (Simulation time: 00 hr 17 min 58 sec)
Heartbeat CPU 0 instructions: 73500433 cycles: 84767020 heartbeat IPC: 0.4487 cumulative IPC: 0.4631 (Simulation time: 00 hr 18 min 10 sec)
Heartbeat CPU 0 instructions: 74000436 cycles: 85901109 heartbeat IPC: 0.4409 cumulative IPC: 0.4626 (Simulation time: 00 hr 18 min 21 sec)
Heartbeat CPU 0 instructions: 74500443 cycles: 86554499 heartbeat IPC: 0.7653 cumulative IPC: 0.4664 (Simulation time: 00 hr 18 min 29 sec)
Heartbeat CPU 0 instructions: 75000450 cycles: 87373463 heartbeat IPC: 0.6105 cumulative IPC: 0.4686 (Simulation time: 00 hr 18 min 37 sec)
Heartbeat CPU 0 instructions: 75500452 cycles: 88428461 heartbeat IPC: 0.4739 cumulative IPC: 0.4687 (Simulation time: 00 hr 18 min 48 sec)
Heartbeat CPU 0 instructions: 76000458 cycles: 89524845 heartbeat IPC: 0.4561 cumulative IPC: 0.4684 (Simulation time: 00 hr 19 min 00 sec)
Heartbeat CPU 0 instructions: 76500461 cycles: 90615327 heartbeat IPC: 0.4585 cumulative IPC: 0.4682 (Simulation time: 00 hr 19 min 11 sec)
Heartbeat CPU 0 instructions: 77000462 cycles: 91708771 heartbeat IPC: 0.4573 cumulative IPC: 0.468 (Simulation time: 00 hr 19 min 22 sec)
Heartbeat CPU 0 instructions: 77500466 cycles: 92804574 heartbeat IPC: 0.4563 cumulative IPC: 0.4678 (Simulation time: 00 hr 19 min 34 sec)
Heartbeat CPU 0 instructions: 78000469 cycles: 93989845 heartbeat IPC: 0.4218 cumulative IPC: 0.4669 (Simulation time: 00 hr 19 min 47 sec)
Heartbeat CPU 0 instructions: 78500473 cycles: 95172007 heartbeat IPC: 0.423 cumulative IPC: 0.4661 (Simulation time: 00 hr 19 min 59 sec)
Heartbeat CPU 0 instructions: 79000476 cycles: 96288502 heartbeat IPC: 0.4478 cumulative IPC: 0.4657 (Simulation time: 00 hr 20 min 11 sec)
Heartbeat CPU 0 instructions: 79500477 cycles: 97381760 heartbeat IPC: 0.4573 cumulative IPC: 0.4656 (Simulation time: 00 hr 20 min 23 sec)
Heartbeat CPU 0 instructions: 80000478 cycles: 98016721 heartbeat IPC: 0.7875 cumulative IPC: 0.4688 (Simulation time: 00 hr 20 min 30 sec)
Heartbeat CPU 0 instructions: 80500478 cycles: 99056122 heartbeat IPC: 0.481 cumulative IPC: 0.469 (Simulation time: 00 hr 20 min 40 sec)
Heartbeat CPU 0 instructions: 81000482 cycles: 99901992 heartbeat IPC: 0.5911 cumulative IPC: 0.4705 (Simulation time: 00 hr 20 min 49 sec)
Heartbeat CPU 0 instructions: 81500483 cycles: 100959696 heartbeat IPC: 0.4727 cumulative IPC: 0.4706 (Simulation time: 00 hr 21 min 00 sec)
Heartbeat CPU 0 instructions: 82000485 cycles: 102053753 heartbeat IPC: 0.457 cumulative IPC: 0.4704 (Simulation time: 00 hr 21 min 11 sec)
Heartbeat CPU 0 instructions: 82500487 cycles: 103146261 heartbeat IPC: 0.4577 cumulative IPC: 0.4702 (Simulation time: 00 hr 21 min 23 sec)
Heartbeat CPU 0 instructions: 83000492 cycles: 104207074 heartbeat IPC: 0.4713 cumulative IPC: 0.4702 (Simulation time: 00 hr 21 min 33 sec)
Heartbeat CPU 0 instructions: 83500499 cycles: 105388420 heartbeat IPC: 0.4233 cumulative IPC: 0.4694 (Simulation time: 00 hr 21 min 46 sec)
Heartbeat CPU 0 instructions: 84000499 cycles: 106563992 heartbeat IPC: 0.4253 cumulative IPC: 0.4687 (Simulation time: 00 hr 21 min 58 sec)
Heartbeat CPU 0 instructions: 84500501 cycles: 107740695 heartbeat IPC: 0.4249 cumulative IPC: 0.468 (Simulation time: 00 hr 22 min 11 sec)
Heartbeat CPU 0 instructions: 85000505 cycles: 108814846 heartbeat IPC: 0.4655 cumulative IPC: 0.468 (Simulation time: 00 hr 22 min 22 sec)
Heartbeat CPU 0 instructions: 85500506 cycles: 109840642 heartbeat IPC: 0.4874 cumulative IPC: 0.4682 (Simulation time: 00 hr 22 min 32 sec)
Heartbeat CPU 0 instructions: 86000508 cycles: 110530001 heartbeat IPC: 0.7253 cumulative IPC: 0.4705 (Simulation time: 00 hr 22 min 40 sec)
Heartbeat CPU 0 instructions: 86500509 cycles: 111321750 heartbeat IPC: 0.6315 cumulative IPC: 0.4722 (Simulation time: 00 hr 22 min 48 sec)
Heartbeat CPU 0 instructions: 87000515 cycles: 112389039 heartbeat IPC: 0.4685 cumulative IPC: 0.4721 (Simulation time: 00 hr 22 min 59 sec)
Heartbeat CPU 0 instructions: 87500517 cycles: 113494675 heartbeat IPC: 0.4522 cumulative IPC: 0.4719 (Simulation time: 00 hr 23 min 10 sec)
Heartbeat CPU 0 instructions: 88000523 cycles: 114597807 heartbeat IPC: 0.4533 cumulative IPC: 0.4716 (Simulation time: 00 hr 23 min 21 sec)
Heartbeat CPU 0 instructions: 88500526 cycles: 115701430 heartbeat IPC: 0.4531 cumulative IPC: 0.4714 (Simulation time: 00 hr 23 min 32 sec)
Heartbeat CPU 0 instructions: 89000529 cycles: 116811077 heartbeat IPC: 0.4506 cumulative IPC: 0.4711 (Simulation time: 00 hr 23 min 43 sec)
Heartbeat CPU 0 instructions: 89500529 cycles: 117994765 heartbeat IPC: 0.4224 cumulative IPC: 0.4704 (Simulation time: 00 hr 23 min 56 sec)
Heartbeat CPU 0 instructions: 90000529 cycles: 119178171 heartbeat IPC: 0.4225 cumulative IPC: 0.4697 (Simulation time: 00 hr 24 min 08 sec)
Heartbeat CPU 0 instructions: 90500536 cycles: 120290126 heartbeat IPC: 0.4497 cumulative IPC: 0.4695 (Simulation time: 00 hr 24 min 19 sec)
Heartbeat CPU 0 instructions: 91000536 cycles: 121394025 heartbeat IPC: 0.4529 cumulative IPC: 0.4693 (Simulation time: 00 hr 24 min 30 sec)
Heartbeat CPU 0 instructions: 91500536 cycles: 122030662 heartbeat IPC: 0.7854 cumulative IPC: 0.4715 (Simulation time: 00 hr 24 min 37 sec)
Heartbeat CPU 0 instructions: 92000539 cycles: 123011830 heartbeat IPC: 0.5096 cumulative IPC: 0.472 (Simulation time: 00 hr 24 min 47 sec)
Heartbeat CPU 0 instructions: 92500539 cycles: 123925851 heartbeat IPC: 0.547 cumulative IPC: 0.4727 (Simulation time: 00 hr 24 min 56 sec)
Heartbeat CPU 0 instructions: 93000541 cycles: 124975318 heartbeat IPC: 0.4764 cumulative IPC: 0.4728 (Simulation time: 00 hr 25 min 06 sec)
Heartbeat CPU 0 instructions: 93500546 cycles: 126059002 heartbeat IPC: 0.4614 cumulative IPC: 0.4726 (Simulation time: 00 hr 25 min 17 sec)
Heartbeat CPU 0 instructions: 94000546 cycles: 127144174 heartbeat IPC: 0.4608 cumulative IPC: 0.4725 (Simulation time: 00 hr 25 min 28 sec)
Heartbeat CPU 0 instructions: 94500547 cycles: 128203816 heartbeat IPC: 0.4719 cumulative IPC: 0.4725 (Simulation time: 00 hr 25 min 38 sec)
Heartbeat CPU 0 instructions: 95000553 cycles: 129371714 heartbeat IPC: 0.4281 cumulative IPC: 0.4719 (Simulation time: 00 hr 25 min 50 sec)
Heartbeat CPU 0 instructions: 95500555 cycles: 130540620 heartbeat IPC: 0.4278 cumulative IPC: 0.4714 (Simulation time: 00 hr 26 min 02 sec)
Heartbeat CPU 0 instructions: 96000555 cycles: 131701795 heartbeat IPC: 0.4306 cumulative IPC: 0.4709 (Simulation time: 00 hr 26 min 14 sec)
Heartbeat CPU 0 instructions: 96500558 cycles: 132761135 heartbeat IPC: 0.472 cumulative IPC: 0.4709 (Simulation time: 00 hr 26 min 24 sec)
Heartbeat CPU 0 instructions: 97000560 cycles: 133700560 heartbeat IPC: 0.5322 cumulative IPC: 0.4715 (Simulation time: 00 hr 26 min 33 sec)
Heartbeat CPU 0 instructions: 97500565 cycles: 134462164 heartbeat IPC: 0.6565 cumulative IPC: 0.4729 (Simulation time: 00 hr 26 min 41 sec)
Heartbeat CPU 0 instructions: 98000571 cycles: 135265157 heartbeat IPC: 0.6227 cumulative IPC: 0.4741 (Simulation time: 00 hr 26 min 49 sec)
Heartbeat CPU 0 instructions: 98500571 cycles: 136344982 heartbeat IPC: 0.463 cumulative IPC: 0.474 (Simulation time: 00 hr 26 min 59 sec)
Heartbeat CPU 0 instructions: 99000574 cycles: 137459138 heartbeat IPC: 0.4488 cumulative IPC: 0.4737 (Simulation time: 00 hr 27 min 09 sec)
Heartbeat CPU 0 instructions: 99500580 cycles: 138568650 heartbeat IPC: 0.4507 cumulative IPC: 0.4735 (Simulation time: 00 hr 27 min 20 sec)
Heartbeat CPU 0 instructions: 100000581 cycles: 139678972 heartbeat IPC: 0.4503 cumulative IPC: 0.4732 (Simulation time: 00 hr 27 min 30 sec)
Heartbeat CPU 0 instructions: 100500581 cycles: 140810730 heartbeat IPC: 0.4418 cumulative IPC: 0.4729 (Simulation time: 00 hr 27 min 42 sec)
Heartbeat CPU 0 instructions: 101000585 cycles: 142007649 heartbeat IPC: 0.4177 cumulative IPC: 0.4723 (Simulation time: 00 hr 27 min 53 sec)
Heartbeat CPU 0 instructions: 101500587 cycles: 143202263 heartbeat IPC: 0.4185 cumulative IPC: 0.4717 (Simulation time: 00 hr 28 min 05 sec)
Heartbeat CPU 0 instructions: 102000591 cycles: 144317014 heartbeat IPC: 0.4485 cumulative IPC: 0.4715 (Simulation time: 00 hr 28 min 15 sec)
Heartbeat CPU 0 instructions: 102500598 cycles: 145428867 heartbeat IPC: 0.4497 cumulative IPC: 0.4712 (Simulation time: 00 hr 28 min 25 sec)
Heartbeat CPU 0 instructions: 103000600 cycles: 146067040 heartbeat IPC: 0.7835 cumulative IPC: 0.473 (Simulation time: 00 hr 28 min 32 sec)
Heartbeat CPU 0 instructions: 103500605 cycles: 146961321 heartbeat IPC: 0.5591 cumulative IPC: 0.4737 (Simulation time: 00 hr 28 min 40 sec)
Heartbeat CPU 0 instructions: 104000611 cycles: 147956389 heartbeat IPC: 0.5025 cumulative IPC: 0.474 (Simulation time: 00 hr 28 min 49 sec)
Heartbeat CPU 0 instructions: 104500616 cycles: 149040812 heartbeat IPC: 0.4611 cumulative IPC: 0.4738 (Simulation time: 00 hr 28 min 59 sec)
Heartbeat CPU 0 instructions: 105000616 cycles: 150144565 heartbeat IPC: 0.453 cumulative IPC: 0.4736 (Simulation time: 00 hr 29 min 10 sec)
Heartbeat CPU 0 instructions: 105500623 cycles: 151250035 heartbeat IPC: 0.4523 cumulative IPC: 0.4734 (Simulation time: 00 hr 29 min 20 sec)
Heartbeat CPU 0 instructions: 106000625 cycles: 152336576 heartbeat IPC: 0.4602 cumulative IPC: 0.4733 (Simulation time: 00 hr 29 min 30 sec)
Heartbeat CPU 0 instructions: 106500625 cycles: 153519576 heartbeat IPC: 0.4227 cumulative IPC: 0.4728 (Simulation time: 00 hr 29 min 41 sec)
Heartbeat CPU 0 instructions: 107000627 cycles: 154704665 heartbeat IPC: 0.4219 cumulative IPC: 0.4723 (Simulation time: 00 hr 29 min 53 sec)
Heartbeat CPU 0 instructions: 107500629 cycles: 155844278 heartbeat IPC: 0.4387 cumulative IPC: 0.472 (Simulation time: 00 hr 30 min 04 sec)
Heartbeat CPU 0 instructions: 108000631 cycles: 156947457 heartbeat IPC: 0.4532 cumulative IPC: 0.4718 (Simulation time: 00 hr 30 min 14 sec)
Heartbeat CPU 0 instructions: 108500632 cycles: 157819350 heartbeat IPC: 0.5735 cumulative IPC: 0.4725 (Simulation time: 00 hr 30 min 22 sec)
Heartbeat CPU 0 instructions: 109000637 cycles: 158683200 heartbeat IPC: 0.5788 cumulative IPC: 0.4733 (Simulation time: 00 hr 30 min 31 sec)
Heartbeat CPU 0 instructions: 109500638 cycles: 159490414 heartbeat IPC: 0.6194 cumulative IPC: 0.4742 (Simulation time: 00 hr 30 min 38 sec)
Heartbeat CPU 0 instructions: 110000641 cycles: 160558103 heartbeat IPC: 0.4683 cumulative IPC: 0.4742 (Simulation time: 00 hr 30 min 48 sec)
Heartbeat CPU 0 instructions: 110500641 cycles: 161658039 heartbeat IPC: 0.4546 cumulative IPC: 0.474 (Simulation time: 00 hr 30 min 58 sec)
Heartbeat CPU 0 instructions: 111000645 cycles: 162758156 heartbeat IPC: 0.4545 cumulative IPC: 0.4738 (Simulation time: 00 hr 31 min 09 sec)
Heartbeat CPU 0 instructions: 111500647 cycles: 163856931 heartbeat IPC: 0.4551 cumulative IPC: 0.4737 (Simulation time: 00 hr 31 min 19 sec)
Heartbeat CPU 0 instructions: 112000649 cycles: 164988972 heartbeat IPC: 0.4417 cumulative IPC: 0.4734 (Simulation time: 00 hr 31 min 30 sec)
Heartbeat CPU 0 instructions: 112500653 cycles: 166174549 heartbeat IPC: 0.4217 cumulative IPC: 0.4729 (Simulation time: 00 hr 31 min 41 sec)
Heartbeat CPU 0 instructions: 113000655 cycles: 167358644 heartbeat IPC: 0.4223 cumulative IPC: 0.4725 (Simulation time: 00 hr 31 min 52 sec)
Heartbeat CPU 0 instructions: 113500655 cycles: 168456070 heartbeat IPC: 0.4556 cumulative IPC: 0.4723 (Simulation time: 00 hr 32 min 03 sec)
Heartbeat CPU 0 instructions: 114000657 cycles: 169556277 heartbeat IPC: 0.4545 cumulative IPC: 0.4722 (Simulation time: 00 hr 32 min 13 sec)
Heartbeat CPU 0 instructions: 114500660 cycles: 170193617 heartbeat IPC: 0.7845 cumulative IPC: 0.4737 (Simulation time: 00 hr 32 min 19 sec)
Heartbeat CPU 0 instructions: 115000661 cycles: 171005087 heartbeat IPC: 0.6162 cumulative IPC: 0.4745 (Simulation time: 00 hr 32 min 27 sec)
Heartbeat CPU 0 instructions: 115500667 cycles: 172100010 heartbeat IPC: 0.4567 cumulative IPC: 0.4744 (Simulation time: 00 hr 32 min 37 sec)
Heartbeat CPU 0 instructions: 116000669 cycles: 173229969 heartbeat IPC: 0.4425 cumulative IPC: 0.4741 (Simulation time: 00 hr 32 min 48 sec)
Heartbeat CPU 0 instructions: 116500669 cycles: 174362852 heartbeat IPC: 0.4414 cumulative IPC: 0.4738 (Simulation time: 00 hr 32 min 58 sec)
Heartbeat CPU 0 instructions: 117000672 cycles: 175492553 heartbeat IPC: 0.4426 cumulative IPC: 0.4736 (Simulation time: 00 hr 33 min 09 sec)
Heartbeat CPU 0 instructions: 117500679 cycles: 176613395 heartbeat IPC: 0.4461 cumulative IPC: 0.4734 (Simulation time: 00 hr 33 min 19 sec)
Heartbeat CPU 0 instructions: 118000685 cycles: 177831525 heartbeat IPC: 0.4105 cumulative IPC: 0.4728 (Simulation time: 00 hr 33 min 31 sec)
Heartbeat CPU 0 instructions: 118500685 cycles: 179050448 heartbeat IPC: 0.4102 cumulative IPC: 0.4723 (Simulation time: 00 hr 33 min 43 sec)
Heartbeat CPU 0 instructions: 119000686 cycles: 180217003 heartbeat IPC: 0.4286 cumulative IPC: 0.472 (Simulation time: 00 hr 33 min 54 sec)
Heartbeat CPU 0 instructions: 119500690 cycles: 181351503 heartbeat IPC: 0.4407 cumulative IPC: 0.4717 (Simulation time: 00 hr 34 min 04 sec)
Heartbeat CPU 0 instructions: 120000692 cycles: 182158727 heartbeat IPC: 0.6194 cumulative IPC: 0.4725 (Simulation time: 00 hr 34 min 12 sec)
Heartbeat CPU 0 instructions: 120500698 cycles: 183127212 heartbeat IPC: 0.5163 cumulative IPC: 0.4728 (Simulation time: 00 hr 34 min 21 sec)
Heartbeat CPU 0 instructions: 121000699 cycles: 183970298 heartbeat IPC: 0.5931 cumulative IPC: 0.4735 (Simulation time: 00 hr 34 min 30 sec)
Heartbeat CPU 0 instructions: 121500699 cycles: 185091115 heartbeat IPC: 0.4461 cumulative IPC: 0.4733 (Simulation time: 00 hr 34 min 40 sec)
Heartbeat CPU 0 instructions: 122000700 cycles: 186248410 heartbeat IPC: 0.432 cumulative IPC: 0.473 (Simulation time: 00 hr 34 min 51 sec)
Heartbeat CPU 0 instructions: 122500702 cycles: 187406406 heartbeat IPC: 0.4318 cumulative IPC: 0.4727 (Simulation time: 00 hr 35 min 02 sec)
Heartbeat CPU 0 instructions: 123000704 cycles: 188518274 heartbeat IPC: 0.4497 cumulative IPC: 0.4725 (Simulation time: 00 hr 35 min 13 sec)
Heartbeat CPU 0 instructions: 123500711 cycles: 189761260 heartbeat IPC: 0.4023 cumulative IPC: 0.4719 (Simulation time: 00 hr 35 min 25 sec)
Heartbeat CPU 0 instructions: 124000711 cycles: 191012764 heartbeat IPC: 0.3995 cumulative IPC: 0.4714 (Simulation time: 00 hr 35 min 37 sec)
Heartbeat CPU 0 instructions: 124500714 cycles: 192263856 heartbeat IPC: 0.3997 cumulative IPC: 0.4708 (Simulation time: 00 hr 35 min 50 sec)
Heartbeat CPU 0 instructions: 125000716 cycles: 193408874 heartbeat IPC: 0.4367 cumulative IPC: 0.4706 (Simulation time: 00 hr 36 min 00 sec)
Heartbeat CPU 0 instructions: 125500720 cycles: 194565328 heartbeat IPC: 0.4324 cumulative IPC: 0.4703 (Simulation time: 00 hr 36 min 11 sec)
Heartbeat CPU 0 instructions: 126000727 cycles: 195221942 heartbeat IPC: 0.7615 cumulative IPC: 0.4715 (Simulation time: 00 hr 36 min 18 sec)
Heartbeat CPU 0 instructions: 126500728 cycles: 196054737 heartbeat IPC: 0.6004 cumulative IPC: 0.4721 (Simulation time: 00 hr 36 min 26 sec)
Heartbeat CPU 0 instructions: 127000733 cycles: 197154979 heartbeat IPC: 0.4545 cumulative IPC: 0.472 (Simulation time: 00 hr 36 min 37 sec)
Heartbeat CPU 0 instructions: 127500736 cycles: 198295106 heartbeat IPC: 0.4386 cumulative IPC: 0.4718 (Simulation time: 00 hr 36 min 47 sec)
Heartbeat CPU 0 instructions: 128000738 cycles: 199433724 heartbeat IPC: 0.4391 cumulative IPC: 0.4716 (Simulation time: 00 hr 36 min 58 sec)
Heartbeat CPU 0 instructions: 128500738 cycles: 200573020 heartbeat IPC: 0.4389 cumulative IPC: 0.4713 (Simulation time: 00 hr 37 min 08 sec)
Heartbeat CPU 0 instructions: 129000741 cycles: 201707574 heartbeat IPC: 0.4407 cumulative IPC: 0.4711 (Simulation time: 00 hr 37 min 19 sec)
Heartbeat CPU 0 instructions: 129500741 cycles: 202933136 heartbeat IPC: 0.408 cumulative IPC: 0.4707 (Simulation time: 00 hr 37 min 31 sec)
Heartbeat CPU 0 instructions: 130000743 cycles: 204155775 heartbeat IPC: 0.409 cumulative IPC: 0.4702 (Simulation time: 00 hr 37 min 43 sec)
Heartbeat CPU 0 instructions: 130500747 cycles: 205320885 heartbeat IPC: 0.4291 cumulative IPC: 0.4699 (Simulation time: 00 hr 37 min 54 sec)
Heartbeat CPU 0 instructions: 131000748 cycles: 206458683 heartbeat IPC: 0.4394 cumulative IPC: 0.4697 (Simulation time: 00 hr 38 min 04 sec)
Heartbeat CPU 0 instructions: 131500752 cycles: 207189231 heartbeat IPC: 0.6844 cumulative IPC: 0.4706 (Simulation time: 00 hr 38 min 11 sec)
Heartbeat CPU 0 instructions: 132000753 cycles: 208241283 heartbeat IPC: 0.4753 cumulative IPC: 0.4707 (Simulation time: 00 hr 38 min 21 sec)
Heartbeat CPU 0 instructions: 132500757 cycles: 209050389 heartbeat IPC: 0.618 cumulative IPC: 0.4714 (Simulation time: 00 hr 38 min 29 sec)
Heartbeat CPU 0 instructions: 133000758 cycles: 210118300 heartbeat IPC: 0.4682 cumulative IPC: 0.4713 (Simulation time: 00 hr 38 min 39 sec)
Heartbeat CPU 0 instructions: 133500760 cycles: 211224083 heartbeat IPC: 0.4522 cumulative IPC: 0.4712 (Simulation time: 00 hr 38 min 49 sec)
Heartbeat CPU 0 instructions: 134000767 cycles: 212329699 heartbeat IPC: 0.4522 cumulative IPC: 0.4711 (Simulation time: 00 hr 39 min 00 sec)
Heartbeat CPU 0 instructions: 134500769 cycles: 213394277 heartbeat IPC: 0.4697 cumulative IPC: 0.4711 (Simulation time: 00 hr 39 min 10 sec)
Heartbeat CPU 0 instructions: 135000769 cycles: 214579384 heartbeat IPC: 0.4219 cumulative IPC: 0.4708 (Simulation time: 00 hr 39 min 21 sec)
Heartbeat CPU 0 instructions: 135500769 cycles: 215761916 heartbeat IPC: 0.4228 cumulative IPC: 0.4705 (Simulation time: 00 hr 39 min 33 sec)
Heartbeat CPU 0 instructions: 136000774 cycles: 216946358 heartbeat IPC: 0.4221 cumulative IPC: 0.4701 (Simulation time: 00 hr 39 min 44 sec)
Heartbeat CPU 0 instructions: 136500781 cycles: 218028383 heartbeat IPC: 0.4621 cumulative IPC: 0.4701 (Simulation time: 00 hr 39 min 54 sec)
Heartbeat CPU 0 instructions: 137000783 cycles: 219137594 heartbeat IPC: 0.4508 cumulative IPC: 0.47 (Simulation time: 00 hr 40 min 05 sec)
Heartbeat CPU 0 instructions: 137500784 cycles: 219769859 heartbeat IPC: 0.7908 cumulative IPC: 0.4711 (Simulation time: 00 hr 40 min 11 sec)
Heartbeat CPU 0 instructions: 138000790 cycles: 220581274 heartbeat IPC: 0.6162 cumulative IPC: 0.4717 (Simulation time: 00 hr 40 min 19 sec)
Heartbeat CPU 0 instructions: 138500790 cycles: 221647111 heartbeat IPC: 0.4691 cumulative IPC: 0.4717 (Simulation time: 00 hr 40 min 29 sec)
Heartbeat CPU 0 instructions: 139000797 cycles: 222749792 heartbeat IPC: 0.4534 cumulative IPC: 0.4716 (Simulation time: 00 hr 40 min 39 sec)
Heartbeat CPU 0 instructions: 139500801 cycles: 223854360 heartbeat IPC: 0.4527 cumulative IPC: 0.4715 (Simulation time: 00 hr 40 min 49 sec)
Heartbeat CPU 0 instructions: 140000803 cycles: 224957688 heartbeat IPC: 0.4532 cumulative IPC: 0.4714 (Simulation time: 00 hr 41 min 00 sec)
Heartbeat CPU 0 instructions: 140500805 cycles: 226063572 heartbeat IPC: 0.4521 cumulative IPC: 0.4713 (Simulation time: 00 hr 41 min 10 sec)
Heartbeat CPU 0 instructions: 141000807 cycles: 227246566 heartbeat IPC: 0.4227 cumulative IPC: 0.471 (Simulation time: 00 hr 41 min 21 sec)
Heartbeat CPU 0 instructions: 141500814 cycles: 228430507 heartbeat IPC: 0.4223 cumulative IPC: 0.4707 (Simulation time: 00 hr 41 min 33 sec)
Heartbeat CPU 0 instructions: 142000815 cycles: 229549059 heartbeat IPC: 0.447 cumulative IPC: 0.4705 (Simulation time: 00 hr 41 min 44 sec)
Heartbeat CPU 0 instructions: 142500815 cycles: 230652007 heartbeat IPC: 0.4533 cumulative IPC: 0.4704 (Simulation time: 00 hr 41 min 54 sec)
Heartbeat CPU 0 instructions: 143000818 cycles: 231285906 heartbeat IPC: 0.7888 cumulative IPC: 0.4715 (Simulation time: 00 hr 42 min 00 sec)
Heartbeat CPU 0 instructions: 143500818 cycles: 232327833 heartbeat IPC: 0.4799 cumulative IPC: 0.4715 (Simulation time: 00 hr 42 min 10 sec)
Heartbeat CPU 0 instructions: 144000821 cycles: 233191988 heartbeat IPC: 0.5786 cumulative IPC: 0.472 (Simulation time: 00 hr 42 min 18 sec)
Heartbeat CPU 0 instructions: 144500823 cycles: 234262135 heartbeat IPC: 0.4672 cumulative IPC: 0.4719 (Simulation time: 00 hr 42 min 28 sec)
Heartbeat CPU 0 instructions: 145000824 cycles: 235366438 heartbeat IPC: 0.4528 cumulative IPC: 0.4718 (Simulation time: 00 hr 42 min 39 sec)
Heartbeat CPU 0 instructions: 145500827 cycles: 236471389 heartbeat IPC: 0.4525 cumulative IPC: 0.4717 (Simulation time: 00 hr 42 min 49 sec)
Heartbeat CPU 0 instructions: 146000829 cycles: 237541371 heartbeat IPC: 0.4673 cumulative IPC: 0.4717 (Simulation time: 00 hr 42 min 59 sec)
Heartbeat CPU 0 instructions: 146500835 cycles: 238724742 heartbeat IPC: 0.4225 cumulative IPC: 0.4714 (Simulation time: 00 hr 43 min 10 sec)
Heartbeat CPU 0 instructions: 147000840 cycles: 239906640 heartbeat IPC: 0.4231 cumulative IPC: 0.4711 (Simulation time: 00 hr 43 min 22 sec)
Heartbeat CPU 0 instructions: 147500842 cycles: 241090780 heartbeat IPC: 0.4222 cumulative IPC: 0.4709 (Simulation time: 00 hr 43 min 33 sec)
Heartbeat CPU 0 instructions: 148000848 cycles: 242168324 heartbeat IPC: 0.464 cumulative IPC: 0.4708 (Simulation time: 00 hr 43 min 43 sec)
Heartbeat CPU 0 instructions: 148500849 cycles: 243191465 heartbeat IPC: 0.4887 cumulative IPC: 0.4709 (Simulation time: 00 hr 43 min 53 sec)
Heartbeat CPU 0 instructions: 149000850 cycles: 243907159 heartbeat IPC: 0.6986 cumulative IPC: 0.4717 (Simulation time: 00 hr 44 min 00 sec)
Heartbeat CPU 0 instructions: 149500857 cycles: 244709706 heartbeat IPC: 0.623 cumulative IPC: 0.4723 (Simulation time: 00 hr 44 min 07 sec)
Heartbeat CPU 0 instructions: 150000859 cycles: 245774265 heartbeat IPC: 0.4697 cumulative IPC: 0.4723 (Simulation time: 00 hr 44 min 17 sec)
Heartbeat CPU 0 instructions: 150500865 cycles: 246879135 heartbeat IPC: 0.4525 cumulative IPC: 0.4721 (Simulation time: 00 hr 44 min 28 sec)
Heartbeat CPU 0 instructions: 151000865 cycles: 247985815 heartbeat IPC: 0.4518 cumulative IPC: 0.472 (Simulation time: 00 hr 44 min 38 sec)
Heartbeat CPU 0 instructions: 151500868 cycles: 249090288 heartbeat IPC: 0.4527 cumulative IPC: 0.4719 (Simulation time: 00 hr 44 min 48 sec)
Heartbeat CPU 0 instructions: 152000869 cycles: 250203204 heartbeat IPC: 0.4493 cumulative IPC: 0.4718 (Simulation time: 00 hr 44 min 59 sec)
Heartbeat CPU 0 instructions: 152500870 cycles: 251388409 heartbeat IPC: 0.4219 cumulative IPC: 0.4716 (Simulation time: 00 hr 45 min 11 sec)
Heartbeat CPU 0 instructions: 153000870 cycles: 252572410 heartbeat IPC: 0.4223 cumulative IPC: 0.4713 (Simulation time: 00 hr 45 min 22 sec)
Heartbeat CPU 0 instructions: 153500870 cycles: 253679521 heartbeat IPC: 0.4516 cumulative IPC: 0.4712 (Simulation time: 00 hr 45 min 33 sec)
Heartbeat CPU 0 instructions: 154000876 cycles: 254783594 heartbeat IPC: 0.4529 cumulative IPC: 0.4711 (Simulation time: 00 hr 45 min 43 sec)
Heartbeat CPU 0 instructions: 154500877 cycles: 255417934 heartbeat IPC: 0.7882 cumulative IPC: 0.472 (Simulation time: 00 hr 45 min 50 sec)
Heartbeat CPU 0 instructions: 155000880 cycles: 256390242 heartbeat IPC: 0.5142 cumulative IPC: 0.4722 (Simulation time: 00 hr 45 min 59 sec)
Heartbeat CPU 0 instructions: 155500887 cycles: 257333715 heartbeat IPC: 0.53 cumulative IPC: 0.4724 (Simulation time: 00 hr 46 min 08 sec)
Heartbeat CPU 0 instructions: 156000890 cycles: 258388507 heartbeat IPC: 0.474 cumulative IPC: 0.4724 (Simulation time: 00 hr 46 min 17 sec)
Heartbeat CPU 0 instructions: 156500896 cycles: 259480207 heartbeat IPC: 0.458 cumulative IPC: 0.4724 (Simulation time: 00 hr 46 min 27 sec)
Heartbeat CPU 0 instructions: 157000900 cycles: 260571315 heartbeat IPC: 0.4583 cumulative IPC: 0.4723 (Simulation time: 00 hr 46 min 38 sec)
Heartbeat CPU 0 instructions: 157500903 cycles: 261640656 heartbeat IPC: 0.4676 cumulative IPC: 0.4723 (Simulation time: 00 hr 46 min 48 sec)
Heartbeat CPU 0 instructions: 158000909 cycles: 262819541 heartbeat IPC: 0.4241 cumulative IPC: 0.472 (Simulation time: 00 hr 46 min 59 sec)
Heartbeat CPU 0 instructions: 158500912 cycles: 263998019 heartbeat IPC: 0.4243 cumulative IPC: 0.4718 (Simulation time: 00 hr 47 min 11 sec)
Heartbeat CPU 0 instructions: 159000912 cycles: 265149229 heartbeat IPC: 0.4343 cumulative IPC: 0.4716 (Simulation time: 00 hr 47 min 22 sec)
Heartbeat CPU 0 instructions: 159500915 cycles: 266231676 heartbeat IPC: 0.4619 cumulative IPC: 0.4716 (Simulation time: 00 hr 47 min 32 sec)
Heartbeat CPU 0 instructions: 160000915 cycles: 267164830 heartbeat IPC: 0.5358 cumulative IPC: 0.4718 (Simulation time: 00 hr 47 min 41 sec)
Heartbeat CPU 0 instructions: 160500915 cycles: 267952303 heartbeat IPC: 0.6349 cumulative IPC: 0.4724 (Simulation time: 00 hr 47 min 48 sec)
Heartbeat CPU 0 instructions: 161000916 cycles: 268764011 heartbeat IPC: 0.616 cumulative IPC: 0.4729 (Simulation time: 00 hr 47 min 56 sec)
Heartbeat CPU 0 instructions: 161500922 cycles: 269844417 heartbeat IPC: 0.4628 cumulative IPC: 0.4728 (Simulation time: 00 hr 48 min 06 sec)
Heartbeat CPU 0 instructions: 162000924 cycles: 270924958 heartbeat IPC: 0.4627 cumulative IPC: 0.4728 (Simulation time: 00 hr 48 min 16 sec)
Heartbeat CPU 0 instructions: 162500928 cycles: 271794616 heartbeat IPC: 0.5749 cumulative IPC: 0.4731 (Simulation time: 00 hr 48 min 25 sec)
Heartbeat CPU 0 instructions: 163000934 cycles: 272664059 heartbeat IPC: 0.5751 cumulative IPC: 0.4735 (Simulation time: 00 hr 48 min 33 sec)
Heartbeat CPU 0 instructions: 163500937 cycles: 273543745 heartbeat IPC: 0.5684 cumulative IPC: 0.4739 (Simulation time: 00 hr 48 min 42 sec)
Heartbeat CPU 0 instructions: 164000938 cycles: 274456056 heartbeat IPC: 0.5481 cumulative IPC: 0.4741 (Simulation time: 00 hr 48 min 52 sec)
Heartbeat CPU 0 instructions: 164500938 cycles: 275368801 heartbeat IPC: 0.5478 cumulative IPC: 0.4744 (Simulation time: 00 hr 49 min 01 sec)
Heartbeat CPU 0 instructions: 165000939 cycles: 276220452 heartbeat IPC: 0.5871 cumulative IPC: 0.4748 (Simulation time: 00 hr 49 min 10 sec)
Heartbeat CPU 0 instructions: 165500939 cycles: 277089748 heartbeat IPC: 0.5752 cumulative IPC: 0.4752 (Simulation time: 00 hr 49 min 19 sec)
Heartbeat CPU 0 instructions: 166000939 cycles: 277612049 heartbeat IPC: 0.9573 cumulative IPC: 0.4762 (Simulation time: 00 hr 49 min 24 sec)
Heartbeat CPU 0 instructions: 166500945 cycles: 278323763 heartbeat IPC: 0.7025 cumulative IPC: 0.4769 (Simulation time: 00 hr 49 min 31 sec)
Heartbeat CPU 0 instructions: 167000947 cycles: 279115161 heartbeat IPC: 0.6318 cumulative IPC: 0.4774 (Simulation time: 00 hr 49 min 39 sec)
Heartbeat CPU 0 instructions: 167500954 cycles: 279985893 heartbeat IPC: 0.5742 cumulative IPC: 0.4777 (Simulation time: 00 hr 49 min 48 sec)
Heartbeat CPU 0 instructions: 168000955 cycles: 280860716 heartbeat IPC: 0.5715 cumulative IPC: 0.478 (Simulation time: 00 hr 49 min 57 sec)
Heartbeat CPU 0 instructions: 168500960 cycles: 281734290 heartbeat IPC: 0.5724 cumulative IPC: 0.4784 (Simulation time: 00 hr 50 min 05 sec)
Heartbeat CPU 0 instructions: 169000960 cycles: 282604919 heartbeat IPC: 0.5743 cumulative IPC: 0.4787 (Simulation time: 00 hr 50 min 14 sec)
Heartbeat CPU 0 instructions: 169500966 cycles: 283543386 heartbeat IPC: 0.5328 cumulative IPC: 0.4789 (Simulation time: 00 hr 50 min 24 sec)
Heartbeat CPU 0 instructions: 170000966 cycles: 284482231 heartbeat IPC: 0.5326 cumulative IPC: 0.4791 (Simulation time: 00 hr 50 min 33 sec)
Heartbeat CPU 0 instructions: 170500966 cycles: 285386569 heartbeat IPC: 0.5529 cumulative IPC: 0.4794 (Simulation time: 00 hr 50 min 43 sec)
Heartbeat CPU 0 instructions: 171000973 cycles: 286258084 heartbeat IPC: 0.5737 cumulative IPC: 0.4797 (Simulation time: 00 hr 50 min 51 sec)
Heartbeat CPU 0 instructions: 171500974 cycles: 286949361 heartbeat IPC: 0.7233 cumulative IPC: 0.4804 (Simulation time: 00 hr 50 min 58 sec)
Heartbeat CPU 0 instructions: 172000975 cycles: 287657564 heartbeat IPC: 0.706 cumulative IPC: 0.481 (Simulation time: 00 hr 51 min 06 sec)
Heartbeat CPU 0 instructions: 172500982 cycles: 288312936 heartbeat IPC: 0.7629 cumulative IPC: 0.4817 (Simulation time: 00 hr 51 min 12 sec)
Heartbeat CPU 0 instructions: 173000984 cycles: 289160721 heartbeat IPC: 0.5898 cumulative IPC: 0.4821 (Simulation time: 00 hr 51 min 21 sec)
Heartbeat CPU 0 instructions: 173500984 cycles: 290041429 heartbeat IPC: 0.5677 cumulative IPC: 0.4824 (Simulation time: 00 hr 51 min 29 sec)
Heartbeat CPU 0 instructions: 174000984 cycles: 290916601 heartbeat IPC: 0.5713 cumulative IPC: 0.4827 (Simulation time: 00 hr 51 min 38 sec)
Heartbeat CPU 0 instructions: 174500988 cycles: 291785151 heartbeat IPC: 0.5757 cumulative IPC: 0.483 (Simulation time: 00 hr 51 min 47 sec)
Heartbeat CPU 0 instructions: 175000992 cycles: 292672665 heartbeat IPC: 0.5634 cumulative IPC: 0.4833 (Simulation time: 00 hr 51 min 56 sec)
Heartbeat CPU 0 instructions: 175500999 cycles: 293589928 heartbeat IPC: 0.5451 cumulative IPC: 0.4835 (Simulation time: 00 hr 52 min 05 sec)
Heartbeat CPU 0 instructions: 176000999 cycles: 294525246 heartbeat IPC: 0.5346 cumulative IPC: 0.4837 (Simulation time: 00 hr 52 min 15 sec)
Heartbeat CPU 0 instructions: 176500999 cycles: 295392352 heartbeat IPC: 0.5766 cumulative IPC: 0.484 (Simulation time: 00 hr 52 min 24 sec)
Heartbeat CPU 0 instructions: 177000999 cycles: 296261886 heartbeat IPC: 0.575 cumulative IPC: 0.4843 (Simulation time: 00 hr 52 min 32 sec)
Heartbeat CPU 0 instructions: 177501006 cycles: 297130683 heartbeat IPC: 0.5755 cumulative IPC: 0.4846 (Simulation time: 00 hr 52 min 41 sec)
Heartbeat CPU 0 instructions: 178001006 cycles: 297998450 heartbeat IPC: 0.5762 cumulative IPC: 0.4849 (Simulation time: 00 hr 52 min 50 sec)
Heartbeat CPU 0 instructions: 178501008 cycles: 298870346 heartbeat IPC: 0.5735 cumulative IPC: 0.4852 (Simulation time: 00 hr 52 min 58 sec)
Heartbeat CPU 0 instructions: 179001009 cycles: 299741880 heartbeat IPC: 0.5737 cumulative IPC: 0.4855 (Simulation time: 00 hr 53 min 07 sec)
Heartbeat CPU 0 instructions: 179501015 cycles: 300612389 heartbeat IPC: 0.5744 cumulative IPC: 0.4858 (Simulation time: 00 hr 53 min 15 sec)
Heartbeat CPU 0 instructions: 180001020 cycles: 301479891 heartbeat IPC: 0.5764 cumulative IPC: 0.4861 (Simulation time: 00 hr 53 min 24 sec)
Heartbeat CPU 0 instructions: 180501022 cycles: 302350750 heartbeat IPC: 0.5741 cumulative IPC: 0.4863 (Simulation time: 00 hr 53 min 33 sec)
Heartbeat CPU 0 instructions: 181001028 cycles: 303219200 heartbeat IPC: 0.5757 cumulative IPC: 0.4866 (Simulation time: 00 hr 53 min 41 sec)
Heartbeat CPU 0 instructions: 181501028 cycles: 304091863 heartbeat IPC: 0.573 cumulative IPC: 0.4869 (Simulation time: 00 hr 53 min 50 sec)
Heartbeat CPU 0 instructions: 182001028 cycles: 304962804 heartbeat IPC: 0.5741 cumulative IPC: 0.4872 (Simulation time: 00 hr 53 min 59 sec)
Heartbeat CPU 0 instructions: 182501029 cycles: 305834569 heartbeat IPC: 0.5736 cumulative IPC: 0.4875 (Simulation time: 00 hr 54 min 07 sec)
Heartbeat CPU 0 instructions: 183001029 cycles: 306706465 heartbeat IPC: 0.5735 cumulative IPC: 0.4877 (Simulation time: 00 hr 54 min 16 sec)
Heartbeat CPU 0 instructions: 183501029 cycles: 307576343 heartbeat IPC: 0.5748 cumulative IPC: 0.488 (Simulation time: 00 hr 54 min 24 sec)
Heartbeat CPU 0 instructions: 184001030 cycles: 308448342 heartbeat IPC: 0.5734 cumulative IPC: 0.4883 (Simulation time: 00 hr 54 min 33 sec)
Heartbeat CPU 0 instructions: 184501030 cycles: 309315892 heartbeat IPC: 0.5763 cumulative IPC: 0.4886 (Simulation time: 00 hr 54 min 42 sec)
Heartbeat CPU 0 instructions: 185001030 cycles: 310186659 heartbeat IPC: 0.5742 cumulative IPC: 0.4888 (Simulation time: 00 hr 54 min 50 sec)
Heartbeat CPU 0 instructions: 185501037 cycles: 311058370 heartbeat IPC: 0.5736 cumulative IPC: 0.4891 (Simulation time: 00 hr 54 min 59 sec)
Heartbeat CPU 0 instructions: 186001039 cycles: 311929891 heartbeat IPC: 0.5737 cumulative IPC: 0.4894 (Simulation time: 00 hr 55 min 08 sec)
Heartbeat CPU 0 instructions: 186501041 cycles: 312802564 heartbeat IPC: 0.573 cumulative IPC: 0.4896 (Simulation time: 00 hr 55 min 16 sec)
Heartbeat CPU 0 instructions: 187001044 cycles: 313672510 heartbeat IPC: 0.5748 cumulative IPC: 0.4899 (Simulation time: 00 hr 55 min 25 sec)
Heartbeat CPU 0 instructions: 187501048 cycles: 314544149 heartbeat IPC: 0.5736 cumulative IPC: 0.4902 (Simulation time: 00 hr 55 min 34 sec)
Heartbeat CPU 0 instructions: 188001049 cycles: 315416325 heartbeat IPC: 0.5733 cumulative IPC: 0.4904 (Simulation time: 00 hr 55 min 42 sec)
Heartbeat CPU 0 instructions: 188501051 cycles: 316288483 heartbeat IPC: 0.5733 cumulative IPC: 0.4907 (Simulation time: 00 hr 55 min 51 sec)
Heartbeat CPU 0 instructions: 189001051 cycles: 317160284 heartbeat IPC: 0.5735 cumulative IPC: 0.4909 (Simulation time: 00 hr 56 min 00 sec)
Heartbeat CPU 0 instructions: 189501051 cycles: 318031447 heartbeat IPC: 0.5739 cumulative IPC: 0.4912 (Simulation time: 00 hr 56 min 08 sec)
Heartbeat CPU 0 instructions: 190001052 cycles: 318899814 heartbeat IPC: 0.5758 cumulative IPC: 0.4914 (Simulation time: 00 hr 56 min 17 sec)
Heartbeat CPU 0 instructions: 190501054 cycles: 319770306 heartbeat IPC: 0.5744 cumulative IPC: 0.4917 (Simulation time: 00 hr 56 min 25 sec)
Heartbeat CPU 0 instructions: 191001054 cycles: 320644514 heartbeat IPC: 0.5719 cumulative IPC: 0.4919 (Simulation time: 00 hr 56 min 34 sec)
Heartbeat CPU 0 instructions: 191501059 cycles: 321517123 heartbeat IPC: 0.573 cumulative IPC: 0.4922 (Simulation time: 00 hr 56 min 43 sec)
Heartbeat CPU 0 instructions: 192001059 cycles: 322380042 heartbeat IPC: 0.5794 cumulative IPC: 0.4924 (Simulation time: 00 hr 56 min 51 sec)
Heartbeat CPU 0 instructions: 192501061 cycles: 323251159 heartbeat IPC: 0.574 cumulative IPC: 0.4927 (Simulation time: 00 hr 57 min 00 sec)
Heartbeat CPU 0 instructions: 193001064 cycles: 324125886 heartbeat IPC: 0.5716 cumulative IPC: 0.4929 (Simulation time: 00 hr 57 min 09 sec)
Heartbeat CPU 0 instructions: 193501070 cycles: 324996337 heartbeat IPC: 0.5744 cumulative IPC: 0.4932 (Simulation time: 00 hr 57 min 17 sec)
Heartbeat CPU 0 instructions: 194001072 cycles: 325867856 heartbeat IPC: 0.5737 cumulative IPC: 0.4934 (Simulation time: 00 hr 57 min 26 sec)
Heartbeat CPU 0 instructions: 194501072 cycles: 326752692 heartbeat IPC: 0.5651 cumulative IPC: 0.4936 (Simulation time: 00 hr 57 min 35 sec)
Heartbeat CPU 0 instructions: 195001075 cycles: 327843696 heartbeat IPC: 0.4583 cumulative IPC: 0.4935 (Simulation time: 00 hr 57 min 43 sec)
Heartbeat CPU 0 instructions: 195501075 cycles: 328142329 heartbeat IPC: 1.674 cumulative IPC: 0.4947 (Simulation time: 00 hr 57 min 46 sec)
Heartbeat CPU 0 instructions: 196001078 cycles: 328469207 heartbeat IPC: 1.53 cumulative IPC: 0.4958 (Simulation time: 00 hr 57 min 49 sec)
Heartbeat CPU 0 instructions: 196501079 cycles: 328748870 heartbeat IPC: 1.788 cumulative IPC: 0.4971 (Simulation time: 00 hr 57 min 52 sec)
Heartbeat CPU 0 instructions: 197001081 cycles: 329001536 heartbeat IPC: 1.979 cumulative IPC: 0.4983 (Simulation time: 00 hr 57 min 54 sec)
Heartbeat CPU 0 instructions: 197501081 cycles: 329508370 heartbeat IPC: 0.9865 cumulative IPC: 0.4992 (Simulation time: 00 hr 57 min 58 sec)
Heartbeat CPU 0 instructions: 198001081 cycles: 329884994 heartbeat IPC: 1.328 cumulative IPC: 0.5002 (Simulation time: 00 hr 58 min 01 sec)
Heartbeat CPU 0 instructions: 198501082 cycles: 330117060 heartbeat IPC: 2.155 cumulative IPC: 0.5015 (Simulation time: 00 hr 58 min 03 sec)
Heartbeat CPU 0 instructions: 199001082 cycles: 330342243 heartbeat IPC: 2.22 cumulative IPC: 0.5028 (Simulation time: 00 hr 58 min 06 sec)
Heartbeat CPU 0 instructions: 199501085 cycles: 330571749 heartbeat IPC: 2.179 cumulative IPC: 0.5041 (Simulation time: 00 hr 58 min 08 sec)
Heartbeat CPU 0 instructions: 200001085 cycles: 331063065 heartbeat IPC: 1.018 cumulative IPC: 0.505 (Simulation time: 00 hr 58 min 12 sec)
Heartbeat CPU 0 instructions: 200501088 cycles: 331512165 heartbeat IPC: 1.113 cumulative IPC: 0.5059 (Simulation time: 00 hr 58 min 15 sec)
Heartbeat CPU 0 instructions: 201001089 cycles: 332651695 heartbeat IPC: 0.4388 cumulative IPC: 0.5056 (Simulation time: 00 hr 58 min 25 sec)
Heartbeat CPU 0 instructions: 201501095 cycles: 333627930 heartbeat IPC: 0.5122 cumulative IPC: 0.5057 (Simulation time: 00 hr 58 min 35 sec)
Heartbeat CPU 0 instructions: 202001095 cycles: 334169908 heartbeat IPC: 0.9225 cumulative IPC: 0.5064 (Simulation time: 00 hr 58 min 40 sec)
Heartbeat CPU 0 instructions: 202501101 cycles: 334926207 heartbeat IPC: 0.6611 cumulative IPC: 0.5068 (Simulation time: 00 hr 58 min 48 sec)
Heartbeat CPU 0 instructions: 203001104 cycles: 335754993 heartbeat IPC: 0.6033 cumulative IPC: 0.5071 (Simulation time: 00 hr 58 min 56 sec)
Heartbeat CPU 0 instructions: 203501105 cycles: 336648681 heartbeat IPC: 0.5595 cumulative IPC: 0.5072 (Simulation time: 00 hr 59 min 05 sec)
Heartbeat CPU 0 instructions: 204001110 cycles: 337559997 heartbeat IPC: 0.5487 cumulative IPC: 0.5074 (Simulation time: 00 hr 59 min 14 sec)
Heartbeat CPU 0 instructions: 204501115 cycles: 338466554 heartbeat IPC: 0.5515 cumulative IPC: 0.5075 (Simulation time: 00 hr 59 min 23 sec)
Heartbeat CPU 0 instructions: 205001116 cycles: 339372887 heartbeat IPC: 0.5517 cumulative IPC: 0.5076 (Simulation time: 00 hr 59 min 32 sec)
Heartbeat CPU 0 instructions: 205501118 cycles: 340350435 heartbeat IPC: 0.5115 cumulative IPC: 0.5076 (Simulation time: 00 hr 59 min 42 sec)
Heartbeat CPU 0 instructions: 206001118 cycles: 341332378 heartbeat IPC: 0.5092 cumulative IPC: 0.5076 (Simulation time: 00 hr 59 min 52 sec)
Heartbeat CPU 0 instructions: 206501121 cycles: 342282138 heartbeat IPC: 0.5265 cumulative IPC: 0.5077 (Simulation time: 01 hr 00 min 02 sec)
Heartbeat CPU 0 instructions: 207001124 cycles: 343191643 heartbeat IPC: 0.5498 cumulative IPC: 0.5078 (Simulation time: 01 hr 00 min 11 sec)
Heartbeat CPU 0 instructions: 207501129 cycles: 343920598 heartbeat IPC: 0.6859 cumulative IPC: 0.5082 (Simulation time: 01 hr 00 min 18 sec)
Heartbeat CPU 0 instructions: 208001132 cycles: 344648917 heartbeat IPC: 0.6865 cumulative IPC: 0.5086 (Simulation time: 01 hr 00 min 25 sec)
Heartbeat CPU 0 instructions: 208501134 cycles: 345320964 heartbeat IPC: 0.744 cumulative IPC: 0.5092 (Simulation time: 01 hr 00 min 32 sec)
Heartbeat CPU 0 instructions: 209001134 cycles: 346183128 heartbeat IPC: 0.5799 cumulative IPC: 0.5094 (Simulation time: 01 hr 00 min 40 sec)
Heartbeat CPU 0 instructions: 209501136 cycles: 347077493 heartbeat IPC: 0.5591 cumulative IPC: 0.5095 (Simulation time: 01 hr 00 min 49 sec)
Heartbeat CPU 0 instructions: 210001137 cycles: 347969751 heartbeat IPC: 0.5604 cumulative IPC: 0.5096 (Simulation time: 01 hr 00 min 58 sec)
Heartbeat CPU 0 instructions: 210501137 cycles: 348859541 heartbeat IPC: 0.5619 cumulative IPC: 0.5098 (Simulation time: 01 hr 01 min 06 sec)
Heartbeat CPU 0 instructions: 211001140 cycles: 349786347 heartbeat IPC: 0.5395 cumulative IPC: 0.5099 (Simulation time: 01 hr 01 min 16 sec)
Heartbeat CPU 0 instructions: 211501140 cycles: 350750258 heartbeat IPC: 0.5187 cumulative IPC: 0.5099 (Simulation time: 01 hr 01 min 26 sec)
Heartbeat CPU 0 instructions: 212001141 cycles: 351724525 heartbeat IPC: 0.5132 cumulative IPC: 0.5099 (Simulation time: 01 hr 01 min 36 sec)
Heartbeat CPU 0 instructions: 212501143 cycles: 352641781 heartbeat IPC: 0.5451 cumulative IPC: 0.51 (Simulation time: 01 hr 01 min 45 sec)
Heartbeat CPU 0 instructions: 213001145 cycles: 353568848 heartbeat IPC: 0.5393 cumulative IPC: 0.5101 (Simulation time: 01 hr 01 min 54 sec)
Heartbeat CPU 0 instructions: 213501151 cycles: 354109084 heartbeat IPC: 0.9255 cumulative IPC: 0.5108 (Simulation time: 01 hr 01 min 59 sec)
Heartbeat CPU 0 instructions: 214001157 cycles: 354826938 heartbeat IPC: 0.6965 cumulative IPC: 0.5112 (Simulation time: 01 hr 02 min 07 sec)
Heartbeat CPU 0 instructions: 214501157 cycles: 355665176 heartbeat IPC: 0.5965 cumulative IPC: 0.5114 (Simulation time: 01 hr 02 min 15 sec)
Heartbeat CPU 0 instructions: 215001159 cycles: 356556530 heartbeat IPC: 0.5609 cumulative IPC: 0.5116 (Simulation time: 01 hr 02 min 23 sec)
Heartbeat CPU 0 instructions: 215501163 cycles: 357445487 heartbeat IPC: 0.5625 cumulative IPC: 0.5117 (Simulation time: 01 hr 02 min 32 sec)
Heartbeat CPU 0 instructions: 216001166 cycles: 358330715 heartbeat IPC: 0.5648 cumulative IPC: 0.5119 (Simulation time: 01 hr 02 min 40 sec)
Heartbeat CPU 0 instructions: 216501173 cycles: 359227618 heartbeat IPC: 0.5575 cumulative IPC: 0.512 (Simulation time: 01 hr 02 min 49 sec)
Heartbeat CPU 0 instructions: 217001175 cycles: 360210624 heartbeat IPC: 0.5086 cumulative IPC: 0.512 (Simulation time: 01 hr 02 min 59 sec)
Heartbeat CPU 0 instructions: 217501177 cycles: 361198769 heartbeat IPC: 0.506 cumulative IPC: 0.512 (Simulation time: 01 hr 03 min 09 sec)
Heartbeat CPU 0 instructions: 218001180 cycles: 362148775 heartbeat IPC: 0.5263 cumulative IPC: 0.512 (Simulation time: 01 hr 03 min 19 sec)
Heartbeat CPU 0 instructions: 218501180 cycles: 363071073 heartbeat IPC: 0.5421 cumulative IPC: 0.5121 (Simulation time: 01 hr 03 min 28 sec)
Heartbeat CPU 0 instructions: 219001181 cycles: 363766230 heartbeat IPC: 0.7193 cumulative IPC: 0.5125 (Simulation time: 01 hr 03 min 35 sec)
Heartbeat CPU 0 instructions: 219501182 cycles: 364528326 heartbeat IPC: 0.6561 cumulative IPC: 0.5129 (Simulation time: 01 hr 03 min 43 sec)
Heartbeat CPU 0 instructions: 220001182 cycles: 365201829 heartbeat IPC: 0.7424 cumulative IPC: 0.5133 (Simulation time: 01 hr 03 min 49 sec)
Heartbeat CPU 0 instructions: 220501184 cycles: 366066376 heartbeat IPC: 0.5783 cumulative IPC: 0.5135 (Simulation time: 01 hr 03 min 57 sec)
Heartbeat CPU 0 instructions: 221001190 cycles: 366959093 heartbeat IPC: 0.5601 cumulative IPC: 0.5136 (Simulation time: 01 hr 04 min 06 sec)
Heartbeat CPU 0 instructions: 221501193 cycles: 367851974 heartbeat IPC: 0.56 cumulative IPC: 0.5137 (Simulation time: 01 hr 04 min 15 sec)
Heartbeat CPU 0 instructions: 222001193 cycles: 368742048 heartbeat IPC: 0.5618 cumulative IPC: 0.5139 (Simulation time: 01 hr 04 min 23 sec)
Heartbeat CPU 0 instructions: 222501193 cycles: 369671658 heartbeat IPC: 0.5379 cumulative IPC: 0.5139 (Simulation time: 01 hr 04 min 33 sec)
Heartbeat CPU 0 instructions: 223001195 cycles: 370646901 heartbeat IPC: 0.5127 cumulative IPC: 0.5139 (Simulation time: 01 hr 04 min 43 sec)
Heartbeat CPU 0 instructions: 223501202 cycles: 371629660 heartbeat IPC: 0.5088 cumulative IPC: 0.5139 (Simulation time: 01 hr 04 min 53 sec)
Heartbeat CPU 0 instructions: 224001207 cycles: 372546188 heartbeat IPC: 0.5455 cumulative IPC: 0.514 (Simulation time: 01 hr 05 min 02 sec)
Heartbeat CPU 0 instructions: 224501214 cycles: 373469273 heartbeat IPC: 0.5417 cumulative IPC: 0.5141 (Simulation time: 01 hr 05 min 11 sec)
Heartbeat CPU 0 instructions: 225001220 cycles: 374011008 heartbeat IPC: 0.923 cumulative IPC: 0.5147 (Simulation time: 01 hr 05 min 17 sec)
Heartbeat CPU 0 instructions: 225501222 cycles: 374699054 heartbeat IPC: 0.7267 cumulative IPC: 0.5152 (Simulation time: 01 hr 05 min 24 sec)
Heartbeat CPU 0 instructions: 226001223 cycles: 375558104 heartbeat IPC: 0.582 cumulative IPC: 0.5153 (Simulation time: 01 hr 05 min 32 sec)
Heartbeat CPU 0 instructions: 226501223 cycles: 376446345 heartbeat IPC: 0.5629 cumulative IPC: 0.5154 (Simulation time: 01 hr 05 min 40 sec)
Heartbeat CPU 0 instructions: 227001230 cycles: 377340132 heartbeat IPC: 0.5594 cumulative IPC: 0.5156 (Simulation time: 01 hr 05 min 49 sec)
Heartbeat CPU 0 instructions: 227501230 cycles: 378230391 heartbeat IPC: 0.5616 cumulative IPC: 0.5157 (Simulation time: 01 hr 05 min 58 sec)
Heartbeat CPU 0 instructions: 228001237 cycles: 379125040 heartbeat IPC: 0.5589 cumulative IPC: 0.5158 (Simulation time: 01 hr 06 min 06 sec)
Heartbeat CPU 0 instructions: 228501238 cycles: 380103599 heartbeat IPC: 0.511 cumulative IPC: 0.5158 (Simulation time: 01 hr 06 min 16 sec)
Heartbeat CPU 0 instructions: 229001238 cycles: 381091385 heartbeat IPC: 0.5062 cumulative IPC: 0.5157 (Simulation time: 01 hr 06 min 27 sec)
Heartbeat CPU 0 instructions: 229501242 cycles: 382039539 heartbeat IPC: 0.5273 cumulative IPC: 0.5158 (Simulation time: 01 hr 06 min 36 sec)
Heartbeat CPU 0 instructions: 230001248 cycles: 382963976 heartbeat IPC: 0.5409 cumulative IPC: 0.5158 (Simulation time: 01 hr 06 min 45 sec)
Heartbeat CPU 0 instructions: 230501253 cycles: 383620999 heartbeat IPC: 0.761 cumulative IPC: 0.5163 (Simulation time: 01 hr 06 min 52 sec)
Heartbeat CPU 0 instructions: 231001256 cycles: 384425392 heartbeat IPC: 0.6216 cumulative IPC: 0.5165 (Simulation time: 01 hr 07 min 00 sec)
Heartbeat CPU 0 instructions: 231501256 cycles: 385091588 heartbeat IPC: 0.7505 cumulative IPC: 0.517 (Simulation time: 01 hr 07 min 06 sec)
Heartbeat CPU 0 instructions: 232001258 cycles: 385952736 heartbeat IPC: 0.5806 cumulative IPC: 0.5171 (Simulation time: 01 hr 07 min 15 sec)
Heartbeat CPU 0 instructions: 232501260 cycles: 386846513 heartbeat IPC: 0.5594 cumulative IPC: 0.5173 (Simulation time: 01 hr 07 min 23 sec)
Heartbeat CPU 0 instructions: 233001261 cycles: 387732232 heartbeat IPC: 0.5645 cumulative IPC: 0.5174 (Simulation time: 01 hr 07 min 32 sec)
Heartbeat CPU 0 instructions: 233501267 cycles: 388596610 heartbeat IPC: 0.5785 cumulative IPC: 0.5175 (Simulation time: 01 hr 07 min 40 sec)
Heartbeat CPU 0 instructions: 234001272 cycles: 389572540 heartbeat IPC: 0.5123 cumulative IPC: 0.5175 (Simulation time: 01 hr 07 min 50 sec)
Heartbeat CPU 0 instructions: 234501274 cycles: 390558378 heartbeat IPC: 0.5072 cumulative IPC: 0.5175 (Simulation time: 01 hr 08 min 00 sec)
Heartbeat CPU 0 instructions: 235001277 cycles: 391543483 heartbeat IPC: 0.5076 cumulative IPC: 0.5175 (Simulation time: 01 hr 08 min 10 sec)
Heartbeat CPU 0 instructions: 235501279 cycles: 392455002 heartbeat IPC: 0.5485 cumulative IPC: 0.5175 (Simulation time: 01 hr 08 min 19 sec)
Heartbeat CPU 0 instructions: 236001281 cycles: 393375630 heartbeat IPC: 0.5431 cumulative IPC: 0.5176 (Simulation time: 01 hr 08 min 28 sec)
Heartbeat CPU 0 instructions: 236501283 cycles: 393917760 heartbeat IPC: 0.9223 cumulative IPC: 0.5182 (Simulation time: 01 hr 08 min 34 sec)
Heartbeat CPU 0 instructions: 237001285 cycles: 394600928 heartbeat IPC: 0.7319 cumulative IPC: 0.5186 (Simulation time: 01 hr 08 min 41 sec)
Heartbeat CPU 0 instructions: 237501285 cycles: 395467660 heartbeat IPC: 0.5769 cumulative IPC: 0.5188 (Simulation time: 01 hr 08 min 49 sec)
Heartbeat CPU 0 instructions: 238001285 cycles: 396361303 heartbeat IPC: 0.5595 cumulative IPC: 0.5189 (Simulation time: 01 hr 08 min 58 sec)
Heartbeat CPU 0 instructions: 238501290 cycles: 397251970 heartbeat IPC: 0.5614 cumulative IPC: 0.519 (Simulation time: 01 hr 09 min 06 sec)
Heartbeat CPU 0 instructions: 239001291 cycles: 398142275 heartbeat IPC: 0.5616 cumulative IPC: 0.5191 (Simulation time: 01 hr 09 min 15 sec)
Heartbeat CPU 0 instructions: 239501298 cycles: 399034658 heartbeat IPC: 0.5603 cumulative IPC: 0.5192 (Simulation time: 01 hr 09 min 24 sec)
Heartbeat CPU 0 instructions: 240001301 cycles: 400020291 heartbeat IPC: 0.5073 cumulative IPC: 0.5191 (Simulation time: 01 hr 09 min 34 sec)
Heartbeat CPU 0 instructions: 240501301 cycles: 401009261 heartbeat IPC: 0.5056 cumulative IPC: 0.5191 (Simulation time: 01 hr 09 min 44 sec)
Heartbeat CPU 0 instructions: 241001305 cycles: 401951087 heartbeat IPC: 0.5309 cumulative IPC: 0.5191 (Simulation time: 01 hr 09 min 53 sec)
Heartbeat CPU 0 instructions: 241501312 cycles: 402874910 heartbeat IPC: 0.5412 cumulative IPC: 0.5192 (Simulation time: 01 hr 10 min 02 sec)
Heartbeat CPU 0 instructions: 242001315 cycles: 403495163 heartbeat IPC: 0.8061 cumulative IPC: 0.5197 (Simulation time: 01 hr 10 min 09 sec)
Heartbeat CPU 0 instructions: 242501318 cycles: 404336359 heartbeat IPC: 0.5944 cumulative IPC: 0.5198 (Simulation time: 01 hr 10 min 17 sec)
Heartbeat CPU 0 instructions: 243001324 cycles: 405004388 heartbeat IPC: 0.7485 cumulative IPC: 0.5202 (Simulation time: 01 hr 10 min 24 sec)
Heartbeat CPU 0 instructions: 243501324 cycles: 405865078 heartbeat IPC: 0.5809 cumulative IPC: 0.5204 (Simulation time: 01 hr 10 min 32 sec)
Heartbeat CPU 0 instructions: 244001324 cycles: 406758985 heartbeat IPC: 0.5593 cumulative IPC: 0.5205 (Simulation time: 01 hr 10 min 41 sec)
Heartbeat CPU 0 instructions: 244501331 cycles: 407649270 heartbeat IPC: 0.5616 cumulative IPC: 0.5206 (Simulation time: 01 hr 10 min 49 sec)
Heartbeat CPU 0 instructions: 245001333 cycles: 408514553 heartbeat IPC: 0.5778 cumulative IPC: 0.5207 (Simulation time: 01 hr 10 min 57 sec)
Heartbeat CPU 0 instructions: 245501335 cycles: 409497256 heartbeat IPC: 0.5088 cumulative IPC: 0.5207 (Simulation time: 01 hr 11 min 07 sec)
Heartbeat CPU 0 instructions: 246001339 cycles: 410483355 heartbeat IPC: 0.5071 cumulative IPC: 0.5206 (Simulation time: 01 hr 11 min 17 sec)
Heartbeat CPU 0 instructions: 246501341 cycles: 411472495 heartbeat IPC: 0.5055 cumulative IPC: 0.5206 (Simulation time: 01 hr 11 min 28 sec)
Heartbeat CPU 0 instructions: 247001343 cycles: 412381514 heartbeat IPC: 0.55 cumulative IPC: 0.5207 (Simulation time: 01 hr 11 min 37 sec)
Heartbeat CPU 0 instructions: 247501349 cycles: 413306287 heartbeat IPC: 0.5407 cumulative IPC: 0.5207 (Simulation time: 01 hr 11 min 46 sec)
Heartbeat CPU 0 instructions: 248001349 cycles: 413846430 heartbeat IPC: 0.9257 cumulative IPC: 0.5213 (Simulation time: 01 hr 11 min 51 sec)
Heartbeat CPU 0 instructions: 248501349 cycles: 414535146 heartbeat IPC: 0.726 cumulative IPC: 0.5217 (Simulation time: 01 hr 11 min 58 sec)
Heartbeat CPU 0 instructions: 249001355 cycles: 415427487 heartbeat IPC: 0.5603 cumulative IPC: 0.5218 (Simulation time: 01 hr 12 min 07 sec)
Heartbeat CPU 0 instructions: 249501357 cycles: 416350386 heartbeat IPC: 0.5418 cumulative IPC: 0.5218 (Simulation time: 01 hr 12 min 16 sec)
Simulation finished CPU 0 instructions: 200000001 cycles: 383246339 cumulative IPC: 0.5219 (Simulation time: 01 hr 12 min 25 sec)
Simulation complete CPU 0 instructions: 200000001 cycles: 383246339 cumulative IPC: 0.5219 (Simulation time: 01 hr 12 min 25 sec)

ChampSim completed all CPUs

=== Simulation ===
CPU 0 runs /local-ssd/ben/dpc4-traces/ai-ml/biogpt.cpp-ggml-model-tocilizumab.1.champsimtrace.gz

Region of Interest Statistics

CPU 0 cumulative IPC: 0.5219 instructions: 200000001 cycles: 383246339
CPU 0 Branch Prediction Accuracy: 97.8% MPKI: 2.083 Average ROB Occupancy at Mispredict: 350.9
Branch type MPKI
BRANCH_DIRECT_JUMP: 8e-05
BRANCH_INDIRECT: 0.00608
BRANCH_CONDITIONAL: 2.071
BRANCH_DIRECT_CALL: 0
BRANCH_INDIRECT_CALL: 0.001105
BRANCH_RETURN: 0.005355

cpu0->cpu0_STLB TOTAL        ACCESS:     456008 HIT:      27872 MISS:     428136 MSHR_MERGE:          0
cpu0->cpu0_STLB LOAD         ACCESS:     456008 HIT:      27872 MISS:     428136 MSHR_MERGE:          0
cpu0->cpu0_STLB RFO          ACCESS:          0 HIT:          0 MISS:          0 MSHR_MERGE:          0
cpu0->cpu0_STLB PREFETCH     ACCESS:          0 HIT:          0 MISS:          0 MSHR_MERGE:          0
cpu0->cpu0_STLB WRITE        ACCESS:          0 HIT:          0 MISS:          0 MSHR_MERGE:          0
cpu0->cpu0_STLB TRANSLATION  ACCESS:          0 HIT:          0 MISS:          0 MSHR_MERGE:          0
cpu0->cpu0_STLB PREFETCH REQUESTED:          0 ISSUED:          0 USEFUL:          0 USELESS:          0
cpu0->cpu0_STLB AVERAGE MISS LATENCY: 158.7 cycles
cpu0->cpu0_L2C TOTAL        ACCESS:   79981101 HIT:    8514575 MISS:   71466526 MSHR_MERGE:   44038094
cpu0->cpu0_L2C LOAD         ACCESS:   21650437 HIT:    3497394 MISS:   18153043 MSHR_MERGE:   10258613
cpu0->cpu0_L2C RFO          ACCESS:     204001 HIT:      45968 MISS:     158033 MSHR_MERGE:         47
cpu0->cpu0_L2C PREFETCH     ACCESS:   57733055 HIT:    4641223 MISS:   53091832 MSHR_MERGE:   33779434
cpu0->cpu0_L2C WRITE        ACCESS:     336896 HIT:     329155 MISS:       7741 MSHR_MERGE:          0
cpu0->cpu0_L2C TRANSLATION  ACCESS:      56712 HIT:        835 MISS:      55877 MSHR_MERGE:          0
cpu0->cpu0_L2C PREFETCH REQUESTED:   61180482 ISSUED:   50622320 USEFUL:   13479795 USELESS:    4059971
cpu0->cpu0_L2C AVERAGE MISS LATENCY: 180.2 cycles
cpu0->cpu0_L1I TOTAL        ACCESS:   30625957 HIT:   30624333 MISS:       1624 MSHR_MERGE:        323
cpu0->cpu0_L1I LOAD         ACCESS:   30625957 HIT:   30624333 MISS:       1624 MSHR_MERGE:        323
cpu0->cpu0_L1I RFO          ACCESS:          0 HIT:          0 MISS:          0 MSHR_MERGE:          0
cpu0->cpu0_L1I PREFETCH     ACCESS:          0 HIT:          0 MISS:          0 MSHR_MERGE:          0
cpu0->cpu0_L1I WRITE        ACCESS:          0 HIT:          0 MISS:          0 MSHR_MERGE:          0
cpu0->cpu0_L1I TRANSLATION  ACCESS:          0 HIT:          0 MISS:          0 MSHR_MERGE:          0
cpu0->cpu0_L1I PREFETCH REQUESTED:          0 ISSUED:          0 USEFUL:          0 USELESS:          0
cpu0->cpu0_L1I AVERAGE MISS LATENCY: 192.8 cycles
cpu0->cpu0_L1D TOTAL        ACCESS:   80116291 HIT:   38710751 MISS:   41405540 MSHR_MERGE:   12384932
cpu0->cpu0_L1D LOAD         ACCESS:   60258305 HIT:   32481827 MISS:   27776478 MSHR_MERGE:    6127342
cpu0->cpu0_L1D RFO          ACCESS:          0 HIT:          0 MISS:          0 MSHR_MERGE:          0
cpu0->cpu0_L1D PREFETCH     ACCESS:   13770198 HIT:    2561533 MISS:   11208665 MSHR_MERGE:    4097936
cpu0->cpu0_L1D WRITE        ACCESS:    5232267 HIT:    2869460 MISS:    2362807 MSHR_MERGE:    2158776
cpu0->cpu0_L1D TRANSLATION  ACCESS:     855521 HIT:     797931 MISS:      57590 MSHR_MERGE:        878
cpu0->cpu0_L1D PREFETCH REQUESTED:   28049313 ISSUED:   13770198 USEFUL:    7008140 USELESS:     102590
cpu0->cpu0_L1D AVERAGE MISS LATENCY: 156.3 cycles
cpu0->cpu0_ITLB TOTAL        ACCESS:   20398277 HIT:   20397844 MISS:        433 MSHR_MERGE:        206
cpu0->cpu0_ITLB LOAD         ACCESS:   20398277 HIT:   20397844 MISS:        433 MSHR_MERGE:        206
cpu0->cpu0_ITLB RFO          ACCESS:          0 HIT:          0 MISS:          0 MSHR_MERGE:          0
cpu0->cpu0_ITLB PREFETCH     ACCESS:          0 HIT:          0 MISS:          0 MSHR_MERGE:          0
cpu0->cpu0_ITLB WRITE        ACCESS:          0 HIT:          0 MISS:          0 MSHR_MERGE:          0
cpu0->cpu0_ITLB TRANSLATION  ACCESS:          0 HIT:          0 MISS:          0 MSHR_MERGE:          0
cpu0->cpu0_ITLB PREFETCH REQUESTED:          0 ISSUED:          0 USEFUL:          0 USELESS:          0
cpu0->cpu0_ITLB AVERAGE MISS LATENCY: 79.23 cycles
cpu0->cpu0_DTLB TOTAL        ACCESS:   75645038 HIT:   71095414 MISS:    4549624 MSHR_MERGE:    4093843
cpu0->cpu0_DTLB LOAD         ACCESS:   75645038 HIT:   71095414 MISS:    4549624 MSHR_MERGE:    4093843
cpu0->cpu0_DTLB RFO          ACCESS:          0 HIT:          0 MISS:          0 MSHR_MERGE:          0
cpu0->cpu0_DTLB PREFETCH     ACCESS:          0 HIT:          0 MISS:          0 MSHR_MERGE:          0
cpu0->cpu0_DTLB WRITE        ACCESS:          0 HIT:          0 MISS:          0 MSHR_MERGE:          0
cpu0->cpu0_DTLB TRANSLATION  ACCESS:          0 HIT:          0 MISS:          0 MSHR_MERGE:          0
cpu0->cpu0_DTLB PREFETCH REQUESTED:          0 ISSUED:          0 USEFUL:          0 USELESS:          0
cpu0->cpu0_DTLB AVERAGE MISS LATENCY: 155 cycles
cpu0->LLC TOTAL        ACCESS:   27614339 HIT:     453539 MISS:   27160800 MSHR_MERGE:          0
cpu0->LLC LOAD         ACCESS:    7894430 HIT:      25038 MISS:    7869392 MSHR_MERGE:          0
cpu0->LLC RFO          ACCESS:     157986 HIT:     126670 MISS:      31316 MSHR_MERGE:          0
cpu0->LLC PREFETCH     ACCESS:   19312397 HIT:     124433 MISS:   19187964 MSHR_MERGE:          0
cpu0->LLC WRITE        ACCESS:     193649 HIT:     176889 MISS:      16760 MSHR_MERGE:          0
cpu0->LLC TRANSLATION  ACCESS:      55877 HIT:        509 MISS:      55368 MSHR_MERGE:          0
cpu0->LLC PREFETCH REQUESTED:          0 ISSUED:          0 USEFUL:          0 USELESS:          0
cpu0->LLC AVERAGE MISS LATENCY: 245.3 cycles

DRAM Statistics

Channel 0 RQ ROW_BUFFER_HIT:   12995136
  ROW_BUFFER_MISS:   14148570
  AVG DBUS CONGESTED CYCLE: 4.185
Channel 0 WQ ROW_BUFFER_HIT:       3112
  ROW_BUFFER_MISS:      30877
  FULL:        360
Channel 0 REFRESHES ISSUED:      31936
