[VMEM] WARNING: physical memory size is smaller than virtual memory size.

*** ChampSim Multicore Out-of-Order Simulator ***
Warmup Instructions: 50000000
Simulation Instructions: 200000000
Number of CPUs: 1
Page size: 4096
Core 0: /local-ssd/ben/dpc4-traces/gtraces_v2/sierra.a.3_0004.champsim.gz
 L1D Berti prefetcher
Off-chip DRAM Size: 64 GiB Channels: 1 Width: 64-bit Data Rate: 4807 MT/s
[BTB] WARNING: target of return is a lower address than the corresponding call. This is usually a problem with your trace.
[BTB] WARNING: target of return is a lower address than the corresponding call. This is usually a problem with your trace.
[BTB] WARNING: target of return is a lower address than the corresponding call. This is usually a problem with your trace.
[BTB] WARNING: target of return is a lower address than the corresponding call. This is usually a problem with your trace.
[BTB] WARNING: target of return is a lower address than the corresponding call. This is usually a problem with your trace.
[BTB] WARNING: target of return is a lower address than the corresponding call. This is usually a problem with your trace.
[BTB] WARNING: target of return is a lower address than the corresponding call. This is usually a problem with your trace.
[BTB] WARNING: target of return is a lower address than the corresponding call. This is usually a problem with your trace.
[BTB] WARNING: target of return is a lower address than the corresponding call. This is usually a problem with your trace.
[BTB] WARNING: target of return is a lower address than the corresponding call. This is usually a problem with your trace.
Heartbeat CPU 0 instructions: 500007 cycles: 300560 heartbeat IPC: 1.664 cumulative IPC: 1.664 (Simulation time: 00 hr 00 min 04 sec)
Heartbeat CPU 0 instructions: 1000011 cycles: 512062 heartbeat IPC: 2.364 cumulative IPC: 1.953 (Simulation time: 00 hr 00 min 07 sec)
Heartbeat CPU 0 instructions: 1500017 cycles: 701487 heartbeat IPC: 2.64 cumulative IPC: 2.138 (Simulation time: 00 hr 00 min 10 sec)
Heartbeat CPU 0 instructions: 2000021 cycles: 875991 heartbeat IPC: 2.865 cumulative IPC: 2.283 (Simulation time: 00 hr 00 min 12 sec)
Heartbeat CPU 0 instructions: 2500023 cycles: 1020708 heartbeat IPC: 3.455 cumulative IPC: 2.449 (Simulation time: 00 hr 00 min 15 sec)
Heartbeat CPU 0 instructions: 3000027 cycles: 1185852 heartbeat IPC: 3.028 cumulative IPC: 2.53 (Simulation time: 00 hr 00 min 17 sec)
Heartbeat CPU 0 instructions: 3500029 cycles: 1326253 heartbeat IPC: 3.561 cumulative IPC: 2.639 (Simulation time: 00 hr 00 min 20 sec)
Heartbeat CPU 0 instructions: 4000030 cycles: 1484076 heartbeat IPC: 3.168 cumulative IPC: 2.695 (Simulation time: 00 hr 00 min 23 sec)
Heartbeat CPU 0 instructions: 4500036 cycles: 1626043 heartbeat IPC: 3.522 cumulative IPC: 2.767 (Simulation time: 00 hr 00 min 25 sec)
Heartbeat CPU 0 instructions: 5000038 cycles: 1748089 heartbeat IPC: 4.097 cumulative IPC: 2.86 (Simulation time: 00 hr 00 min 27 sec)
Heartbeat CPU 0 instructions: 5500038 cycles: 1875646 heartbeat IPC: 3.92 cumulative IPC: 2.932 (Simulation time: 00 hr 00 min 29 sec)
Heartbeat CPU 0 instructions: 6000043 cycles: 1981869 heartbeat IPC: 4.707 cumulative IPC: 3.027 (Simulation time: 00 hr 00 min 30 sec)
Heartbeat CPU 0 instructions: 6500045 cycles: 2081979 heartbeat IPC: 4.995 cumulative IPC: 3.122 (Simulation time: 00 hr 00 min 31 sec)
Heartbeat CPU 0 instructions: 7000047 cycles: 2208464 heartbeat IPC: 3.953 cumulative IPC: 3.17 (Simulation time: 00 hr 00 min 33 sec)
Heartbeat CPU 0 instructions: 7500052 cycles: 2383653 heartbeat IPC: 2.854 cumulative IPC: 3.146 (Simulation time: 00 hr 00 min 36 sec)
Heartbeat CPU 0 instructions: 8000055 cycles: 2573549 heartbeat IPC: 2.633 cumulative IPC: 3.109 (Simulation time: 00 hr 00 min 39 sec)
Heartbeat CPU 0 instructions: 8500058 cycles: 2722073 heartbeat IPC: 3.366 cumulative IPC: 3.123 (Simulation time: 00 hr 00 min 41 sec)
Heartbeat CPU 0 instructions: 9000063 cycles: 2855630 heartbeat IPC: 3.744 cumulative IPC: 3.152 (Simulation time: 00 hr 00 min 43 sec)
Heartbeat CPU 0 instructions: 9500064 cycles: 3010036 heartbeat IPC: 3.238 cumulative IPC: 3.156 (Simulation time: 00 hr 00 min 46 sec)
Heartbeat CPU 0 instructions: 10000071 cycles: 3149849 heartbeat IPC: 3.576 cumulative IPC: 3.175 (Simulation time: 00 hr 00 min 49 sec)
Heartbeat CPU 0 instructions: 10500074 cycles: 3287634 heartbeat IPC: 3.629 cumulative IPC: 3.194 (Simulation time: 00 hr 00 min 51 sec)
Heartbeat CPU 0 instructions: 11000077 cycles: 3464284 heartbeat IPC: 2.83 cumulative IPC: 3.175 (Simulation time: 00 hr 00 min 54 sec)
Heartbeat CPU 0 instructions: 11500082 cycles: 3716185 heartbeat IPC: 1.985 cumulative IPC: 3.095 (Simulation time: 00 hr 00 min 58 sec)
Heartbeat CPU 0 instructions: 12000086 cycles: 3917512 heartbeat IPC: 2.484 cumulative IPC: 3.063 (Simulation time: 00 hr 01 min 01 sec)
Heartbeat CPU 0 instructions: 12500088 cycles: 4113496 heartbeat IPC: 2.551 cumulative IPC: 3.039 (Simulation time: 00 hr 01 min 04 sec)
Heartbeat CPU 0 instructions: 13000090 cycles: 4309032 heartbeat IPC: 2.557 cumulative IPC: 3.017 (Simulation time: 00 hr 01 min 07 sec)
Heartbeat CPU 0 instructions: 13500093 cycles: 4493585 heartbeat IPC: 2.709 cumulative IPC: 3.004 (Simulation time: 00 hr 01 min 10 sec)
Heartbeat CPU 0 instructions: 14000100 cycles: 4679868 heartbeat IPC: 2.684 cumulative IPC: 2.992 (Simulation time: 00 hr 01 min 13 sec)
Heartbeat CPU 0 instructions: 14500106 cycles: 4858874 heartbeat IPC: 2.793 cumulative IPC: 2.984 (Simulation time: 00 hr 01 min 16 sec)
Heartbeat CPU 0 instructions: 15000106 cycles: 5039785 heartbeat IPC: 2.764 cumulative IPC: 2.976 (Simulation time: 00 hr 01 min 19 sec)
Heartbeat CPU 0 instructions: 15500112 cycles: 5220068 heartbeat IPC: 2.773 cumulative IPC: 2.969 (Simulation time: 00 hr 01 min 22 sec)
Heartbeat CPU 0 instructions: 16000118 cycles: 5407554 heartbeat IPC: 2.667 cumulative IPC: 2.959 (Simulation time: 00 hr 01 min 25 sec)
Heartbeat CPU 0 instructions: 16500118 cycles: 5587496 heartbeat IPC: 2.779 cumulative IPC: 2.953 (Simulation time: 00 hr 01 min 27 sec)
Heartbeat CPU 0 instructions: 17000118 cycles: 5753083 heartbeat IPC: 3.02 cumulative IPC: 2.955 (Simulation time: 00 hr 01 min 30 sec)
Heartbeat CPU 0 instructions: 17500118 cycles: 5881995 heartbeat IPC: 3.879 cumulative IPC: 2.975 (Simulation time: 00 hr 01 min 33 sec)
Heartbeat CPU 0 instructions: 18000121 cycles: 6006661 heartbeat IPC: 4.011 cumulative IPC: 2.997 (Simulation time: 00 hr 01 min 35 sec)
Heartbeat CPU 0 instructions: 18500123 cycles: 6132575 heartbeat IPC: 3.971 cumulative IPC: 3.017 (Simulation time: 00 hr 01 min 38 sec)
Heartbeat CPU 0 instructions: 19000128 cycles: 6263435 heartbeat IPC: 3.821 cumulative IPC: 3.033 (Simulation time: 00 hr 01 min 40 sec)
Heartbeat CPU 0 instructions: 19500128 cycles: 6393943 heartbeat IPC: 3.831 cumulative IPC: 3.05 (Simulation time: 00 hr 01 min 42 sec)
Heartbeat CPU 0 instructions: 20000130 cycles: 6494154 heartbeat IPC: 4.989 cumulative IPC: 3.08 (Simulation time: 00 hr 01 min 44 sec)
Heartbeat CPU 0 instructions: 20500133 cycles: 6594192 heartbeat IPC: 4.998 cumulative IPC: 3.109 (Simulation time: 00 hr 01 min 45 sec)
Heartbeat CPU 0 instructions: 21000135 cycles: 6695922 heartbeat IPC: 4.915 cumulative IPC: 3.136 (Simulation time: 00 hr 01 min 47 sec)
Heartbeat CPU 0 instructions: 21500142 cycles: 6798330 heartbeat IPC: 4.882 cumulative IPC: 3.163 (Simulation time: 00 hr 01 min 48 sec)
Heartbeat CPU 0 instructions: 22000142 cycles: 6899809 heartbeat IPC: 4.927 cumulative IPC: 3.189 (Simulation time: 00 hr 01 min 50 sec)
Heartbeat CPU 0 instructions: 22500145 cycles: 7001155 heartbeat IPC: 4.934 cumulative IPC: 3.214 (Simulation time: 00 hr 01 min 51 sec)
Heartbeat CPU 0 instructions: 23000151 cycles: 7103243 heartbeat IPC: 4.898 cumulative IPC: 3.238 (Simulation time: 00 hr 01 min 53 sec)
Heartbeat CPU 0 instructions: 23500157 cycles: 7204939 heartbeat IPC: 4.917 cumulative IPC: 3.262 (Simulation time: 00 hr 01 min 54 sec)
Heartbeat CPU 0 instructions: 24000164 cycles: 7306401 heartbeat IPC: 4.928 cumulative IPC: 3.285 (Simulation time: 00 hr 01 min 56 sec)
Heartbeat CPU 0 instructions: 24500165 cycles: 7408081 heartbeat IPC: 4.917 cumulative IPC: 3.307 (Simulation time: 00 hr 01 min 57 sec)
Heartbeat CPU 0 instructions: 25000168 cycles: 7509726 heartbeat IPC: 4.919 cumulative IPC: 3.329 (Simulation time: 00 hr 01 min 59 sec)
Heartbeat CPU 0 instructions: 25500174 cycles: 7614423 heartbeat IPC: 4.776 cumulative IPC: 3.349 (Simulation time: 00 hr 02 min 01 sec)
Heartbeat CPU 0 instructions: 26000179 cycles: 7718443 heartbeat IPC: 4.807 cumulative IPC: 3.369 (Simulation time: 00 hr 02 min 03 sec)
Heartbeat CPU 0 instructions: 26500184 cycles: 7825798 heartbeat IPC: 4.657 cumulative IPC: 3.386 (Simulation time: 00 hr 02 min 04 sec)
Heartbeat CPU 0 instructions: 27000184 cycles: 7995530 heartbeat IPC: 2.946 cumulative IPC: 3.377 (Simulation time: 00 hr 02 min 07 sec)
Heartbeat CPU 0 instructions: 27500184 cycles: 8184418 heartbeat IPC: 2.647 cumulative IPC: 3.36 (Simulation time: 00 hr 02 min 10 sec)
Heartbeat CPU 0 instructions: 28000189 cycles: 8340829 heartbeat IPC: 3.197 cumulative IPC: 3.357 (Simulation time: 00 hr 02 min 13 sec)
Heartbeat CPU 0 instructions: 28500192 cycles: 8446724 heartbeat IPC: 4.722 cumulative IPC: 3.374 (Simulation time: 00 hr 02 min 14 sec)
Heartbeat CPU 0 instructions: 29000192 cycles: 8563534 heartbeat IPC: 4.28 cumulative IPC: 3.386 (Simulation time: 00 hr 02 min 16 sec)
Heartbeat CPU 0 instructions: 29500197 cycles: 8677346 heartbeat IPC: 4.393 cumulative IPC: 3.4 (Simulation time: 00 hr 02 min 18 sec)
Heartbeat CPU 0 instructions: 30000200 cycles: 8838150 heartbeat IPC: 3.109 cumulative IPC: 3.394 (Simulation time: 00 hr 02 min 21 sec)
Heartbeat CPU 0 instructions: 30500201 cycles: 9004846 heartbeat IPC: 2.999 cumulative IPC: 3.387 (Simulation time: 00 hr 02 min 24 sec)
Heartbeat CPU 0 instructions: 31000202 cycles: 9135210 heartbeat IPC: 3.835 cumulative IPC: 3.393 (Simulation time: 00 hr 02 min 27 sec)
Heartbeat CPU 0 instructions: 31500208 cycles: 9325228 heartbeat IPC: 2.631 cumulative IPC: 3.378 (Simulation time: 00 hr 02 min 30 sec)
Heartbeat CPU 0 instructions: 32000209 cycles: 9461169 heartbeat IPC: 3.678 cumulative IPC: 3.382 (Simulation time: 00 hr 02 min 32 sec)
Heartbeat CPU 0 instructions: 32500211 cycles: 9589750 heartbeat IPC: 3.889 cumulative IPC: 3.389 (Simulation time: 00 hr 02 min 35 sec)
Heartbeat CPU 0 instructions: 33000217 cycles: 9711247 heartbeat IPC: 4.115 cumulative IPC: 3.398 (Simulation time: 00 hr 02 min 37 sec)
Heartbeat CPU 0 instructions: 33500217 cycles: 9854021 heartbeat IPC: 3.502 cumulative IPC: 3.4 (Simulation time: 00 hr 02 min 39 sec)
Heartbeat CPU 0 instructions: 34000220 cycles: 9986835 heartbeat IPC: 3.765 cumulative IPC: 3.405 (Simulation time: 00 hr 02 min 42 sec)
Heartbeat CPU 0 instructions: 34500223 cycles: 10113531 heartbeat IPC: 3.946 cumulative IPC: 3.411 (Simulation time: 00 hr 02 min 45 sec)
Heartbeat CPU 0 instructions: 35000227 cycles: 10257444 heartbeat IPC: 3.474 cumulative IPC: 3.412 (Simulation time: 00 hr 02 min 47 sec)
Heartbeat CPU 0 instructions: 35500234 cycles: 10401825 heartbeat IPC: 3.463 cumulative IPC: 3.413 (Simulation time: 00 hr 02 min 50 sec)
Heartbeat CPU 0 instructions: 36000237 cycles: 10532572 heartbeat IPC: 3.824 cumulative IPC: 3.418 (Simulation time: 00 hr 02 min 52 sec)
Heartbeat CPU 0 instructions: 36500240 cycles: 10682115 heartbeat IPC: 3.344 cumulative IPC: 3.417 (Simulation time: 00 hr 02 min 55 sec)
Heartbeat CPU 0 instructions: 37000246 cycles: 10829800 heartbeat IPC: 3.386 cumulative IPC: 3.417 (Simulation time: 00 hr 02 min 57 sec)
Heartbeat CPU 0 instructions: 37500248 cycles: 10936864 heartbeat IPC: 4.67 cumulative IPC: 3.429 (Simulation time: 00 hr 02 min 59 sec)
Heartbeat CPU 0 instructions: 38000251 cycles: 11077459 heartbeat IPC: 3.556 cumulative IPC: 3.43 (Simulation time: 00 hr 03 min 01 sec)
Heartbeat CPU 0 instructions: 38500254 cycles: 11202450 heartbeat IPC: 4 cumulative IPC: 3.437 (Simulation time: 00 hr 03 min 04 sec)
Heartbeat CPU 0 instructions: 39000257 cycles: 11311297 heartbeat IPC: 4.594 cumulative IPC: 3.448 (Simulation time: 00 hr 03 min 05 sec)
Heartbeat CPU 0 instructions: 39500263 cycles: 11411549 heartbeat IPC: 4.987 cumulative IPC: 3.461 (Simulation time: 00 hr 03 min 07 sec)
Heartbeat CPU 0 instructions: 40000264 cycles: 11513110 heartbeat IPC: 4.923 cumulative IPC: 3.474 (Simulation time: 00 hr 03 min 08 sec)
Heartbeat CPU 0 instructions: 40500270 cycles: 11616365 heartbeat IPC: 4.842 cumulative IPC: 3.486 (Simulation time: 00 hr 03 min 10 sec)
Heartbeat CPU 0 instructions: 41000277 cycles: 11718479 heartbeat IPC: 4.897 cumulative IPC: 3.499 (Simulation time: 00 hr 03 min 11 sec)
Heartbeat CPU 0 instructions: 41500278 cycles: 11818482 heartbeat IPC: 5 cumulative IPC: 3.511 (Simulation time: 00 hr 03 min 13 sec)
Heartbeat CPU 0 instructions: 42000278 cycles: 11919198 heartbeat IPC: 4.964 cumulative IPC: 3.524 (Simulation time: 00 hr 03 min 14 sec)
Heartbeat CPU 0 instructions: 42500280 cycles: 12020045 heartbeat IPC: 4.958 cumulative IPC: 3.536 (Simulation time: 00 hr 03 min 15 sec)
Heartbeat CPU 0 instructions: 43000282 cycles: 12122257 heartbeat IPC: 4.892 cumulative IPC: 3.547 (Simulation time: 00 hr 03 min 17 sec)
Heartbeat CPU 0 instructions: 43500289 cycles: 12237632 heartbeat IPC: 4.334 cumulative IPC: 3.555 (Simulation time: 00 hr 03 min 19 sec)
Heartbeat CPU 0 instructions: 44000296 cycles: 12393573 heartbeat IPC: 3.206 cumulative IPC: 3.55 (Simulation time: 00 hr 03 min 21 sec)
Heartbeat CPU 0 instructions: 44500302 cycles: 12581361 heartbeat IPC: 2.663 cumulative IPC: 3.537 (Simulation time: 00 hr 03 min 24 sec)
Heartbeat CPU 0 instructions: 45000302 cycles: 12750894 heartbeat IPC: 2.949 cumulative IPC: 3.529 (Simulation time: 00 hr 03 min 27 sec)
Heartbeat CPU 0 instructions: 45500303 cycles: 12911763 heartbeat IPC: 3.108 cumulative IPC: 3.524 (Simulation time: 00 hr 03 min 30 sec)
Heartbeat CPU 0 instructions: 46000307 cycles: 13074794 heartbeat IPC: 3.067 cumulative IPC: 3.518 (Simulation time: 00 hr 03 min 33 sec)
Heartbeat CPU 0 instructions: 46500314 cycles: 13233714 heartbeat IPC: 3.146 cumulative IPC: 3.514 (Simulation time: 00 hr 03 min 36 sec)
Heartbeat CPU 0 instructions: 47000319 cycles: 13378452 heartbeat IPC: 3.455 cumulative IPC: 3.513 (Simulation time: 00 hr 03 min 39 sec)
Heartbeat CPU 0 instructions: 47500326 cycles: 13516383 heartbeat IPC: 3.625 cumulative IPC: 3.514 (Simulation time: 00 hr 03 min 41 sec)
Heartbeat CPU 0 instructions: 48000331 cycles: 13654951 heartbeat IPC: 3.608 cumulative IPC: 3.515 (Simulation time: 00 hr 03 min 43 sec)
Heartbeat CPU 0 instructions: 48500334 cycles: 13801816 heartbeat IPC: 3.405 cumulative IPC: 3.514 (Simulation time: 00 hr 03 min 46 sec)
Heartbeat CPU 0 instructions: 49000334 cycles: 13946828 heartbeat IPC: 3.448 cumulative IPC: 3.513 (Simulation time: 00 hr 03 min 49 sec)
Heartbeat CPU 0 instructions: 49500336 cycles: 14098663 heartbeat IPC: 3.293 cumulative IPC: 3.511 (Simulation time: 00 hr 03 min 52 sec)
Warmup finished CPU 0 instructions: 50000004 cycles: 14240359 cumulative IPC: 3.511 (Simulation time: 00 hr 03 min 54 sec)
Warmup complete CPU 0 instructions: 50000004 cycles: 14240359 cumulative IPC: 3.511 (Simulation time: 00 hr 03 min 54 sec)
Heartbeat CPU 0 instructions: 50000342 cycles: 14240665 heartbeat IPC: 3.521 cumulative IPC: 1.105 (Simulation time: 00 hr 03 min 54 sec)
Heartbeat CPU 0 instructions: 50500348 cycles: 16121521 heartbeat IPC: 0.2658 cumulative IPC: 0.266 (Simulation time: 00 hr 04 min 07 sec)
Heartbeat CPU 0 instructions: 51000349 cycles: 17757405 heartbeat IPC: 0.3056 cumulative IPC: 0.2844 (Simulation time: 00 hr 04 min 18 sec)
Heartbeat CPU 0 instructions: 51500356 cycles: 18504904 heartbeat IPC: 0.6689 cumulative IPC: 0.3518 (Simulation time: 00 hr 04 min 23 sec)
Heartbeat CPU 0 instructions: 52000356 cycles: 19108423 heartbeat IPC: 0.8285 cumulative IPC: 0.4109 (Simulation time: 00 hr 04 min 28 sec)
Heartbeat CPU 0 instructions: 52500363 cycles: 20919420 heartbeat IPC: 0.2761 cumulative IPC: 0.3744 (Simulation time: 00 hr 04 min 40 sec)
Heartbeat CPU 0 instructions: 53000363 cycles: 22496419 heartbeat IPC: 0.3171 cumulative IPC: 0.3634 (Simulation time: 00 hr 04 min 50 sec)
Heartbeat CPU 0 instructions: 53500363 cycles: 23854575 heartbeat IPC: 0.3681 cumulative IPC: 0.3641 (Simulation time: 00 hr 05 min 00 sec)
Heartbeat CPU 0 instructions: 54000368 cycles: 25215241 heartbeat IPC: 0.3675 cumulative IPC: 0.3645 (Simulation time: 00 hr 05 min 10 sec)
Heartbeat CPU 0 instructions: 54500368 cycles: 26616418 heartbeat IPC: 0.3568 cumulative IPC: 0.3636 (Simulation time: 00 hr 05 min 19 sec)
Heartbeat CPU 0 instructions: 55000369 cycles: 28052551 heartbeat IPC: 0.3482 cumulative IPC: 0.362 (Simulation time: 00 hr 05 min 30 sec)
Heartbeat CPU 0 instructions: 55500370 cycles: 29465360 heartbeat IPC: 0.3539 cumulative IPC: 0.3613 (Simulation time: 00 hr 05 min 39 sec)
Heartbeat CPU 0 instructions: 56000376 cycles: 30612413 heartbeat IPC: 0.4359 cumulative IPC: 0.3665 (Simulation time: 00 hr 05 min 48 sec)
Heartbeat CPU 0 instructions: 56500377 cycles: 32035207 heartbeat IPC: 0.3514 cumulative IPC: 0.3653 (Simulation time: 00 hr 05 min 58 sec)
Heartbeat CPU 0 instructions: 57000378 cycles: 33352436 heartbeat IPC: 0.3796 cumulative IPC: 0.3663 (Simulation time: 00 hr 06 min 07 sec)
Heartbeat CPU 0 instructions: 57500378 cycles: 34768471 heartbeat IPC: 0.3531 cumulative IPC: 0.3654 (Simulation time: 00 hr 06 min 17 sec)
Heartbeat CPU 0 instructions: 58000385 cycles: 35314567 heartbeat IPC: 0.9156 cumulative IPC: 0.3796 (Simulation time: 00 hr 06 min 22 sec)
Heartbeat CPU 0 instructions: 58500386 cycles: 35589263 heartbeat IPC: 1.82 cumulative IPC: 0.3982 (Simulation time: 00 hr 06 min 24 sec)
Heartbeat CPU 0 instructions: 59000393 cycles: 35809255 heartbeat IPC: 2.273 cumulative IPC: 0.4173 (Simulation time: 00 hr 06 min 26 sec)
Heartbeat CPU 0 instructions: 59500393 cycles: 36080543 heartbeat IPC: 1.843 cumulative IPC: 0.435 (Simulation time: 00 hr 06 min 29 sec)
Heartbeat CPU 0 instructions: 60000395 cycles: 36373847 heartbeat IPC: 1.705 cumulative IPC: 0.4518 (Simulation time: 00 hr 06 min 31 sec)
Heartbeat CPU 0 instructions: 60500395 cycles: 36685547 heartbeat IPC: 1.604 cumulative IPC: 0.4678 (Simulation time: 00 hr 06 min 34 sec)
Heartbeat CPU 0 instructions: 61000395 cycles: 37496151 heartbeat IPC: 0.6168 cumulative IPC: 0.473 (Simulation time: 00 hr 06 min 40 sec)
Heartbeat CPU 0 instructions: 61500396 cycles: 38120098 heartbeat IPC: 0.8014 cumulative IPC: 0.4816 (Simulation time: 00 hr 06 min 45 sec)
Heartbeat CPU 0 instructions: 62000397 cycles: 39397318 heartbeat IPC: 0.3915 cumulative IPC: 0.477 (Simulation time: 00 hr 06 min 54 sec)
Heartbeat CPU 0 instructions: 62500398 cycles: 41046311 heartbeat IPC: 0.3032 cumulative IPC: 0.4663 (Simulation time: 00 hr 07 min 06 sec)
Heartbeat CPU 0 instructions: 63000399 cycles: 41917066 heartbeat IPC: 0.5742 cumulative IPC: 0.4697 (Simulation time: 00 hr 07 min 12 sec)
Heartbeat CPU 0 instructions: 63500399 cycles: 43149674 heartbeat IPC: 0.4056 cumulative IPC: 0.467 (Simulation time: 00 hr 07 min 21 sec)
Heartbeat CPU 0 instructions: 64000404 cycles: 44330163 heartbeat IPC: 0.4236 cumulative IPC: 0.4653 (Simulation time: 00 hr 07 min 30 sec)
Heartbeat CPU 0 instructions: 64500407 cycles: 45380339 heartbeat IPC: 0.4761 cumulative IPC: 0.4657 (Simulation time: 00 hr 07 min 37 sec)
Heartbeat CPU 0 instructions: 65000409 cycles: 46470564 heartbeat IPC: 0.4586 cumulative IPC: 0.4654 (Simulation time: 00 hr 07 min 45 sec)
Heartbeat CPU 0 instructions: 65500412 cycles: 47055177 heartbeat IPC: 0.8553 cumulative IPC: 0.4724 (Simulation time: 00 hr 07 min 50 sec)
Heartbeat CPU 0 instructions: 66000414 cycles: 47393034 heartbeat IPC: 1.48 cumulative IPC: 0.4826 (Simulation time: 00 hr 07 min 53 sec)
Heartbeat CPU 0 instructions: 66500418 cycles: 47760796 heartbeat IPC: 1.36 cumulative IPC: 0.4922 (Simulation time: 00 hr 07 min 56 sec)
Heartbeat CPU 0 instructions: 67000421 cycles: 48081304 heartbeat IPC: 1.56 cumulative IPC: 0.5024 (Simulation time: 00 hr 07 min 59 sec)
Heartbeat CPU 0 instructions: 67500424 cycles: 48631234 heartbeat IPC: 0.9092 cumulative IPC: 0.5089 (Simulation time: 00 hr 08 min 03 sec)
Heartbeat CPU 0 instructions: 68000429 cycles: 49333305 heartbeat IPC: 0.7122 cumulative IPC: 0.5129 (Simulation time: 00 hr 08 min 08 sec)
Heartbeat CPU 0 instructions: 68500430 cycles: 51315282 heartbeat IPC: 0.2523 cumulative IPC: 0.499 (Simulation time: 00 hr 08 min 22 sec)
Heartbeat CPU 0 instructions: 69000430 cycles: 53203044 heartbeat IPC: 0.2649 cumulative IPC: 0.4877 (Simulation time: 00 hr 08 min 34 sec)
Heartbeat CPU 0 instructions: 69500431 cycles: 54319941 heartbeat IPC: 0.4477 cumulative IPC: 0.4865 (Simulation time: 00 hr 08 min 42 sec)
Heartbeat CPU 0 instructions: 70000433 cycles: 55511107 heartbeat IPC: 0.4198 cumulative IPC: 0.4846 (Simulation time: 00 hr 08 min 51 sec)
Heartbeat CPU 0 instructions: 70500434 cycles: 56678641 heartbeat IPC: 0.4283 cumulative IPC: 0.4831 (Simulation time: 00 hr 08 min 59 sec)
Heartbeat CPU 0 instructions: 71000438 cycles: 57039971 heartbeat IPC: 1.384 cumulative IPC: 0.4907 (Simulation time: 00 hr 09 min 02 sec)
Heartbeat CPU 0 instructions: 71500439 cycles: 57557154 heartbeat IPC: 0.9668 cumulative IPC: 0.4964 (Simulation time: 00 hr 09 min 07 sec)
Heartbeat CPU 0 instructions: 72000443 cycles: 59454221 heartbeat IPC: 0.2636 cumulative IPC: 0.4866 (Simulation time: 00 hr 09 min 19 sec)
Heartbeat CPU 0 instructions: 72500446 cycles: 60771577 heartbeat IPC: 0.3796 cumulative IPC: 0.4836 (Simulation time: 00 hr 09 min 29 sec)
Heartbeat CPU 0 instructions: 73000451 cycles: 62671949 heartbeat IPC: 0.2631 cumulative IPC: 0.4749 (Simulation time: 00 hr 09 min 41 sec)
Heartbeat CPU 0 instructions: 73500456 cycles: 64260211 heartbeat IPC: 0.3148 cumulative IPC: 0.4698 (Simulation time: 00 hr 09 min 52 sec)
Heartbeat CPU 0 instructions: 74000457 cycles: 65452441 heartbeat IPC: 0.4194 cumulative IPC: 0.4686 (Simulation time: 00 hr 10 min 00 sec)
Heartbeat CPU 0 instructions: 74500457 cycles: 66691241 heartbeat IPC: 0.4036 cumulative IPC: 0.4671 (Simulation time: 00 hr 10 min 09 sec)
Heartbeat CPU 0 instructions: 75000460 cycles: 67776240 heartbeat IPC: 0.4608 cumulative IPC: 0.467 (Simulation time: 00 hr 10 min 17 sec)
Heartbeat CPU 0 instructions: 75500461 cycles: 68748094 heartbeat IPC: 0.5145 cumulative IPC: 0.4678 (Simulation time: 00 hr 10 min 24 sec)
Heartbeat CPU 0 instructions: 76000463 cycles: 69912565 heartbeat IPC: 0.4294 cumulative IPC: 0.467 (Simulation time: 00 hr 10 min 32 sec)
Heartbeat CPU 0 instructions: 76500465 cycles: 70978636 heartbeat IPC: 0.469 cumulative IPC: 0.4671 (Simulation time: 00 hr 10 min 40 sec)
Heartbeat CPU 0 instructions: 77000467 cycles: 72040511 heartbeat IPC: 0.4709 cumulative IPC: 0.4671 (Simulation time: 00 hr 10 min 48 sec)
Heartbeat CPU 0 instructions: 77500471 cycles: 73682954 heartbeat IPC: 0.3044 cumulative IPC: 0.4626 (Simulation time: 00 hr 11 min 00 sec)
Heartbeat CPU 0 instructions: 78000473 cycles: 75167793 heartbeat IPC: 0.3367 cumulative IPC: 0.4596 (Simulation time: 00 hr 11 min 10 sec)
Heartbeat CPU 0 instructions: 78500478 cycles: 76730009 heartbeat IPC: 0.3201 cumulative IPC: 0.4561 (Simulation time: 00 hr 11 min 21 sec)
Heartbeat CPU 0 instructions: 79000483 cycles: 78170006 heartbeat IPC: 0.3472 cumulative IPC: 0.4536 (Simulation time: 00 hr 11 min 31 sec)
Heartbeat CPU 0 instructions: 79500483 cycles: 79399064 heartbeat IPC: 0.4068 cumulative IPC: 0.4527 (Simulation time: 00 hr 11 min 39 sec)
Heartbeat CPU 0 instructions: 80000483 cycles: 80386022 heartbeat IPC: 0.5066 cumulative IPC: 0.4536 (Simulation time: 00 hr 11 min 46 sec)
Heartbeat CPU 0 instructions: 80500483 cycles: 81754324 heartbeat IPC: 0.3654 cumulative IPC: 0.4518 (Simulation time: 00 hr 11 min 56 sec)
Heartbeat CPU 0 instructions: 81000489 cycles: 83150227 heartbeat IPC: 0.3582 cumulative IPC: 0.4499 (Simulation time: 00 hr 12 min 05 sec)
Heartbeat CPU 0 instructions: 81500490 cycles: 84324455 heartbeat IPC: 0.4258 cumulative IPC: 0.4495 (Simulation time: 00 hr 12 min 14 sec)
Heartbeat CPU 0 instructions: 82000490 cycles: 85287306 heartbeat IPC: 0.5193 cumulative IPC: 0.4504 (Simulation time: 00 hr 12 min 21 sec)
Heartbeat CPU 0 instructions: 82500493 cycles: 86698606 heartbeat IPC: 0.3543 cumulative IPC: 0.4485 (Simulation time: 00 hr 12 min 31 sec)
Heartbeat CPU 0 instructions: 83000493 cycles: 88101688 heartbeat IPC: 0.3564 cumulative IPC: 0.4468 (Simulation time: 00 hr 12 min 41 sec)
Heartbeat CPU 0 instructions: 83500493 cycles: 89175081 heartbeat IPC: 0.4658 cumulative IPC: 0.4471 (Simulation time: 00 hr 12 min 48 sec)
Heartbeat CPU 0 instructions: 84000498 cycles: 90727556 heartbeat IPC: 0.3221 cumulative IPC: 0.4445 (Simulation time: 00 hr 12 min 59 sec)
Heartbeat CPU 0 instructions: 84500502 cycles: 91303311 heartbeat IPC: 0.8684 cumulative IPC: 0.4477 (Simulation time: 00 hr 13 min 03 sec)
Heartbeat CPU 0 instructions: 85000502 cycles: 91639990 heartbeat IPC: 1.485 cumulative IPC: 0.4522 (Simulation time: 00 hr 13 min 07 sec)
Heartbeat CPU 0 instructions: 85500506 cycles: 91943502 heartbeat IPC: 1.647 cumulative IPC: 0.4569 (Simulation time: 00 hr 13 min 09 sec)
Heartbeat CPU 0 instructions: 86000509 cycles: 93185060 heartbeat IPC: 0.4027 cumulative IPC: 0.456 (Simulation time: 00 hr 13 min 18 sec)
Heartbeat CPU 0 instructions: 86500516 cycles: 94620034 heartbeat IPC: 0.3484 cumulative IPC: 0.4541 (Simulation time: 00 hr 13 min 28 sec)
Heartbeat CPU 0 instructions: 87000522 cycles: 95648511 heartbeat IPC: 0.4862 cumulative IPC: 0.4545 (Simulation time: 00 hr 13 min 36 sec)
Heartbeat CPU 0 instructions: 87500527 cycles: 96802779 heartbeat IPC: 0.4332 cumulative IPC: 0.4542 (Simulation time: 00 hr 13 min 44 sec)
Heartbeat CPU 0 instructions: 88000531 cycles: 97211090 heartbeat IPC: 1.225 cumulative IPC: 0.458 (Simulation time: 00 hr 13 min 47 sec)
Heartbeat CPU 0 instructions: 88500531 cycles: 97498053 heartbeat IPC: 1.742 cumulative IPC: 0.4624 (Simulation time: 00 hr 13 min 50 sec)
Heartbeat CPU 0 instructions: 89000537 cycles: 97785118 heartbeat IPC: 1.742 cumulative IPC: 0.4668 (Simulation time: 00 hr 13 min 53 sec)
Heartbeat CPU 0 instructions: 89500537 cycles: 98696863 heartbeat IPC: 0.5484 cumulative IPC: 0.4677 (Simulation time: 00 hr 13 min 59 sec)
Heartbeat CPU 0 instructions: 90000540 cycles: 99988283 heartbeat IPC: 0.3872 cumulative IPC: 0.4665 (Simulation time: 00 hr 14 min 08 sec)
Heartbeat CPU 0 instructions: 90500544 cycles: 101282580 heartbeat IPC: 0.3863 cumulative IPC: 0.4653 (Simulation time: 00 hr 14 min 18 sec)
Heartbeat CPU 0 instructions: 91000545 cycles: 102721630 heartbeat IPC: 0.3475 cumulative IPC: 0.4634 (Simulation time: 00 hr 14 min 28 sec)
Heartbeat CPU 0 instructions: 91500549 cycles: 104133137 heartbeat IPC: 0.3542 cumulative IPC: 0.4617 (Simulation time: 00 hr 14 min 38 sec)
Heartbeat CPU 0 instructions: 92000549 cycles: 104708460 heartbeat IPC: 0.8691 cumulative IPC: 0.4643 (Simulation time: 00 hr 14 min 43 sec)
Heartbeat CPU 0 instructions: 92500556 cycles: 105037534 heartbeat IPC: 1.519 cumulative IPC: 0.4681 (Simulation time: 00 hr 14 min 46 sec)
Heartbeat CPU 0 instructions: 93000563 cycles: 105300041 heartbeat IPC: 1.905 cumulative IPC: 0.4722 (Simulation time: 00 hr 14 min 49 sec)
Heartbeat CPU 0 instructions: 93500568 cycles: 105579485 heartbeat IPC: 1.789 cumulative IPC: 0.4763 (Simulation time: 00 hr 14 min 52 sec)
Heartbeat CPU 0 instructions: 94000571 cycles: 105837328 heartbeat IPC: 1.939 cumulative IPC: 0.4804 (Simulation time: 00 hr 14 min 55 sec)
Heartbeat CPU 0 instructions: 94500572 cycles: 106096022 heartbeat IPC: 1.933 cumulative IPC: 0.4845 (Simulation time: 00 hr 14 min 57 sec)
Heartbeat CPU 0 instructions: 95000576 cycles: 106275298 heartbeat IPC: 2.789 cumulative IPC: 0.489 (Simulation time: 00 hr 15 min 00 sec)
Heartbeat CPU 0 instructions: 95500578 cycles: 107297217 heartbeat IPC: 0.4893 cumulative IPC: 0.489 (Simulation time: 00 hr 15 min 07 sec)
Heartbeat CPU 0 instructions: 96000578 cycles: 108644893 heartbeat IPC: 0.371 cumulative IPC: 0.4873 (Simulation time: 00 hr 15 min 16 sec)
Heartbeat CPU 0 instructions: 96500580 cycles: 110043414 heartbeat IPC: 0.3575 cumulative IPC: 0.4854 (Simulation time: 00 hr 15 min 26 sec)
Heartbeat CPU 0 instructions: 97000582 cycles: 111465877 heartbeat IPC: 0.3515 cumulative IPC: 0.4834 (Simulation time: 00 hr 15 min 36 sec)
Heartbeat CPU 0 instructions: 97500587 cycles: 113340961 heartbeat IPC: 0.2667 cumulative IPC: 0.4793 (Simulation time: 00 hr 15 min 49 sec)
Heartbeat CPU 0 instructions: 98000588 cycles: 114711751 heartbeat IPC: 0.3648 cumulative IPC: 0.4778 (Simulation time: 00 hr 15 min 59 sec)
Heartbeat CPU 0 instructions: 98500589 cycles: 115614750 heartbeat IPC: 0.5537 cumulative IPC: 0.4784 (Simulation time: 00 hr 16 min 06 sec)
Heartbeat CPU 0 instructions: 99000595 cycles: 117158794 heartbeat IPC: 0.3238 cumulative IPC: 0.4761 (Simulation time: 00 hr 16 min 16 sec)
Heartbeat CPU 0 instructions: 99500595 cycles: 118403721 heartbeat IPC: 0.4016 cumulative IPC: 0.4752 (Simulation time: 00 hr 16 min 25 sec)
Heartbeat CPU 0 instructions: 100000602 cycles: 119559535 heartbeat IPC: 0.4326 cumulative IPC: 0.4748 (Simulation time: 00 hr 16 min 34 sec)
Heartbeat CPU 0 instructions: 100500602 cycles: 120608887 heartbeat IPC: 0.4765 cumulative IPC: 0.4748 (Simulation time: 00 hr 16 min 41 sec)
Heartbeat CPU 0 instructions: 101000602 cycles: 122181625 heartbeat IPC: 0.3179 cumulative IPC: 0.4725 (Simulation time: 00 hr 16 min 52 sec)
Heartbeat CPU 0 instructions: 101500603 cycles: 123424407 heartbeat IPC: 0.4023 cumulative IPC: 0.4717 (Simulation time: 00 hr 17 min 01 sec)
Heartbeat CPU 0 instructions: 102000610 cycles: 124158718 heartbeat IPC: 0.6809 cumulative IPC: 0.4731 (Simulation time: 00 hr 17 min 06 sec)
Heartbeat CPU 0 instructions: 102500616 cycles: 124447174 heartbeat IPC: 1.733 cumulative IPC: 0.4764 (Simulation time: 00 hr 17 min 09 sec)
Heartbeat CPU 0 instructions: 103000621 cycles: 124782406 heartbeat IPC: 1.492 cumulative IPC: 0.4795 (Simulation time: 00 hr 17 min 12 sec)
Heartbeat CPU 0 instructions: 103500627 cycles: 125040356 heartbeat IPC: 1.938 cumulative IPC: 0.4829 (Simulation time: 00 hr 17 min 14 sec)
Heartbeat CPU 0 instructions: 104000627 cycles: 125307109 heartbeat IPC: 1.874 cumulative IPC: 0.4862 (Simulation time: 00 hr 17 min 17 sec)
Heartbeat CPU 0 instructions: 104500628 cycles: 126659874 heartbeat IPC: 0.3696 cumulative IPC: 0.4848 (Simulation time: 00 hr 17 min 26 sec)
Heartbeat CPU 0 instructions: 105000635 cycles: 127830016 heartbeat IPC: 0.4273 cumulative IPC: 0.4842 (Simulation time: 00 hr 17 min 35 sec)
Heartbeat CPU 0 instructions: 105500637 cycles: 129033743 heartbeat IPC: 0.4154 cumulative IPC: 0.4835 (Simulation time: 00 hr 17 min 43 sec)
Heartbeat CPU 0 instructions: 106000638 cycles: 130235492 heartbeat IPC: 0.4161 cumulative IPC: 0.4828 (Simulation time: 00 hr 17 min 52 sec)
Heartbeat CPU 0 instructions: 106500639 cycles: 131419937 heartbeat IPC: 0.4221 cumulative IPC: 0.4822 (Simulation time: 00 hr 18 min 00 sec)
Heartbeat CPU 0 instructions: 107000640 cycles: 132249793 heartbeat IPC: 0.6025 cumulative IPC: 0.483 (Simulation time: 00 hr 18 min 07 sec)
Heartbeat CPU 0 instructions: 107500645 cycles: 133863617 heartbeat IPC: 0.3098 cumulative IPC: 0.4807 (Simulation time: 00 hr 18 min 18 sec)
Heartbeat CPU 0 instructions: 108000645 cycles: 134988288 heartbeat IPC: 0.4446 cumulative IPC: 0.4803 (Simulation time: 00 hr 18 min 26 sec)
Heartbeat CPU 0 instructions: 108500645 cycles: 135460389 heartbeat IPC: 1.059 cumulative IPC: 0.4826 (Simulation time: 00 hr 18 min 30 sec)
Heartbeat CPU 0 instructions: 109000647 cycles: 136519581 heartbeat IPC: 0.4721 cumulative IPC: 0.4825 (Simulation time: 00 hr 18 min 37 sec)
Heartbeat CPU 0 instructions: 109500652 cycles: 136798474 heartbeat IPC: 1.793 cumulative IPC: 0.4855 (Simulation time: 00 hr 18 min 40 sec)
Heartbeat CPU 0 instructions: 110000652 cycles: 137118308 heartbeat IPC: 1.563 cumulative IPC: 0.4883 (Simulation time: 00 hr 18 min 43 sec)
Heartbeat CPU 0 instructions: 110500654 cycles: 137906123 heartbeat IPC: 0.6347 cumulative IPC: 0.4892 (Simulation time: 00 hr 18 min 49 sec)
Heartbeat CPU 0 instructions: 111000655 cycles: 139001357 heartbeat IPC: 0.4565 cumulative IPC: 0.4889 (Simulation time: 00 hr 18 min 57 sec)
Heartbeat CPU 0 instructions: 111500656 cycles: 140168797 heartbeat IPC: 0.4283 cumulative IPC: 0.4884 (Simulation time: 00 hr 19 min 05 sec)
Heartbeat CPU 0 instructions: 112000656 cycles: 141571528 heartbeat IPC: 0.3564 cumulative IPC: 0.4869 (Simulation time: 00 hr 19 min 15 sec)
Heartbeat CPU 0 instructions: 112500662 cycles: 142850501 heartbeat IPC: 0.3909 cumulative IPC: 0.486 (Simulation time: 00 hr 19 min 24 sec)
Heartbeat CPU 0 instructions: 113000667 cycles: 143516739 heartbeat IPC: 0.7505 cumulative IPC: 0.4873 (Simulation time: 00 hr 19 min 30 sec)
Heartbeat CPU 0 instructions: 113500670 cycles: 144268238 heartbeat IPC: 0.6653 cumulative IPC: 0.4884 (Simulation time: 00 hr 19 min 36 sec)
Heartbeat CPU 0 instructions: 114000673 cycles: 144767133 heartbeat IPC: 1.002 cumulative IPC: 0.4903 (Simulation time: 00 hr 19 min 40 sec)
Heartbeat CPU 0 instructions: 114500673 cycles: 146026129 heartbeat IPC: 0.3971 cumulative IPC: 0.4894 (Simulation time: 00 hr 19 min 50 sec)
Heartbeat CPU 0 instructions: 115000677 cycles: 146628596 heartbeat IPC: 0.8299 cumulative IPC: 0.491 (Simulation time: 00 hr 19 min 55 sec)
Heartbeat CPU 0 instructions: 115500678 cycles: 147019639 heartbeat IPC: 1.279 cumulative IPC: 0.4933 (Simulation time: 00 hr 19 min 59 sec)
Heartbeat CPU 0 instructions: 116000678 cycles: 147384651 heartbeat IPC: 1.37 cumulative IPC: 0.4957 (Simulation time: 00 hr 20 min 02 sec)
Heartbeat CPU 0 instructions: 116500678 cycles: 147753125 heartbeat IPC: 1.357 cumulative IPC: 0.4981 (Simulation time: 00 hr 20 min 06 sec)
Heartbeat CPU 0 instructions: 117000678 cycles: 148097493 heartbeat IPC: 1.452 cumulative IPC: 0.5005 (Simulation time: 00 hr 20 min 09 sec)
Heartbeat CPU 0 instructions: 117500684 cycles: 149334937 heartbeat IPC: 0.4041 cumulative IPC: 0.4997 (Simulation time: 00 hr 20 min 19 sec)
Heartbeat CPU 0 instructions: 118000684 cycles: 150798788 heartbeat IPC: 0.3416 cumulative IPC: 0.498 (Simulation time: 00 hr 20 min 29 sec)
Heartbeat CPU 0 instructions: 118500687 cycles: 151460989 heartbeat IPC: 0.7551 cumulative IPC: 0.4992 (Simulation time: 00 hr 20 min 35 sec)
Heartbeat CPU 0 instructions: 119000687 cycles: 151805966 heartbeat IPC: 1.449 cumulative IPC: 0.5016 (Simulation time: 00 hr 20 min 38 sec)
Heartbeat CPU 0 instructions: 119500687 cycles: 152145762 heartbeat IPC: 1.471 cumulative IPC: 0.504 (Simulation time: 00 hr 20 min 42 sec)
Heartbeat CPU 0 instructions: 120000688 cycles: 152498294 heartbeat IPC: 1.418 cumulative IPC: 0.5063 (Simulation time: 00 hr 20 min 45 sec)
Heartbeat CPU 0 instructions: 120500690 cycles: 152844255 heartbeat IPC: 1.445 cumulative IPC: 0.5086 (Simulation time: 00 hr 20 min 49 sec)
Heartbeat CPU 0 instructions: 121000691 cycles: 153831158 heartbeat IPC: 0.5066 cumulative IPC: 0.5086 (Simulation time: 00 hr 21 min 00 sec)
Heartbeat CPU 0 instructions: 121500695 cycles: 154543720 heartbeat IPC: 0.7017 cumulative IPC: 0.5096 (Simulation time: 00 hr 21 min 06 sec)
Heartbeat CPU 0 instructions: 122000701 cycles: 156742875 heartbeat IPC: 0.2274 cumulative IPC: 0.5053 (Simulation time: 00 hr 21 min 21 sec)
Heartbeat CPU 0 instructions: 122500704 cycles: 157635126 heartbeat IPC: 0.5604 cumulative IPC: 0.5056 (Simulation time: 00 hr 21 min 29 sec)
Heartbeat CPU 0 instructions: 123000706 cycles: 158104621 heartbeat IPC: 1.065 cumulative IPC: 0.5074 (Simulation time: 00 hr 21 min 33 sec)
Heartbeat CPU 0 instructions: 123500706 cycles: 158444091 heartbeat IPC: 1.473 cumulative IPC: 0.5097 (Simulation time: 00 hr 21 min 37 sec)
Heartbeat CPU 0 instructions: 124000710 cycles: 158781108 heartbeat IPC: 1.484 cumulative IPC: 0.512 (Simulation time: 00 hr 21 min 40 sec)
Heartbeat CPU 0 instructions: 124500714 cycles: 160666951 heartbeat IPC: 0.2651 cumulative IPC: 0.5088 (Simulation time: 00 hr 21 min 53 sec)
Heartbeat CPU 0 instructions: 125000715 cycles: 162050255 heartbeat IPC: 0.3615 cumulative IPC: 0.5074 (Simulation time: 00 hr 22 min 03 sec)
Heartbeat CPU 0 instructions: 125500722 cycles: 163086687 heartbeat IPC: 0.4824 cumulative IPC: 0.5072 (Simulation time: 00 hr 22 min 11 sec)
Heartbeat CPU 0 instructions: 126000724 cycles: 163780815 heartbeat IPC: 0.7203 cumulative IPC: 0.5082 (Simulation time: 00 hr 22 min 16 sec)
Heartbeat CPU 0 instructions: 126500724 cycles: 165129724 heartbeat IPC: 0.3707 cumulative IPC: 0.507 (Simulation time: 00 hr 22 min 25 sec)
Heartbeat CPU 0 instructions: 127000724 cycles: 166149348 heartbeat IPC: 0.4904 cumulative IPC: 0.5069 (Simulation time: 00 hr 22 min 33 sec)
Heartbeat CPU 0 instructions: 127500728 cycles: 167562552 heartbeat IPC: 0.3538 cumulative IPC: 0.5055 (Simulation time: 00 hr 22 min 42 sec)
Heartbeat CPU 0 instructions: 128000733 cycles: 169124463 heartbeat IPC: 0.3201 cumulative IPC: 0.5036 (Simulation time: 00 hr 22 min 53 sec)
Heartbeat CPU 0 instructions: 128500733 cycles: 169704549 heartbeat IPC: 0.8619 cumulative IPC: 0.5049 (Simulation time: 00 hr 22 min 58 sec)
Heartbeat CPU 0 instructions: 129000733 cycles: 171053466 heartbeat IPC: 0.3707 cumulative IPC: 0.5038 (Simulation time: 00 hr 23 min 07 sec)
Heartbeat CPU 0 instructions: 129500737 cycles: 172380909 heartbeat IPC: 0.3767 cumulative IPC: 0.5027 (Simulation time: 00 hr 23 min 16 sec)
Heartbeat CPU 0 instructions: 130000737 cycles: 173876347 heartbeat IPC: 0.3344 cumulative IPC: 0.5011 (Simulation time: 00 hr 23 min 26 sec)
Heartbeat CPU 0 instructions: 130500741 cycles: 175346404 heartbeat IPC: 0.3401 cumulative IPC: 0.4997 (Simulation time: 00 hr 23 min 36 sec)
Heartbeat CPU 0 instructions: 131000742 cycles: 176785498 heartbeat IPC: 0.3474 cumulative IPC: 0.4983 (Simulation time: 00 hr 23 min 45 sec)
Heartbeat CPU 0 instructions: 131500743 cycles: 178400724 heartbeat IPC: 0.3096 cumulative IPC: 0.4965 (Simulation time: 00 hr 23 min 56 sec)
Heartbeat CPU 0 instructions: 132000747 cycles: 179743094 heartbeat IPC: 0.3725 cumulative IPC: 0.4955 (Simulation time: 00 hr 24 min 04 sec)
Heartbeat CPU 0 instructions: 132500753 cycles: 181162445 heartbeat IPC: 0.3523 cumulative IPC: 0.4942 (Simulation time: 00 hr 24 min 14 sec)
Heartbeat CPU 0 instructions: 133000755 cycles: 182274866 heartbeat IPC: 0.4495 cumulative IPC: 0.494 (Simulation time: 00 hr 24 min 22 sec)
Heartbeat CPU 0 instructions: 133500755 cycles: 183545302 heartbeat IPC: 0.3936 cumulative IPC: 0.4932 (Simulation time: 00 hr 24 min 30 sec)
Heartbeat CPU 0 instructions: 134000757 cycles: 185296697 heartbeat IPC: 0.2855 cumulative IPC: 0.4911 (Simulation time: 00 hr 24 min 41 sec)
Heartbeat CPU 0 instructions: 134500757 cycles: 186274522 heartbeat IPC: 0.5113 cumulative IPC: 0.4912 (Simulation time: 00 hr 24 min 48 sec)
Heartbeat CPU 0 instructions: 135000760 cycles: 187830735 heartbeat IPC: 0.3213 cumulative IPC: 0.4897 (Simulation time: 00 hr 24 min 58 sec)
Heartbeat CPU 0 instructions: 135500766 cycles: 189066931 heartbeat IPC: 0.4045 cumulative IPC: 0.4891 (Simulation time: 00 hr 25 min 07 sec)
Heartbeat CPU 0 instructions: 136000767 cycles: 190332366 heartbeat IPC: 0.3951 cumulative IPC: 0.4884 (Simulation time: 00 hr 25 min 15 sec)
Heartbeat CPU 0 instructions: 136500771 cycles: 191821726 heartbeat IPC: 0.3357 cumulative IPC: 0.4871 (Simulation time: 00 hr 25 min 25 sec)
Heartbeat CPU 0 instructions: 137000771 cycles: 192319603 heartbeat IPC: 1.004 cumulative IPC: 0.4886 (Simulation time: 00 hr 25 min 29 sec)
Heartbeat CPU 0 instructions: 137500775 cycles: 192630630 heartbeat IPC: 1.608 cumulative IPC: 0.4905 (Simulation time: 00 hr 25 min 31 sec)
Heartbeat CPU 0 instructions: 138000775 cycles: 192926337 heartbeat IPC: 1.691 cumulative IPC: 0.4925 (Simulation time: 00 hr 25 min 34 sec)
Heartbeat CPU 0 instructions: 138500780 cycles: 193213728 heartbeat IPC: 1.74 cumulative IPC: 0.4945 (Simulation time: 00 hr 25 min 37 sec)
Heartbeat CPU 0 instructions: 139000786 cycles: 193456732 heartbeat IPC: 2.058 cumulative IPC: 0.4966 (Simulation time: 00 hr 25 min 39 sec)
Heartbeat CPU 0 instructions: 139500786 cycles: 193713511 heartbeat IPC: 1.947 cumulative IPC: 0.4987 (Simulation time: 00 hr 25 min 42 sec)
Heartbeat CPU 0 instructions: 140000790 cycles: 194058330 heartbeat IPC: 1.45 cumulative IPC: 0.5005 (Simulation time: 00 hr 25 min 45 sec)
Heartbeat CPU 0 instructions: 140500791 cycles: 194237486 heartbeat IPC: 2.791 cumulative IPC: 0.5028 (Simulation time: 00 hr 25 min 47 sec)
Heartbeat CPU 0 instructions: 141000792 cycles: 194405883 heartbeat IPC: 2.969 cumulative IPC: 0.5051 (Simulation time: 00 hr 25 min 49 sec)
Heartbeat CPU 0 instructions: 141500792 cycles: 195841796 heartbeat IPC: 0.3482 cumulative IPC: 0.5039 (Simulation time: 00 hr 25 min 58 sec)
Heartbeat CPU 0 instructions: 142000793 cycles: 197306193 heartbeat IPC: 0.3414 cumulative IPC: 0.5026 (Simulation time: 00 hr 26 min 08 sec)
Heartbeat CPU 0 instructions: 142500797 cycles: 198580664 heartbeat IPC: 0.3923 cumulative IPC: 0.5018 (Simulation time: 00 hr 26 min 16 sec)
Heartbeat CPU 0 instructions: 143000797 cycles: 200004731 heartbeat IPC: 0.3511 cumulative IPC: 0.5006 (Simulation time: 00 hr 26 min 25 sec)
Heartbeat CPU 0 instructions: 143500797 cycles: 200949363 heartbeat IPC: 0.5293 cumulative IPC: 0.5008 (Simulation time: 00 hr 26 min 32 sec)
Heartbeat CPU 0 instructions: 144000802 cycles: 201818250 heartbeat IPC: 0.5755 cumulative IPC: 0.5011 (Simulation time: 00 hr 26 min 38 sec)
Heartbeat CPU 0 instructions: 144500806 cycles: 202965269 heartbeat IPC: 0.4359 cumulative IPC: 0.5007 (Simulation time: 00 hr 26 min 45 sec)
Heartbeat CPU 0 instructions: 145000811 cycles: 203331980 heartbeat IPC: 1.363 cumulative IPC: 0.5024 (Simulation time: 00 hr 26 min 48 sec)
Heartbeat CPU 0 instructions: 145500813 cycles: 203671826 heartbeat IPC: 1.471 cumulative IPC: 0.5041 (Simulation time: 00 hr 26 min 51 sec)
Heartbeat CPU 0 instructions: 146000816 cycles: 204011035 heartbeat IPC: 1.474 cumulative IPC: 0.5059 (Simulation time: 00 hr 26 min 54 sec)
Heartbeat CPU 0 instructions: 146500816 cycles: 205797803 heartbeat IPC: 0.2798 cumulative IPC: 0.5038 (Simulation time: 00 hr 27 min 05 sec)
Heartbeat CPU 0 instructions: 147000817 cycles: 207343348 heartbeat IPC: 0.3235 cumulative IPC: 0.5023 (Simulation time: 00 hr 27 min 15 sec)
Heartbeat CPU 0 instructions: 147500820 cycles: 208020785 heartbeat IPC: 0.7381 cumulative IPC: 0.5032 (Simulation time: 00 hr 27 min 20 sec)
Heartbeat CPU 0 instructions: 148000820 cycles: 208374046 heartbeat IPC: 1.415 cumulative IPC: 0.5048 (Simulation time: 00 hr 27 min 23 sec)
Heartbeat CPU 0 instructions: 148500820 cycles: 208709197 heartbeat IPC: 1.492 cumulative IPC: 0.5065 (Simulation time: 00 hr 27 min 26 sec)
Heartbeat CPU 0 instructions: 149000822 cycles: 209707874 heartbeat IPC: 0.5007 cumulative IPC: 0.5065 (Simulation time: 00 hr 27 min 33 sec)
Heartbeat CPU 0 instructions: 149500829 cycles: 211052095 heartbeat IPC: 0.372 cumulative IPC: 0.5056 (Simulation time: 00 hr 27 min 42 sec)
Heartbeat CPU 0 instructions: 150000829 cycles: 212818420 heartbeat IPC: 0.2831 cumulative IPC: 0.5036 (Simulation time: 00 hr 27 min 53 sec)
Heartbeat CPU 0 instructions: 150500830 cycles: 214698739 heartbeat IPC: 0.2659 cumulative IPC: 0.5014 (Simulation time: 00 hr 28 min 04 sec)
Heartbeat CPU 0 instructions: 151000831 cycles: 215389023 heartbeat IPC: 0.7243 cumulative IPC: 0.5021 (Simulation time: 00 hr 28 min 09 sec)
Heartbeat CPU 0 instructions: 151500831 cycles: 216075913 heartbeat IPC: 0.7279 cumulative IPC: 0.5029 (Simulation time: 00 hr 28 min 14 sec)
Heartbeat CPU 0 instructions: 152000837 cycles: 217301743 heartbeat IPC: 0.4079 cumulative IPC: 0.5023 (Simulation time: 00 hr 28 min 22 sec)
Heartbeat CPU 0 instructions: 152500837 cycles: 217816689 heartbeat IPC: 0.971 cumulative IPC: 0.5035 (Simulation time: 00 hr 28 min 26 sec)
Heartbeat CPU 0 instructions: 153000841 cycles: 218188257 heartbeat IPC: 1.346 cumulative IPC: 0.505 (Simulation time: 00 hr 28 min 30 sec)
Heartbeat CPU 0 instructions: 153500843 cycles: 218518829 heartbeat IPC: 1.513 cumulative IPC: 0.5067 (Simulation time: 00 hr 28 min 33 sec)
Heartbeat CPU 0 instructions: 154000850 cycles: 218835974 heartbeat IPC: 1.577 cumulative IPC: 0.5083 (Simulation time: 00 hr 28 min 36 sec)
Heartbeat CPU 0 instructions: 154500857 cycles: 219175370 heartbeat IPC: 1.473 cumulative IPC: 0.5099 (Simulation time: 00 hr 28 min 39 sec)
Heartbeat CPU 0 instructions: 155000858 cycles: 220499380 heartbeat IPC: 0.3776 cumulative IPC: 0.5091 (Simulation time: 00 hr 28 min 48 sec)
Heartbeat CPU 0 instructions: 155500865 cycles: 220869636 heartbeat IPC: 1.35 cumulative IPC: 0.5106 (Simulation time: 00 hr 28 min 51 sec)
Heartbeat CPU 0 instructions: 156000869 cycles: 221134838 heartbeat IPC: 1.885 cumulative IPC: 0.5123 (Simulation time: 00 hr 28 min 53 sec)
Heartbeat CPU 0 instructions: 156500869 cycles: 221388867 heartbeat IPC: 1.968 cumulative IPC: 0.5141 (Simulation time: 00 hr 28 min 56 sec)
Heartbeat CPU 0 instructions: 157000869 cycles: 221615799 heartbeat IPC: 2.203 cumulative IPC: 0.516 (Simulation time: 00 hr 28 min 58 sec)
Heartbeat CPU 0 instructions: 157500871 cycles: 222501774 heartbeat IPC: 0.5644 cumulative IPC: 0.5162 (Simulation time: 00 hr 29 min 04 sec)
Heartbeat CPU 0 instructions: 158000871 cycles: 223940304 heartbeat IPC: 0.3476 cumulative IPC: 0.515 (Simulation time: 00 hr 29 min 13 sec)
Heartbeat CPU 0 instructions: 158500871 cycles: 224912149 heartbeat IPC: 0.5145 cumulative IPC: 0.515 (Simulation time: 00 hr 29 min 19 sec)
Heartbeat CPU 0 instructions: 159000871 cycles: 225845864 heartbeat IPC: 0.5355 cumulative IPC: 0.5151 (Simulation time: 00 hr 29 min 25 sec)
Heartbeat CPU 0 instructions: 159500872 cycles: 227035838 heartbeat IPC: 0.4202 cumulative IPC: 0.5146 (Simulation time: 00 hr 29 min 33 sec)
Heartbeat CPU 0 instructions: 160000873 cycles: 228230111 heartbeat IPC: 0.4187 cumulative IPC: 0.514 (Simulation time: 00 hr 29 min 41 sec)
Heartbeat CPU 0 instructions: 160500873 cycles: 229709214 heartbeat IPC: 0.338 cumulative IPC: 0.5128 (Simulation time: 00 hr 29 min 50 sec)
Heartbeat CPU 0 instructions: 161000875 cycles: 230793118 heartbeat IPC: 0.4613 cumulative IPC: 0.5126 (Simulation time: 00 hr 29 min 57 sec)
Heartbeat CPU 0 instructions: 161500882 cycles: 232160272 heartbeat IPC: 0.3657 cumulative IPC: 0.5117 (Simulation time: 00 hr 30 min 06 sec)
Heartbeat CPU 0 instructions: 162000888 cycles: 232924712 heartbeat IPC: 0.6541 cumulative IPC: 0.5122 (Simulation time: 00 hr 30 min 11 sec)
Heartbeat CPU 0 instructions: 162500888 cycles: 233979991 heartbeat IPC: 0.4738 cumulative IPC: 0.512 (Simulation time: 00 hr 30 min 18 sec)
Heartbeat CPU 0 instructions: 163000891 cycles: 235544390 heartbeat IPC: 0.3196 cumulative IPC: 0.5106 (Simulation time: 00 hr 30 min 28 sec)
Heartbeat CPU 0 instructions: 163500891 cycles: 237364615 heartbeat IPC: 0.2747 cumulative IPC: 0.5087 (Simulation time: 00 hr 30 min 39 sec)
Heartbeat CPU 0 instructions: 164000893 cycles: 238854284 heartbeat IPC: 0.3356 cumulative IPC: 0.5075 (Simulation time: 00 hr 30 min 48 sec)
Heartbeat CPU 0 instructions: 164500897 cycles: 240012123 heartbeat IPC: 0.4318 cumulative IPC: 0.5072 (Simulation time: 00 hr 30 min 55 sec)
Heartbeat CPU 0 instructions: 165000897 cycles: 241286191 heartbeat IPC: 0.3924 cumulative IPC: 0.5065 (Simulation time: 00 hr 31 min 03 sec)
Heartbeat CPU 0 instructions: 165500897 cycles: 242446585 heartbeat IPC: 0.4309 cumulative IPC: 0.5061 (Simulation time: 00 hr 31 min 11 sec)
Heartbeat CPU 0 instructions: 166000897 cycles: 243347380 heartbeat IPC: 0.5551 cumulative IPC: 0.5063 (Simulation time: 00 hr 31 min 17 sec)
Heartbeat CPU 0 instructions: 166500904 cycles: 244426543 heartbeat IPC: 0.4633 cumulative IPC: 0.5061 (Simulation time: 00 hr 31 min 24 sec)
Heartbeat CPU 0 instructions: 167000904 cycles: 245730093 heartbeat IPC: 0.3836 cumulative IPC: 0.5054 (Simulation time: 00 hr 31 min 32 sec)
Heartbeat CPU 0 instructions: 167500906 cycles: 246595471 heartbeat IPC: 0.5778 cumulative IPC: 0.5057 (Simulation time: 00 hr 31 min 38 sec)
Heartbeat CPU 0 instructions: 168000906 cycles: 247860596 heartbeat IPC: 0.3952 cumulative IPC: 0.5051 (Simulation time: 00 hr 31 min 46 sec)
Heartbeat CPU 0 instructions: 168500908 cycles: 249347122 heartbeat IPC: 0.3364 cumulative IPC: 0.504 (Simulation time: 00 hr 31 min 55 sec)
Heartbeat CPU 0 instructions: 169000913 cycles: 250681956 heartbeat IPC: 0.3746 cumulative IPC: 0.5033 (Simulation time: 00 hr 32 min 03 sec)
Heartbeat CPU 0 instructions: 169500916 cycles: 251658694 heartbeat IPC: 0.5119 cumulative IPC: 0.5033 (Simulation time: 00 hr 32 min 10 sec)
Heartbeat CPU 0 instructions: 170000916 cycles: 252973046 heartbeat IPC: 0.3804 cumulative IPC: 0.5027 (Simulation time: 00 hr 32 min 18 sec)
Heartbeat CPU 0 instructions: 170500923 cycles: 254052234 heartbeat IPC: 0.4633 cumulative IPC: 0.5025 (Simulation time: 00 hr 32 min 25 sec)
Heartbeat CPU 0 instructions: 171000923 cycles: 254904599 heartbeat IPC: 0.5866 cumulative IPC: 0.5028 (Simulation time: 00 hr 32 min 30 sec)
Heartbeat CPU 0 instructions: 171500926 cycles: 255874681 heartbeat IPC: 0.5154 cumulative IPC: 0.5028 (Simulation time: 00 hr 32 min 37 sec)
Heartbeat CPU 0 instructions: 172000926 cycles: 256736074 heartbeat IPC: 0.5805 cumulative IPC: 0.5031 (Simulation time: 00 hr 32 min 43 sec)
Heartbeat CPU 0 instructions: 172500932 cycles: 257119103 heartbeat IPC: 1.305 cumulative IPC: 0.5044 (Simulation time: 00 hr 32 min 46 sec)
Heartbeat CPU 0 instructions: 173000934 cycles: 257438442 heartbeat IPC: 1.566 cumulative IPC: 0.5058 (Simulation time: 00 hr 32 min 49 sec)
Heartbeat CPU 0 instructions: 173500934 cycles: 257762219 heartbeat IPC: 1.544 cumulative IPC: 0.5071 (Simulation time: 00 hr 32 min 52 sec)
Heartbeat CPU 0 instructions: 174000940 cycles: 258200689 heartbeat IPC: 1.14 cumulative IPC: 0.5083 (Simulation time: 00 hr 32 min 56 sec)
Heartbeat CPU 0 instructions: 174500943 cycles: 258542407 heartbeat IPC: 1.463 cumulative IPC: 0.5096 (Simulation time: 00 hr 32 min 59 sec)
Heartbeat CPU 0 instructions: 175000943 cycles: 260349007 heartbeat IPC: 0.2768 cumulative IPC: 0.5079 (Simulation time: 00 hr 33 min 10 sec)
Heartbeat CPU 0 instructions: 175500944 cycles: 261782614 heartbeat IPC: 0.3488 cumulative IPC: 0.507 (Simulation time: 00 hr 33 min 19 sec)
Heartbeat CPU 0 instructions: 176000947 cycles: 263198019 heartbeat IPC: 0.3533 cumulative IPC: 0.5061 (Simulation time: 00 hr 33 min 28 sec)
Heartbeat CPU 0 instructions: 176500948 cycles: 264809593 heartbeat IPC: 0.3103 cumulative IPC: 0.5049 (Simulation time: 00 hr 33 min 38 sec)
Heartbeat CPU 0 instructions: 177000948 cycles: 265989360 heartbeat IPC: 0.4238 cumulative IPC: 0.5045 (Simulation time: 00 hr 33 min 45 sec)
Heartbeat CPU 0 instructions: 177500951 cycles: 267332908 heartbeat IPC: 0.3722 cumulative IPC: 0.5038 (Simulation time: 00 hr 33 min 54 sec)
Heartbeat CPU 0 instructions: 178000954 cycles: 268813818 heartbeat IPC: 0.3376 cumulative IPC: 0.5028 (Simulation time: 00 hr 34 min 03 sec)
Heartbeat CPU 0 instructions: 178500956 cycles: 270048150 heartbeat IPC: 0.4051 cumulative IPC: 0.5023 (Simulation time: 00 hr 34 min 10 sec)
Heartbeat CPU 0 instructions: 179000959 cycles: 270838710 heartbeat IPC: 0.6325 cumulative IPC: 0.5027 (Simulation time: 00 hr 34 min 15 sec)
Heartbeat CPU 0 instructions: 179500960 cycles: 271190495 heartbeat IPC: 1.421 cumulative IPC: 0.504 (Simulation time: 00 hr 34 min 18 sec)
Heartbeat CPU 0 instructions: 180000962 cycles: 271485818 heartbeat IPC: 1.693 cumulative IPC: 0.5054 (Simulation time: 00 hr 34 min 21 sec)
Heartbeat CPU 0 instructions: 180500963 cycles: 272042620 heartbeat IPC: 0.898 cumulative IPC: 0.5062 (Simulation time: 00 hr 34 min 25 sec)
Heartbeat CPU 0 instructions: 181000970 cycles: 273312907 heartbeat IPC: 0.3936 cumulative IPC: 0.5057 (Simulation time: 00 hr 34 min 32 sec)
Heartbeat CPU 0 instructions: 181500971 cycles: 274042557 heartbeat IPC: 0.6853 cumulative IPC: 0.5062 (Simulation time: 00 hr 34 min 37 sec)
Heartbeat CPU 0 instructions: 182000974 cycles: 274342217 heartbeat IPC: 1.669 cumulative IPC: 0.5075 (Simulation time: 00 hr 34 min 40 sec)
Heartbeat CPU 0 instructions: 182500981 cycles: 274616048 heartbeat IPC: 1.826 cumulative IPC: 0.5089 (Simulation time: 00 hr 34 min 42 sec)
Heartbeat CPU 0 instructions: 183000983 cycles: 275736147 heartbeat IPC: 0.4464 cumulative IPC: 0.5086 (Simulation time: 00 hr 34 min 49 sec)
Heartbeat CPU 0 instructions: 183500983 cycles: 276754046 heartbeat IPC: 0.4912 cumulative IPC: 0.5085 (Simulation time: 00 hr 34 min 55 sec)
Heartbeat CPU 0 instructions: 184000984 cycles: 278024906 heartbeat IPC: 0.3934 cumulative IPC: 0.508 (Simulation time: 00 hr 35 min 03 sec)
Heartbeat CPU 0 instructions: 184500985 cycles: 278710949 heartbeat IPC: 0.7288 cumulative IPC: 0.5086 (Simulation time: 00 hr 35 min 09 sec)
Heartbeat CPU 0 instructions: 185000990 cycles: 279045968 heartbeat IPC: 1.492 cumulative IPC: 0.5098 (Simulation time: 00 hr 35 min 12 sec)
Heartbeat CPU 0 instructions: 185500991 cycles: 279374636 heartbeat IPC: 1.521 cumulative IPC: 0.5111 (Simulation time: 00 hr 35 min 15 sec)
Heartbeat CPU 0 instructions: 186000993 cycles: 279698393 heartbeat IPC: 1.544 cumulative IPC: 0.5123 (Simulation time: 00 hr 35 min 17 sec)
Heartbeat CPU 0 instructions: 186500999 cycles: 280003900 heartbeat IPC: 1.637 cumulative IPC: 0.5136 (Simulation time: 00 hr 35 min 20 sec)
Heartbeat CPU 0 instructions: 187001006 cycles: 281449650 heartbeat IPC: 0.3458 cumulative IPC: 0.5127 (Simulation time: 00 hr 35 min 29 sec)
Heartbeat CPU 0 instructions: 187501013 cycles: 282601841 heartbeat IPC: 0.434 cumulative IPC: 0.5124 (Simulation time: 00 hr 35 min 37 sec)
Heartbeat CPU 0 instructions: 188001014 cycles: 282921571 heartbeat IPC: 1.564 cumulative IPC: 0.5136 (Simulation time: 00 hr 35 min 39 sec)
Heartbeat CPU 0 instructions: 188501014 cycles: 283915546 heartbeat IPC: 0.503 cumulative IPC: 0.5136 (Simulation time: 00 hr 35 min 45 sec)
Heartbeat CPU 0 instructions: 189001014 cycles: 285202360 heartbeat IPC: 0.3886 cumulative IPC: 0.513 (Simulation time: 00 hr 35 min 53 sec)
Heartbeat CPU 0 instructions: 189501016 cycles: 286029649 heartbeat IPC: 0.6044 cumulative IPC: 0.5133 (Simulation time: 00 hr 35 min 59 sec)
Heartbeat CPU 0 instructions: 190001016 cycles: 287124098 heartbeat IPC: 0.4569 cumulative IPC: 0.513 (Simulation time: 00 hr 36 min 06 sec)
Heartbeat CPU 0 instructions: 190501019 cycles: 288063053 heartbeat IPC: 0.5325 cumulative IPC: 0.5131 (Simulation time: 00 hr 36 min 12 sec)
Heartbeat CPU 0 instructions: 191001020 cycles: 289037836 heartbeat IPC: 0.5129 cumulative IPC: 0.5131 (Simulation time: 00 hr 36 min 19 sec)
Heartbeat CPU 0 instructions: 191501021 cycles: 290185688 heartbeat IPC: 0.4356 cumulative IPC: 0.5128 (Simulation time: 00 hr 36 min 26 sec)
Heartbeat CPU 0 instructions: 192001024 cycles: 291494575 heartbeat IPC: 0.382 cumulative IPC: 0.5122 (Simulation time: 00 hr 36 min 34 sec)
Heartbeat CPU 0 instructions: 192501027 cycles: 292692113 heartbeat IPC: 0.4175 cumulative IPC: 0.5118 (Simulation time: 00 hr 36 min 41 sec)
Heartbeat CPU 0 instructions: 193001029 cycles: 293902290 heartbeat IPC: 0.4132 cumulative IPC: 0.5113 (Simulation time: 00 hr 36 min 49 sec)
Heartbeat CPU 0 instructions: 193501030 cycles: 295186124 heartbeat IPC: 0.3895 cumulative IPC: 0.5108 (Simulation time: 00 hr 36 min 57 sec)
Heartbeat CPU 0 instructions: 194001031 cycles: 296141753 heartbeat IPC: 0.5232 cumulative IPC: 0.5108 (Simulation time: 00 hr 37 min 03 sec)
Heartbeat CPU 0 instructions: 194501032 cycles: 296682001 heartbeat IPC: 0.9255 cumulative IPC: 0.5116 (Simulation time: 00 hr 37 min 07 sec)
Heartbeat CPU 0 instructions: 195001034 cycles: 296978520 heartbeat IPC: 1.686 cumulative IPC: 0.5128 (Simulation time: 00 hr 37 min 10 sec)
Heartbeat CPU 0 instructions: 195501035 cycles: 298126621 heartbeat IPC: 0.4355 cumulative IPC: 0.5125 (Simulation time: 00 hr 37 min 17 sec)
Heartbeat CPU 0 instructions: 196001035 cycles: 298915099 heartbeat IPC: 0.6341 cumulative IPC: 0.5129 (Simulation time: 00 hr 37 min 22 sec)
Heartbeat CPU 0 instructions: 196501038 cycles: 300027452 heartbeat IPC: 0.4495 cumulative IPC: 0.5126 (Simulation time: 00 hr 37 min 29 sec)
Heartbeat CPU 0 instructions: 197001038 cycles: 301006263 heartbeat IPC: 0.5108 cumulative IPC: 0.5126 (Simulation time: 00 hr 37 min 36 sec)
Heartbeat CPU 0 instructions: 197501038 cycles: 302014204 heartbeat IPC: 0.4961 cumulative IPC: 0.5126 (Simulation time: 00 hr 37 min 42 sec)
Heartbeat CPU 0 instructions: 198001038 cycles: 303542962 heartbeat IPC: 0.3271 cumulative IPC: 0.5116 (Simulation time: 00 hr 37 min 51 sec)
Heartbeat CPU 0 instructions: 198501040 cycles: 304609214 heartbeat IPC: 0.4689 cumulative IPC: 0.5114 (Simulation time: 00 hr 37 min 59 sec)
Heartbeat CPU 0 instructions: 199001045 cycles: 305932944 heartbeat IPC: 0.3777 cumulative IPC: 0.5108 (Simulation time: 00 hr 38 min 07 sec)
Heartbeat CPU 0 instructions: 199501046 cycles: 307174094 heartbeat IPC: 0.4029 cumulative IPC: 0.5104 (Simulation time: 00 hr 38 min 15 sec)
Heartbeat CPU 0 instructions: 200001047 cycles: 309017223 heartbeat IPC: 0.2713 cumulative IPC: 0.5089 (Simulation time: 00 hr 38 min 26 sec)
Heartbeat CPU 0 instructions: 200501047 cycles: 310255006 heartbeat IPC: 0.4039 cumulative IPC: 0.5084 (Simulation time: 00 hr 38 min 34 sec)
Heartbeat CPU 0 instructions: 201001047 cycles: 311539959 heartbeat IPC: 0.3891 cumulative IPC: 0.5079 (Simulation time: 00 hr 38 min 42 sec)
Heartbeat CPU 0 instructions: 201501050 cycles: 312554902 heartbeat IPC: 0.4926 cumulative IPC: 0.5079 (Simulation time: 00 hr 38 min 48 sec)
Heartbeat CPU 0 instructions: 202001051 cycles: 313485701 heartbeat IPC: 0.5372 cumulative IPC: 0.5079 (Simulation time: 00 hr 38 min 54 sec)
Heartbeat CPU 0 instructions: 202501053 cycles: 314546553 heartbeat IPC: 0.4713 cumulative IPC: 0.5078 (Simulation time: 00 hr 39 min 01 sec)
Heartbeat CPU 0 instructions: 203001053 cycles: 315902230 heartbeat IPC: 0.3688 cumulative IPC: 0.5072 (Simulation time: 00 hr 39 min 09 sec)
Heartbeat CPU 0 instructions: 203501060 cycles: 316999871 heartbeat IPC: 0.4555 cumulative IPC: 0.507 (Simulation time: 00 hr 39 min 17 sec)
Heartbeat CPU 0 instructions: 204001061 cycles: 318266039 heartbeat IPC: 0.3949 cumulative IPC: 0.5065 (Simulation time: 00 hr 39 min 24 sec)
Heartbeat CPU 0 instructions: 204501062 cycles: 319427266 heartbeat IPC: 0.4306 cumulative IPC: 0.5063 (Simulation time: 00 hr 39 min 32 sec)
Heartbeat CPU 0 instructions: 205001067 cycles: 320314729 heartbeat IPC: 0.5634 cumulative IPC: 0.5064 (Simulation time: 00 hr 39 min 38 sec)
Heartbeat CPU 0 instructions: 205501069 cycles: 321305576 heartbeat IPC: 0.5046 cumulative IPC: 0.5064 (Simulation time: 00 hr 39 min 44 sec)
Heartbeat CPU 0 instructions: 206001070 cycles: 322558081 heartbeat IPC: 0.3992 cumulative IPC: 0.506 (Simulation time: 00 hr 39 min 52 sec)
Heartbeat CPU 0 instructions: 206501072 cycles: 323692946 heartbeat IPC: 0.4406 cumulative IPC: 0.5057 (Simulation time: 00 hr 40 min 00 sec)
Heartbeat CPU 0 instructions: 207001073 cycles: 325297980 heartbeat IPC: 0.3115 cumulative IPC: 0.5047 (Simulation time: 00 hr 40 min 10 sec)
Heartbeat CPU 0 instructions: 207501075 cycles: 326578893 heartbeat IPC: 0.3903 cumulative IPC: 0.5043 (Simulation time: 00 hr 40 min 17 sec)
Heartbeat CPU 0 instructions: 208001079 cycles: 328215154 heartbeat IPC: 0.3056 cumulative IPC: 0.5032 (Simulation time: 00 hr 40 min 27 sec)
Heartbeat CPU 0 instructions: 208501084 cycles: 329737349 heartbeat IPC: 0.3285 cumulative IPC: 0.5024 (Simulation time: 00 hr 40 min 36 sec)
Heartbeat CPU 0 instructions: 209001084 cycles: 331023611 heartbeat IPC: 0.3887 cumulative IPC: 0.5019 (Simulation time: 00 hr 40 min 44 sec)
Heartbeat CPU 0 instructions: 209501088 cycles: 331857453 heartbeat IPC: 0.5996 cumulative IPC: 0.5022 (Simulation time: 00 hr 40 min 50 sec)
Heartbeat CPU 0 instructions: 210001089 cycles: 332263159 heartbeat IPC: 1.232 cumulative IPC: 0.5031 (Simulation time: 00 hr 40 min 53 sec)
Heartbeat CPU 0 instructions: 210501094 cycles: 333703250 heartbeat IPC: 0.3472 cumulative IPC: 0.5024 (Simulation time: 00 hr 41 min 02 sec)
Heartbeat CPU 0 instructions: 211001095 cycles: 334937890 heartbeat IPC: 0.405 cumulative IPC: 0.502 (Simulation time: 00 hr 41 min 10 sec)
Heartbeat CPU 0 instructions: 211501096 cycles: 335980812 heartbeat IPC: 0.4794 cumulative IPC: 0.502 (Simulation time: 00 hr 41 min 17 sec)
Heartbeat CPU 0 instructions: 212001096 cycles: 337318161 heartbeat IPC: 0.3739 cumulative IPC: 0.5014 (Simulation time: 00 hr 41 min 25 sec)
Heartbeat CPU 0 instructions: 212501098 cycles: 338578237 heartbeat IPC: 0.3968 cumulative IPC: 0.501 (Simulation time: 00 hr 41 min 33 sec)
Heartbeat CPU 0 instructions: 213001099 cycles: 339692324 heartbeat IPC: 0.4488 cumulative IPC: 0.5008 (Simulation time: 00 hr 41 min 40 sec)
Heartbeat CPU 0 instructions: 213501100 cycles: 341456329 heartbeat IPC: 0.2834 cumulative IPC: 0.4997 (Simulation time: 00 hr 41 min 51 sec)
Heartbeat CPU 0 instructions: 214001102 cycles: 342573144 heartbeat IPC: 0.4477 cumulative IPC: 0.4995 (Simulation time: 00 hr 41 min 58 sec)
Heartbeat CPU 0 instructions: 214501103 cycles: 344121290 heartbeat IPC: 0.323 cumulative IPC: 0.4987 (Simulation time: 00 hr 42 min 07 sec)
Heartbeat CPU 0 instructions: 215001107 cycles: 345486235 heartbeat IPC: 0.3663 cumulative IPC: 0.4981 (Simulation time: 00 hr 42 min 16 sec)
Heartbeat CPU 0 instructions: 215501108 cycles: 346756210 heartbeat IPC: 0.3937 cumulative IPC: 0.4977 (Simulation time: 00 hr 42 min 24 sec)
Heartbeat CPU 0 instructions: 216001108 cycles: 348077067 heartbeat IPC: 0.3785 cumulative IPC: 0.4973 (Simulation time: 00 hr 42 min 32 sec)
Heartbeat CPU 0 instructions: 216501108 cycles: 349156629 heartbeat IPC: 0.4632 cumulative IPC: 0.4971 (Simulation time: 00 hr 42 min 39 sec)
Heartbeat CPU 0 instructions: 217001109 cycles: 350487180 heartbeat IPC: 0.3758 cumulative IPC: 0.4967 (Simulation time: 00 hr 42 min 51 sec)
Heartbeat CPU 0 instructions: 217501110 cycles: 351156085 heartbeat IPC: 0.7475 cumulative IPC: 0.4972 (Simulation time: 00 hr 42 min 57 sec)
Heartbeat CPU 0 instructions: 218001111 cycles: 352144561 heartbeat IPC: 0.5058 cumulative IPC: 0.4972 (Simulation time: 00 hr 43 min 04 sec)
Heartbeat CPU 0 instructions: 218501117 cycles: 352517848 heartbeat IPC: 1.339 cumulative IPC: 0.4981 (Simulation time: 00 hr 43 min 07 sec)
Heartbeat CPU 0 instructions: 219001121 cycles: 352870301 heartbeat IPC: 1.419 cumulative IPC: 0.4991 (Simulation time: 00 hr 43 min 10 sec)
Heartbeat CPU 0 instructions: 219501125 cycles: 353613423 heartbeat IPC: 0.6728 cumulative IPC: 0.4995 (Simulation time: 00 hr 43 min 16 sec)
Heartbeat CPU 0 instructions: 220001127 cycles: 354048712 heartbeat IPC: 1.149 cumulative IPC: 0.5003 (Simulation time: 00 hr 43 min 20 sec)
Heartbeat CPU 0 instructions: 220501129 cycles: 354474565 heartbeat IPC: 1.174 cumulative IPC: 0.5011 (Simulation time: 00 hr 43 min 25 sec)
Heartbeat CPU 0 instructions: 221001130 cycles: 354918852 heartbeat IPC: 1.125 cumulative IPC: 0.5019 (Simulation time: 00 hr 43 min 30 sec)
Heartbeat CPU 0 instructions: 221501131 cycles: 355316131 heartbeat IPC: 1.259 cumulative IPC: 0.5028 (Simulation time: 00 hr 43 min 34 sec)
Heartbeat CPU 0 instructions: 222001131 cycles: 355693289 heartbeat IPC: 1.326 cumulative IPC: 0.5037 (Simulation time: 00 hr 43 min 38 sec)
Heartbeat CPU 0 instructions: 222501137 cycles: 356091168 heartbeat IPC: 1.257 cumulative IPC: 0.5046 (Simulation time: 00 hr 43 min 42 sec)
Heartbeat CPU 0 instructions: 223001139 cycles: 356481501 heartbeat IPC: 1.281 cumulative IPC: 0.5055 (Simulation time: 00 hr 43 min 46 sec)
Heartbeat CPU 0 instructions: 223501141 cycles: 356857758 heartbeat IPC: 1.329 cumulative IPC: 0.5064 (Simulation time: 00 hr 43 min 51 sec)
Heartbeat CPU 0 instructions: 224001141 cycles: 357252736 heartbeat IPC: 1.266 cumulative IPC: 0.5073 (Simulation time: 00 hr 43 min 55 sec)
Heartbeat CPU 0 instructions: 224501142 cycles: 357634363 heartbeat IPC: 1.31 cumulative IPC: 0.5082 (Simulation time: 00 hr 43 min 59 sec)
Heartbeat CPU 0 instructions: 225001144 cycles: 358022352 heartbeat IPC: 1.289 cumulative IPC: 0.509 (Simulation time: 00 hr 44 min 03 sec)
Heartbeat CPU 0 instructions: 225501149 cycles: 358409557 heartbeat IPC: 1.291 cumulative IPC: 0.5099 (Simulation time: 00 hr 44 min 07 sec)
Heartbeat CPU 0 instructions: 226001152 cycles: 359227647 heartbeat IPC: 0.6112 cumulative IPC: 0.5102 (Simulation time: 00 hr 44 min 17 sec)
Heartbeat CPU 0 instructions: 226501152 cycles: 360106160 heartbeat IPC: 0.5691 cumulative IPC: 0.5103 (Simulation time: 00 hr 44 min 27 sec)
Heartbeat CPU 0 instructions: 227001153 cycles: 361180971 heartbeat IPC: 0.4652 cumulative IPC: 0.5102 (Simulation time: 00 hr 44 min 40 sec)
Heartbeat CPU 0 instructions: 227501153 cycles: 362253533 heartbeat IPC: 0.4662 cumulative IPC: 0.51 (Simulation time: 00 hr 44 min 52 sec)
Heartbeat CPU 0 instructions: 228001153 cycles: 362976481 heartbeat IPC: 0.6916 cumulative IPC: 0.5104 (Simulation time: 00 hr 45 min 00 sec)
Heartbeat CPU 0 instructions: 228501158 cycles: 363595256 heartbeat IPC: 0.8081 cumulative IPC: 0.5109 (Simulation time: 00 hr 45 min 05 sec)
Heartbeat CPU 0 instructions: 229001162 cycles: 364111822 heartbeat IPC: 0.9679 cumulative IPC: 0.5116 (Simulation time: 00 hr 45 min 10 sec)
Heartbeat CPU 0 instructions: 229501163 cycles: 364446566 heartbeat IPC: 1.494 cumulative IPC: 0.5126 (Simulation time: 00 hr 45 min 13 sec)
Heartbeat CPU 0 instructions: 230001164 cycles: 365932153 heartbeat IPC: 0.3366 cumulative IPC: 0.5118 (Simulation time: 00 hr 45 min 22 sec)
Heartbeat CPU 0 instructions: 230501164 cycles: 367744804 heartbeat IPC: 0.2758 cumulative IPC: 0.5106 (Simulation time: 00 hr 45 min 32 sec)
Heartbeat CPU 0 instructions: 231001170 cycles: 368913524 heartbeat IPC: 0.4278 cumulative IPC: 0.5103 (Simulation time: 00 hr 45 min 40 sec)
Heartbeat CPU 0 instructions: 231501174 cycles: 369619395 heartbeat IPC: 0.7084 cumulative IPC: 0.5107 (Simulation time: 00 hr 45 min 45 sec)
Heartbeat CPU 0 instructions: 232001175 cycles: 370026728 heartbeat IPC: 1.227 cumulative IPC: 0.5115 (Simulation time: 00 hr 45 min 48 sec)
Heartbeat CPU 0 instructions: 232501176 cycles: 370931046 heartbeat IPC: 0.5529 cumulative IPC: 0.5117 (Simulation time: 00 hr 45 min 54 sec)
Heartbeat CPU 0 instructions: 233001176 cycles: 372692750 heartbeat IPC: 0.2838 cumulative IPC: 0.5105 (Simulation time: 00 hr 46 min 05 sec)
Heartbeat CPU 0 instructions: 233501180 cycles: 374605203 heartbeat IPC: 0.2614 cumulative IPC: 0.5092 (Simulation time: 00 hr 46 min 17 sec)
Heartbeat CPU 0 instructions: 234001180 cycles: 375620044 heartbeat IPC: 0.4927 cumulative IPC: 0.5092 (Simulation time: 00 hr 46 min 24 sec)
Heartbeat CPU 0 instructions: 234501184 cycles: 376858530 heartbeat IPC: 0.4037 cumulative IPC: 0.5088 (Simulation time: 00 hr 46 min 32 sec)
Heartbeat CPU 0 instructions: 235001188 cycles: 378711400 heartbeat IPC: 0.2699 cumulative IPC: 0.5076 (Simulation time: 00 hr 46 min 44 sec)
Heartbeat CPU 0 instructions: 235501192 cycles: 380281631 heartbeat IPC: 0.3184 cumulative IPC: 0.5068 (Simulation time: 00 hr 46 min 54 sec)
Heartbeat CPU 0 instructions: 236001197 cycles: 381532528 heartbeat IPC: 0.3997 cumulative IPC: 0.5064 (Simulation time: 00 hr 47 min 02 sec)
Heartbeat CPU 0 instructions: 236501203 cycles: 383291851 heartbeat IPC: 0.2842 cumulative IPC: 0.5054 (Simulation time: 00 hr 47 min 12 sec)
Heartbeat CPU 0 instructions: 237001207 cycles: 384735876 heartbeat IPC: 0.3463 cumulative IPC: 0.5047 (Simulation time: 00 hr 47 min 21 sec)
Heartbeat CPU 0 instructions: 237501207 cycles: 386190328 heartbeat IPC: 0.3438 cumulative IPC: 0.5041 (Simulation time: 00 hr 47 min 30 sec)
Heartbeat CPU 0 instructions: 238001207 cycles: 387203396 heartbeat IPC: 0.4936 cumulative IPC: 0.5041 (Simulation time: 00 hr 47 min 36 sec)
Heartbeat CPU 0 instructions: 238501211 cycles: 388476289 heartbeat IPC: 0.3928 cumulative IPC: 0.5037 (Simulation time: 00 hr 47 min 44 sec)
Heartbeat CPU 0 instructions: 239001212 cycles: 389270061 heartbeat IPC: 0.6299 cumulative IPC: 0.504 (Simulation time: 00 hr 47 min 50 sec)
Heartbeat CPU 0 instructions: 239501215 cycles: 389921133 heartbeat IPC: 0.768 cumulative IPC: 0.5044 (Simulation time: 00 hr 47 min 54 sec)
Heartbeat CPU 0 instructions: 240001215 cycles: 390912279 heartbeat IPC: 0.5045 cumulative IPC: 0.5044 (Simulation time: 00 hr 48 min 01 sec)
Heartbeat CPU 0 instructions: 240501220 cycles: 391977570 heartbeat IPC: 0.4694 cumulative IPC: 0.5043 (Simulation time: 00 hr 48 min 08 sec)
Heartbeat CPU 0 instructions: 241001224 cycles: 393804042 heartbeat IPC: 0.2738 cumulative IPC: 0.5032 (Simulation time: 00 hr 48 min 18 sec)
Heartbeat CPU 0 instructions: 241501225 cycles: 394829550 heartbeat IPC: 0.4876 cumulative IPC: 0.5032 (Simulation time: 00 hr 48 min 25 sec)
Heartbeat CPU 0 instructions: 242001229 cycles: 395831005 heartbeat IPC: 0.4993 cumulative IPC: 0.5032 (Simulation time: 00 hr 48 min 32 sec)
Heartbeat CPU 0 instructions: 242501234 cycles: 396099267 heartbeat IPC: 1.864 cumulative IPC: 0.5041 (Simulation time: 00 hr 48 min 34 sec)
Heartbeat CPU 0 instructions: 243001236 cycles: 396376528 heartbeat IPC: 1.803 cumulative IPC: 0.5051 (Simulation time: 00 hr 48 min 37 sec)
Heartbeat CPU 0 instructions: 243501237 cycles: 396667289 heartbeat IPC: 1.72 cumulative IPC: 0.506 (Simulation time: 00 hr 48 min 39 sec)
Heartbeat CPU 0 instructions: 244001238 cycles: 396873074 heartbeat IPC: 2.43 cumulative IPC: 0.507 (Simulation time: 00 hr 48 min 41 sec)
Heartbeat CPU 0 instructions: 244501240 cycles: 398439324 heartbeat IPC: 0.3192 cumulative IPC: 0.5063 (Simulation time: 00 hr 48 min 51 sec)
Heartbeat CPU 0 instructions: 245001242 cycles: 400032108 heartbeat IPC: 0.3139 cumulative IPC: 0.5055 (Simulation time: 00 hr 49 min 01 sec)
Heartbeat CPU 0 instructions: 245501242 cycles: 400950682 heartbeat IPC: 0.5443 cumulative IPC: 0.5055 (Simulation time: 00 hr 49 min 07 sec)
Heartbeat CPU 0 instructions: 246001246 cycles: 401327944 heartbeat IPC: 1.325 cumulative IPC: 0.5063 (Simulation time: 00 hr 49 min 10 sec)
Heartbeat CPU 0 instructions: 246501246 cycles: 401605366 heartbeat IPC: 1.802 cumulative IPC: 0.5073 (Simulation time: 00 hr 49 min 12 sec)
Heartbeat CPU 0 instructions: 247001249 cycles: 402893721 heartbeat IPC: 0.3881 cumulative IPC: 0.5069 (Simulation time: 00 hr 49 min 20 sec)
Heartbeat CPU 0 instructions: 247501252 cycles: 404036898 heartbeat IPC: 0.4374 cumulative IPC: 0.5067 (Simulation time: 00 hr 49 min 28 sec)
Heartbeat CPU 0 instructions: 248001254 cycles: 405542152 heartbeat IPC: 0.3322 cumulative IPC: 0.506 (Simulation time: 00 hr 49 min 37 sec)
Heartbeat CPU 0 instructions: 248501261 cycles: 406834809 heartbeat IPC: 0.3868 cumulative IPC: 0.5056 (Simulation time: 00 hr 49 min 45 sec)
Heartbeat CPU 0 instructions: 249001262 cycles: 408020562 heartbeat IPC: 0.4217 cumulative IPC: 0.5054 (Simulation time: 00 hr 49 min 53 sec)
Heartbeat CPU 0 instructions: 249501264 cycles: 408767701 heartbeat IPC: 0.6692 cumulative IPC: 0.5057 (Simulation time: 00 hr 49 min 58 sec)
Simulation finished CPU 0 instructions: 200000000 cycles: 394861841 cumulative IPC: 0.5065 (Simulation time: 00 hr 50 min 01 sec)
Simulation complete CPU 0 instructions: 200000000 cycles: 394861841 cumulative IPC: 0.5065 (Simulation time: 00 hr 50 min 01 sec)

ChampSim completed all CPUs

=== Simulation ===
CPU 0 runs /local-ssd/ben/dpc4-traces/gtraces_v2/sierra.a.3_0004.champsim.gz

Region of Interest Statistics

CPU 0 cumulative IPC: 0.5065 instructions: 200000000 cycles: 394861841
CPU 0 Branch Prediction Accuracy: 85.6% MPKI: 23.79 Average ROB Occupancy at Mispredict: 23.15
Branch type MPKI
BRANCH_DIRECT_JUMP: 2.166
BRANCH_INDIRECT: 0.2789
BRANCH_CONDITIONAL: 18.18
BRANCH_DIRECT_CALL: 1.652
BRANCH_INDIRECT_CALL: 0.3668
BRANCH_RETURN: 1.148

cpu0->cpu0_STLB TOTAL        ACCESS:    2890358 HIT:    2207399 MISS:     682959 MSHR_MERGE:          0
cpu0->cpu0_STLB LOAD         ACCESS:    2890358 HIT:    2207399 MISS:     682959 MSHR_MERGE:          0
cpu0->cpu0_STLB RFO          ACCESS:          0 HIT:          0 MISS:          0 MSHR_MERGE:          0
cpu0->cpu0_STLB PREFETCH     ACCESS:          0 HIT:          0 MISS:          0 MSHR_MERGE:          0
cpu0->cpu0_STLB WRITE        ACCESS:          0 HIT:          0 MISS:          0 MSHR_MERGE:          0
cpu0->cpu0_STLB TRANSLATION  ACCESS:          0 HIT:          0 MISS:          0 MSHR_MERGE:          0
cpu0->cpu0_STLB PREFETCH REQUESTED:          0 ISSUED:          0 USEFUL:          0 USELESS:          0
cpu0->cpu0_STLB AVERAGE MISS LATENCY: 145.4 cycles
cpu0->cpu0_L2C TOTAL        ACCESS:   39317870 HIT:   30486180 MISS:    8831690 MSHR_MERGE:    3241758
cpu0->cpu0_L2C LOAD         ACCESS:    7916047 HIT:    6474260 MISS:    1441787 MSHR_MERGE:     249414
cpu0->cpu0_L2C RFO          ACCESS:    1462171 HIT:     794948 MISS:     667223 MSHR_MERGE:       3799
cpu0->cpu0_L2C PREFETCH     ACCESS:   26907676 HIT:   20523171 MISS:    6384505 MSHR_MERGE:    2988545
cpu0->cpu0_L2C WRITE        ACCESS:    2289539 HIT:    2289418 MISS:        121 MSHR_MERGE:          0
cpu0->cpu0_L2C TRANSLATION  ACCESS:     742437 HIT:     404383 MISS:     338054 MSHR_MERGE:          0
cpu0->cpu0_L2C PREFETCH REQUESTED:   30868658 ISSUED:   25496126 USEFUL:    1671322 USELESS:    1306452
cpu0->cpu0_L2C AVERAGE MISS LATENCY: 205.7 cycles
cpu0->cpu0_L1I TOTAL        ACCESS:   20491867 HIT:   13469552 MISS:    7022315 MSHR_MERGE:    1657377
cpu0->cpu0_L1I LOAD         ACCESS:   20491867 HIT:   13469552 MISS:    7022315 MSHR_MERGE:    1657377
cpu0->cpu0_L1I RFO          ACCESS:          0 HIT:          0 MISS:          0 MSHR_MERGE:          0
cpu0->cpu0_L1I PREFETCH     ACCESS:          0 HIT:          0 MISS:          0 MSHR_MERGE:          0
cpu0->cpu0_L1I WRITE        ACCESS:          0 HIT:          0 MISS:          0 MSHR_MERGE:          0
cpu0->cpu0_L1I TRANSLATION  ACCESS:          0 HIT:          0 MISS:          0 MSHR_MERGE:          0
cpu0->cpu0_L1I PREFETCH REQUESTED:          0 ISSUED:          0 USEFUL:          0 USELESS:          0
cpu0->cpu0_L1I AVERAGE MISS LATENCY: 29.37 cycles
cpu0->cpu0_L1D TOTAL        ACCESS:   65624227 HIT:   56124007 MISS:    9500220 MSHR_MERGE:    3332868
cpu0->cpu0_L1D LOAD         ACCESS:   35977132 HIT:   32680860 MISS:    3296272 MSHR_MERGE:     745125
cpu0->cpu0_L1D RFO          ACCESS:          0 HIT:          0 MISS:          0 MSHR_MERGE:          0
cpu0->cpu0_L1D PREFETCH     ACCESS:    3074787 HIT:    1590640 MISS:    1484147 MSHR_MERGE:      72588
cpu0->cpu0_L1D WRITE        ACCESS:   24805234 HIT:   20833149 MISS:    3972085 MSHR_MERGE:    2509876
cpu0->cpu0_L1D TRANSLATION  ACCESS:    1767074 HIT:    1019358 MISS:     747716 MSHR_MERGE:       5279
cpu0->cpu0_L1D PREFETCH REQUESTED:    3539807 ISSUED:    3074787 USEFUL:     685646 USELESS:     725966
cpu0->cpu0_L1D AVERAGE MISS LATENCY: 91.39 cycles
cpu0->cpu0_ITLB TOTAL        ACCESS:   16422215 HIT:   15613792 MISS:     808423 MSHR_MERGE:     376815
cpu0->cpu0_ITLB LOAD         ACCESS:   16422215 HIT:   15613792 MISS:     808423 MSHR_MERGE:     376815
cpu0->cpu0_ITLB RFO          ACCESS:          0 HIT:          0 MISS:          0 MSHR_MERGE:          0
cpu0->cpu0_ITLB PREFETCH     ACCESS:          0 HIT:          0 MISS:          0 MSHR_MERGE:          0
cpu0->cpu0_ITLB WRITE        ACCESS:          0 HIT:          0 MISS:          0 MSHR_MERGE:          0
cpu0->cpu0_ITLB TRANSLATION  ACCESS:          0 HIT:          0 MISS:          0 MSHR_MERGE:          0
cpu0->cpu0_ITLB PREFETCH REQUESTED:          0 ISSUED:          0 USEFUL:          0 USELESS:          0
cpu0->cpu0_ITLB AVERAGE MISS LATENCY: 28.12 cycles
cpu0->cpu0_DTLB TOTAL        ACCESS:   60580824 HIT:   56590371 MISS:    3990453 MSHR_MERGE:    1531704
cpu0->cpu0_DTLB LOAD         ACCESS:   60580824 HIT:   56590371 MISS:    3990453 MSHR_MERGE:    1531704
cpu0->cpu0_DTLB RFO          ACCESS:          0 HIT:          0 MISS:          0 MSHR_MERGE:          0
cpu0->cpu0_DTLB PREFETCH     ACCESS:          0 HIT:          0 MISS:          0 MSHR_MERGE:          0
cpu0->cpu0_DTLB WRITE        ACCESS:          0 HIT:          0 MISS:          0 MSHR_MERGE:          0
cpu0->cpu0_DTLB TRANSLATION  ACCESS:          0 HIT:          0 MISS:          0 MSHR_MERGE:          0
cpu0->cpu0_DTLB PREFETCH REQUESTED:          0 ISSUED:          0 USEFUL:          0 USELESS:          0
cpu0->cpu0_DTLB AVERAGE MISS LATENCY: 41.6 cycles
cpu0->LLC TOTAL        ACCESS:    6648828 HIT:    1889050 MISS:    4759778 MSHR_MERGE:          0
cpu0->LLC LOAD         ACCESS:    1192373 HIT:     315407 MISS:     876966 MSHR_MERGE:          0
cpu0->LLC RFO          ACCESS:     663424 HIT:      37530 MISS:     625894 MSHR_MERGE:          0
cpu0->LLC PREFETCH     ACCESS:    3395960 HIT:     823166 MISS:    2572794 MSHR_MERGE:          0
cpu0->LLC WRITE        ACCESS:    1059017 HIT:     639482 MISS:     419535 MSHR_MERGE:          0
cpu0->LLC TRANSLATION  ACCESS:     338054 HIT:      73465 MISS:     264589 MSHR_MERGE:          0
cpu0->LLC PREFETCH REQUESTED:          0 ISSUED:          0 USEFUL:          0 USELESS:          0
cpu0->LLC AVERAGE MISS LATENCY: 192.9 cycles

DRAM Statistics

Channel 0 RQ ROW_BUFFER_HIT:     186910
  ROW_BUFFER_MISS:    4153133
  AVG DBUS CONGESTED CYCLE: 20.52
Channel 0 WQ ROW_BUFFER_HIT:     244825
  ROW_BUFFER_MISS:     740636
  FULL:       3730
Channel 0 REFRESHES ISSUED:      32903
