[VMEM] WARNING: physical memory size is smaller than virtual memory size.

*** ChampSim Multicore Out-of-Order Simulator ***
Warmup Instructions: 50000000
Simulation Instructions: 200000000
Number of CPUs: 1
Page size: 4096
Core 0: /local-ssd/ben/dpc4-traces/gtraces_v2/sierra.a.6_0000.champsim.gz
 L1D Berti prefetcher
Off-chip DRAM Size: 64 GiB Channels: 1 Width: 64-bit Data Rate: 4807 MT/s
[BTB] WARNING: target of return is a lower address than the corresponding call. This is usually a problem with your trace.
[BTB] WARNING: target of return is a lower address than the corresponding call. This is usually a problem with your trace.
Heartbeat CPU 0 instructions: 500000 cycles: 238207 heartbeat IPC: 2.099 cumulative IPC: 2.099 (Simulation time: 00 hr 00 min 04 sec)
[BTB] WARNING: target of return is a lower address than the corresponding call. This is usually a problem with your trace.
[BTB] WARNING: target of return is a lower address than the corresponding call. This is usually a problem with your trace.
[BTB] WARNING: target of return is a lower address than the corresponding call. This is usually a problem with your trace.
[BTB] WARNING: target of return is a lower address than the corresponding call. This is usually a problem with your trace.
[BTB] WARNING: target of return is a lower address than the corresponding call. This is usually a problem with your trace.
[BTB] WARNING: target of return is a lower address than the corresponding call. This is usually a problem with your trace.
[BTB] WARNING: target of return is a lower address than the corresponding call. This is usually a problem with your trace.
[BTB] WARNING: target of return is a lower address than the corresponding call. This is usually a problem with your trace.
Heartbeat CPU 0 instructions: 1000003 cycles: 446117 heartbeat IPC: 2.405 cumulative IPC: 2.242 (Simulation time: 00 hr 00 min 07 sec)
Heartbeat CPU 0 instructions: 1500007 cycles: 626975 heartbeat IPC: 2.765 cumulative IPC: 2.392 (Simulation time: 00 hr 00 min 10 sec)
Heartbeat CPU 0 instructions: 2000008 cycles: 822569 heartbeat IPC: 2.556 cumulative IPC: 2.431 (Simulation time: 00 hr 00 min 13 sec)
Heartbeat CPU 0 instructions: 2500015 cycles: 1014369 heartbeat IPC: 2.607 cumulative IPC: 2.465 (Simulation time: 00 hr 00 min 16 sec)
Heartbeat CPU 0 instructions: 3000018 cycles: 1187402 heartbeat IPC: 2.89 cumulative IPC: 2.527 (Simulation time: 00 hr 00 min 19 sec)
Heartbeat CPU 0 instructions: 3500020 cycles: 1336333 heartbeat IPC: 3.357 cumulative IPC: 2.619 (Simulation time: 00 hr 00 min 22 sec)
Heartbeat CPU 0 instructions: 4000027 cycles: 1472734 heartbeat IPC: 3.666 cumulative IPC: 2.716 (Simulation time: 00 hr 00 min 24 sec)
Heartbeat CPU 0 instructions: 4500030 cycles: 1601310 heartbeat IPC: 3.889 cumulative IPC: 2.81 (Simulation time: 00 hr 00 min 27 sec)
Heartbeat CPU 0 instructions: 5000036 cycles: 1747448 heartbeat IPC: 3.421 cumulative IPC: 2.861 (Simulation time: 00 hr 00 min 30 sec)
Heartbeat CPU 0 instructions: 5500038 cycles: 1882105 heartbeat IPC: 3.713 cumulative IPC: 2.922 (Simulation time: 00 hr 00 min 32 sec)
Heartbeat CPU 0 instructions: 6000039 cycles: 2011341 heartbeat IPC: 3.869 cumulative IPC: 2.983 (Simulation time: 00 hr 00 min 35 sec)
Heartbeat CPU 0 instructions: 6500039 cycles: 2140184 heartbeat IPC: 3.881 cumulative IPC: 3.037 (Simulation time: 00 hr 00 min 37 sec)
Heartbeat CPU 0 instructions: 7000039 cycles: 2276035 heartbeat IPC: 3.681 cumulative IPC: 3.076 (Simulation time: 00 hr 00 min 40 sec)
Heartbeat CPU 0 instructions: 7500044 cycles: 2437546 heartbeat IPC: 3.096 cumulative IPC: 3.077 (Simulation time: 00 hr 00 min 42 sec)
Heartbeat CPU 0 instructions: 8000045 cycles: 2589554 heartbeat IPC: 3.289 cumulative IPC: 3.089 (Simulation time: 00 hr 00 min 45 sec)
Heartbeat CPU 0 instructions: 8500047 cycles: 2707854 heartbeat IPC: 4.227 cumulative IPC: 3.139 (Simulation time: 00 hr 00 min 47 sec)
Heartbeat CPU 0 instructions: 9000049 cycles: 2831795 heartbeat IPC: 4.034 cumulative IPC: 3.178 (Simulation time: 00 hr 00 min 50 sec)
Heartbeat CPU 0 instructions: 9500049 cycles: 2950220 heartbeat IPC: 4.222 cumulative IPC: 3.22 (Simulation time: 00 hr 00 min 52 sec)
Heartbeat CPU 0 instructions: 10000050 cycles: 3083290 heartbeat IPC: 3.757 cumulative IPC: 3.243 (Simulation time: 00 hr 00 min 54 sec)
Heartbeat CPU 0 instructions: 10500052 cycles: 3212195 heartbeat IPC: 3.879 cumulative IPC: 3.269 (Simulation time: 00 hr 00 min 57 sec)
Heartbeat CPU 0 instructions: 11000054 cycles: 3342361 heartbeat IPC: 3.841 cumulative IPC: 3.291 (Simulation time: 00 hr 00 min 59 sec)
Heartbeat CPU 0 instructions: 11500055 cycles: 3464953 heartbeat IPC: 4.079 cumulative IPC: 3.319 (Simulation time: 00 hr 01 min 02 sec)
Heartbeat CPU 0 instructions: 12000062 cycles: 3588126 heartbeat IPC: 4.059 cumulative IPC: 3.344 (Simulation time: 00 hr 01 min 04 sec)
Heartbeat CPU 0 instructions: 12500064 cycles: 3724003 heartbeat IPC: 3.68 cumulative IPC: 3.357 (Simulation time: 00 hr 01 min 07 sec)
Heartbeat CPU 0 instructions: 13000068 cycles: 3851963 heartbeat IPC: 3.908 cumulative IPC: 3.375 (Simulation time: 00 hr 01 min 09 sec)
Heartbeat CPU 0 instructions: 13500072 cycles: 3972505 heartbeat IPC: 4.148 cumulative IPC: 3.398 (Simulation time: 00 hr 01 min 12 sec)
Heartbeat CPU 0 instructions: 14000079 cycles: 4095068 heartbeat IPC: 4.08 cumulative IPC: 3.419 (Simulation time: 00 hr 01 min 14 sec)
Heartbeat CPU 0 instructions: 14500079 cycles: 4217712 heartbeat IPC: 4.077 cumulative IPC: 3.438 (Simulation time: 00 hr 01 min 17 sec)
Heartbeat CPU 0 instructions: 15000080 cycles: 4336923 heartbeat IPC: 4.194 cumulative IPC: 3.459 (Simulation time: 00 hr 01 min 19 sec)
Heartbeat CPU 0 instructions: 15500087 cycles: 4474351 heartbeat IPC: 3.638 cumulative IPC: 3.464 (Simulation time: 00 hr 01 min 22 sec)
Heartbeat CPU 0 instructions: 16000093 cycles: 4616011 heartbeat IPC: 3.53 cumulative IPC: 3.466 (Simulation time: 00 hr 01 min 24 sec)
Heartbeat CPU 0 instructions: 16500098 cycles: 4800945 heartbeat IPC: 2.704 cumulative IPC: 3.437 (Simulation time: 00 hr 01 min 27 sec)
Heartbeat CPU 0 instructions: 17000102 cycles: 4929639 heartbeat IPC: 3.885 cumulative IPC: 3.449 (Simulation time: 00 hr 01 min 30 sec)
Heartbeat CPU 0 instructions: 17500103 cycles: 5058244 heartbeat IPC: 3.888 cumulative IPC: 3.46 (Simulation time: 00 hr 01 min 32 sec)
Heartbeat CPU 0 instructions: 18000110 cycles: 5184809 heartbeat IPC: 3.951 cumulative IPC: 3.472 (Simulation time: 00 hr 01 min 35 sec)
Heartbeat CPU 0 instructions: 18500112 cycles: 5357500 heartbeat IPC: 2.895 cumulative IPC: 3.453 (Simulation time: 00 hr 01 min 38 sec)
Heartbeat CPU 0 instructions: 19000117 cycles: 5505822 heartbeat IPC: 3.371 cumulative IPC: 3.451 (Simulation time: 00 hr 01 min 40 sec)
Heartbeat CPU 0 instructions: 19500120 cycles: 5652264 heartbeat IPC: 3.414 cumulative IPC: 3.45 (Simulation time: 00 hr 01 min 43 sec)
Heartbeat CPU 0 instructions: 20000127 cycles: 5822938 heartbeat IPC: 2.93 cumulative IPC: 3.435 (Simulation time: 00 hr 01 min 46 sec)
Heartbeat CPU 0 instructions: 20500130 cycles: 5999223 heartbeat IPC: 2.836 cumulative IPC: 3.417 (Simulation time: 00 hr 01 min 48 sec)
Heartbeat CPU 0 instructions: 21000136 cycles: 6164761 heartbeat IPC: 3.02 cumulative IPC: 3.406 (Simulation time: 00 hr 01 min 51 sec)
Heartbeat CPU 0 instructions: 21500137 cycles: 6317768 heartbeat IPC: 3.268 cumulative IPC: 3.403 (Simulation time: 00 hr 01 min 54 sec)
Heartbeat CPU 0 instructions: 22000140 cycles: 6465818 heartbeat IPC: 3.377 cumulative IPC: 3.403 (Simulation time: 00 hr 01 min 57 sec)
Heartbeat CPU 0 instructions: 22500147 cycles: 6608059 heartbeat IPC: 3.515 cumulative IPC: 3.405 (Simulation time: 00 hr 01 min 59 sec)
Heartbeat CPU 0 instructions: 23000154 cycles: 6742137 heartbeat IPC: 3.729 cumulative IPC: 3.411 (Simulation time: 00 hr 02 min 02 sec)
Heartbeat CPU 0 instructions: 23500159 cycles: 6897097 heartbeat IPC: 3.227 cumulative IPC: 3.407 (Simulation time: 00 hr 02 min 05 sec)
Heartbeat CPU 0 instructions: 24000161 cycles: 7040087 heartbeat IPC: 3.497 cumulative IPC: 3.409 (Simulation time: 00 hr 02 min 07 sec)
Heartbeat CPU 0 instructions: 24500167 cycles: 7180775 heartbeat IPC: 3.554 cumulative IPC: 3.412 (Simulation time: 00 hr 02 min 10 sec)
Heartbeat CPU 0 instructions: 25000168 cycles: 7326168 heartbeat IPC: 3.439 cumulative IPC: 3.412 (Simulation time: 00 hr 02 min 13 sec)
Heartbeat CPU 0 instructions: 25500175 cycles: 7465532 heartbeat IPC: 3.588 cumulative IPC: 3.416 (Simulation time: 00 hr 02 min 15 sec)
Heartbeat CPU 0 instructions: 26000177 cycles: 7602794 heartbeat IPC: 3.643 cumulative IPC: 3.42 (Simulation time: 00 hr 02 min 17 sec)
Heartbeat CPU 0 instructions: 26500183 cycles: 7745165 heartbeat IPC: 3.512 cumulative IPC: 3.422 (Simulation time: 00 hr 02 min 20 sec)
Heartbeat CPU 0 instructions: 27000187 cycles: 7900124 heartbeat IPC: 3.227 cumulative IPC: 3.418 (Simulation time: 00 hr 02 min 22 sec)
Heartbeat CPU 0 instructions: 27500193 cycles: 8033175 heartbeat IPC: 3.758 cumulative IPC: 3.423 (Simulation time: 00 hr 02 min 25 sec)
Heartbeat CPU 0 instructions: 28000195 cycles: 8171685 heartbeat IPC: 3.61 cumulative IPC: 3.426 (Simulation time: 00 hr 02 min 28 sec)
Heartbeat CPU 0 instructions: 28500198 cycles: 8309362 heartbeat IPC: 3.632 cumulative IPC: 3.43 (Simulation time: 00 hr 02 min 30 sec)
Heartbeat CPU 0 instructions: 29000199 cycles: 8434650 heartbeat IPC: 3.991 cumulative IPC: 3.438 (Simulation time: 00 hr 02 min 32 sec)
Heartbeat CPU 0 instructions: 29500204 cycles: 8578383 heartbeat IPC: 3.479 cumulative IPC: 3.439 (Simulation time: 00 hr 02 min 35 sec)
Heartbeat CPU 0 instructions: 30000205 cycles: 8714847 heartbeat IPC: 3.664 cumulative IPC: 3.442 (Simulation time: 00 hr 02 min 37 sec)
Heartbeat CPU 0 instructions: 30500206 cycles: 8843045 heartbeat IPC: 3.9 cumulative IPC: 3.449 (Simulation time: 00 hr 02 min 40 sec)
Heartbeat CPU 0 instructions: 31000211 cycles: 8964211 heartbeat IPC: 4.127 cumulative IPC: 3.458 (Simulation time: 00 hr 02 min 42 sec)
Heartbeat CPU 0 instructions: 31500212 cycles: 9106240 heartbeat IPC: 3.52 cumulative IPC: 3.459 (Simulation time: 00 hr 02 min 44 sec)
Heartbeat CPU 0 instructions: 32000219 cycles: 9238865 heartbeat IPC: 3.77 cumulative IPC: 3.464 (Simulation time: 00 hr 02 min 47 sec)
Heartbeat CPU 0 instructions: 32500219 cycles: 9370302 heartbeat IPC: 3.804 cumulative IPC: 3.468 (Simulation time: 00 hr 02 min 49 sec)
Heartbeat CPU 0 instructions: 33000221 cycles: 9505484 heartbeat IPC: 3.699 cumulative IPC: 3.472 (Simulation time: 00 hr 02 min 52 sec)
Heartbeat CPU 0 instructions: 33500223 cycles: 9640361 heartbeat IPC: 3.707 cumulative IPC: 3.475 (Simulation time: 00 hr 02 min 54 sec)
Heartbeat CPU 0 instructions: 34000224 cycles: 9772764 heartbeat IPC: 3.776 cumulative IPC: 3.479 (Simulation time: 00 hr 02 min 57 sec)
Heartbeat CPU 0 instructions: 34500226 cycles: 9899186 heartbeat IPC: 3.955 cumulative IPC: 3.485 (Simulation time: 00 hr 02 min 59 sec)
Heartbeat CPU 0 instructions: 35000231 cycles: 10024877 heartbeat IPC: 3.978 cumulative IPC: 3.491 (Simulation time: 00 hr 03 min 02 sec)
Heartbeat CPU 0 instructions: 35500232 cycles: 10144622 heartbeat IPC: 4.176 cumulative IPC: 3.499 (Simulation time: 00 hr 03 min 04 sec)
Heartbeat CPU 0 instructions: 36000235 cycles: 10275146 heartbeat IPC: 3.831 cumulative IPC: 3.504 (Simulation time: 00 hr 03 min 06 sec)
Heartbeat CPU 0 instructions: 36500236 cycles: 10400180 heartbeat IPC: 3.999 cumulative IPC: 3.51 (Simulation time: 00 hr 03 min 09 sec)
Heartbeat CPU 0 instructions: 37000236 cycles: 10526853 heartbeat IPC: 3.947 cumulative IPC: 3.515 (Simulation time: 00 hr 03 min 11 sec)
Heartbeat CPU 0 instructions: 37500237 cycles: 10647608 heartbeat IPC: 4.141 cumulative IPC: 3.522 (Simulation time: 00 hr 03 min 14 sec)
Heartbeat CPU 0 instructions: 38000244 cycles: 10773573 heartbeat IPC: 3.969 cumulative IPC: 3.527 (Simulation time: 00 hr 03 min 16 sec)
Heartbeat CPU 0 instructions: 38500246 cycles: 10909139 heartbeat IPC: 3.688 cumulative IPC: 3.529 (Simulation time: 00 hr 03 min 18 sec)
Heartbeat CPU 0 instructions: 39000253 cycles: 11032600 heartbeat IPC: 4.05 cumulative IPC: 3.535 (Simulation time: 00 hr 03 min 20 sec)
Heartbeat CPU 0 instructions: 39500258 cycles: 11161459 heartbeat IPC: 3.88 cumulative IPC: 3.539 (Simulation time: 00 hr 03 min 23 sec)
Heartbeat CPU 0 instructions: 40000262 cycles: 11290023 heartbeat IPC: 3.889 cumulative IPC: 3.543 (Simulation time: 00 hr 03 min 25 sec)
Heartbeat CPU 0 instructions: 40500267 cycles: 11402736 heartbeat IPC: 4.436 cumulative IPC: 3.552 (Simulation time: 00 hr 03 min 27 sec)
Heartbeat CPU 0 instructions: 41000271 cycles: 11525882 heartbeat IPC: 4.06 cumulative IPC: 3.557 (Simulation time: 00 hr 03 min 29 sec)
Heartbeat CPU 0 instructions: 41500278 cycles: 11647391 heartbeat IPC: 4.115 cumulative IPC: 3.563 (Simulation time: 00 hr 03 min 31 sec)
Heartbeat CPU 0 instructions: 42000282 cycles: 11772886 heartbeat IPC: 3.984 cumulative IPC: 3.568 (Simulation time: 00 hr 03 min 34 sec)
Heartbeat CPU 0 instructions: 42500287 cycles: 11900004 heartbeat IPC: 3.933 cumulative IPC: 3.571 (Simulation time: 00 hr 03 min 36 sec)
Heartbeat CPU 0 instructions: 43000292 cycles: 12026182 heartbeat IPC: 3.963 cumulative IPC: 3.576 (Simulation time: 00 hr 03 min 38 sec)
Heartbeat CPU 0 instructions: 43500297 cycles: 12155962 heartbeat IPC: 3.853 cumulative IPC: 3.579 (Simulation time: 00 hr 03 min 41 sec)
Heartbeat CPU 0 instructions: 44000303 cycles: 12290955 heartbeat IPC: 3.704 cumulative IPC: 3.58 (Simulation time: 00 hr 03 min 43 sec)
Heartbeat CPU 0 instructions: 44500303 cycles: 12426632 heartbeat IPC: 3.685 cumulative IPC: 3.581 (Simulation time: 00 hr 03 min 46 sec)
Heartbeat CPU 0 instructions: 45000304 cycles: 12573437 heartbeat IPC: 3.406 cumulative IPC: 3.579 (Simulation time: 00 hr 03 min 49 sec)
Heartbeat CPU 0 instructions: 45500305 cycles: 12702981 heartbeat IPC: 3.86 cumulative IPC: 3.582 (Simulation time: 00 hr 03 min 51 sec)
Heartbeat CPU 0 instructions: 46000306 cycles: 12827995 heartbeat IPC: 4 cumulative IPC: 3.586 (Simulation time: 00 hr 03 min 53 sec)
Heartbeat CPU 0 instructions: 46500309 cycles: 12970505 heartbeat IPC: 3.509 cumulative IPC: 3.585 (Simulation time: 00 hr 03 min 56 sec)
Heartbeat CPU 0 instructions: 47000313 cycles: 13101156 heartbeat IPC: 3.827 cumulative IPC: 3.587 (Simulation time: 00 hr 03 min 58 sec)
Heartbeat CPU 0 instructions: 47500318 cycles: 13236422 heartbeat IPC: 3.696 cumulative IPC: 3.589 (Simulation time: 00 hr 04 min 01 sec)
Heartbeat CPU 0 instructions: 48000320 cycles: 13343349 heartbeat IPC: 4.676 cumulative IPC: 3.597 (Simulation time: 00 hr 04 min 02 sec)
Heartbeat CPU 0 instructions: 48500321 cycles: 13451185 heartbeat IPC: 4.637 cumulative IPC: 3.606 (Simulation time: 00 hr 04 min 04 sec)
Heartbeat CPU 0 instructions: 49000325 cycles: 13557533 heartbeat IPC: 4.702 cumulative IPC: 3.614 (Simulation time: 00 hr 04 min 06 sec)
Heartbeat CPU 0 instructions: 49500331 cycles: 13664398 heartbeat IPC: 4.679 cumulative IPC: 3.623 (Simulation time: 00 hr 04 min 08 sec)
Warmup finished CPU 0 instructions: 50000002 cycles: 13774112 cumulative IPC: 3.63 (Simulation time: 00 hr 04 min 09 sec)
Warmup complete CPU 0 instructions: 50000002 cycles: 13774112 cumulative IPC: 3.63 (Simulation time: 00 hr 04 min 09 sec)
Heartbeat CPU 0 instructions: 50000333 cycles: 13774157 heartbeat IPC: 4.555 cumulative IPC: 7.356 (Simulation time: 00 hr 04 min 09 sec)
Heartbeat CPU 0 instructions: 50500333 cycles: 15101783 heartbeat IPC: 0.3766 cumulative IPC: 0.3768 (Simulation time: 00 hr 04 min 19 sec)
Heartbeat CPU 0 instructions: 51000335 cycles: 16343120 heartbeat IPC: 0.4028 cumulative IPC: 0.3894 (Simulation time: 00 hr 04 min 27 sec)
Heartbeat CPU 0 instructions: 51500335 cycles: 17220874 heartbeat IPC: 0.5696 cumulative IPC: 0.4353 (Simulation time: 00 hr 04 min 34 sec)
Heartbeat CPU 0 instructions: 52000337 cycles: 18121606 heartbeat IPC: 0.5551 cumulative IPC: 0.4601 (Simulation time: 00 hr 04 min 40 sec)
Heartbeat CPU 0 instructions: 52500337 cycles: 18935473 heartbeat IPC: 0.6144 cumulative IPC: 0.4844 (Simulation time: 00 hr 04 min 46 sec)
Heartbeat CPU 0 instructions: 53000338 cycles: 19937911 heartbeat IPC: 0.4988 cumulative IPC: 0.4868 (Simulation time: 00 hr 04 min 54 sec)
Heartbeat CPU 0 instructions: 53500338 cycles: 20291102 heartbeat IPC: 1.416 cumulative IPC: 0.5371 (Simulation time: 00 hr 04 min 57 sec)
Heartbeat CPU 0 instructions: 54000340 cycles: 20632619 heartbeat IPC: 1.464 cumulative IPC: 0.5833 (Simulation time: 00 hr 05 min 00 sec)
Heartbeat CPU 0 instructions: 54500346 cycles: 20957470 heartbeat IPC: 1.539 cumulative IPC: 0.6265 (Simulation time: 00 hr 05 min 03 sec)
Heartbeat CPU 0 instructions: 55000348 cycles: 21279420 heartbeat IPC: 1.553 cumulative IPC: 0.6662 (Simulation time: 00 hr 05 min 06 sec)
Heartbeat CPU 0 instructions: 55500350 cycles: 22075770 heartbeat IPC: 0.6279 cumulative IPC: 0.6626 (Simulation time: 00 hr 05 min 12 sec)
Heartbeat CPU 0 instructions: 56000353 cycles: 23352820 heartbeat IPC: 0.3915 cumulative IPC: 0.6264 (Simulation time: 00 hr 05 min 20 sec)
Heartbeat CPU 0 instructions: 56500356 cycles: 24528031 heartbeat IPC: 0.4255 cumulative IPC: 0.6045 (Simulation time: 00 hr 05 min 29 sec)
Heartbeat CPU 0 instructions: 57000356 cycles: 25494456 heartbeat IPC: 0.5174 cumulative IPC: 0.5973 (Simulation time: 00 hr 05 min 36 sec)
Heartbeat CPU 0 instructions: 57500356 cycles: 26631795 heartbeat IPC: 0.4396 cumulative IPC: 0.5833 (Simulation time: 00 hr 05 min 44 sec)
Heartbeat CPU 0 instructions: 58000363 cycles: 28000519 heartbeat IPC: 0.3653 cumulative IPC: 0.5624 (Simulation time: 00 hr 05 min 53 sec)
Heartbeat CPU 0 instructions: 58500363 cycles: 29336567 heartbeat IPC: 0.3742 cumulative IPC: 0.5462 (Simulation time: 00 hr 06 min 02 sec)
Heartbeat CPU 0 instructions: 59000364 cycles: 30444144 heartbeat IPC: 0.4514 cumulative IPC: 0.5399 (Simulation time: 00 hr 06 min 10 sec)
Heartbeat CPU 0 instructions: 59500366 cycles: 31541577 heartbeat IPC: 0.4556 cumulative IPC: 0.5347 (Simulation time: 00 hr 06 min 18 sec)
Heartbeat CPU 0 instructions: 60000366 cycles: 32589925 heartbeat IPC: 0.4769 cumulative IPC: 0.5315 (Simulation time: 00 hr 06 min 26 sec)
Heartbeat CPU 0 instructions: 60500366 cycles: 33782058 heartbeat IPC: 0.4194 cumulative IPC: 0.5248 (Simulation time: 00 hr 06 min 34 sec)
Heartbeat CPU 0 instructions: 61000366 cycles: 34677721 heartbeat IPC: 0.5582 cumulative IPC: 0.5262 (Simulation time: 00 hr 06 min 41 sec)
Heartbeat CPU 0 instructions: 61500373 cycles: 35611442 heartbeat IPC: 0.5355 cumulative IPC: 0.5266 (Simulation time: 00 hr 06 min 48 sec)
Heartbeat CPU 0 instructions: 62000374 cycles: 36803040 heartbeat IPC: 0.4196 cumulative IPC: 0.5211 (Simulation time: 00 hr 06 min 56 sec)
Heartbeat CPU 0 instructions: 62500378 cycles: 37877672 heartbeat IPC: 0.4653 cumulative IPC: 0.5186 (Simulation time: 00 hr 07 min 04 sec)
Heartbeat CPU 0 instructions: 63000382 cycles: 38741817 heartbeat IPC: 0.5786 cumulative IPC: 0.5207 (Simulation time: 00 hr 07 min 11 sec)
Heartbeat CPU 0 instructions: 63500382 cycles: 40008979 heartbeat IPC: 0.3946 cumulative IPC: 0.5146 (Simulation time: 00 hr 07 min 20 sec)
Heartbeat CPU 0 instructions: 64000385 cycles: 41153132 heartbeat IPC: 0.437 cumulative IPC: 0.5114 (Simulation time: 00 hr 07 min 28 sec)
Heartbeat CPU 0 instructions: 64500385 cycles: 42346803 heartbeat IPC: 0.4189 cumulative IPC: 0.5075 (Simulation time: 00 hr 07 min 36 sec)
Heartbeat CPU 0 instructions: 65000388 cycles: 43267082 heartbeat IPC: 0.5433 cumulative IPC: 0.5086 (Simulation time: 00 hr 07 min 43 sec)
Heartbeat CPU 0 instructions: 65500390 cycles: 44418023 heartbeat IPC: 0.4344 cumulative IPC: 0.5058 (Simulation time: 00 hr 07 min 52 sec)
Heartbeat CPU 0 instructions: 66000396 cycles: 45606482 heartbeat IPC: 0.4207 cumulative IPC: 0.5026 (Simulation time: 00 hr 08 min 00 sec)
Heartbeat CPU 0 instructions: 66500397 cycles: 46704164 heartbeat IPC: 0.4555 cumulative IPC: 0.5011 (Simulation time: 00 hr 08 min 08 sec)
Heartbeat CPU 0 instructions: 67000400 cycles: 47622422 heartbeat IPC: 0.5445 cumulative IPC: 0.5023 (Simulation time: 00 hr 08 min 15 sec)
Heartbeat CPU 0 instructions: 67500401 cycles: 48560898 heartbeat IPC: 0.5328 cumulative IPC: 0.5031 (Simulation time: 00 hr 08 min 22 sec)
Heartbeat CPU 0 instructions: 68000401 cycles: 49355665 heartbeat IPC: 0.6291 cumulative IPC: 0.5059 (Simulation time: 00 hr 08 min 28 sec)
Heartbeat CPU 0 instructions: 68500404 cycles: 50889059 heartbeat IPC: 0.3261 cumulative IPC: 0.4985 (Simulation time: 00 hr 08 min 39 sec)
Heartbeat CPU 0 instructions: 69000405 cycles: 51789159 heartbeat IPC: 0.5555 cumulative IPC: 0.4998 (Simulation time: 00 hr 08 min 45 sec)
Heartbeat CPU 0 instructions: 69500405 cycles: 52662579 heartbeat IPC: 0.5725 cumulative IPC: 0.5014 (Simulation time: 00 hr 08 min 52 sec)
Heartbeat CPU 0 instructions: 70000406 cycles: 53433116 heartbeat IPC: 0.6489 cumulative IPC: 0.5043 (Simulation time: 00 hr 08 min 58 sec)
Heartbeat CPU 0 instructions: 70500408 cycles: 54456195 heartbeat IPC: 0.4887 cumulative IPC: 0.5039 (Simulation time: 00 hr 09 min 05 sec)
Heartbeat CPU 0 instructions: 71000413 cycles: 55446914 heartbeat IPC: 0.5047 cumulative IPC: 0.5039 (Simulation time: 00 hr 09 min 12 sec)
Heartbeat CPU 0 instructions: 71500416 cycles: 56325111 heartbeat IPC: 0.5694 cumulative IPC: 0.5053 (Simulation time: 00 hr 09 min 19 sec)
Heartbeat CPU 0 instructions: 72000416 cycles: 56978482 heartbeat IPC: 0.7653 cumulative IPC: 0.5092 (Simulation time: 00 hr 09 min 24 sec)
Heartbeat CPU 0 instructions: 72500423 cycles: 57353860 heartbeat IPC: 1.332 cumulative IPC: 0.5163 (Simulation time: 00 hr 09 min 27 sec)
Heartbeat CPU 0 instructions: 73000429 cycles: 57688432 heartbeat IPC: 1.494 cumulative IPC: 0.5238 (Simulation time: 00 hr 09 min 30 sec)
Heartbeat CPU 0 instructions: 73500430 cycles: 58031716 heartbeat IPC: 1.457 cumulative IPC: 0.531 (Simulation time: 00 hr 09 min 33 sec)
Heartbeat CPU 0 instructions: 74000433 cycles: 58907370 heartbeat IPC: 0.571 cumulative IPC: 0.5318 (Simulation time: 00 hr 09 min 40 sec)
Heartbeat CPU 0 instructions: 74500433 cycles: 60451058 heartbeat IPC: 0.3239 cumulative IPC: 0.5249 (Simulation time: 00 hr 09 min 51 sec)
Heartbeat CPU 0 instructions: 75000437 cycles: 62318208 heartbeat IPC: 0.2678 cumulative IPC: 0.515 (Simulation time: 00 hr 10 min 03 sec)
Heartbeat CPU 0 instructions: 75500437 cycles: 63364183 heartbeat IPC: 0.478 cumulative IPC: 0.5142 (Simulation time: 00 hr 10 min 11 sec)
Heartbeat CPU 0 instructions: 76000437 cycles: 64561384 heartbeat IPC: 0.4176 cumulative IPC: 0.5119 (Simulation time: 00 hr 10 min 19 sec)
Heartbeat CPU 0 instructions: 76500440 cycles: 65742259 heartbeat IPC: 0.4234 cumulative IPC: 0.5099 (Simulation time: 00 hr 10 min 28 sec)
Heartbeat CPU 0 instructions: 77000440 cycles: 67207045 heartbeat IPC: 0.3413 cumulative IPC: 0.5053 (Simulation time: 00 hr 10 min 38 sec)
Heartbeat CPU 0 instructions: 77500442 cycles: 68536262 heartbeat IPC: 0.3762 cumulative IPC: 0.5022 (Simulation time: 00 hr 10 min 47 sec)
Heartbeat CPU 0 instructions: 78000442 cycles: 69433051 heartbeat IPC: 0.5575 cumulative IPC: 0.5031 (Simulation time: 00 hr 10 min 54 sec)
Heartbeat CPU 0 instructions: 78500444 cycles: 70382721 heartbeat IPC: 0.5265 cumulative IPC: 0.5035 (Simulation time: 00 hr 11 min 01 sec)
Heartbeat CPU 0 instructions: 79000444 cycles: 71610640 heartbeat IPC: 0.4072 cumulative IPC: 0.5014 (Simulation time: 00 hr 11 min 10 sec)
Heartbeat CPU 0 instructions: 79500444 cycles: 72824639 heartbeat IPC: 0.4119 cumulative IPC: 0.4996 (Simulation time: 00 hr 11 min 18 sec)
Heartbeat CPU 0 instructions: 80000444 cycles: 74074951 heartbeat IPC: 0.3999 cumulative IPC: 0.4975 (Simulation time: 00 hr 11 min 27 sec)
Heartbeat CPU 0 instructions: 80500444 cycles: 75020506 heartbeat IPC: 0.5288 cumulative IPC: 0.498 (Simulation time: 00 hr 11 min 34 sec)
Heartbeat CPU 0 instructions: 81000450 cycles: 75905254 heartbeat IPC: 0.5651 cumulative IPC: 0.499 (Simulation time: 00 hr 11 min 41 sec)
Heartbeat CPU 0 instructions: 81500450 cycles: 77023931 heartbeat IPC: 0.447 cumulative IPC: 0.498 (Simulation time: 00 hr 11 min 49 sec)
Heartbeat CPU 0 instructions: 82000457 cycles: 78158606 heartbeat IPC: 0.4407 cumulative IPC: 0.497 (Simulation time: 00 hr 11 min 57 sec)
Heartbeat CPU 0 instructions: 82500461 cycles: 79086539 heartbeat IPC: 0.5388 cumulative IPC: 0.4976 (Simulation time: 00 hr 12 min 04 sec)
Heartbeat CPU 0 instructions: 83000461 cycles: 79967885 heartbeat IPC: 0.5673 cumulative IPC: 0.4985 (Simulation time: 00 hr 12 min 10 sec)
Heartbeat CPU 0 instructions: 83500464 cycles: 81192754 heartbeat IPC: 0.4082 cumulative IPC: 0.4969 (Simulation time: 00 hr 12 min 19 sec)
Heartbeat CPU 0 instructions: 84000471 cycles: 82196850 heartbeat IPC: 0.498 cumulative IPC: 0.4969 (Simulation time: 00 hr 12 min 26 sec)
Heartbeat CPU 0 instructions: 84500471 cycles: 83210008 heartbeat IPC: 0.4935 cumulative IPC: 0.4969 (Simulation time: 00 hr 12 min 33 sec)
Heartbeat CPU 0 instructions: 85000471 cycles: 84027200 heartbeat IPC: 0.6119 cumulative IPC: 0.4982 (Simulation time: 00 hr 12 min 40 sec)
Heartbeat CPU 0 instructions: 85500475 cycles: 84612535 heartbeat IPC: 0.8542 cumulative IPC: 0.5011 (Simulation time: 00 hr 12 min 44 sec)
Heartbeat CPU 0 instructions: 86000479 cycles: 85744322 heartbeat IPC: 0.4418 cumulative IPC: 0.5002 (Simulation time: 00 hr 12 min 52 sec)
Heartbeat CPU 0 instructions: 86500486 cycles: 86449460 heartbeat IPC: 0.7091 cumulative IPC: 0.5022 (Simulation time: 00 hr 12 min 58 sec)
Heartbeat CPU 0 instructions: 87000487 cycles: 86780330 heartbeat IPC: 1.511 cumulative IPC: 0.5068 (Simulation time: 00 hr 13 min 01 sec)
Heartbeat CPU 0 instructions: 87500491 cycles: 87096745 heartbeat IPC: 1.58 cumulative IPC: 0.5114 (Simulation time: 00 hr 13 min 04 sec)
Heartbeat CPU 0 instructions: 88000491 cycles: 87408864 heartbeat IPC: 1.602 cumulative IPC: 0.5161 (Simulation time: 00 hr 13 min 07 sec)
Heartbeat CPU 0 instructions: 88500494 cycles: 87731244 heartbeat IPC: 1.551 cumulative IPC: 0.5206 (Simulation time: 00 hr 13 min 10 sec)
Heartbeat CPU 0 instructions: 89000496 cycles: 88025542 heartbeat IPC: 1.699 cumulative IPC: 0.5252 (Simulation time: 00 hr 13 min 13 sec)
Heartbeat CPU 0 instructions: 89500496 cycles: 88296007 heartbeat IPC: 1.849 cumulative IPC: 0.5301 (Simulation time: 00 hr 13 min 15 sec)
Heartbeat CPU 0 instructions: 90000496 cycles: 89444363 heartbeat IPC: 0.4354 cumulative IPC: 0.5286 (Simulation time: 00 hr 13 min 23 sec)
Heartbeat CPU 0 instructions: 90500496 cycles: 90669545 heartbeat IPC: 0.4081 cumulative IPC: 0.5267 (Simulation time: 00 hr 13 min 32 sec)
Heartbeat CPU 0 instructions: 91000499 cycles: 91628369 heartbeat IPC: 0.5215 cumulative IPC: 0.5266 (Simulation time: 00 hr 13 min 39 sec)
Heartbeat CPU 0 instructions: 91500502 cycles: 92655160 heartbeat IPC: 0.487 cumulative IPC: 0.5261 (Simulation time: 00 hr 13 min 47 sec)
Heartbeat CPU 0 instructions: 92000503 cycles: 94060062 heartbeat IPC: 0.3559 cumulative IPC: 0.5231 (Simulation time: 00 hr 13 min 57 sec)
Heartbeat CPU 0 instructions: 92500503 cycles: 94968017 heartbeat IPC: 0.5507 cumulative IPC: 0.5234 (Simulation time: 00 hr 14 min 04 sec)
Heartbeat CPU 0 instructions: 93000503 cycles: 96021000 heartbeat IPC: 0.4748 cumulative IPC: 0.5228 (Simulation time: 00 hr 14 min 11 sec)
Heartbeat CPU 0 instructions: 93500503 cycles: 96975618 heartbeat IPC: 0.5238 cumulative IPC: 0.5228 (Simulation time: 00 hr 14 min 18 sec)
Heartbeat CPU 0 instructions: 94000505 cycles: 98067677 heartbeat IPC: 0.4579 cumulative IPC: 0.522 (Simulation time: 00 hr 14 min 26 sec)
Heartbeat CPU 0 instructions: 94500508 cycles: 99237282 heartbeat IPC: 0.4275 cumulative IPC: 0.5207 (Simulation time: 00 hr 14 min 35 sec)
Heartbeat CPU 0 instructions: 95000510 cycles: 100575466 heartbeat IPC: 0.3736 cumulative IPC: 0.5184 (Simulation time: 00 hr 14 min 44 sec)
Heartbeat CPU 0 instructions: 95500512 cycles: 101482863 heartbeat IPC: 0.551 cumulative IPC: 0.5188 (Simulation time: 00 hr 14 min 51 sec)
Heartbeat CPU 0 instructions: 96000512 cycles: 102440431 heartbeat IPC: 0.5222 cumulative IPC: 0.5188 (Simulation time: 00 hr 14 min 58 sec)
Heartbeat CPU 0 instructions: 96500517 cycles: 103331321 heartbeat IPC: 0.5612 cumulative IPC: 0.5192 (Simulation time: 00 hr 15 min 05 sec)
Heartbeat CPU 0 instructions: 97000522 cycles: 104149721 heartbeat IPC: 0.611 cumulative IPC: 0.5201 (Simulation time: 00 hr 15 min 11 sec)
Heartbeat CPU 0 instructions: 97500522 cycles: 104977410 heartbeat IPC: 0.6041 cumulative IPC: 0.5208 (Simulation time: 00 hr 15 min 17 sec)
Heartbeat CPU 0 instructions: 98000522 cycles: 106214437 heartbeat IPC: 0.4042 cumulative IPC: 0.5193 (Simulation time: 00 hr 15 min 26 sec)
Heartbeat CPU 0 instructions: 98500524 cycles: 106908318 heartbeat IPC: 0.7206 cumulative IPC: 0.5208 (Simulation time: 00 hr 15 min 31 sec)
Heartbeat CPU 0 instructions: 99000524 cycles: 107973379 heartbeat IPC: 0.4695 cumulative IPC: 0.5202 (Simulation time: 00 hr 15 min 39 sec)
Heartbeat CPU 0 instructions: 99500525 cycles: 108915991 heartbeat IPC: 0.5304 cumulative IPC: 0.5203 (Simulation time: 00 hr 15 min 46 sec)
Heartbeat CPU 0 instructions: 100000525 cycles: 109728816 heartbeat IPC: 0.6151 cumulative IPC: 0.5211 (Simulation time: 00 hr 15 min 52 sec)
Heartbeat CPU 0 instructions: 100500528 cycles: 110659280 heartbeat IPC: 0.5374 cumulative IPC: 0.5212 (Simulation time: 00 hr 15 min 59 sec)
Heartbeat CPU 0 instructions: 101000532 cycles: 111574834 heartbeat IPC: 0.5461 cumulative IPC: 0.5215 (Simulation time: 00 hr 16 min 05 sec)
Heartbeat CPU 0 instructions: 101500532 cycles: 112527279 heartbeat IPC: 0.525 cumulative IPC: 0.5215 (Simulation time: 00 hr 16 min 12 sec)
Heartbeat CPU 0 instructions: 102000534 cycles: 113565296 heartbeat IPC: 0.4817 cumulative IPC: 0.5211 (Simulation time: 00 hr 16 min 20 sec)
Heartbeat CPU 0 instructions: 102500534 cycles: 114399552 heartbeat IPC: 0.5993 cumulative IPC: 0.5217 (Simulation time: 00 hr 16 min 26 sec)
Heartbeat CPU 0 instructions: 103000534 cycles: 115947220 heartbeat IPC: 0.3231 cumulative IPC: 0.5187 (Simulation time: 00 hr 16 min 37 sec)
Heartbeat CPU 0 instructions: 103500537 cycles: 117245186 heartbeat IPC: 0.3852 cumulative IPC: 0.5171 (Simulation time: 00 hr 16 min 46 sec)
Heartbeat CPU 0 instructions: 104000540 cycles: 118651481 heartbeat IPC: 0.3555 cumulative IPC: 0.5149 (Simulation time: 00 hr 16 min 55 sec)
Heartbeat CPU 0 instructions: 104500540 cycles: 119619413 heartbeat IPC: 0.5166 cumulative IPC: 0.5149 (Simulation time: 00 hr 17 min 02 sec)
Heartbeat CPU 0 instructions: 105000547 cycles: 120600400 heartbeat IPC: 0.5097 cumulative IPC: 0.5149 (Simulation time: 00 hr 17 min 10 sec)
Heartbeat CPU 0 instructions: 105500547 cycles: 121650007 heartbeat IPC: 0.4764 cumulative IPC: 0.5145 (Simulation time: 00 hr 17 min 17 sec)
Heartbeat CPU 0 instructions: 106000547 cycles: 122773318 heartbeat IPC: 0.4451 cumulative IPC: 0.5138 (Simulation time: 00 hr 17 min 25 sec)
Heartbeat CPU 0 instructions: 106500549 cycles: 123752625 heartbeat IPC: 0.5106 cumulative IPC: 0.5137 (Simulation time: 00 hr 17 min 32 sec)
Heartbeat CPU 0 instructions: 107000552 cycles: 124623937 heartbeat IPC: 0.5739 cumulative IPC: 0.5142 (Simulation time: 00 hr 17 min 39 sec)
Heartbeat CPU 0 instructions: 107500557 cycles: 125584135 heartbeat IPC: 0.5207 cumulative IPC: 0.5143 (Simulation time: 00 hr 17 min 46 sec)
Heartbeat CPU 0 instructions: 108000557 cycles: 126506390 heartbeat IPC: 0.5421 cumulative IPC: 0.5145 (Simulation time: 00 hr 17 min 52 sec)
Heartbeat CPU 0 instructions: 108500561 cycles: 127640528 heartbeat IPC: 0.4409 cumulative IPC: 0.5138 (Simulation time: 00 hr 18 min 00 sec)
Heartbeat CPU 0 instructions: 109000562 cycles: 128480958 heartbeat IPC: 0.5949 cumulative IPC: 0.5144 (Simulation time: 00 hr 18 min 07 sec)
Heartbeat CPU 0 instructions: 109500566 cycles: 129351748 heartbeat IPC: 0.5742 cumulative IPC: 0.5148 (Simulation time: 00 hr 18 min 13 sec)
Heartbeat CPU 0 instructions: 110000566 cycles: 130672773 heartbeat IPC: 0.3785 cumulative IPC: 0.5133 (Simulation time: 00 hr 18 min 23 sec)
Heartbeat CPU 0 instructions: 110500567 cycles: 131753292 heartbeat IPC: 0.4627 cumulative IPC: 0.5128 (Simulation time: 00 hr 18 min 31 sec)
Heartbeat CPU 0 instructions: 111000567 cycles: 132971166 heartbeat IPC: 0.4106 cumulative IPC: 0.5118 (Simulation time: 00 hr 18 min 39 sec)
Heartbeat CPU 0 instructions: 111500567 cycles: 133709013 heartbeat IPC: 0.6776 cumulative IPC: 0.5128 (Simulation time: 00 hr 18 min 45 sec)
Heartbeat CPU 0 instructions: 112000570 cycles: 135076890 heartbeat IPC: 0.3655 cumulative IPC: 0.5111 (Simulation time: 00 hr 18 min 55 sec)
Heartbeat CPU 0 instructions: 112500572 cycles: 136165408 heartbeat IPC: 0.4593 cumulative IPC: 0.5107 (Simulation time: 00 hr 19 min 03 sec)
Heartbeat CPU 0 instructions: 113000573 cycles: 136999766 heartbeat IPC: 0.5993 cumulative IPC: 0.5113 (Simulation time: 00 hr 19 min 09 sec)
Heartbeat CPU 0 instructions: 113500575 cycles: 138445404 heartbeat IPC: 0.3459 cumulative IPC: 0.5093 (Simulation time: 00 hr 19 min 19 sec)
Heartbeat CPU 0 instructions: 114000577 cycles: 138788437 heartbeat IPC: 1.458 cumulative IPC: 0.5119 (Simulation time: 00 hr 19 min 22 sec)
Heartbeat CPU 0 instructions: 114500577 cycles: 139548201 heartbeat IPC: 0.6581 cumulative IPC: 0.5128 (Simulation time: 00 hr 19 min 28 sec)
Heartbeat CPU 0 instructions: 115000581 cycles: 140816919 heartbeat IPC: 0.3941 cumulative IPC: 0.5116 (Simulation time: 00 hr 19 min 36 sec)
Heartbeat CPU 0 instructions: 115500582 cycles: 141852318 heartbeat IPC: 0.4829 cumulative IPC: 0.5114 (Simulation time: 00 hr 19 min 44 sec)
Heartbeat CPU 0 instructions: 116000583 cycles: 142939404 heartbeat IPC: 0.4599 cumulative IPC: 0.511 (Simulation time: 00 hr 19 min 51 sec)
Heartbeat CPU 0 instructions: 116500583 cycles: 144192072 heartbeat IPC: 0.3991 cumulative IPC: 0.5099 (Simulation time: 00 hr 20 min 00 sec)
Heartbeat CPU 0 instructions: 117000587 cycles: 145143835 heartbeat IPC: 0.5253 cumulative IPC: 0.51 (Simulation time: 00 hr 20 min 07 sec)
Heartbeat CPU 0 instructions: 117500587 cycles: 145483276 heartbeat IPC: 1.473 cumulative IPC: 0.5125 (Simulation time: 00 hr 20 min 10 sec)
Heartbeat CPU 0 instructions: 118000590 cycles: 146188079 heartbeat IPC: 0.7094 cumulative IPC: 0.5135 (Simulation time: 00 hr 20 min 15 sec)
Heartbeat CPU 0 instructions: 118500596 cycles: 147865425 heartbeat IPC: 0.2981 cumulative IPC: 0.5109 (Simulation time: 00 hr 20 min 26 sec)
Heartbeat CPU 0 instructions: 119000596 cycles: 148930299 heartbeat IPC: 0.4695 cumulative IPC: 0.5105 (Simulation time: 00 hr 20 min 34 sec)
Heartbeat CPU 0 instructions: 119500597 cycles: 149898063 heartbeat IPC: 0.5167 cumulative IPC: 0.5106 (Simulation time: 00 hr 20 min 40 sec)
Heartbeat CPU 0 instructions: 120000602 cycles: 151004497 heartbeat IPC: 0.4519 cumulative IPC: 0.5101 (Simulation time: 00 hr 20 min 48 sec)
Heartbeat CPU 0 instructions: 120500602 cycles: 151807079 heartbeat IPC: 0.623 cumulative IPC: 0.5108 (Simulation time: 00 hr 20 min 54 sec)
Heartbeat CPU 0 instructions: 121000602 cycles: 152919232 heartbeat IPC: 0.4496 cumulative IPC: 0.5103 (Simulation time: 00 hr 21 min 02 sec)
Heartbeat CPU 0 instructions: 121500602 cycles: 154009494 heartbeat IPC: 0.4586 cumulative IPC: 0.5099 (Simulation time: 00 hr 21 min 10 sec)
Heartbeat CPU 0 instructions: 122000602 cycles: 155907182 heartbeat IPC: 0.2635 cumulative IPC: 0.5066 (Simulation time: 00 hr 21 min 23 sec)
Heartbeat CPU 0 instructions: 122500602 cycles: 157317472 heartbeat IPC: 0.3545 cumulative IPC: 0.5051 (Simulation time: 00 hr 21 min 32 sec)
Heartbeat CPU 0 instructions: 123000604 cycles: 158419666 heartbeat IPC: 0.4536 cumulative IPC: 0.5047 (Simulation time: 00 hr 21 min 40 sec)
Heartbeat CPU 0 instructions: 123500606 cycles: 159888038 heartbeat IPC: 0.3405 cumulative IPC: 0.503 (Simulation time: 00 hr 21 min 51 sec)
Heartbeat CPU 0 instructions: 124000610 cycles: 161230089 heartbeat IPC: 0.3726 cumulative IPC: 0.5018 (Simulation time: 00 hr 22 min 00 sec)
Heartbeat CPU 0 instructions: 124500613 cycles: 162709356 heartbeat IPC: 0.338 cumulative IPC: 0.5002 (Simulation time: 00 hr 22 min 10 sec)
Heartbeat CPU 0 instructions: 125000616 cycles: 163582601 heartbeat IPC: 0.5726 cumulative IPC: 0.5006 (Simulation time: 00 hr 22 min 16 sec)
Heartbeat CPU 0 instructions: 125500616 cycles: 164691073 heartbeat IPC: 0.4511 cumulative IPC: 0.5003 (Simulation time: 00 hr 22 min 24 sec)
Heartbeat CPU 0 instructions: 126000618 cycles: 165203575 heartbeat IPC: 0.9756 cumulative IPC: 0.5019 (Simulation time: 00 hr 22 min 28 sec)
Heartbeat CPU 0 instructions: 126500620 cycles: 166291451 heartbeat IPC: 0.4596 cumulative IPC: 0.5016 (Simulation time: 00 hr 22 min 35 sec)
Heartbeat CPU 0 instructions: 127000620 cycles: 167058974 heartbeat IPC: 0.6514 cumulative IPC: 0.5023 (Simulation time: 00 hr 22 min 41 sec)
Heartbeat CPU 0 instructions: 127500621 cycles: 167997636 heartbeat IPC: 0.5327 cumulative IPC: 0.5025 (Simulation time: 00 hr 22 min 47 sec)
Heartbeat CPU 0 instructions: 128000626 cycles: 168928057 heartbeat IPC: 0.5374 cumulative IPC: 0.5027 (Simulation time: 00 hr 22 min 54 sec)
Heartbeat CPU 0 instructions: 128500629 cycles: 170029120 heartbeat IPC: 0.4541 cumulative IPC: 0.5024 (Simulation time: 00 hr 23 min 01 sec)
Heartbeat CPU 0 instructions: 129000634 cycles: 171148945 heartbeat IPC: 0.4465 cumulative IPC: 0.502 (Simulation time: 00 hr 23 min 09 sec)
Heartbeat CPU 0 instructions: 129500640 cycles: 172300911 heartbeat IPC: 0.434 cumulative IPC: 0.5015 (Simulation time: 00 hr 23 min 17 sec)
Heartbeat CPU 0 instructions: 130000640 cycles: 173224630 heartbeat IPC: 0.5413 cumulative IPC: 0.5017 (Simulation time: 00 hr 23 min 23 sec)
Heartbeat CPU 0 instructions: 130500644 cycles: 174199365 heartbeat IPC: 0.513 cumulative IPC: 0.5018 (Simulation time: 00 hr 23 min 30 sec)
Heartbeat CPU 0 instructions: 131000645 cycles: 175579181 heartbeat IPC: 0.3624 cumulative IPC: 0.5006 (Simulation time: 00 hr 23 min 39 sec)
Heartbeat CPU 0 instructions: 131500645 cycles: 176740297 heartbeat IPC: 0.4306 cumulative IPC: 0.5001 (Simulation time: 00 hr 23 min 47 sec)
Heartbeat CPU 0 instructions: 132000645 cycles: 178088380 heartbeat IPC: 0.3709 cumulative IPC: 0.499 (Simulation time: 00 hr 23 min 56 sec)
Heartbeat CPU 0 instructions: 132500645 cycles: 179487080 heartbeat IPC: 0.3575 cumulative IPC: 0.4979 (Simulation time: 00 hr 24 min 05 sec)
Heartbeat CPU 0 instructions: 133000645 cycles: 180349788 heartbeat IPC: 0.5796 cumulative IPC: 0.4983 (Simulation time: 00 hr 24 min 11 sec)
Heartbeat CPU 0 instructions: 133500647 cycles: 181299940 heartbeat IPC: 0.5262 cumulative IPC: 0.4984 (Simulation time: 00 hr 24 min 18 sec)
Heartbeat CPU 0 instructions: 134000647 cycles: 182756551 heartbeat IPC: 0.3433 cumulative IPC: 0.4971 (Simulation time: 00 hr 24 min 28 sec)
Heartbeat CPU 0 instructions: 134500651 cycles: 184138733 heartbeat IPC: 0.3617 cumulative IPC: 0.496 (Simulation time: 00 hr 24 min 37 sec)
Heartbeat CPU 0 instructions: 135000656 cycles: 184941895 heartbeat IPC: 0.6225 cumulative IPC: 0.4966 (Simulation time: 00 hr 24 min 43 sec)
Heartbeat CPU 0 instructions: 135500656 cycles: 185420361 heartbeat IPC: 1.045 cumulative IPC: 0.4981 (Simulation time: 00 hr 24 min 46 sec)
Heartbeat CPU 0 instructions: 136000662 cycles: 185741514 heartbeat IPC: 1.557 cumulative IPC: 0.5001 (Simulation time: 00 hr 24 min 49 sec)
Heartbeat CPU 0 instructions: 136500668 cycles: 186230097 heartbeat IPC: 1.023 cumulative IPC: 0.5016 (Simulation time: 00 hr 24 min 53 sec)
Heartbeat CPU 0 instructions: 137000669 cycles: 187803134 heartbeat IPC: 0.3179 cumulative IPC: 0.4999 (Simulation time: 00 hr 25 min 03 sec)
Heartbeat CPU 0 instructions: 137500671 cycles: 189083707 heartbeat IPC: 0.3905 cumulative IPC: 0.4991 (Simulation time: 00 hr 25 min 11 sec)
Heartbeat CPU 0 instructions: 138000672 cycles: 190513433 heartbeat IPC: 0.3497 cumulative IPC: 0.4979 (Simulation time: 00 hr 25 min 21 sec)
Heartbeat CPU 0 instructions: 138500676 cycles: 191813985 heartbeat IPC: 0.3845 cumulative IPC: 0.4971 (Simulation time: 00 hr 25 min 30 sec)
Heartbeat CPU 0 instructions: 139000682 cycles: 193305291 heartbeat IPC: 0.3353 cumulative IPC: 0.4957 (Simulation time: 00 hr 25 min 39 sec)
Heartbeat CPU 0 instructions: 139500683 cycles: 194316358 heartbeat IPC: 0.4945 cumulative IPC: 0.4957 (Simulation time: 00 hr 25 min 46 sec)
Heartbeat CPU 0 instructions: 140000690 cycles: 195741865 heartbeat IPC: 0.3508 cumulative IPC: 0.4946 (Simulation time: 00 hr 25 min 55 sec)
Heartbeat CPU 0 instructions: 140500696 cycles: 196990819 heartbeat IPC: 0.4003 cumulative IPC: 0.494 (Simulation time: 00 hr 26 min 04 sec)
Heartbeat CPU 0 instructions: 141000696 cycles: 197968548 heartbeat IPC: 0.5114 cumulative IPC: 0.494 (Simulation time: 00 hr 26 min 10 sec)
Heartbeat CPU 0 instructions: 141500696 cycles: 199362141 heartbeat IPC: 0.3588 cumulative IPC: 0.493 (Simulation time: 00 hr 26 min 20 sec)
Heartbeat CPU 0 instructions: 142000701 cycles: 200719264 heartbeat IPC: 0.3684 cumulative IPC: 0.4921 (Simulation time: 00 hr 26 min 29 sec)
Heartbeat CPU 0 instructions: 142500707 cycles: 201605117 heartbeat IPC: 0.5644 cumulative IPC: 0.4925 (Simulation time: 00 hr 26 min 35 sec)
Heartbeat CPU 0 instructions: 143000714 cycles: 202989861 heartbeat IPC: 0.3611 cumulative IPC: 0.4915 (Simulation time: 00 hr 26 min 44 sec)
Heartbeat CPU 0 instructions: 143500715 cycles: 203650980 heartbeat IPC: 0.7563 cumulative IPC: 0.4924 (Simulation time: 00 hr 26 min 48 sec)
Heartbeat CPU 0 instructions: 144000716 cycles: 205282836 heartbeat IPC: 0.3064 cumulative IPC: 0.4908 (Simulation time: 00 hr 26 min 58 sec)
Heartbeat CPU 0 instructions: 144500719 cycles: 206614395 heartbeat IPC: 0.3755 cumulative IPC: 0.49 (Simulation time: 00 hr 27 min 07 sec)
Heartbeat CPU 0 instructions: 145000721 cycles: 207657654 heartbeat IPC: 0.4793 cumulative IPC: 0.49 (Simulation time: 00 hr 27 min 14 sec)
Heartbeat CPU 0 instructions: 145500723 cycles: 208774091 heartbeat IPC: 0.4479 cumulative IPC: 0.4897 (Simulation time: 00 hr 27 min 22 sec)
Heartbeat CPU 0 instructions: 146000723 cycles: 209740745 heartbeat IPC: 0.5172 cumulative IPC: 0.4899 (Simulation time: 00 hr 27 min 28 sec)
Heartbeat CPU 0 instructions: 146500729 cycles: 210841842 heartbeat IPC: 0.4541 cumulative IPC: 0.4897 (Simulation time: 00 hr 27 min 36 sec)
Heartbeat CPU 0 instructions: 147000735 cycles: 212021624 heartbeat IPC: 0.4238 cumulative IPC: 0.4893 (Simulation time: 00 hr 27 min 44 sec)
Heartbeat CPU 0 instructions: 147500736 cycles: 213327887 heartbeat IPC: 0.3828 cumulative IPC: 0.4886 (Simulation time: 00 hr 27 min 52 sec)
Heartbeat CPU 0 instructions: 148000738 cycles: 214417685 heartbeat IPC: 0.4588 cumulative IPC: 0.4884 (Simulation time: 00 hr 27 min 59 sec)
Heartbeat CPU 0 instructions: 148500738 cycles: 215901525 heartbeat IPC: 0.337 cumulative IPC: 0.4873 (Simulation time: 00 hr 28 min 08 sec)
Heartbeat CPU 0 instructions: 149000745 cycles: 217155806 heartbeat IPC: 0.3986 cumulative IPC: 0.4868 (Simulation time: 00 hr 28 min 16 sec)
Heartbeat CPU 0 instructions: 149500750 cycles: 217627371 heartbeat IPC: 1.06 cumulative IPC: 0.4881 (Simulation time: 00 hr 28 min 19 sec)
Heartbeat CPU 0 instructions: 150000757 cycles: 217984606 heartbeat IPC: 1.4 cumulative IPC: 0.4897 (Simulation time: 00 hr 28 min 22 sec)
Heartbeat CPU 0 instructions: 150500763 cycles: 218336395 heartbeat IPC: 1.421 cumulative IPC: 0.4913 (Simulation time: 00 hr 28 min 25 sec)
Heartbeat CPU 0 instructions: 151000765 cycles: 218690828 heartbeat IPC: 1.411 cumulative IPC: 0.4929 (Simulation time: 00 hr 28 min 28 sec)
Heartbeat CPU 0 instructions: 151500766 cycles: 219811147 heartbeat IPC: 0.4463 cumulative IPC: 0.4926 (Simulation time: 00 hr 28 min 35 sec)
Heartbeat CPU 0 instructions: 152000772 cycles: 220842935 heartbeat IPC: 0.4846 cumulative IPC: 0.4926 (Simulation time: 00 hr 28 min 42 sec)
Heartbeat CPU 0 instructions: 152500775 cycles: 222189818 heartbeat IPC: 0.3712 cumulative IPC: 0.4918 (Simulation time: 00 hr 28 min 50 sec)
Heartbeat CPU 0 instructions: 153000780 cycles: 223185273 heartbeat IPC: 0.5023 cumulative IPC: 0.4919 (Simulation time: 00 hr 28 min 57 sec)
Heartbeat CPU 0 instructions: 153500785 cycles: 224303097 heartbeat IPC: 0.4473 cumulative IPC: 0.4916 (Simulation time: 00 hr 29 min 04 sec)
Heartbeat CPU 0 instructions: 154000786 cycles: 225144453 heartbeat IPC: 0.5943 cumulative IPC: 0.492 (Simulation time: 00 hr 29 min 10 sec)
Heartbeat CPU 0 instructions: 154500786 cycles: 226270829 heartbeat IPC: 0.4439 cumulative IPC: 0.4918 (Simulation time: 00 hr 29 min 17 sec)
Heartbeat CPU 0 instructions: 155000792 cycles: 227669991 heartbeat IPC: 0.3574 cumulative IPC: 0.4909 (Simulation time: 00 hr 29 min 26 sec)
Heartbeat CPU 0 instructions: 155500792 cycles: 228661875 heartbeat IPC: 0.5041 cumulative IPC: 0.491 (Simulation time: 00 hr 29 min 32 sec)
Heartbeat CPU 0 instructions: 156000798 cycles: 229191658 heartbeat IPC: 0.9438 cumulative IPC: 0.4921 (Simulation time: 00 hr 29 min 36 sec)
Heartbeat CPU 0 instructions: 156500798 cycles: 230634525 heartbeat IPC: 0.3465 cumulative IPC: 0.4911 (Simulation time: 00 hr 29 min 45 sec)
Heartbeat CPU 0 instructions: 157000799 cycles: 231835874 heartbeat IPC: 0.4162 cumulative IPC: 0.4907 (Simulation time: 00 hr 29 min 53 sec)
Heartbeat CPU 0 instructions: 157500800 cycles: 233491142 heartbeat IPC: 0.3021 cumulative IPC: 0.4893 (Simulation time: 00 hr 30 min 03 sec)
Heartbeat CPU 0 instructions: 158000801 cycles: 234689929 heartbeat IPC: 0.4171 cumulative IPC: 0.4889 (Simulation time: 00 hr 30 min 11 sec)
Heartbeat CPU 0 instructions: 158500802 cycles: 235674562 heartbeat IPC: 0.5078 cumulative IPC: 0.489 (Simulation time: 00 hr 30 min 17 sec)
Heartbeat CPU 0 instructions: 159000803 cycles: 237071540 heartbeat IPC: 0.3579 cumulative IPC: 0.4881 (Simulation time: 00 hr 30 min 26 sec)
Heartbeat CPU 0 instructions: 159500806 cycles: 237980215 heartbeat IPC: 0.5503 cumulative IPC: 0.4884 (Simulation time: 00 hr 30 min 32 sec)
Heartbeat CPU 0 instructions: 160000809 cycles: 238917541 heartbeat IPC: 0.5334 cumulative IPC: 0.4886 (Simulation time: 00 hr 30 min 39 sec)
Heartbeat CPU 0 instructions: 160500809 cycles: 239859289 heartbeat IPC: 0.5309 cumulative IPC: 0.4888 (Simulation time: 00 hr 30 min 45 sec)
Heartbeat CPU 0 instructions: 161000809 cycles: 240610841 heartbeat IPC: 0.6653 cumulative IPC: 0.4893 (Simulation time: 00 hr 30 min 50 sec)
Heartbeat CPU 0 instructions: 161500809 cycles: 241443073 heartbeat IPC: 0.6008 cumulative IPC: 0.4897 (Simulation time: 00 hr 30 min 56 sec)
Heartbeat CPU 0 instructions: 162000815 cycles: 242150106 heartbeat IPC: 0.7072 cumulative IPC: 0.4904 (Simulation time: 00 hr 31 min 00 sec)
Heartbeat CPU 0 instructions: 162500815 cycles: 243010407 heartbeat IPC: 0.5812 cumulative IPC: 0.4908 (Simulation time: 00 hr 31 min 06 sec)
Heartbeat CPU 0 instructions: 163000815 cycles: 244207292 heartbeat IPC: 0.4178 cumulative IPC: 0.4904 (Simulation time: 00 hr 31 min 14 sec)
Heartbeat CPU 0 instructions: 163500819 cycles: 245189680 heartbeat IPC: 0.509 cumulative IPC: 0.4905 (Simulation time: 00 hr 31 min 20 sec)
Heartbeat CPU 0 instructions: 164000820 cycles: 246134191 heartbeat IPC: 0.5294 cumulative IPC: 0.4906 (Simulation time: 00 hr 31 min 27 sec)
Heartbeat CPU 0 instructions: 164500824 cycles: 246511826 heartbeat IPC: 1.324 cumulative IPC: 0.492 (Simulation time: 00 hr 31 min 30 sec)
Heartbeat CPU 0 instructions: 165000824 cycles: 246850693 heartbeat IPC: 1.476 cumulative IPC: 0.4934 (Simulation time: 00 hr 31 min 32 sec)
Heartbeat CPU 0 instructions: 165500825 cycles: 247368390 heartbeat IPC: 0.9658 cumulative IPC: 0.4945 (Simulation time: 00 hr 31 min 36 sec)
Heartbeat CPU 0 instructions: 166000827 cycles: 249213278 heartbeat IPC: 0.271 cumulative IPC: 0.4927 (Simulation time: 00 hr 31 min 47 sec)
Heartbeat CPU 0 instructions: 166500828 cycles: 250423992 heartbeat IPC: 0.413 cumulative IPC: 0.4923 (Simulation time: 00 hr 31 min 55 sec)
Heartbeat CPU 0 instructions: 167000829 cycles: 251327798 heartbeat IPC: 0.5532 cumulative IPC: 0.4925 (Simulation time: 00 hr 32 min 01 sec)
Heartbeat CPU 0 instructions: 167500832 cycles: 252152490 heartbeat IPC: 0.6063 cumulative IPC: 0.4929 (Simulation time: 00 hr 32 min 06 sec)
Heartbeat CPU 0 instructions: 168000836 cycles: 252803676 heartbeat IPC: 0.7678 cumulative IPC: 0.4937 (Simulation time: 00 hr 32 min 11 sec)
Heartbeat CPU 0 instructions: 168500842 cycles: 253183046 heartbeat IPC: 1.318 cumulative IPC: 0.495 (Simulation time: 00 hr 32 min 14 sec)
Heartbeat CPU 0 instructions: 169000842 cycles: 253554453 heartbeat IPC: 1.346 cumulative IPC: 0.4963 (Simulation time: 00 hr 32 min 17 sec)
Heartbeat CPU 0 instructions: 169500845 cycles: 253931246 heartbeat IPC: 1.327 cumulative IPC: 0.4976 (Simulation time: 00 hr 32 min 20 sec)
Heartbeat CPU 0 instructions: 170000846 cycles: 254623894 heartbeat IPC: 0.7219 cumulative IPC: 0.4982 (Simulation time: 00 hr 32 min 24 sec)
Heartbeat CPU 0 instructions: 170500846 cycles: 256330699 heartbeat IPC: 0.2929 cumulative IPC: 0.4968 (Simulation time: 00 hr 32 min 35 sec)
Heartbeat CPU 0 instructions: 171000846 cycles: 257466563 heartbeat IPC: 0.4402 cumulative IPC: 0.4965 (Simulation time: 00 hr 32 min 42 sec)
Heartbeat CPU 0 instructions: 171500849 cycles: 258619665 heartbeat IPC: 0.4336 cumulative IPC: 0.4962 (Simulation time: 00 hr 32 min 49 sec)
Heartbeat CPU 0 instructions: 172000850 cycles: 259378584 heartbeat IPC: 0.6588 cumulative IPC: 0.4967 (Simulation time: 00 hr 32 min 54 sec)
Heartbeat CPU 0 instructions: 172500851 cycles: 259750845 heartbeat IPC: 1.343 cumulative IPC: 0.498 (Simulation time: 00 hr 32 min 57 sec)
Heartbeat CPU 0 instructions: 173000852 cycles: 260103345 heartbeat IPC: 1.418 cumulative IPC: 0.4993 (Simulation time: 00 hr 33 min 00 sec)
Heartbeat CPU 0 instructions: 173500854 cycles: 261421881 heartbeat IPC: 0.3792 cumulative IPC: 0.4987 (Simulation time: 00 hr 33 min 08 sec)
Heartbeat CPU 0 instructions: 174000858 cycles: 262268586 heartbeat IPC: 0.5905 cumulative IPC: 0.499 (Simulation time: 00 hr 33 min 14 sec)
Heartbeat CPU 0 instructions: 174500858 cycles: 263266472 heartbeat IPC: 0.5011 cumulative IPC: 0.499 (Simulation time: 00 hr 33 min 20 sec)
Heartbeat CPU 0 instructions: 175000865 cycles: 264148800 heartbeat IPC: 0.5667 cumulative IPC: 0.4993 (Simulation time: 00 hr 33 min 26 sec)
Heartbeat CPU 0 instructions: 175500865 cycles: 264885589 heartbeat IPC: 0.6786 cumulative IPC: 0.4998 (Simulation time: 00 hr 33 min 31 sec)
Heartbeat CPU 0 instructions: 176000868 cycles: 266155776 heartbeat IPC: 0.3936 cumulative IPC: 0.4992 (Simulation time: 00 hr 33 min 39 sec)
Heartbeat CPU 0 instructions: 176500869 cycles: 267395267 heartbeat IPC: 0.4034 cumulative IPC: 0.4988 (Simulation time: 00 hr 33 min 47 sec)
Heartbeat CPU 0 instructions: 177000869 cycles: 268474987 heartbeat IPC: 0.4631 cumulative IPC: 0.4986 (Simulation time: 00 hr 33 min 54 sec)
Heartbeat CPU 0 instructions: 177500870 cycles: 269588314 heartbeat IPC: 0.4491 cumulative IPC: 0.4984 (Simulation time: 00 hr 34 min 01 sec)
Heartbeat CPU 0 instructions: 178000870 cycles: 270433828 heartbeat IPC: 0.5914 cumulative IPC: 0.4987 (Simulation time: 00 hr 34 min 06 sec)
Heartbeat CPU 0 instructions: 178500870 cycles: 271543688 heartbeat IPC: 0.4505 cumulative IPC: 0.4985 (Simulation time: 00 hr 34 min 14 sec)
Heartbeat CPU 0 instructions: 179000871 cycles: 272587694 heartbeat IPC: 0.4789 cumulative IPC: 0.4984 (Simulation time: 00 hr 34 min 20 sec)
Heartbeat CPU 0 instructions: 179500872 cycles: 273379373 heartbeat IPC: 0.6316 cumulative IPC: 0.4988 (Simulation time: 00 hr 34 min 26 sec)
Heartbeat CPU 0 instructions: 180000872 cycles: 274331334 heartbeat IPC: 0.5252 cumulative IPC: 0.4989 (Simulation time: 00 hr 34 min 32 sec)
Heartbeat CPU 0 instructions: 180500873 cycles: 275233752 heartbeat IPC: 0.5541 cumulative IPC: 0.4991 (Simulation time: 00 hr 34 min 38 sec)
Heartbeat CPU 0 instructions: 181000876 cycles: 275947263 heartbeat IPC: 0.7008 cumulative IPC: 0.4997 (Simulation time: 00 hr 34 min 43 sec)
Heartbeat CPU 0 instructions: 181500876 cycles: 277052804 heartbeat IPC: 0.4523 cumulative IPC: 0.4995 (Simulation time: 00 hr 34 min 50 sec)
Heartbeat CPU 0 instructions: 182000876 cycles: 278029733 heartbeat IPC: 0.5118 cumulative IPC: 0.4995 (Simulation time: 00 hr 34 min 56 sec)
Heartbeat CPU 0 instructions: 182500879 cycles: 279226862 heartbeat IPC: 0.4177 cumulative IPC: 0.4992 (Simulation time: 00 hr 35 min 04 sec)
Heartbeat CPU 0 instructions: 183000879 cycles: 280085474 heartbeat IPC: 0.5823 cumulative IPC: 0.4994 (Simulation time: 00 hr 35 min 10 sec)
Heartbeat CPU 0 instructions: 183500885 cycles: 281279166 heartbeat IPC: 0.4189 cumulative IPC: 0.4991 (Simulation time: 00 hr 35 min 17 sec)
Heartbeat CPU 0 instructions: 184000886 cycles: 281993457 heartbeat IPC: 0.7 cumulative IPC: 0.4996 (Simulation time: 00 hr 35 min 22 sec)
Heartbeat CPU 0 instructions: 184500890 cycles: 282900720 heartbeat IPC: 0.5511 cumulative IPC: 0.4998 (Simulation time: 00 hr 35 min 28 sec)
Heartbeat CPU 0 instructions: 185000891 cycles: 284061861 heartbeat IPC: 0.4306 cumulative IPC: 0.4995 (Simulation time: 00 hr 35 min 36 sec)
Heartbeat CPU 0 instructions: 185500891 cycles: 285134631 heartbeat IPC: 0.4661 cumulative IPC: 0.4993 (Simulation time: 00 hr 35 min 43 sec)
Heartbeat CPU 0 instructions: 186000891 cycles: 285478146 heartbeat IPC: 1.456 cumulative IPC: 0.5005 (Simulation time: 00 hr 35 min 45 sec)
Heartbeat CPU 0 instructions: 186500892 cycles: 285821889 heartbeat IPC: 1.455 cumulative IPC: 0.5018 (Simulation time: 00 hr 35 min 48 sec)
Heartbeat CPU 0 instructions: 187000892 cycles: 286130593 heartbeat IPC: 1.62 cumulative IPC: 0.503 (Simulation time: 00 hr 35 min 51 sec)
Heartbeat CPU 0 instructions: 187500895 cycles: 286464886 heartbeat IPC: 1.496 cumulative IPC: 0.5042 (Simulation time: 00 hr 35 min 53 sec)
Heartbeat CPU 0 instructions: 188000895 cycles: 287093524 heartbeat IPC: 0.7954 cumulative IPC: 0.5049 (Simulation time: 00 hr 35 min 58 sec)
Heartbeat CPU 0 instructions: 188500895 cycles: 288588597 heartbeat IPC: 0.3344 cumulative IPC: 0.504 (Simulation time: 00 hr 36 min 07 sec)
Heartbeat CPU 0 instructions: 189000895 cycles: 289681269 heartbeat IPC: 0.4576 cumulative IPC: 0.5038 (Simulation time: 00 hr 36 min 14 sec)
Heartbeat CPU 0 instructions: 189500899 cycles: 290534901 heartbeat IPC: 0.5857 cumulative IPC: 0.504 (Simulation time: 00 hr 36 min 19 sec)
Heartbeat CPU 0 instructions: 190000899 cycles: 292194679 heartbeat IPC: 0.3012 cumulative IPC: 0.5028 (Simulation time: 00 hr 36 min 30 sec)
Heartbeat CPU 0 instructions: 190500900 cycles: 293555266 heartbeat IPC: 0.3675 cumulative IPC: 0.5022 (Simulation time: 00 hr 36 min 38 sec)
Heartbeat CPU 0 instructions: 191000902 cycles: 294683449 heartbeat IPC: 0.4432 cumulative IPC: 0.5019 (Simulation time: 00 hr 36 min 45 sec)
Heartbeat CPU 0 instructions: 191500906 cycles: 295764677 heartbeat IPC: 0.4624 cumulative IPC: 0.5018 (Simulation time: 00 hr 36 min 52 sec)
Heartbeat CPU 0 instructions: 192000906 cycles: 296454726 heartbeat IPC: 0.7246 cumulative IPC: 0.5023 (Simulation time: 00 hr 36 min 57 sec)
Heartbeat CPU 0 instructions: 192500908 cycles: 297037651 heartbeat IPC: 0.8577 cumulative IPC: 0.5031 (Simulation time: 00 hr 37 min 02 sec)
Heartbeat CPU 0 instructions: 193000909 cycles: 298350599 heartbeat IPC: 0.3808 cumulative IPC: 0.5025 (Simulation time: 00 hr 37 min 10 sec)
Heartbeat CPU 0 instructions: 193500909 cycles: 299366837 heartbeat IPC: 0.492 cumulative IPC: 0.5025 (Simulation time: 00 hr 37 min 16 sec)
Heartbeat CPU 0 instructions: 194000909 cycles: 300528404 heartbeat IPC: 0.4305 cumulative IPC: 0.5022 (Simulation time: 00 hr 37 min 23 sec)
Heartbeat CPU 0 instructions: 194500910 cycles: 301613125 heartbeat IPC: 0.4609 cumulative IPC: 0.502 (Simulation time: 00 hr 37 min 30 sec)
Heartbeat CPU 0 instructions: 195000911 cycles: 302765302 heartbeat IPC: 0.434 cumulative IPC: 0.5017 (Simulation time: 00 hr 37 min 38 sec)
Heartbeat CPU 0 instructions: 195500911 cycles: 303867940 heartbeat IPC: 0.4535 cumulative IPC: 0.5016 (Simulation time: 00 hr 37 min 45 sec)
Heartbeat CPU 0 instructions: 196000914 cycles: 304836544 heartbeat IPC: 0.5162 cumulative IPC: 0.5016 (Simulation time: 00 hr 37 min 51 sec)
Heartbeat CPU 0 instructions: 196500920 cycles: 305946099 heartbeat IPC: 0.4506 cumulative IPC: 0.5014 (Simulation time: 00 hr 37 min 58 sec)
Heartbeat CPU 0 instructions: 197000921 cycles: 306742351 heartbeat IPC: 0.6279 cumulative IPC: 0.5018 (Simulation time: 00 hr 38 min 03 sec)
Heartbeat CPU 0 instructions: 197500923 cycles: 307495276 heartbeat IPC: 0.6641 cumulative IPC: 0.5022 (Simulation time: 00 hr 38 min 08 sec)
Heartbeat CPU 0 instructions: 198000926 cycles: 307843140 heartbeat IPC: 1.437 cumulative IPC: 0.5033 (Simulation time: 00 hr 38 min 11 sec)
Heartbeat CPU 0 instructions: 198500931 cycles: 308157933 heartbeat IPC: 1.588 cumulative IPC: 0.5044 (Simulation time: 00 hr 38 min 14 sec)
Heartbeat CPU 0 instructions: 199000934 cycles: 308480059 heartbeat IPC: 1.552 cumulative IPC: 0.5056 (Simulation time: 00 hr 38 min 16 sec)
Heartbeat CPU 0 instructions: 199500935 cycles: 308839118 heartbeat IPC: 1.393 cumulative IPC: 0.5067 (Simulation time: 00 hr 38 min 19 sec)
Heartbeat CPU 0 instructions: 200000939 cycles: 309181036 heartbeat IPC: 1.462 cumulative IPC: 0.5078 (Simulation time: 00 hr 38 min 22 sec)
Heartbeat CPU 0 instructions: 200500940 cycles: 310689370 heartbeat IPC: 0.3315 cumulative IPC: 0.5069 (Simulation time: 00 hr 38 min 31 sec)
Heartbeat CPU 0 instructions: 201000945 cycles: 311042405 heartbeat IPC: 1.416 cumulative IPC: 0.508 (Simulation time: 00 hr 38 min 33 sec)
Heartbeat CPU 0 instructions: 201500945 cycles: 311747420 heartbeat IPC: 0.7092 cumulative IPC: 0.5084 (Simulation time: 00 hr 38 min 38 sec)
Heartbeat CPU 0 instructions: 202000952 cycles: 313249427 heartbeat IPC: 0.3329 cumulative IPC: 0.5076 (Simulation time: 00 hr 38 min 47 sec)
Heartbeat CPU 0 instructions: 202500956 cycles: 314650177 heartbeat IPC: 0.357 cumulative IPC: 0.5069 (Simulation time: 00 hr 38 min 56 sec)
Heartbeat CPU 0 instructions: 203000957 cycles: 315934184 heartbeat IPC: 0.3894 cumulative IPC: 0.5064 (Simulation time: 00 hr 39 min 04 sec)
Heartbeat CPU 0 instructions: 203500958 cycles: 316840973 heartbeat IPC: 0.5514 cumulative IPC: 0.5065 (Simulation time: 00 hr 39 min 10 sec)
Heartbeat CPU 0 instructions: 204000958 cycles: 317751923 heartbeat IPC: 0.5489 cumulative IPC: 0.5066 (Simulation time: 00 hr 39 min 16 sec)
Heartbeat CPU 0 instructions: 204500961 cycles: 318615577 heartbeat IPC: 0.5789 cumulative IPC: 0.5068 (Simulation time: 00 hr 39 min 22 sec)
Heartbeat CPU 0 instructions: 205000964 cycles: 319574043 heartbeat IPC: 0.5217 cumulative IPC: 0.5069 (Simulation time: 00 hr 39 min 29 sec)
Heartbeat CPU 0 instructions: 205500967 cycles: 320659811 heartbeat IPC: 0.4605 cumulative IPC: 0.5067 (Simulation time: 00 hr 39 min 36 sec)
Heartbeat CPU 0 instructions: 206000967 cycles: 321983423 heartbeat IPC: 0.3778 cumulative IPC: 0.5062 (Simulation time: 00 hr 39 min 44 sec)
Heartbeat CPU 0 instructions: 206500973 cycles: 323251168 heartbeat IPC: 0.3944 cumulative IPC: 0.5057 (Simulation time: 00 hr 39 min 53 sec)
Heartbeat CPU 0 instructions: 207000973 cycles: 324338220 heartbeat IPC: 0.46 cumulative IPC: 0.5055 (Simulation time: 00 hr 40 min 00 sec)
Heartbeat CPU 0 instructions: 207500975 cycles: 325209076 heartbeat IPC: 0.5742 cumulative IPC: 0.5057 (Simulation time: 00 hr 40 min 06 sec)
Heartbeat CPU 0 instructions: 208000976 cycles: 326041007 heartbeat IPC: 0.601 cumulative IPC: 0.506 (Simulation time: 00 hr 40 min 11 sec)
Heartbeat CPU 0 instructions: 208500976 cycles: 326910901 heartbeat IPC: 0.5748 cumulative IPC: 0.5062 (Simulation time: 00 hr 40 min 17 sec)
Heartbeat CPU 0 instructions: 209000977 cycles: 327787261 heartbeat IPC: 0.5705 cumulative IPC: 0.5064 (Simulation time: 00 hr 40 min 23 sec)
Heartbeat CPU 0 instructions: 209500978 cycles: 328610610 heartbeat IPC: 0.6073 cumulative IPC: 0.5066 (Simulation time: 00 hr 40 min 29 sec)
Heartbeat CPU 0 instructions: 210000978 cycles: 329782377 heartbeat IPC: 0.4267 cumulative IPC: 0.5063 (Simulation time: 00 hr 40 min 36 sec)
Heartbeat CPU 0 instructions: 210500978 cycles: 330444655 heartbeat IPC: 0.755 cumulative IPC: 0.5068 (Simulation time: 00 hr 40 min 41 sec)
Heartbeat CPU 0 instructions: 211000980 cycles: 331213150 heartbeat IPC: 0.6506 cumulative IPC: 0.5072 (Simulation time: 00 hr 40 min 46 sec)
Heartbeat CPU 0 instructions: 211500981 cycles: 332340380 heartbeat IPC: 0.4436 cumulative IPC: 0.507 (Simulation time: 00 hr 40 min 54 sec)
Heartbeat CPU 0 instructions: 212000981 cycles: 333515811 heartbeat IPC: 0.4254 cumulative IPC: 0.5067 (Simulation time: 00 hr 41 min 01 sec)
Heartbeat CPU 0 instructions: 212500987 cycles: 334366315 heartbeat IPC: 0.5879 cumulative IPC: 0.5069 (Simulation time: 00 hr 41 min 07 sec)
Heartbeat CPU 0 instructions: 213000994 cycles: 335488182 heartbeat IPC: 0.4457 cumulative IPC: 0.5067 (Simulation time: 00 hr 41 min 14 sec)
Heartbeat CPU 0 instructions: 213500994 cycles: 336420803 heartbeat IPC: 0.5361 cumulative IPC: 0.5067 (Simulation time: 00 hr 41 min 20 sec)
Heartbeat CPU 0 instructions: 214000994 cycles: 337229862 heartbeat IPC: 0.618 cumulative IPC: 0.507 (Simulation time: 00 hr 41 min 25 sec)
Heartbeat CPU 0 instructions: 214500994 cycles: 338005497 heartbeat IPC: 0.6446 cumulative IPC: 0.5074 (Simulation time: 00 hr 41 min 31 sec)
Heartbeat CPU 0 instructions: 215000996 cycles: 338988819 heartbeat IPC: 0.5085 cumulative IPC: 0.5074 (Simulation time: 00 hr 41 min 37 sec)
Heartbeat CPU 0 instructions: 215501001 cycles: 340124957 heartbeat IPC: 0.4401 cumulative IPC: 0.5071 (Simulation time: 00 hr 41 min 45 sec)
Heartbeat CPU 0 instructions: 216001002 cycles: 341549925 heartbeat IPC: 0.3509 cumulative IPC: 0.5064 (Simulation time: 00 hr 41 min 53 sec)
Heartbeat CPU 0 instructions: 216501005 cycles: 342907445 heartbeat IPC: 0.3683 cumulative IPC: 0.5059 (Simulation time: 00 hr 42 min 02 sec)
Heartbeat CPU 0 instructions: 217001009 cycles: 343896654 heartbeat IPC: 0.5055 cumulative IPC: 0.5059 (Simulation time: 00 hr 42 min 08 sec)
Heartbeat CPU 0 instructions: 217501012 cycles: 345272240 heartbeat IPC: 0.3635 cumulative IPC: 0.5053 (Simulation time: 00 hr 42 min 17 sec)
Heartbeat CPU 0 instructions: 218001014 cycles: 346455048 heartbeat IPC: 0.4227 cumulative IPC: 0.505 (Simulation time: 00 hr 42 min 24 sec)
Heartbeat CPU 0 instructions: 218501017 cycles: 347061910 heartbeat IPC: 0.8239 cumulative IPC: 0.5056 (Simulation time: 00 hr 42 min 29 sec)
Heartbeat CPU 0 instructions: 219001017 cycles: 347877000 heartbeat IPC: 0.6134 cumulative IPC: 0.5058 (Simulation time: 00 hr 42 min 34 sec)
Heartbeat CPU 0 instructions: 219501017 cycles: 348687479 heartbeat IPC: 0.6169 cumulative IPC: 0.5061 (Simulation time: 00 hr 42 min 40 sec)
Heartbeat CPU 0 instructions: 220001023 cycles: 349547409 heartbeat IPC: 0.5814 cumulative IPC: 0.5063 (Simulation time: 00 hr 42 min 46 sec)
Heartbeat CPU 0 instructions: 220501028 cycles: 350701107 heartbeat IPC: 0.4334 cumulative IPC: 0.506 (Simulation time: 00 hr 42 min 53 sec)
Heartbeat CPU 0 instructions: 221001028 cycles: 351791734 heartbeat IPC: 0.4585 cumulative IPC: 0.5059 (Simulation time: 00 hr 43 min 00 sec)
Heartbeat CPU 0 instructions: 221501029 cycles: 353154649 heartbeat IPC: 0.3669 cumulative IPC: 0.5053 (Simulation time: 00 hr 43 min 08 sec)
Heartbeat CPU 0 instructions: 222001029 cycles: 354015416 heartbeat IPC: 0.5809 cumulative IPC: 0.5055 (Simulation time: 00 hr 43 min 14 sec)
Heartbeat CPU 0 instructions: 222501035 cycles: 355261317 heartbeat IPC: 0.4013 cumulative IPC: 0.5051 (Simulation time: 00 hr 43 min 22 sec)
Heartbeat CPU 0 instructions: 223001038 cycles: 356512866 heartbeat IPC: 0.3995 cumulative IPC: 0.5048 (Simulation time: 00 hr 43 min 29 sec)
Heartbeat CPU 0 instructions: 223501044 cycles: 357236644 heartbeat IPC: 0.6908 cumulative IPC: 0.5052 (Simulation time: 00 hr 43 min 35 sec)
Heartbeat CPU 0 instructions: 224001046 cycles: 358285146 heartbeat IPC: 0.4769 cumulative IPC: 0.5051 (Simulation time: 00 hr 43 min 41 sec)
Heartbeat CPU 0 instructions: 224501046 cycles: 359595789 heartbeat IPC: 0.3815 cumulative IPC: 0.5046 (Simulation time: 00 hr 43 min 50 sec)
Heartbeat CPU 0 instructions: 225001046 cycles: 360843289 heartbeat IPC: 0.4008 cumulative IPC: 0.5042 (Simulation time: 00 hr 43 min 58 sec)
Heartbeat CPU 0 instructions: 225501046 cycles: 362181266 heartbeat IPC: 0.3737 cumulative IPC: 0.5037 (Simulation time: 00 hr 44 min 06 sec)
Heartbeat CPU 0 instructions: 226001046 cycles: 363186255 heartbeat IPC: 0.4975 cumulative IPC: 0.5037 (Simulation time: 00 hr 44 min 12 sec)
Heartbeat CPU 0 instructions: 226501051 cycles: 364747373 heartbeat IPC: 0.3203 cumulative IPC: 0.5029 (Simulation time: 00 hr 44 min 22 sec)
Heartbeat CPU 0 instructions: 227001054 cycles: 365989109 heartbeat IPC: 0.4027 cumulative IPC: 0.5025 (Simulation time: 00 hr 44 min 30 sec)
Heartbeat CPU 0 instructions: 227501055 cycles: 366672945 heartbeat IPC: 0.7312 cumulative IPC: 0.503 (Simulation time: 00 hr 44 min 35 sec)
Heartbeat CPU 0 instructions: 228001056 cycles: 367549304 heartbeat IPC: 0.5705 cumulative IPC: 0.5031 (Simulation time: 00 hr 44 min 41 sec)
Heartbeat CPU 0 instructions: 228501057 cycles: 368695381 heartbeat IPC: 0.4363 cumulative IPC: 0.5029 (Simulation time: 00 hr 44 min 48 sec)
Heartbeat CPU 0 instructions: 229001058 cycles: 369632081 heartbeat IPC: 0.5338 cumulative IPC: 0.503 (Simulation time: 00 hr 44 min 54 sec)
Heartbeat CPU 0 instructions: 229501061 cycles: 370857255 heartbeat IPC: 0.4081 cumulative IPC: 0.5027 (Simulation time: 00 hr 45 min 02 sec)
Heartbeat CPU 0 instructions: 230001063 cycles: 371835878 heartbeat IPC: 0.5109 cumulative IPC: 0.5027 (Simulation time: 00 hr 45 min 08 sec)
Heartbeat CPU 0 instructions: 230501066 cycles: 372626857 heartbeat IPC: 0.6321 cumulative IPC: 0.503 (Simulation time: 00 hr 45 min 13 sec)
Heartbeat CPU 0 instructions: 231001067 cycles: 373814597 heartbeat IPC: 0.421 cumulative IPC: 0.5027 (Simulation time: 00 hr 45 min 21 sec)
Heartbeat CPU 0 instructions: 231501069 cycles: 375071196 heartbeat IPC: 0.3979 cumulative IPC: 0.5024 (Simulation time: 00 hr 45 min 29 sec)
Heartbeat CPU 0 instructions: 232001069 cycles: 376125127 heartbeat IPC: 0.4744 cumulative IPC: 0.5023 (Simulation time: 00 hr 45 min 36 sec)
Heartbeat CPU 0 instructions: 232501069 cycles: 377121561 heartbeat IPC: 0.5018 cumulative IPC: 0.5023 (Simulation time: 00 hr 45 min 43 sec)
Heartbeat CPU 0 instructions: 233001075 cycles: 378189162 heartbeat IPC: 0.4683 cumulative IPC: 0.5022 (Simulation time: 00 hr 45 min 49 sec)
Heartbeat CPU 0 instructions: 233501077 cycles: 379157429 heartbeat IPC: 0.5164 cumulative IPC: 0.5022 (Simulation time: 00 hr 45 min 56 sec)
Heartbeat CPU 0 instructions: 234001077 cycles: 380080816 heartbeat IPC: 0.5415 cumulative IPC: 0.5023 (Simulation time: 00 hr 46 min 02 sec)
Heartbeat CPU 0 instructions: 234501079 cycles: 380776621 heartbeat IPC: 0.7186 cumulative IPC: 0.5027 (Simulation time: 00 hr 46 min 07 sec)
Heartbeat CPU 0 instructions: 235001080 cycles: 381387813 heartbeat IPC: 0.8181 cumulative IPC: 0.5032 (Simulation time: 00 hr 46 min 11 sec)
Heartbeat CPU 0 instructions: 235501082 cycles: 382220031 heartbeat IPC: 0.6008 cumulative IPC: 0.5035 (Simulation time: 00 hr 46 min 17 sec)
Heartbeat CPU 0 instructions: 236001087 cycles: 383205394 heartbeat IPC: 0.5074 cumulative IPC: 0.5035 (Simulation time: 00 hr 46 min 23 sec)
Heartbeat CPU 0 instructions: 236501087 cycles: 384292957 heartbeat IPC: 0.4597 cumulative IPC: 0.5034 (Simulation time: 00 hr 46 min 31 sec)
Heartbeat CPU 0 instructions: 237001087 cycles: 385074973 heartbeat IPC: 0.6394 cumulative IPC: 0.5036 (Simulation time: 00 hr 46 min 36 sec)
Heartbeat CPU 0 instructions: 237501088 cycles: 385846175 heartbeat IPC: 0.6483 cumulative IPC: 0.5039 (Simulation time: 00 hr 46 min 41 sec)
Heartbeat CPU 0 instructions: 238001089 cycles: 386947405 heartbeat IPC: 0.454 cumulative IPC: 0.5038 (Simulation time: 00 hr 46 min 48 sec)
Heartbeat CPU 0 instructions: 238501090 cycles: 387797455 heartbeat IPC: 0.5882 cumulative IPC: 0.504 (Simulation time: 00 hr 46 min 54 sec)
Heartbeat CPU 0 instructions: 239001091 cycles: 388650215 heartbeat IPC: 0.5863 cumulative IPC: 0.5042 (Simulation time: 00 hr 47 min 00 sec)
Heartbeat CPU 0 instructions: 239501093 cycles: 389629801 heartbeat IPC: 0.5104 cumulative IPC: 0.5042 (Simulation time: 00 hr 47 min 06 sec)
Heartbeat CPU 0 instructions: 240001095 cycles: 390470473 heartbeat IPC: 0.5948 cumulative IPC: 0.5044 (Simulation time: 00 hr 47 min 12 sec)
Heartbeat CPU 0 instructions: 240501095 cycles: 391559598 heartbeat IPC: 0.4591 cumulative IPC: 0.5043 (Simulation time: 00 hr 47 min 19 sec)
Heartbeat CPU 0 instructions: 241001095 cycles: 392880274 heartbeat IPC: 0.3786 cumulative IPC: 0.5038 (Simulation time: 00 hr 47 min 28 sec)
Heartbeat CPU 0 instructions: 241501095 cycles: 393600132 heartbeat IPC: 0.6946 cumulative IPC: 0.5042 (Simulation time: 00 hr 47 min 33 sec)
Heartbeat CPU 0 instructions: 242001100 cycles: 394468347 heartbeat IPC: 0.5759 cumulative IPC: 0.5043 (Simulation time: 00 hr 47 min 38 sec)
Heartbeat CPU 0 instructions: 242501102 cycles: 395320250 heartbeat IPC: 0.5869 cumulative IPC: 0.5045 (Simulation time: 00 hr 47 min 44 sec)
Heartbeat CPU 0 instructions: 243001105 cycles: 396143253 heartbeat IPC: 0.6075 cumulative IPC: 0.5048 (Simulation time: 00 hr 47 min 50 sec)
Heartbeat CPU 0 instructions: 243501106 cycles: 397116963 heartbeat IPC: 0.5135 cumulative IPC: 0.5048 (Simulation time: 00 hr 47 min 56 sec)
Heartbeat CPU 0 instructions: 244001111 cycles: 397853580 heartbeat IPC: 0.6788 cumulative IPC: 0.5051 (Simulation time: 00 hr 48 min 01 sec)
Heartbeat CPU 0 instructions: 244501111 cycles: 398531663 heartbeat IPC: 0.7374 cumulative IPC: 0.5055 (Simulation time: 00 hr 48 min 06 sec)
Heartbeat CPU 0 instructions: 245001118 cycles: 399423830 heartbeat IPC: 0.5604 cumulative IPC: 0.5056 (Simulation time: 00 hr 48 min 12 sec)
Heartbeat CPU 0 instructions: 245501119 cycles: 400905842 heartbeat IPC: 0.3374 cumulative IPC: 0.505 (Simulation time: 00 hr 48 min 21 sec)
Heartbeat CPU 0 instructions: 246001119 cycles: 402318153 heartbeat IPC: 0.354 cumulative IPC: 0.5045 (Simulation time: 00 hr 48 min 30 sec)
Heartbeat CPU 0 instructions: 246501123 cycles: 403677322 heartbeat IPC: 0.3679 cumulative IPC: 0.504 (Simulation time: 00 hr 48 min 39 sec)
Heartbeat CPU 0 instructions: 247001123 cycles: 404674043 heartbeat IPC: 0.5016 cumulative IPC: 0.504 (Simulation time: 00 hr 48 min 45 sec)
Heartbeat CPU 0 instructions: 247501123 cycles: 405702071 heartbeat IPC: 0.4864 cumulative IPC: 0.5039 (Simulation time: 00 hr 48 min 52 sec)
Heartbeat CPU 0 instructions: 248001123 cycles: 406633975 heartbeat IPC: 0.5365 cumulative IPC: 0.504 (Simulation time: 00 hr 48 min 58 sec)
Heartbeat CPU 0 instructions: 248501125 cycles: 408033788 heartbeat IPC: 0.3572 cumulative IPC: 0.5035 (Simulation time: 00 hr 49 min 07 sec)
Heartbeat CPU 0 instructions: 249001130 cycles: 409295209 heartbeat IPC: 0.3964 cumulative IPC: 0.5031 (Simulation time: 00 hr 49 min 15 sec)
Heartbeat CPU 0 instructions: 249501131 cycles: 410061142 heartbeat IPC: 0.6528 cumulative IPC: 0.5034 (Simulation time: 00 hr 49 min 20 sec)
Simulation finished CPU 0 instructions: 200000000 cycles: 397272292 cumulative IPC: 0.5034 (Simulation time: 00 hr 49 min 26 sec)
Simulation complete CPU 0 instructions: 200000000 cycles: 397272292 cumulative IPC: 0.5034 (Simulation time: 00 hr 49 min 26 sec)

ChampSim completed all CPUs

=== Simulation ===
CPU 0 runs /local-ssd/ben/dpc4-traces/gtraces_v2/sierra.a.6_0000.champsim.gz

Region of Interest Statistics

CPU 0 cumulative IPC: 0.5034 instructions: 200000000 cycles: 397272292
CPU 0 Branch Prediction Accuracy: 87.72% MPKI: 23.85 Average ROB Occupancy at Mispredict: 19.66
Branch type MPKI
BRANCH_DIRECT_JUMP: 1.588
BRANCH_INDIRECT: 0.2289
BRANCH_CONDITIONAL: 19.83
BRANCH_DIRECT_CALL: 1.021
BRANCH_INDIRECT_CALL: 0.274
BRANCH_RETURN: 0.9121

cpu0->cpu0_STLB TOTAL        ACCESS:    3533722 HIT:    2752603 MISS:     781119 MSHR_MERGE:          0
cpu0->cpu0_STLB LOAD         ACCESS:    3533722 HIT:    2752603 MISS:     781119 MSHR_MERGE:          0
cpu0->cpu0_STLB RFO          ACCESS:          0 HIT:          0 MISS:          0 MSHR_MERGE:          0
cpu0->cpu0_STLB PREFETCH     ACCESS:          0 HIT:          0 MISS:          0 MSHR_MERGE:          0
cpu0->cpu0_STLB WRITE        ACCESS:          0 HIT:          0 MISS:          0 MSHR_MERGE:          0
cpu0->cpu0_STLB TRANSLATION  ACCESS:          0 HIT:          0 MISS:          0 MSHR_MERGE:          0
cpu0->cpu0_STLB PREFETCH REQUESTED:          0 ISSUED:          0 USEFUL:          0 USELESS:          0
cpu0->cpu0_STLB AVERAGE MISS LATENCY: 126.4 cycles
cpu0->cpu0_L2C TOTAL        ACCESS:   44619313 HIT:   37539688 MISS:    7079625 MSHR_MERGE:    2163470
cpu0->cpu0_L2C LOAD         ACCESS:   10070672 HIT:    8745118 MISS:    1325554 MSHR_MERGE:     171328
cpu0->cpu0_L2C RFO          ACCESS:     982650 HIT:     593005 MISS:     389645 MSHR_MERGE:       5632
cpu0->cpu0_L2C PREFETCH     ACCESS:   30767169 HIT:   25767380 MISS:    4999789 MSHR_MERGE:    1986510
cpu0->cpu0_L2C WRITE        ACCESS:    1924999 HIT:    1924906 MISS:         93 MSHR_MERGE:          0
cpu0->cpu0_L2C TRANSLATION  ACCESS:     873823 HIT:     509279 MISS:     364544 MSHR_MERGE:          0
cpu0->cpu0_L2C PREFETCH REQUESTED:   35347828 ISSUED:   29503112 USEFUL:    1207378 USELESS:    1325089
cpu0->cpu0_L2C AVERAGE MISS LATENCY: 201 cycles
cpu0->cpu0_L1I TOTAL        ACCESS:   22933988 HIT:   13038698 MISS:    9895290 MSHR_MERGE:    2500010
cpu0->cpu0_L1I LOAD         ACCESS:   22933988 HIT:   13038698 MISS:    9895290 MSHR_MERGE:    2500010
cpu0->cpu0_L1I RFO          ACCESS:          0 HIT:          0 MISS:          0 MSHR_MERGE:          0
cpu0->cpu0_L1I PREFETCH     ACCESS:          0 HIT:          0 MISS:          0 MSHR_MERGE:          0
cpu0->cpu0_L1I WRITE        ACCESS:          0 HIT:          0 MISS:          0 MSHR_MERGE:          0
cpu0->cpu0_L1I TRANSLATION  ACCESS:          0 HIT:          0 MISS:          0 MSHR_MERGE:          0
cpu0->cpu0_L1I PREFETCH REQUESTED:          0 ISSUED:          0 USEFUL:          0 USELESS:          0
cpu0->cpu0_L1I AVERAGE MISS LATENCY: 19.18 cycles
cpu0->cpu0_L1D TOTAL        ACCESS:   64710836 HIT:   55933936 MISS:    8776900 MSHR_MERGE:    2980913
cpu0->cpu0_L1D LOAD         ACCESS:   34967861 HIT:   31543954 MISS:    3423907 MSHR_MERGE:     748491
cpu0->cpu0_L1D RFO          ACCESS:          0 HIT:          0 MISS:          0 MSHR_MERGE:          0
cpu0->cpu0_L1D PREFETCH     ACCESS:    2520807 HIT:    1188518 MISS:    1332289 MSHR_MERGE:      68225
cpu0->cpu0_L1D WRITE        ACCESS:   25174366 HIT:   22033234 MISS:    3141132 MSHR_MERGE:    2158448
cpu0->cpu0_L1D TRANSLATION  ACCESS:    2047802 HIT:    1168230 MISS:     879572 MSHR_MERGE:       5749
cpu0->cpu0_L1D PREFETCH REQUESTED:    2540647 ISSUED:    2520807 USEFUL:     385028 USELESS:     878967
cpu0->cpu0_L1D AVERAGE MISS LATENCY: 81.32 cycles
cpu0->cpu0_ITLB TOTAL        ACCESS:   18621106 HIT:   17602850 MISS:    1018256 MSHR_MERGE:     477274
cpu0->cpu0_ITLB LOAD         ACCESS:   18621106 HIT:   17602850 MISS:    1018256 MSHR_MERGE:     477274
cpu0->cpu0_ITLB RFO          ACCESS:          0 HIT:          0 MISS:          0 MSHR_MERGE:          0
cpu0->cpu0_ITLB PREFETCH     ACCESS:          0 HIT:          0 MISS:          0 MSHR_MERGE:          0
cpu0->cpu0_ITLB WRITE        ACCESS:          0 HIT:          0 MISS:          0 MSHR_MERGE:          0
cpu0->cpu0_ITLB TRANSLATION  ACCESS:          0 HIT:          0 MISS:          0 MSHR_MERGE:          0
cpu0->cpu0_ITLB PREFETCH REQUESTED:          0 ISSUED:          0 USEFUL:          0 USELESS:          0
cpu0->cpu0_ITLB AVERAGE MISS LATENCY: 17.08 cycles
cpu0->cpu0_DTLB TOTAL        ACCESS:   59923061 HIT:   55216669 MISS:    4706392 MSHR_MERGE:    1713652
cpu0->cpu0_DTLB LOAD         ACCESS:   59923061 HIT:   55216669 MISS:    4706392 MSHR_MERGE:    1713652
cpu0->cpu0_DTLB RFO          ACCESS:          0 HIT:          0 MISS:          0 MSHR_MERGE:          0
cpu0->cpu0_DTLB PREFETCH     ACCESS:          0 HIT:          0 MISS:          0 MSHR_MERGE:          0
cpu0->cpu0_DTLB WRITE        ACCESS:          0 HIT:          0 MISS:          0 MSHR_MERGE:          0
cpu0->cpu0_DTLB TRANSLATION  ACCESS:          0 HIT:          0 MISS:          0 MSHR_MERGE:          0
cpu0->cpu0_DTLB PREFETCH REQUESTED:          0 ISSUED:          0 USEFUL:          0 USELESS:          0
cpu0->cpu0_DTLB AVERAGE MISS LATENCY: 36.08 cycles
cpu0->LLC TOTAL        ACCESS:    5840049 HIT:    1669061 MISS:    4170988 MSHR_MERGE:          0
cpu0->LLC LOAD         ACCESS:    1154226 HIT:     242867 MISS:     911359 MSHR_MERGE:          0
cpu0->LLC RFO          ACCESS:     384013 HIT:      22715 MISS:     361298 MSHR_MERGE:          0
cpu0->LLC PREFETCH     ACCESS:    3013279 HIT:     605793 MISS:    2407486 MSHR_MERGE:          0
cpu0->LLC WRITE        ACCESS:     923987 HIT:     697334 MISS:     226653 MSHR_MERGE:          0
cpu0->LLC TRANSLATION  ACCESS:     364544 HIT:     100352 MISS:     264192 MSHR_MERGE:          0
cpu0->LLC PREFETCH REQUESTED:          0 ISSUED:          0 USEFUL:          0 USELESS:          0
cpu0->LLC AVERAGE MISS LATENCY: 200.4 cycles

DRAM Statistics

Channel 0 RQ ROW_BUFFER_HIT:      38439
  ROW_BUFFER_MISS:    3905808
  AVG DBUS CONGESTED CYCLE: 22.59
Channel 0 WQ ROW_BUFFER_HIT:     240543
  ROW_BUFFER_MISS:     617568
  FULL:          0
Channel 0 REFRESHES ISSUED:      33104
