[VMEM] WARNING: physical memory size is smaller than virtual memory size.

*** ChampSim Multicore Out-of-Order Simulator ***
Warmup Instructions: 50000000
Simulation Instructions: 200000000
Number of CPUs: 1
Page size: 4096
Core 0: /local-ssd/ben/dpc4-traces/gtraces_v2/arizona_0001.champsim.gz
 L1D Berti prefetcher
Off-chip DRAM Size: 64 GiB Channels: 1 Width: 64-bit Data Rate: 4807 MT/s
[BTB] WARNING: target of return is a lower address than the corresponding call. This is usually a problem with your trace.
[BTB] WARNING: target of return is a lower address than the corresponding call. This is usually a problem with your trace.
[BTB] WARNING: target of return is a lower address than the corresponding call. This is usually a problem with your trace.
[BTB] WARNING: target of return is a lower address than the corresponding call. This is usually a problem with your trace.
[BTB] WARNING: target of return is a lower address than the corresponding call. This is usually a problem with your trace.
Heartbeat CPU 0 instructions: 500004 cycles: 215631 heartbeat IPC: 2.319 cumulative IPC: 2.319 (Simulation time: 00 hr 00 min 03 sec)
[BTB] WARNING: target of return is a lower address than the corresponding call. This is usually a problem with your trace.
Heartbeat CPU 0 instructions: 1000009 cycles: 318120 heartbeat IPC: 4.879 cumulative IPC: 3.143 (Simulation time: 00 hr 00 min 05 sec)
[BTB] WARNING: target of return is a lower address than the corresponding call. This is usually a problem with your trace.
Heartbeat CPU 0 instructions: 1500010 cycles: 426023 heartbeat IPC: 4.634 cumulative IPC: 3.521 (Simulation time: 00 hr 00 min 06 sec)
Heartbeat CPU 0 instructions: 2000010 cycles: 526467 heartbeat IPC: 4.978 cumulative IPC: 3.799 (Simulation time: 00 hr 00 min 08 sec)
Heartbeat CPU 0 instructions: 2500012 cycles: 628085 heartbeat IPC: 4.92 cumulative IPC: 3.98 (Simulation time: 00 hr 00 min 09 sec)
Heartbeat CPU 0 instructions: 3000018 cycles: 729895 heartbeat IPC: 4.911 cumulative IPC: 4.11 (Simulation time: 00 hr 00 min 11 sec)
[BTB] WARNING: target of return is a lower address than the corresponding call. This is usually a problem with your trace.
Heartbeat CPU 0 instructions: 3500020 cycles: 837957 heartbeat IPC: 4.627 cumulative IPC: 4.177 (Simulation time: 00 hr 00 min 12 sec)
Heartbeat CPU 0 instructions: 4000027 cycles: 938265 heartbeat IPC: 4.985 cumulative IPC: 4.263 (Simulation time: 00 hr 00 min 14 sec)
Heartbeat CPU 0 instructions: 4500028 cycles: 1045091 heartbeat IPC: 4.681 cumulative IPC: 4.306 (Simulation time: 00 hr 00 min 15 sec)
Heartbeat CPU 0 instructions: 5000028 cycles: 1146452 heartbeat IPC: 4.933 cumulative IPC: 4.361 (Simulation time: 00 hr 00 min 17 sec)
[BTB] WARNING: target of return is a lower address than the corresponding call. This is usually a problem with your trace.
[BTB] WARNING: target of return is a lower address than the corresponding call. This is usually a problem with your trace.
Heartbeat CPU 0 instructions: 5500029 cycles: 1252467 heartbeat IPC: 4.716 cumulative IPC: 4.391 (Simulation time: 00 hr 00 min 18 sec)
Heartbeat CPU 0 instructions: 6000034 cycles: 1416762 heartbeat IPC: 3.043 cumulative IPC: 4.235 (Simulation time: 00 hr 00 min 21 sec)
Heartbeat CPU 0 instructions: 6500040 cycles: 1519970 heartbeat IPC: 4.845 cumulative IPC: 4.276 (Simulation time: 00 hr 00 min 22 sec)
Heartbeat CPU 0 instructions: 7000047 cycles: 1621504 heartbeat IPC: 4.925 cumulative IPC: 4.317 (Simulation time: 00 hr 00 min 24 sec)
Heartbeat CPU 0 instructions: 7500052 cycles: 1722280 heartbeat IPC: 4.962 cumulative IPC: 4.355 (Simulation time: 00 hr 00 min 25 sec)
Heartbeat CPU 0 instructions: 8000053 cycles: 1823957 heartbeat IPC: 4.918 cumulative IPC: 4.386 (Simulation time: 00 hr 00 min 27 sec)
Heartbeat CPU 0 instructions: 8500054 cycles: 1924692 heartbeat IPC: 4.964 cumulative IPC: 4.416 (Simulation time: 00 hr 00 min 28 sec)
Heartbeat CPU 0 instructions: 9000059 cycles: 2025329 heartbeat IPC: 4.968 cumulative IPC: 4.444 (Simulation time: 00 hr 00 min 30 sec)
Heartbeat CPU 0 instructions: 9500065 cycles: 2127103 heartbeat IPC: 4.913 cumulative IPC: 4.466 (Simulation time: 00 hr 00 min 31 sec)
Heartbeat CPU 0 instructions: 10000071 cycles: 2228778 heartbeat IPC: 4.918 cumulative IPC: 4.487 (Simulation time: 00 hr 00 min 33 sec)
Heartbeat CPU 0 instructions: 10500074 cycles: 2344438 heartbeat IPC: 4.323 cumulative IPC: 4.479 (Simulation time: 00 hr 00 min 35 sec)
Heartbeat CPU 0 instructions: 11000079 cycles: 2444991 heartbeat IPC: 4.973 cumulative IPC: 4.499 (Simulation time: 00 hr 00 min 36 sec)
Heartbeat CPU 0 instructions: 11500086 cycles: 2548057 heartbeat IPC: 4.851 cumulative IPC: 4.513 (Simulation time: 00 hr 00 min 38 sec)
Heartbeat CPU 0 instructions: 12000088 cycles: 2655857 heartbeat IPC: 4.638 cumulative IPC: 4.518 (Simulation time: 00 hr 00 min 39 sec)
Heartbeat CPU 0 instructions: 12500094 cycles: 2757149 heartbeat IPC: 4.936 cumulative IPC: 4.534 (Simulation time: 00 hr 00 min 41 sec)
Heartbeat CPU 0 instructions: 13000099 cycles: 2858516 heartbeat IPC: 4.933 cumulative IPC: 4.548 (Simulation time: 00 hr 00 min 42 sec)
Heartbeat CPU 0 instructions: 13500100 cycles: 3214483 heartbeat IPC: 1.405 cumulative IPC: 4.2 (Simulation time: 00 hr 00 min 47 sec)
Heartbeat CPU 0 instructions: 14000102 cycles: 3346788 heartbeat IPC: 3.779 cumulative IPC: 4.183 (Simulation time: 00 hr 00 min 49 sec)
Heartbeat CPU 0 instructions: 14500108 cycles: 3465091 heartbeat IPC: 4.226 cumulative IPC: 4.185 (Simulation time: 00 hr 00 min 51 sec)
Heartbeat CPU 0 instructions: 15000110 cycles: 3580343 heartbeat IPC: 4.338 cumulative IPC: 4.19 (Simulation time: 00 hr 00 min 53 sec)
Heartbeat CPU 0 instructions: 15500113 cycles: 3689133 heartbeat IPC: 4.596 cumulative IPC: 4.202 (Simulation time: 00 hr 00 min 55 sec)
Heartbeat CPU 0 instructions: 16000114 cycles: 3799972 heartbeat IPC: 4.511 cumulative IPC: 4.211 (Simulation time: 00 hr 00 min 56 sec)
Heartbeat CPU 0 instructions: 16500115 cycles: 3905145 heartbeat IPC: 4.754 cumulative IPC: 4.225 (Simulation time: 00 hr 00 min 58 sec)
Heartbeat CPU 0 instructions: 17000121 cycles: 4018376 heartbeat IPC: 4.416 cumulative IPC: 4.231 (Simulation time: 00 hr 01 min 00 sec)
Heartbeat CPU 0 instructions: 17500121 cycles: 4144763 heartbeat IPC: 3.956 cumulative IPC: 4.222 (Simulation time: 00 hr 01 min 02 sec)
Heartbeat CPU 0 instructions: 18000122 cycles: 4268995 heartbeat IPC: 4.025 cumulative IPC: 4.216 (Simulation time: 00 hr 01 min 03 sec)
Heartbeat CPU 0 instructions: 18500122 cycles: 4394520 heartbeat IPC: 3.983 cumulative IPC: 4.21 (Simulation time: 00 hr 01 min 05 sec)
Heartbeat CPU 0 instructions: 19000122 cycles: 4497944 heartbeat IPC: 4.834 cumulative IPC: 4.224 (Simulation time: 00 hr 01 min 07 sec)
Heartbeat CPU 0 instructions: 19500126 cycles: 4607889 heartbeat IPC: 4.548 cumulative IPC: 4.232 (Simulation time: 00 hr 01 min 08 sec)
Heartbeat CPU 0 instructions: 20000129 cycles: 4717158 heartbeat IPC: 4.576 cumulative IPC: 4.24 (Simulation time: 00 hr 01 min 10 sec)
Heartbeat CPU 0 instructions: 20500134 cycles: 4921278 heartbeat IPC: 2.45 cumulative IPC: 4.166 (Simulation time: 00 hr 01 min 13 sec)
Heartbeat CPU 0 instructions: 21000136 cycles: 5055930 heartbeat IPC: 3.713 cumulative IPC: 4.154 (Simulation time: 00 hr 01 min 15 sec)
Heartbeat CPU 0 instructions: 21500140 cycles: 5161980 heartbeat IPC: 4.715 cumulative IPC: 4.165 (Simulation time: 00 hr 01 min 17 sec)
Heartbeat CPU 0 instructions: 22000145 cycles: 5265451 heartbeat IPC: 4.832 cumulative IPC: 4.178 (Simulation time: 00 hr 01 min 19 sec)
Heartbeat CPU 0 instructions: 22500151 cycles: 5371842 heartbeat IPC: 4.7 cumulative IPC: 4.189 (Simulation time: 00 hr 01 min 20 sec)
Heartbeat CPU 0 instructions: 23000155 cycles: 5479168 heartbeat IPC: 4.659 cumulative IPC: 4.198 (Simulation time: 00 hr 01 min 22 sec)
Heartbeat CPU 0 instructions: 23500158 cycles: 5602697 heartbeat IPC: 4.048 cumulative IPC: 4.194 (Simulation time: 00 hr 01 min 24 sec)
Heartbeat CPU 0 instructions: 24000158 cycles: 5707280 heartbeat IPC: 4.781 cumulative IPC: 4.205 (Simulation time: 00 hr 01 min 25 sec)
Heartbeat CPU 0 instructions: 24500160 cycles: 5814049 heartbeat IPC: 4.683 cumulative IPC: 4.214 (Simulation time: 00 hr 01 min 27 sec)
Heartbeat CPU 0 instructions: 25000162 cycles: 5917354 heartbeat IPC: 4.84 cumulative IPC: 4.225 (Simulation time: 00 hr 01 min 29 sec)
Heartbeat CPU 0 instructions: 25500163 cycles: 6020831 heartbeat IPC: 4.832 cumulative IPC: 4.235 (Simulation time: 00 hr 01 min 31 sec)
Heartbeat CPU 0 instructions: 26000168 cycles: 6125587 heartbeat IPC: 4.773 cumulative IPC: 4.245 (Simulation time: 00 hr 01 min 32 sec)
Heartbeat CPU 0 instructions: 26500175 cycles: 6230132 heartbeat IPC: 4.783 cumulative IPC: 4.254 (Simulation time: 00 hr 01 min 34 sec)
Heartbeat CPU 0 instructions: 27000179 cycles: 6335868 heartbeat IPC: 4.729 cumulative IPC: 4.261 (Simulation time: 00 hr 01 min 36 sec)
Heartbeat CPU 0 instructions: 27500182 cycles: 6440178 heartbeat IPC: 4.793 cumulative IPC: 4.27 (Simulation time: 00 hr 01 min 38 sec)
Heartbeat CPU 0 instructions: 28000187 cycles: 6545003 heartbeat IPC: 4.77 cumulative IPC: 4.278 (Simulation time: 00 hr 01 min 39 sec)
Heartbeat CPU 0 instructions: 28500189 cycles: 6649139 heartbeat IPC: 4.801 cumulative IPC: 4.286 (Simulation time: 00 hr 01 min 41 sec)
Heartbeat CPU 0 instructions: 29000194 cycles: 6754342 heartbeat IPC: 4.753 cumulative IPC: 4.294 (Simulation time: 00 hr 01 min 43 sec)
Heartbeat CPU 0 instructions: 29500198 cycles: 6859054 heartbeat IPC: 4.775 cumulative IPC: 4.301 (Simulation time: 00 hr 01 min 45 sec)
Heartbeat CPU 0 instructions: 30000199 cycles: 6961535 heartbeat IPC: 4.879 cumulative IPC: 4.309 (Simulation time: 00 hr 01 min 46 sec)
Heartbeat CPU 0 instructions: 30500199 cycles: 7065258 heartbeat IPC: 4.821 cumulative IPC: 4.317 (Simulation time: 00 hr 01 min 48 sec)
Heartbeat CPU 0 instructions: 31000201 cycles: 7213115 heartbeat IPC: 3.382 cumulative IPC: 4.298 (Simulation time: 00 hr 01 min 51 sec)
Heartbeat CPU 0 instructions: 31500205 cycles: 7321257 heartbeat IPC: 4.624 cumulative IPC: 4.303 (Simulation time: 00 hr 01 min 53 sec)
Heartbeat CPU 0 instructions: 32000205 cycles: 7427683 heartbeat IPC: 4.698 cumulative IPC: 4.308 (Simulation time: 00 hr 01 min 54 sec)
Heartbeat CPU 0 instructions: 32500209 cycles: 7530871 heartbeat IPC: 4.846 cumulative IPC: 4.316 (Simulation time: 00 hr 01 min 56 sec)
Heartbeat CPU 0 instructions: 33000210 cycles: 7634492 heartbeat IPC: 4.825 cumulative IPC: 4.323 (Simulation time: 00 hr 01 min 58 sec)
Heartbeat CPU 0 instructions: 33500216 cycles: 7743854 heartbeat IPC: 4.572 cumulative IPC: 4.326 (Simulation time: 00 hr 02 min 00 sec)
Heartbeat CPU 0 instructions: 34000218 cycles: 7845132 heartbeat IPC: 4.937 cumulative IPC: 4.334 (Simulation time: 00 hr 02 min 01 sec)
Heartbeat CPU 0 instructions: 34500222 cycles: 7946659 heartbeat IPC: 4.925 cumulative IPC: 4.341 (Simulation time: 00 hr 02 min 03 sec)
Heartbeat CPU 0 instructions: 35000225 cycles: 8047143 heartbeat IPC: 4.976 cumulative IPC: 4.349 (Simulation time: 00 hr 02 min 04 sec)
Heartbeat CPU 0 instructions: 35500225 cycles: 8148442 heartbeat IPC: 4.936 cumulative IPC: 4.357 (Simulation time: 00 hr 02 min 06 sec)
Heartbeat CPU 0 instructions: 36000227 cycles: 8250027 heartbeat IPC: 4.922 cumulative IPC: 4.364 (Simulation time: 00 hr 02 min 07 sec)
Heartbeat CPU 0 instructions: 36500234 cycles: 8350724 heartbeat IPC: 4.965 cumulative IPC: 4.371 (Simulation time: 00 hr 02 min 09 sec)
Heartbeat CPU 0 instructions: 37000240 cycles: 8452142 heartbeat IPC: 4.93 cumulative IPC: 4.378 (Simulation time: 00 hr 02 min 10 sec)
Heartbeat CPU 0 instructions: 37500242 cycles: 8553977 heartbeat IPC: 4.91 cumulative IPC: 4.384 (Simulation time: 00 hr 02 min 12 sec)
Heartbeat CPU 0 instructions: 38000244 cycles: 8654771 heartbeat IPC: 4.961 cumulative IPC: 4.391 (Simulation time: 00 hr 02 min 13 sec)
Heartbeat CPU 0 instructions: 38500245 cycles: 8756439 heartbeat IPC: 4.918 cumulative IPC: 4.397 (Simulation time: 00 hr 02 min 15 sec)
Heartbeat CPU 0 instructions: 39000248 cycles: 8857062 heartbeat IPC: 4.969 cumulative IPC: 4.403 (Simulation time: 00 hr 02 min 16 sec)
Heartbeat CPU 0 instructions: 39500254 cycles: 8957770 heartbeat IPC: 4.965 cumulative IPC: 4.41 (Simulation time: 00 hr 02 min 18 sec)
Heartbeat CPU 0 instructions: 40000254 cycles: 9059309 heartbeat IPC: 4.924 cumulative IPC: 4.415 (Simulation time: 00 hr 02 min 20 sec)
Heartbeat CPU 0 instructions: 40500258 cycles: 9160890 heartbeat IPC: 4.922 cumulative IPC: 4.421 (Simulation time: 00 hr 02 min 21 sec)
Heartbeat CPU 0 instructions: 41000261 cycles: 9283683 heartbeat IPC: 4.072 cumulative IPC: 4.416 (Simulation time: 00 hr 02 min 23 sec)
Heartbeat CPU 0 instructions: 41500266 cycles: 9390311 heartbeat IPC: 4.689 cumulative IPC: 4.419 (Simulation time: 00 hr 02 min 25 sec)
Heartbeat CPU 0 instructions: 42000271 cycles: 9492200 heartbeat IPC: 4.907 cumulative IPC: 4.425 (Simulation time: 00 hr 02 min 26 sec)
Heartbeat CPU 0 instructions: 42500272 cycles: 9593130 heartbeat IPC: 4.954 cumulative IPC: 4.43 (Simulation time: 00 hr 02 min 28 sec)
Heartbeat CPU 0 instructions: 43000275 cycles: 9693506 heartbeat IPC: 4.981 cumulative IPC: 4.436 (Simulation time: 00 hr 02 min 29 sec)
Heartbeat CPU 0 instructions: 43500279 cycles: 9793504 heartbeat IPC: 5 cumulative IPC: 4.442 (Simulation time: 00 hr 02 min 31 sec)
Heartbeat CPU 0 instructions: 44000286 cycles: 9893526 heartbeat IPC: 4.999 cumulative IPC: 4.447 (Simulation time: 00 hr 02 min 32 sec)
Heartbeat CPU 0 instructions: 44500288 cycles: 9993896 heartbeat IPC: 4.982 cumulative IPC: 4.453 (Simulation time: 00 hr 02 min 34 sec)
Heartbeat CPU 0 instructions: 45000295 cycles: 10094846 heartbeat IPC: 4.953 cumulative IPC: 4.458 (Simulation time: 00 hr 02 min 35 sec)
Heartbeat CPU 0 instructions: 45500301 cycles: 10196454 heartbeat IPC: 4.921 cumulative IPC: 4.462 (Simulation time: 00 hr 02 min 37 sec)
Heartbeat CPU 0 instructions: 46000306 cycles: 10298162 heartbeat IPC: 4.916 cumulative IPC: 4.467 (Simulation time: 00 hr 02 min 39 sec)
Heartbeat CPU 0 instructions: 46500307 cycles: 10399146 heartbeat IPC: 4.951 cumulative IPC: 4.472 (Simulation time: 00 hr 02 min 40 sec)
Heartbeat CPU 0 instructions: 47000311 cycles: 10500978 heartbeat IPC: 4.91 cumulative IPC: 4.476 (Simulation time: 00 hr 02 min 42 sec)
Heartbeat CPU 0 instructions: 47500317 cycles: 10602233 heartbeat IPC: 4.938 cumulative IPC: 4.48 (Simulation time: 00 hr 02 min 43 sec)
Heartbeat CPU 0 instructions: 48000322 cycles: 10702833 heartbeat IPC: 4.97 cumulative IPC: 4.485 (Simulation time: 00 hr 02 min 45 sec)
Heartbeat CPU 0 instructions: 48500325 cycles: 10805060 heartbeat IPC: 4.891 cumulative IPC: 4.489 (Simulation time: 00 hr 02 min 46 sec)
Heartbeat CPU 0 instructions: 49000327 cycles: 10906189 heartbeat IPC: 4.944 cumulative IPC: 4.493 (Simulation time: 00 hr 02 min 48 sec)
Heartbeat CPU 0 instructions: 49500327 cycles: 11007268 heartbeat IPC: 4.947 cumulative IPC: 4.497 (Simulation time: 00 hr 02 min 49 sec)
Warmup finished CPU 0 instructions: 50000001 cycles: 11107762 cumulative IPC: 4.501 (Simulation time: 00 hr 02 min 51 sec)
Warmup complete CPU 0 instructions: 50000001 cycles: 11107762 cumulative IPC: 4.501 (Simulation time: 00 hr 02 min 51 sec)
Heartbeat CPU 0 instructions: 50000327 cycles: 11107984 heartbeat IPC: 4.964 cumulative IPC: 1.468 (Simulation time: 00 hr 02 min 51 sec)
Heartbeat CPU 0 instructions: 50500328 cycles: 11400942 heartbeat IPC: 1.707 cumulative IPC: 1.707 (Simulation time: 00 hr 02 min 54 sec)
Heartbeat CPU 0 instructions: 51000330 cycles: 11670362 heartbeat IPC: 1.856 cumulative IPC: 1.778 (Simulation time: 00 hr 02 min 57 sec)
Heartbeat CPU 0 instructions: 51500333 cycles: 12129827 heartbeat IPC: 1.088 cumulative IPC: 1.468 (Simulation time: 00 hr 03 min 01 sec)
Heartbeat CPU 0 instructions: 52000337 cycles: 12414214 heartbeat IPC: 1.758 cumulative IPC: 1.531 (Simulation time: 00 hr 03 min 03 sec)
Heartbeat CPU 0 instructions: 52500337 cycles: 12680776 heartbeat IPC: 1.876 cumulative IPC: 1.59 (Simulation time: 00 hr 03 min 06 sec)
Heartbeat CPU 0 instructions: 53000339 cycles: 12985271 heartbeat IPC: 1.642 cumulative IPC: 1.598 (Simulation time: 00 hr 03 min 10 sec)
Heartbeat CPU 0 instructions: 53500339 cycles: 13277617 heartbeat IPC: 1.71 cumulative IPC: 1.613 (Simulation time: 00 hr 03 min 13 sec)
Heartbeat CPU 0 instructions: 54000339 cycles: 13576603 heartbeat IPC: 1.672 cumulative IPC: 1.62 (Simulation time: 00 hr 03 min 15 sec)
Heartbeat CPU 0 instructions: 54500342 cycles: 13840790 heartbeat IPC: 1.893 cumulative IPC: 1.647 (Simulation time: 00 hr 03 min 18 sec)
Heartbeat CPU 0 instructions: 55000342 cycles: 14169059 heartbeat IPC: 1.523 cumulative IPC: 1.633 (Simulation time: 00 hr 03 min 22 sec)
Heartbeat CPU 0 instructions: 55500344 cycles: 14439077 heartbeat IPC: 1.852 cumulative IPC: 1.651 (Simulation time: 00 hr 03 min 25 sec)
Heartbeat CPU 0 instructions: 56000349 cycles: 15085009 heartbeat IPC: 0.7741 cumulative IPC: 1.509 (Simulation time: 00 hr 03 min 30 sec)
Heartbeat CPU 0 instructions: 56500352 cycles: 15387056 heartbeat IPC: 1.655 cumulative IPC: 1.519 (Simulation time: 00 hr 03 min 33 sec)
Heartbeat CPU 0 instructions: 57000354 cycles: 15757891 heartbeat IPC: 1.348 cumulative IPC: 1.505 (Simulation time: 00 hr 03 min 38 sec)
Heartbeat CPU 0 instructions: 57500361 cycles: 15978803 heartbeat IPC: 2.263 cumulative IPC: 1.54 (Simulation time: 00 hr 03 min 42 sec)
Heartbeat CPU 0 instructions: 58000362 cycles: 16201030 heartbeat IPC: 2.25 cumulative IPC: 1.571 (Simulation time: 00 hr 03 min 45 sec)
Heartbeat CPU 0 instructions: 58500363 cycles: 16427145 heartbeat IPC: 2.211 cumulative IPC: 1.598 (Simulation time: 00 hr 03 min 48 sec)
Heartbeat CPU 0 instructions: 59000368 cycles: 16649150 heartbeat IPC: 2.252 cumulative IPC: 1.624 (Simulation time: 00 hr 03 min 51 sec)
Heartbeat CPU 0 instructions: 59500369 cycles: 16906538 heartbeat IPC: 1.943 cumulative IPC: 1.638 (Simulation time: 00 hr 03 min 54 sec)
Heartbeat CPU 0 instructions: 60000375 cycles: 17135063 heartbeat IPC: 2.188 cumulative IPC: 1.659 (Simulation time: 00 hr 03 min 57 sec)
Heartbeat CPU 0 instructions: 60500379 cycles: 17381171 heartbeat IPC: 2.032 cumulative IPC: 1.674 (Simulation time: 00 hr 04 min 01 sec)
Heartbeat CPU 0 instructions: 61000385 cycles: 17664935 heartbeat IPC: 1.762 cumulative IPC: 1.678 (Simulation time: 00 hr 04 min 04 sec)
Heartbeat CPU 0 instructions: 61500385 cycles: 18745682 heartbeat IPC: 0.4626 cumulative IPC: 1.506 (Simulation time: 00 hr 04 min 12 sec)
Heartbeat CPU 0 instructions: 62000386 cycles: 19074114 heartbeat IPC: 1.522 cumulative IPC: 1.506 (Simulation time: 00 hr 04 min 15 sec)
Heartbeat CPU 0 instructions: 62500386 cycles: 19374554 heartbeat IPC: 1.664 cumulative IPC: 1.512 (Simulation time: 00 hr 04 min 18 sec)
Heartbeat CPU 0 instructions: 63000389 cycles: 19661826 heartbeat IPC: 1.741 cumulative IPC: 1.52 (Simulation time: 00 hr 04 min 22 sec)
Heartbeat CPU 0 instructions: 63500392 cycles: 19888717 heartbeat IPC: 2.204 cumulative IPC: 1.537 (Simulation time: 00 hr 04 min 25 sec)
Heartbeat CPU 0 instructions: 64000396 cycles: 20149954 heartbeat IPC: 1.914 cumulative IPC: 1.548 (Simulation time: 00 hr 04 min 29 sec)
Heartbeat CPU 0 instructions: 64500397 cycles: 20381912 heartbeat IPC: 2.156 cumulative IPC: 1.564 (Simulation time: 00 hr 04 min 32 sec)
Heartbeat CPU 0 instructions: 65000399 cycles: 20840331 heartbeat IPC: 1.091 cumulative IPC: 1.541 (Simulation time: 00 hr 04 min 38 sec)
Heartbeat CPU 0 instructions: 65500402 cycles: 21064246 heartbeat IPC: 2.233 cumulative IPC: 1.557 (Simulation time: 00 hr 04 min 41 sec)
Heartbeat CPU 0 instructions: 66000408 cycles: 21292876 heartbeat IPC: 2.187 cumulative IPC: 1.571 (Simulation time: 00 hr 04 min 44 sec)
Heartbeat CPU 0 instructions: 66500414 cycles: 21514442 heartbeat IPC: 2.257 cumulative IPC: 1.586 (Simulation time: 00 hr 04 min 47 sec)
Heartbeat CPU 0 instructions: 67000418 cycles: 21739852 heartbeat IPC: 2.218 cumulative IPC: 1.599 (Simulation time: 00 hr 04 min 50 sec)
Heartbeat CPU 0 instructions: 67500418 cycles: 21961455 heartbeat IPC: 2.256 cumulative IPC: 1.612 (Simulation time: 00 hr 04 min 53 sec)
Heartbeat CPU 0 instructions: 68000419 cycles: 22183269 heartbeat IPC: 2.254 cumulative IPC: 1.625 (Simulation time: 00 hr 04 min 57 sec)
Heartbeat CPU 0 instructions: 68500421 cycles: 22409125 heartbeat IPC: 2.214 cumulative IPC: 1.637 (Simulation time: 00 hr 05 min 00 sec)
Heartbeat CPU 0 instructions: 69000425 cycles: 22631033 heartbeat IPC: 2.253 cumulative IPC: 1.649 (Simulation time: 00 hr 05 min 03 sec)
Heartbeat CPU 0 instructions: 69500427 cycles: 22947939 heartbeat IPC: 1.578 cumulative IPC: 1.647 (Simulation time: 00 hr 05 min 07 sec)
Heartbeat CPU 0 instructions: 70000428 cycles: 23175988 heartbeat IPC: 2.193 cumulative IPC: 1.657 (Simulation time: 00 hr 05 min 10 sec)
Heartbeat CPU 0 instructions: 70500434 cycles: 23398427 heartbeat IPC: 2.248 cumulative IPC: 1.668 (Simulation time: 00 hr 05 min 13 sec)
Heartbeat CPU 0 instructions: 71000437 cycles: 23621130 heartbeat IPC: 2.245 cumulative IPC: 1.678 (Simulation time: 00 hr 05 min 16 sec)
Heartbeat CPU 0 instructions: 71500437 cycles: 24121193 heartbeat IPC: 0.9999 cumulative IPC: 1.652 (Simulation time: 00 hr 05 min 21 sec)
Heartbeat CPU 0 instructions: 72000440 cycles: 25247042 heartbeat IPC: 0.4441 cumulative IPC: 1.556 (Simulation time: 00 hr 05 min 29 sec)
Heartbeat CPU 0 instructions: 72500441 cycles: 25476600 heartbeat IPC: 2.178 cumulative IPC: 1.566 (Simulation time: 00 hr 05 min 32 sec)
Heartbeat CPU 0 instructions: 73000441 cycles: 25767284 heartbeat IPC: 1.72 cumulative IPC: 1.569 (Simulation time: 00 hr 05 min 36 sec)
Heartbeat CPU 0 instructions: 73500445 cycles: 25997195 heartbeat IPC: 2.175 cumulative IPC: 1.578 (Simulation time: 00 hr 05 min 39 sec)
Heartbeat CPU 0 instructions: 74000445 cycles: 26229632 heartbeat IPC: 2.151 cumulative IPC: 1.587 (Simulation time: 00 hr 05 min 42 sec)
Heartbeat CPU 0 instructions: 74500448 cycles: 26629733 heartbeat IPC: 1.25 cumulative IPC: 1.578 (Simulation time: 00 hr 05 min 47 sec)
Heartbeat CPU 0 instructions: 75000453 cycles: 26924467 heartbeat IPC: 1.696 cumulative IPC: 1.581 (Simulation time: 00 hr 05 min 50 sec)
Heartbeat CPU 0 instructions: 75500455 cycles: 27188803 heartbeat IPC: 1.892 cumulative IPC: 1.586 (Simulation time: 00 hr 05 min 53 sec)
Heartbeat CPU 0 instructions: 76000458 cycles: 27509736 heartbeat IPC: 1.558 cumulative IPC: 1.585 (Simulation time: 00 hr 05 min 56 sec)
Heartbeat CPU 0 instructions: 76500460 cycles: 28162823 heartbeat IPC: 0.7656 cumulative IPC: 1.554 (Simulation time: 00 hr 06 min 05 sec)
Heartbeat CPU 0 instructions: 77000460 cycles: 28438640 heartbeat IPC: 1.813 cumulative IPC: 1.558 (Simulation time: 00 hr 06 min 08 sec)
Heartbeat CPU 0 instructions: 77500460 cycles: 28824731 heartbeat IPC: 1.295 cumulative IPC: 1.552 (Simulation time: 00 hr 06 min 12 sec)
Heartbeat CPU 0 instructions: 78000460 cycles: 29195963 heartbeat IPC: 1.347 cumulative IPC: 1.548 (Simulation time: 00 hr 06 min 16 sec)
Heartbeat CPU 0 instructions: 78500460 cycles: 29514657 heartbeat IPC: 1.569 cumulative IPC: 1.548 (Simulation time: 00 hr 06 min 19 sec)
Heartbeat CPU 0 instructions: 79000462 cycles: 29785107 heartbeat IPC: 1.849 cumulative IPC: 1.553 (Simulation time: 00 hr 06 min 22 sec)
Heartbeat CPU 0 instructions: 79500466 cycles: 30065732 heartbeat IPC: 1.782 cumulative IPC: 1.556 (Simulation time: 00 hr 06 min 25 sec)
Heartbeat CPU 0 instructions: 80000469 cycles: 30367733 heartbeat IPC: 1.656 cumulative IPC: 1.558 (Simulation time: 00 hr 06 min 27 sec)
Heartbeat CPU 0 instructions: 80500469 cycles: 31284043 heartbeat IPC: 0.5457 cumulative IPC: 1.512 (Simulation time: 00 hr 06 min 38 sec)
Heartbeat CPU 0 instructions: 81000469 cycles: 31581376 heartbeat IPC: 1.682 cumulative IPC: 1.514 (Simulation time: 00 hr 06 min 41 sec)
Heartbeat CPU 0 instructions: 81500472 cycles: 31863877 heartbeat IPC: 1.77 cumulative IPC: 1.518 (Simulation time: 00 hr 06 min 43 sec)
Heartbeat CPU 0 instructions: 82000475 cycles: 32725219 heartbeat IPC: 0.5805 cumulative IPC: 1.48 (Simulation time: 00 hr 06 min 50 sec)
Heartbeat CPU 0 instructions: 82500475 cycles: 33086481 heartbeat IPC: 1.384 cumulative IPC: 1.479 (Simulation time: 00 hr 06 min 53 sec)
Heartbeat CPU 0 instructions: 83000476 cycles: 33362932 heartbeat IPC: 1.809 cumulative IPC: 1.483 (Simulation time: 00 hr 06 min 56 sec)
Heartbeat CPU 0 instructions: 83500476 cycles: 33638281 heartbeat IPC: 1.816 cumulative IPC: 1.487 (Simulation time: 00 hr 06 min 59 sec)
Heartbeat CPU 0 instructions: 84000478 cycles: 33938230 heartbeat IPC: 1.667 cumulative IPC: 1.489 (Simulation time: 00 hr 07 min 02 sec)
Heartbeat CPU 0 instructions: 84500478 cycles: 34206810 heartbeat IPC: 1.862 cumulative IPC: 1.494 (Simulation time: 00 hr 07 min 05 sec)
Heartbeat CPU 0 instructions: 85000478 cycles: 34517728 heartbeat IPC: 1.608 cumulative IPC: 1.495 (Simulation time: 00 hr 07 min 07 sec)
Heartbeat CPU 0 instructions: 85500478 cycles: 34794358 heartbeat IPC: 1.807 cumulative IPC: 1.499 (Simulation time: 00 hr 07 min 10 sec)
Heartbeat CPU 0 instructions: 86000481 cycles: 35088098 heartbeat IPC: 1.702 cumulative IPC: 1.501 (Simulation time: 00 hr 07 min 13 sec)
Heartbeat CPU 0 instructions: 86500487 cycles: 35377005 heartbeat IPC: 1.731 cumulative IPC: 1.504 (Simulation time: 00 hr 07 min 16 sec)
Heartbeat CPU 0 instructions: 87000490 cycles: 35661072 heartbeat IPC: 1.76 cumulative IPC: 1.507 (Simulation time: 00 hr 07 min 19 sec)
Heartbeat CPU 0 instructions: 87500491 cycles: 35949134 heartbeat IPC: 1.736 cumulative IPC: 1.51 (Simulation time: 00 hr 07 min 22 sec)
Heartbeat CPU 0 instructions: 88000494 cycles: 36289122 heartbeat IPC: 1.471 cumulative IPC: 1.509 (Simulation time: 00 hr 07 min 26 sec)
Heartbeat CPU 0 instructions: 88500494 cycles: 36544078 heartbeat IPC: 1.961 cumulative IPC: 1.514 (Simulation time: 00 hr 07 min 28 sec)
Heartbeat CPU 0 instructions: 89000494 cycles: 36837831 heartbeat IPC: 1.702 cumulative IPC: 1.516 (Simulation time: 00 hr 07 min 31 sec)
Heartbeat CPU 0 instructions: 89500494 cycles: 37206994 heartbeat IPC: 1.354 cumulative IPC: 1.513 (Simulation time: 00 hr 07 min 35 sec)
Heartbeat CPU 0 instructions: 90000494 cycles: 37439983 heartbeat IPC: 2.146 cumulative IPC: 1.519 (Simulation time: 00 hr 07 min 39 sec)
Heartbeat CPU 0 instructions: 90500494 cycles: 37664646 heartbeat IPC: 2.226 cumulative IPC: 1.525 (Simulation time: 00 hr 07 min 42 sec)
Heartbeat CPU 0 instructions: 91000494 cycles: 37890069 heartbeat IPC: 2.218 cumulative IPC: 1.531 (Simulation time: 00 hr 07 min 45 sec)
Heartbeat CPU 0 instructions: 91500494 cycles: 38112161 heartbeat IPC: 2.251 cumulative IPC: 1.537 (Simulation time: 00 hr 07 min 48 sec)
Heartbeat CPU 0 instructions: 92000495 cycles: 38405786 heartbeat IPC: 1.703 cumulative IPC: 1.539 (Simulation time: 00 hr 07 min 51 sec)
Heartbeat CPU 0 instructions: 92500501 cycles: 39286961 heartbeat IPC: 0.5674 cumulative IPC: 1.508 (Simulation time: 00 hr 07 min 58 sec)
Heartbeat CPU 0 instructions: 93000503 cycles: 39614044 heartbeat IPC: 1.529 cumulative IPC: 1.508 (Simulation time: 00 hr 08 min 02 sec)
Heartbeat CPU 0 instructions: 93500508 cycles: 39917200 heartbeat IPC: 1.649 cumulative IPC: 1.51 (Simulation time: 00 hr 08 min 05 sec)
Heartbeat CPU 0 instructions: 94000510 cycles: 40234817 heartbeat IPC: 1.574 cumulative IPC: 1.511 (Simulation time: 00 hr 08 min 08 sec)
Heartbeat CPU 0 instructions: 94500511 cycles: 40937799 heartbeat IPC: 0.7113 cumulative IPC: 1.492 (Simulation time: 00 hr 08 min 17 sec)
Heartbeat CPU 0 instructions: 95000511 cycles: 41258120 heartbeat IPC: 1.561 cumulative IPC: 1.493 (Simulation time: 00 hr 08 min 20 sec)
Heartbeat CPU 0 instructions: 95500514 cycles: 41546545 heartbeat IPC: 1.734 cumulative IPC: 1.495 (Simulation time: 00 hr 08 min 23 sec)
Heartbeat CPU 0 instructions: 96000516 cycles: 41859741 heartbeat IPC: 1.596 cumulative IPC: 1.496 (Simulation time: 00 hr 08 min 26 sec)
Heartbeat CPU 0 instructions: 96500520 cycles: 42169443 heartbeat IPC: 1.614 cumulative IPC: 1.497 (Simulation time: 00 hr 08 min 30 sec)
Heartbeat CPU 0 instructions: 97000522 cycles: 42472707 heartbeat IPC: 1.649 cumulative IPC: 1.499 (Simulation time: 00 hr 08 min 33 sec)
Heartbeat CPU 0 instructions: 97500524 cycles: 42765600 heartbeat IPC: 1.707 cumulative IPC: 1.5 (Simulation time: 00 hr 08 min 36 sec)
Heartbeat CPU 0 instructions: 98000528 cycles: 43068655 heartbeat IPC: 1.65 cumulative IPC: 1.502 (Simulation time: 00 hr 08 min 39 sec)
Heartbeat CPU 0 instructions: 98500528 cycles: 43364904 heartbeat IPC: 1.688 cumulative IPC: 1.504 (Simulation time: 00 hr 08 min 42 sec)
Heartbeat CPU 0 instructions: 99000530 cycles: 43678887 heartbeat IPC: 1.592 cumulative IPC: 1.504 (Simulation time: 00 hr 08 min 45 sec)
Heartbeat CPU 0 instructions: 99500534 cycles: 43941060 heartbeat IPC: 1.907 cumulative IPC: 1.508 (Simulation time: 00 hr 08 min 48 sec)
Heartbeat CPU 0 instructions: 100000539 cycles: 44203167 heartbeat IPC: 1.908 cumulative IPC: 1.511 (Simulation time: 00 hr 08 min 51 sec)
Heartbeat CPU 0 instructions: 100500540 cycles: 44518720 heartbeat IPC: 1.585 cumulative IPC: 1.511 (Simulation time: 00 hr 08 min 54 sec)
Heartbeat CPU 0 instructions: 101000546 cycles: 44821027 heartbeat IPC: 1.654 cumulative IPC: 1.513 (Simulation time: 00 hr 08 min 57 sec)
Heartbeat CPU 0 instructions: 101500547 cycles: 45098775 heartbeat IPC: 1.8 cumulative IPC: 1.515 (Simulation time: 00 hr 09 min 00 sec)
Heartbeat CPU 0 instructions: 102000548 cycles: 45407703 heartbeat IPC: 1.619 cumulative IPC: 1.516 (Simulation time: 00 hr 09 min 03 sec)
Heartbeat CPU 0 instructions: 102500554 cycles: 45911384 heartbeat IPC: 0.9927 cumulative IPC: 1.508 (Simulation time: 00 hr 09 min 08 sec)
Heartbeat CPU 0 instructions: 103000554 cycles: 46237579 heartbeat IPC: 1.533 cumulative IPC: 1.509 (Simulation time: 00 hr 09 min 12 sec)
Heartbeat CPU 0 instructions: 103500555 cycles: 46492548 heartbeat IPC: 1.961 cumulative IPC: 1.512 (Simulation time: 00 hr 09 min 15 sec)
Heartbeat CPU 0 instructions: 104000560 cycles: 47331979 heartbeat IPC: 0.5956 cumulative IPC: 1.491 (Simulation time: 00 hr 09 min 26 sec)
Heartbeat CPU 0 instructions: 104500566 cycles: 47514663 heartbeat IPC: 2.737 cumulative IPC: 1.497 (Simulation time: 00 hr 09 min 28 sec)
Heartbeat CPU 0 instructions: 105000566 cycles: 47688372 heartbeat IPC: 2.878 cumulative IPC: 1.504 (Simulation time: 00 hr 09 min 30 sec)
Heartbeat CPU 0 instructions: 105500570 cycles: 47866300 heartbeat IPC: 2.81 cumulative IPC: 1.51 (Simulation time: 00 hr 09 min 33 sec)
Heartbeat CPU 0 instructions: 106000573 cycles: 48048712 heartbeat IPC: 2.741 cumulative IPC: 1.516 (Simulation time: 00 hr 09 min 35 sec)
Heartbeat CPU 0 instructions: 106500577 cycles: 48230017 heartbeat IPC: 2.758 cumulative IPC: 1.522 (Simulation time: 00 hr 09 min 37 sec)
Heartbeat CPU 0 instructions: 107000577 cycles: 48409235 heartbeat IPC: 2.79 cumulative IPC: 1.528 (Simulation time: 00 hr 09 min 39 sec)
Heartbeat CPU 0 instructions: 107500579 cycles: 48587001 heartbeat IPC: 2.813 cumulative IPC: 1.534 (Simulation time: 00 hr 09 min 41 sec)
Heartbeat CPU 0 instructions: 108000582 cycles: 48754721 heartbeat IPC: 2.981 cumulative IPC: 1.541 (Simulation time: 00 hr 09 min 43 sec)
Heartbeat CPU 0 instructions: 108500586 cycles: 48952082 heartbeat IPC: 2.533 cumulative IPC: 1.546 (Simulation time: 00 hr 09 min 46 sec)
Heartbeat CPU 0 instructions: 109000592 cycles: 49180822 heartbeat IPC: 2.186 cumulative IPC: 1.55 (Simulation time: 00 hr 09 min 48 sec)
Heartbeat CPU 0 instructions: 109500598 cycles: 49349068 heartbeat IPC: 2.972 cumulative IPC: 1.556 (Simulation time: 00 hr 09 min 50 sec)
Heartbeat CPU 0 instructions: 110000602 cycles: 49517608 heartbeat IPC: 2.967 cumulative IPC: 1.562 (Simulation time: 00 hr 09 min 53 sec)
Heartbeat CPU 0 instructions: 110500602 cycles: 49692757 heartbeat IPC: 2.855 cumulative IPC: 1.568 (Simulation time: 00 hr 09 min 55 sec)
Heartbeat CPU 0 instructions: 111000609 cycles: 49870636 heartbeat IPC: 2.811 cumulative IPC: 1.574 (Simulation time: 00 hr 09 min 57 sec)
Heartbeat CPU 0 instructions: 111500613 cycles: 50047965 heartbeat IPC: 2.82 cumulative IPC: 1.579 (Simulation time: 00 hr 09 min 59 sec)
Heartbeat CPU 0 instructions: 112000614 cycles: 50218916 heartbeat IPC: 2.925 cumulative IPC: 1.585 (Simulation time: 00 hr 10 min 01 sec)
Heartbeat CPU 0 instructions: 112500614 cycles: 51468058 heartbeat IPC: 0.4003 cumulative IPC: 1.549 (Simulation time: 00 hr 10 min 13 sec)
Heartbeat CPU 0 instructions: 113000615 cycles: 52297476 heartbeat IPC: 0.6028 cumulative IPC: 1.53 (Simulation time: 00 hr 10 min 20 sec)
Heartbeat CPU 0 instructions: 113500619 cycles: 52646574 heartbeat IPC: 1.432 cumulative IPC: 1.529 (Simulation time: 00 hr 10 min 23 sec)
Heartbeat CPU 0 instructions: 114000622 cycles: 52944528 heartbeat IPC: 1.678 cumulative IPC: 1.53 (Simulation time: 00 hr 10 min 26 sec)
Heartbeat CPU 0 instructions: 114500625 cycles: 53363044 heartbeat IPC: 1.195 cumulative IPC: 1.526 (Simulation time: 00 hr 10 min 30 sec)
Heartbeat CPU 0 instructions: 115000627 cycles: 53571133 heartbeat IPC: 2.403 cumulative IPC: 1.531 (Simulation time: 00 hr 10 min 33 sec)
Heartbeat CPU 0 instructions: 115500634 cycles: 53761056 heartbeat IPC: 2.633 cumulative IPC: 1.536 (Simulation time: 00 hr 10 min 35 sec)
Heartbeat CPU 0 instructions: 116000638 cycles: 53950945 heartbeat IPC: 2.633 cumulative IPC: 1.541 (Simulation time: 00 hr 10 min 37 sec)
Heartbeat CPU 0 instructions: 116500639 cycles: 54118447 heartbeat IPC: 2.985 cumulative IPC: 1.546 (Simulation time: 00 hr 10 min 39 sec)
Heartbeat CPU 0 instructions: 117000641 cycles: 54276853 heartbeat IPC: 3.156 cumulative IPC: 1.552 (Simulation time: 00 hr 10 min 41 sec)
Heartbeat CPU 0 instructions: 117500645 cycles: 54455322 heartbeat IPC: 2.802 cumulative IPC: 1.557 (Simulation time: 00 hr 10 min 43 sec)
Heartbeat CPU 0 instructions: 118000646 cycles: 54624503 heartbeat IPC: 2.955 cumulative IPC: 1.563 (Simulation time: 00 hr 10 min 46 sec)
Heartbeat CPU 0 instructions: 118500649 cycles: 54797883 heartbeat IPC: 2.884 cumulative IPC: 1.568 (Simulation time: 00 hr 10 min 48 sec)
Heartbeat CPU 0 instructions: 119000651 cycles: 54974155 heartbeat IPC: 2.837 cumulative IPC: 1.573 (Simulation time: 00 hr 10 min 50 sec)
Heartbeat CPU 0 instructions: 119500651 cycles: 55147547 heartbeat IPC: 2.884 cumulative IPC: 1.578 (Simulation time: 00 hr 10 min 52 sec)
Heartbeat CPU 0 instructions: 120000651 cycles: 55308673 heartbeat IPC: 3.103 cumulative IPC: 1.584 (Simulation time: 00 hr 10 min 54 sec)
Heartbeat CPU 0 instructions: 120500658 cycles: 55485857 heartbeat IPC: 2.822 cumulative IPC: 1.589 (Simulation time: 00 hr 10 min 56 sec)
Heartbeat CPU 0 instructions: 121000660 cycles: 55662682 heartbeat IPC: 2.828 cumulative IPC: 1.594 (Simulation time: 00 hr 10 min 58 sec)
Heartbeat CPU 0 instructions: 121500661 cycles: 55859011 heartbeat IPC: 2.547 cumulative IPC: 1.598 (Simulation time: 00 hr 11 min 01 sec)
Heartbeat CPU 0 instructions: 122000662 cycles: 56051211 heartbeat IPC: 2.601 cumulative IPC: 1.602 (Simulation time: 00 hr 11 min 03 sec)
Heartbeat CPU 0 instructions: 122500665 cycles: 56240850 heartbeat IPC: 2.637 cumulative IPC: 1.606 (Simulation time: 00 hr 11 min 05 sec)
Heartbeat CPU 0 instructions: 123000667 cycles: 56422668 heartbeat IPC: 2.75 cumulative IPC: 1.611 (Simulation time: 00 hr 11 min 08 sec)
Heartbeat CPU 0 instructions: 123500669 cycles: 56609157 heartbeat IPC: 2.681 cumulative IPC: 1.615 (Simulation time: 00 hr 11 min 10 sec)
Heartbeat CPU 0 instructions: 124000676 cycles: 56794566 heartbeat IPC: 2.697 cumulative IPC: 1.62 (Simulation time: 00 hr 11 min 12 sec)
Heartbeat CPU 0 instructions: 124500678 cycles: 57743126 heartbeat IPC: 0.5271 cumulative IPC: 1.598 (Simulation time: 00 hr 11 min 20 sec)
Heartbeat CPU 0 instructions: 125000685 cycles: 58070691 heartbeat IPC: 1.526 cumulative IPC: 1.597 (Simulation time: 00 hr 11 min 23 sec)
Heartbeat CPU 0 instructions: 125500688 cycles: 58263761 heartbeat IPC: 2.59 cumulative IPC: 1.601 (Simulation time: 00 hr 11 min 25 sec)
Heartbeat CPU 0 instructions: 126000690 cycles: 58452146 heartbeat IPC: 2.654 cumulative IPC: 1.605 (Simulation time: 00 hr 11 min 28 sec)
Heartbeat CPU 0 instructions: 126500696 cycles: 58630628 heartbeat IPC: 2.801 cumulative IPC: 1.61 (Simulation time: 00 hr 11 min 30 sec)
Heartbeat CPU 0 instructions: 127000697 cycles: 58810428 heartbeat IPC: 2.781 cumulative IPC: 1.614 (Simulation time: 00 hr 11 min 32 sec)
Heartbeat CPU 0 instructions: 127500700 cycles: 58997506 heartbeat IPC: 2.673 cumulative IPC: 1.618 (Simulation time: 00 hr 11 min 35 sec)
Heartbeat CPU 0 instructions: 128000700 cycles: 59196367 heartbeat IPC: 2.514 cumulative IPC: 1.622 (Simulation time: 00 hr 11 min 37 sec)
Heartbeat CPU 0 instructions: 128500700 cycles: 59498866 heartbeat IPC: 1.653 cumulative IPC: 1.622 (Simulation time: 00 hr 11 min 40 sec)
Heartbeat CPU 0 instructions: 129000702 cycles: 59888823 heartbeat IPC: 1.282 cumulative IPC: 1.619 (Simulation time: 00 hr 11 min 44 sec)
Heartbeat CPU 0 instructions: 129500704 cycles: 60166835 heartbeat IPC: 1.798 cumulative IPC: 1.621 (Simulation time: 00 hr 11 min 47 sec)
Heartbeat CPU 0 instructions: 130000707 cycles: 60478071 heartbeat IPC: 1.607 cumulative IPC: 1.62 (Simulation time: 00 hr 11 min 50 sec)
Heartbeat CPU 0 instructions: 130500708 cycles: 60791379 heartbeat IPC: 1.596 cumulative IPC: 1.62 (Simulation time: 00 hr 11 min 54 sec)
Heartbeat CPU 0 instructions: 131000708 cycles: 61015570 heartbeat IPC: 2.23 cumulative IPC: 1.623 (Simulation time: 00 hr 11 min 57 sec)
Heartbeat CPU 0 instructions: 131500708 cycles: 61601448 heartbeat IPC: 0.8534 cumulative IPC: 1.614 (Simulation time: 00 hr 12 min 05 sec)
Heartbeat CPU 0 instructions: 132000713 cycles: 61877623 heartbeat IPC: 1.81 cumulative IPC: 1.615 (Simulation time: 00 hr 12 min 08 sec)
Heartbeat CPU 0 instructions: 132500713 cycles: 62200988 heartbeat IPC: 1.546 cumulative IPC: 1.615 (Simulation time: 00 hr 12 min 11 sec)
Heartbeat CPU 0 instructions: 133000716 cycles: 62472509 heartbeat IPC: 1.841 cumulative IPC: 1.616 (Simulation time: 00 hr 12 min 14 sec)
Heartbeat CPU 0 instructions: 133500718 cycles: 62778567 heartbeat IPC: 1.634 cumulative IPC: 1.616 (Simulation time: 00 hr 12 min 17 sec)
Heartbeat CPU 0 instructions: 134000724 cycles: 63054579 heartbeat IPC: 1.812 cumulative IPC: 1.617 (Simulation time: 00 hr 12 min 20 sec)
Heartbeat CPU 0 instructions: 134500727 cycles: 63367770 heartbeat IPC: 1.596 cumulative IPC: 1.617 (Simulation time: 00 hr 12 min 23 sec)
Heartbeat CPU 0 instructions: 135000730 cycles: 63856371 heartbeat IPC: 1.023 cumulative IPC: 1.611 (Simulation time: 00 hr 12 min 27 sec)
Heartbeat CPU 0 instructions: 135500730 cycles: 64171325 heartbeat IPC: 1.588 cumulative IPC: 1.611 (Simulation time: 00 hr 12 min 30 sec)
Heartbeat CPU 0 instructions: 136000736 cycles: 64481826 heartbeat IPC: 1.61 cumulative IPC: 1.611 (Simulation time: 00 hr 12 min 34 sec)
Heartbeat CPU 0 instructions: 136500742 cycles: 64711050 heartbeat IPC: 2.181 cumulative IPC: 1.614 (Simulation time: 00 hr 12 min 37 sec)
Heartbeat CPU 0 instructions: 137000748 cycles: 65166961 heartbeat IPC: 1.097 cumulative IPC: 1.609 (Simulation time: 00 hr 12 min 43 sec)
Heartbeat CPU 0 instructions: 137500748 cycles: 65393891 heartbeat IPC: 2.203 cumulative IPC: 1.612 (Simulation time: 00 hr 12 min 46 sec)
Heartbeat CPU 0 instructions: 138000750 cycles: 65614498 heartbeat IPC: 2.266 cumulative IPC: 1.614 (Simulation time: 00 hr 12 min 49 sec)
Heartbeat CPU 0 instructions: 138500753 cycles: 65841004 heartbeat IPC: 2.207 cumulative IPC: 1.617 (Simulation time: 00 hr 12 min 52 sec)
Heartbeat CPU 0 instructions: 139000753 cycles: 66062029 heartbeat IPC: 2.262 cumulative IPC: 1.62 (Simulation time: 00 hr 12 min 55 sec)
Heartbeat CPU 0 instructions: 139500753 cycles: 66285491 heartbeat IPC: 2.238 cumulative IPC: 1.622 (Simulation time: 00 hr 12 min 59 sec)
Heartbeat CPU 0 instructions: 140000757 cycles: 66506818 heartbeat IPC: 2.259 cumulative IPC: 1.625 (Simulation time: 00 hr 13 min 02 sec)
Heartbeat CPU 0 instructions: 140500759 cycles: 66733174 heartbeat IPC: 2.209 cumulative IPC: 1.627 (Simulation time: 00 hr 13 min 05 sec)
Heartbeat CPU 0 instructions: 141000762 cycles: 66956251 heartbeat IPC: 2.241 cumulative IPC: 1.629 (Simulation time: 00 hr 13 min 08 sec)
Heartbeat CPU 0 instructions: 141500764 cycles: 67179224 heartbeat IPC: 2.242 cumulative IPC: 1.632 (Simulation time: 00 hr 13 min 11 sec)
Heartbeat CPU 0 instructions: 142000764 cycles: 67400880 heartbeat IPC: 2.256 cumulative IPC: 1.634 (Simulation time: 00 hr 13 min 14 sec)
Heartbeat CPU 0 instructions: 142500766 cycles: 67624571 heartbeat IPC: 2.235 cumulative IPC: 1.637 (Simulation time: 00 hr 13 min 17 sec)
Heartbeat CPU 0 instructions: 143000767 cycles: 67847629 heartbeat IPC: 2.242 cumulative IPC: 1.639 (Simulation time: 00 hr 13 min 20 sec)
Heartbeat CPU 0 instructions: 143500767 cycles: 68469042 heartbeat IPC: 0.8046 cumulative IPC: 1.63 (Simulation time: 00 hr 13 min 26 sec)
Heartbeat CPU 0 instructions: 144000769 cycles: 68751185 heartbeat IPC: 1.772 cumulative IPC: 1.631 (Simulation time: 00 hr 13 min 29 sec)
Heartbeat CPU 0 instructions: 144500775 cycles: 69085899 heartbeat IPC: 1.494 cumulative IPC: 1.63 (Simulation time: 00 hr 13 min 32 sec)
Heartbeat CPU 0 instructions: 145000776 cycles: 69602007 heartbeat IPC: 0.9688 cumulative IPC: 1.624 (Simulation time: 00 hr 13 min 36 sec)
Heartbeat CPU 0 instructions: 145500778 cycles: 69909775 heartbeat IPC: 1.625 cumulative IPC: 1.624 (Simulation time: 00 hr 13 min 40 sec)
Heartbeat CPU 0 instructions: 146000779 cycles: 70153394 heartbeat IPC: 2.052 cumulative IPC: 1.626 (Simulation time: 00 hr 13 min 43 sec)
Heartbeat CPU 0 instructions: 146500781 cycles: 70432739 heartbeat IPC: 1.79 cumulative IPC: 1.627 (Simulation time: 00 hr 13 min 46 sec)
Heartbeat CPU 0 instructions: 147000783 cycles: 70703347 heartbeat IPC: 1.848 cumulative IPC: 1.628 (Simulation time: 00 hr 13 min 50 sec)
Heartbeat CPU 0 instructions: 147500783 cycles: 71059257 heartbeat IPC: 1.405 cumulative IPC: 1.626 (Simulation time: 00 hr 13 min 54 sec)
Heartbeat CPU 0 instructions: 148000788 cycles: 71341346 heartbeat IPC: 1.773 cumulative IPC: 1.627 (Simulation time: 00 hr 13 min 57 sec)
Heartbeat CPU 0 instructions: 148500794 cycles: 71618942 heartbeat IPC: 1.801 cumulative IPC: 1.628 (Simulation time: 00 hr 14 min 00 sec)
Heartbeat CPU 0 instructions: 149000796 cycles: 71920099 heartbeat IPC: 1.66 cumulative IPC: 1.628 (Simulation time: 00 hr 14 min 03 sec)
Heartbeat CPU 0 instructions: 149500800 cycles: 72151290 heartbeat IPC: 2.163 cumulative IPC: 1.63 (Simulation time: 00 hr 14 min 06 sec)
Heartbeat CPU 0 instructions: 150000802 cycles: 72643625 heartbeat IPC: 1.016 cumulative IPC: 1.625 (Simulation time: 00 hr 14 min 13 sec)
Heartbeat CPU 0 instructions: 150500808 cycles: 72940230 heartbeat IPC: 1.686 cumulative IPC: 1.625 (Simulation time: 00 hr 14 min 16 sec)
Heartbeat CPU 0 instructions: 151000809 cycles: 73237270 heartbeat IPC: 1.683 cumulative IPC: 1.626 (Simulation time: 00 hr 14 min 18 sec)
Heartbeat CPU 0 instructions: 151500814 cycles: 73504971 heartbeat IPC: 1.868 cumulative IPC: 1.627 (Simulation time: 00 hr 14 min 21 sec)
Heartbeat CPU 0 instructions: 152000818 cycles: 73777199 heartbeat IPC: 1.837 cumulative IPC: 1.628 (Simulation time: 00 hr 14 min 24 sec)
Heartbeat CPU 0 instructions: 152500819 cycles: 74042421 heartbeat IPC: 1.885 cumulative IPC: 1.629 (Simulation time: 00 hr 14 min 27 sec)
Heartbeat CPU 0 instructions: 153000823 cycles: 74306564 heartbeat IPC: 1.893 cumulative IPC: 1.63 (Simulation time: 00 hr 14 min 30 sec)
Heartbeat CPU 0 instructions: 153500824 cycles: 74642345 heartbeat IPC: 1.489 cumulative IPC: 1.629 (Simulation time: 00 hr 14 min 34 sec)
Heartbeat CPU 0 instructions: 154000825 cycles: 74970787 heartbeat IPC: 1.522 cumulative IPC: 1.628 (Simulation time: 00 hr 14 min 37 sec)
Heartbeat CPU 0 instructions: 154500827 cycles: 75299289 heartbeat IPC: 1.522 cumulative IPC: 1.628 (Simulation time: 00 hr 14 min 41 sec)
Heartbeat CPU 0 instructions: 155000829 cycles: 75788682 heartbeat IPC: 1.022 cumulative IPC: 1.623 (Simulation time: 00 hr 14 min 46 sec)
Heartbeat CPU 0 instructions: 155500829 cycles: 76026348 heartbeat IPC: 2.104 cumulative IPC: 1.625 (Simulation time: 00 hr 14 min 49 sec)
Heartbeat CPU 0 instructions: 156000829 cycles: 76268728 heartbeat IPC: 2.063 cumulative IPC: 1.627 (Simulation time: 00 hr 14 min 52 sec)
Heartbeat CPU 0 instructions: 156500829 cycles: 76498973 heartbeat IPC: 2.172 cumulative IPC: 1.629 (Simulation time: 00 hr 14 min 55 sec)
Heartbeat CPU 0 instructions: 157000829 cycles: 76767205 heartbeat IPC: 1.864 cumulative IPC: 1.63 (Simulation time: 00 hr 14 min 58 sec)
Heartbeat CPU 0 instructions: 157500835 cycles: 77560046 heartbeat IPC: 0.6307 cumulative IPC: 1.618 (Simulation time: 00 hr 15 min 10 sec)
Heartbeat CPU 0 instructions: 158000841 cycles: 78112961 heartbeat IPC: 0.9043 cumulative IPC: 1.612 (Simulation time: 00 hr 15 min 17 sec)
Heartbeat CPU 0 instructions: 158500843 cycles: 78320970 heartbeat IPC: 2.404 cumulative IPC: 1.614 (Simulation time: 00 hr 15 min 20 sec)
Heartbeat CPU 0 instructions: 159000846 cycles: 78535918 heartbeat IPC: 2.326 cumulative IPC: 1.617 (Simulation time: 00 hr 15 min 22 sec)
Heartbeat CPU 0 instructions: 159500852 cycles: 78687217 heartbeat IPC: 3.305 cumulative IPC: 1.62 (Simulation time: 00 hr 15 min 25 sec)
Heartbeat CPU 0 instructions: 160000854 cycles: 78858161 heartbeat IPC: 2.925 cumulative IPC: 1.624 (Simulation time: 00 hr 15 min 27 sec)
Heartbeat CPU 0 instructions: 160500855 cycles: 79043632 heartbeat IPC: 2.696 cumulative IPC: 1.627 (Simulation time: 00 hr 15 min 29 sec)
Heartbeat CPU 0 instructions: 161000857 cycles: 79229269 heartbeat IPC: 2.693 cumulative IPC: 1.629 (Simulation time: 00 hr 15 min 31 sec)
Heartbeat CPU 0 instructions: 161500858 cycles: 79399192 heartbeat IPC: 2.943 cumulative IPC: 1.633 (Simulation time: 00 hr 15 min 33 sec)
Heartbeat CPU 0 instructions: 162000865 cycles: 79563083 heartbeat IPC: 3.051 cumulative IPC: 1.636 (Simulation time: 00 hr 15 min 35 sec)
Heartbeat CPU 0 instructions: 162500865 cycles: 79766353 heartbeat IPC: 2.46 cumulative IPC: 1.639 (Simulation time: 00 hr 15 min 38 sec)
Heartbeat CPU 0 instructions: 163000869 cycles: 79946685 heartbeat IPC: 2.773 cumulative IPC: 1.642 (Simulation time: 00 hr 15 min 40 sec)
Heartbeat CPU 0 instructions: 163500875 cycles: 80114385 heartbeat IPC: 2.982 cumulative IPC: 1.645 (Simulation time: 00 hr 15 min 42 sec)
Heartbeat CPU 0 instructions: 164000880 cycles: 80288920 heartbeat IPC: 2.865 cumulative IPC: 1.648 (Simulation time: 00 hr 15 min 45 sec)
Heartbeat CPU 0 instructions: 164500881 cycles: 80473859 heartbeat IPC: 2.704 cumulative IPC: 1.651 (Simulation time: 00 hr 15 min 47 sec)
Heartbeat CPU 0 instructions: 165000885 cycles: 81101096 heartbeat IPC: 0.7972 cumulative IPC: 1.643 (Simulation time: 00 hr 15 min 52 sec)
Heartbeat CPU 0 instructions: 165500887 cycles: 81285195 heartbeat IPC: 2.716 cumulative IPC: 1.646 (Simulation time: 00 hr 15 min 54 sec)
Heartbeat CPU 0 instructions: 166000892 cycles: 81478514 heartbeat IPC: 2.586 cumulative IPC: 1.648 (Simulation time: 00 hr 15 min 57 sec)
Heartbeat CPU 0 instructions: 166500899 cycles: 81675091 heartbeat IPC: 2.544 cumulative IPC: 1.651 (Simulation time: 00 hr 15 min 59 sec)
Heartbeat CPU 0 instructions: 167000903 cycles: 81846201 heartbeat IPC: 2.922 cumulative IPC: 1.654 (Simulation time: 00 hr 16 min 01 sec)
Heartbeat CPU 0 instructions: 167500909 cycles: 82020682 heartbeat IPC: 2.866 cumulative IPC: 1.657 (Simulation time: 00 hr 16 min 03 sec)
Heartbeat CPU 0 instructions: 168000912 cycles: 82195665 heartbeat IPC: 2.857 cumulative IPC: 1.66 (Simulation time: 00 hr 16 min 05 sec)
Heartbeat CPU 0 instructions: 168500913 cycles: 82366494 heartbeat IPC: 2.927 cumulative IPC: 1.663 (Simulation time: 00 hr 16 min 08 sec)
Heartbeat CPU 0 instructions: 169000914 cycles: 82603554 heartbeat IPC: 2.109 cumulative IPC: 1.664 (Simulation time: 00 hr 16 min 11 sec)
Heartbeat CPU 0 instructions: 169500918 cycles: 82828278 heartbeat IPC: 2.225 cumulative IPC: 1.666 (Simulation time: 00 hr 16 min 13 sec)
Heartbeat CPU 0 instructions: 170000918 cycles: 82999129 heartbeat IPC: 2.927 cumulative IPC: 1.669 (Simulation time: 00 hr 16 min 16 sec)
Heartbeat CPU 0 instructions: 170500924 cycles: 83183296 heartbeat IPC: 2.715 cumulative IPC: 1.672 (Simulation time: 00 hr 16 min 18 sec)
Heartbeat CPU 0 instructions: 171000928 cycles: 83413224 heartbeat IPC: 2.175 cumulative IPC: 1.673 (Simulation time: 00 hr 16 min 21 sec)
Heartbeat CPU 0 instructions: 171500934 cycles: 83688369 heartbeat IPC: 1.817 cumulative IPC: 1.674 (Simulation time: 00 hr 16 min 24 sec)
Heartbeat CPU 0 instructions: 172000937 cycles: 84045951 heartbeat IPC: 1.398 cumulative IPC: 1.673 (Simulation time: 00 hr 16 min 28 sec)
Heartbeat CPU 0 instructions: 172500944 cycles: 84343717 heartbeat IPC: 1.679 cumulative IPC: 1.673 (Simulation time: 00 hr 16 min 31 sec)
Heartbeat CPU 0 instructions: 173000944 cycles: 84705476 heartbeat IPC: 1.382 cumulative IPC: 1.671 (Simulation time: 00 hr 16 min 35 sec)
Heartbeat CPU 0 instructions: 173500949 cycles: 84982218 heartbeat IPC: 1.807 cumulative IPC: 1.672 (Simulation time: 00 hr 16 min 38 sec)
Heartbeat CPU 0 instructions: 174000949 cycles: 85259957 heartbeat IPC: 1.8 cumulative IPC: 1.672 (Simulation time: 00 hr 16 min 41 sec)
Heartbeat CPU 0 instructions: 174500954 cycles: 85556565 heartbeat IPC: 1.686 cumulative IPC: 1.672 (Simulation time: 00 hr 16 min 44 sec)
Heartbeat CPU 0 instructions: 175000955 cycles: 86241648 heartbeat IPC: 0.7298 cumulative IPC: 1.664 (Simulation time: 00 hr 16 min 50 sec)
Heartbeat CPU 0 instructions: 175500962 cycles: 87149722 heartbeat IPC: 0.5506 cumulative IPC: 1.65 (Simulation time: 00 hr 16 min 57 sec)
Heartbeat CPU 0 instructions: 176000962 cycles: 87745871 heartbeat IPC: 0.8387 cumulative IPC: 1.644 (Simulation time: 00 hr 17 min 03 sec)
Heartbeat CPU 0 instructions: 176500968 cycles: 87979748 heartbeat IPC: 2.138 cumulative IPC: 1.646 (Simulation time: 00 hr 17 min 05 sec)
Heartbeat CPU 0 instructions: 177000969 cycles: 88318209 heartbeat IPC: 1.477 cumulative IPC: 1.645 (Simulation time: 00 hr 17 min 09 sec)
Heartbeat CPU 0 instructions: 177500970 cycles: 88600684 heartbeat IPC: 1.77 cumulative IPC: 1.645 (Simulation time: 00 hr 17 min 12 sec)
Heartbeat CPU 0 instructions: 178000976 cycles: 88848698 heartbeat IPC: 2.016 cumulative IPC: 1.647 (Simulation time: 00 hr 17 min 14 sec)
Heartbeat CPU 0 instructions: 178500980 cycles: 89139738 heartbeat IPC: 1.718 cumulative IPC: 1.647 (Simulation time: 00 hr 17 min 17 sec)
Heartbeat CPU 0 instructions: 179000983 cycles: 89432873 heartbeat IPC: 1.706 cumulative IPC: 1.647 (Simulation time: 00 hr 17 min 20 sec)
Heartbeat CPU 0 instructions: 179500989 cycles: 89760841 heartbeat IPC: 1.525 cumulative IPC: 1.646 (Simulation time: 00 hr 17 min 24 sec)
Heartbeat CPU 0 instructions: 180000990 cycles: 90076450 heartbeat IPC: 1.584 cumulative IPC: 1.646 (Simulation time: 00 hr 17 min 27 sec)
Heartbeat CPU 0 instructions: 180500990 cycles: 90388805 heartbeat IPC: 1.601 cumulative IPC: 1.646 (Simulation time: 00 hr 17 min 30 sec)
Heartbeat CPU 0 instructions: 181000991 cycles: 90688806 heartbeat IPC: 1.667 cumulative IPC: 1.646 (Simulation time: 00 hr 17 min 33 sec)
Heartbeat CPU 0 instructions: 181500996 cycles: 90954906 heartbeat IPC: 1.879 cumulative IPC: 1.647 (Simulation time: 00 hr 17 min 36 sec)
Heartbeat CPU 0 instructions: 182000997 cycles: 91245876 heartbeat IPC: 1.718 cumulative IPC: 1.647 (Simulation time: 00 hr 17 min 39 sec)
Heartbeat CPU 0 instructions: 182501002 cycles: 91570503 heartbeat IPC: 1.54 cumulative IPC: 1.647 (Simulation time: 00 hr 17 min 42 sec)
Heartbeat CPU 0 instructions: 183001007 cycles: 91810471 heartbeat IPC: 2.084 cumulative IPC: 1.648 (Simulation time: 00 hr 17 min 45 sec)
Heartbeat CPU 0 instructions: 183501009 cycles: 92095938 heartbeat IPC: 1.752 cumulative IPC: 1.648 (Simulation time: 00 hr 17 min 48 sec)
Heartbeat CPU 0 instructions: 184001009 cycles: 92860429 heartbeat IPC: 0.654 cumulative IPC: 1.639 (Simulation time: 00 hr 17 min 54 sec)
Heartbeat CPU 0 instructions: 184501010 cycles: 93175496 heartbeat IPC: 1.587 cumulative IPC: 1.639 (Simulation time: 00 hr 17 min 57 sec)
Heartbeat CPU 0 instructions: 185001013 cycles: 93470374 heartbeat IPC: 1.696 cumulative IPC: 1.639 (Simulation time: 00 hr 18 min 00 sec)
Heartbeat CPU 0 instructions: 185501013 cycles: 93776685 heartbeat IPC: 1.632 cumulative IPC: 1.639 (Simulation time: 00 hr 18 min 03 sec)
Heartbeat CPU 0 instructions: 186001018 cycles: 94077557 heartbeat IPC: 1.662 cumulative IPC: 1.639 (Simulation time: 00 hr 18 min 06 sec)
Heartbeat CPU 0 instructions: 186501020 cycles: 94368567 heartbeat IPC: 1.718 cumulative IPC: 1.639 (Simulation time: 00 hr 18 min 09 sec)
Heartbeat CPU 0 instructions: 187001023 cycles: 94657675 heartbeat IPC: 1.729 cumulative IPC: 1.64 (Simulation time: 00 hr 18 min 12 sec)
Heartbeat CPU 0 instructions: 187501025 cycles: 94959117 heartbeat IPC: 1.659 cumulative IPC: 1.64 (Simulation time: 00 hr 18 min 15 sec)
Heartbeat CPU 0 instructions: 188001028 cycles: 95268468 heartbeat IPC: 1.616 cumulative IPC: 1.64 (Simulation time: 00 hr 18 min 18 sec)
Heartbeat CPU 0 instructions: 188501032 cycles: 95573703 heartbeat IPC: 1.638 cumulative IPC: 1.64 (Simulation time: 00 hr 18 min 21 sec)
Heartbeat CPU 0 instructions: 189001032 cycles: 95850975 heartbeat IPC: 1.803 cumulative IPC: 1.64 (Simulation time: 00 hr 18 min 24 sec)
Heartbeat CPU 0 instructions: 189501032 cycles: 96479101 heartbeat IPC: 0.796 cumulative IPC: 1.634 (Simulation time: 00 hr 18 min 30 sec)
Heartbeat CPU 0 instructions: 190001033 cycles: 96710636 heartbeat IPC: 2.16 cumulative IPC: 1.635 (Simulation time: 00 hr 18 min 33 sec)
Heartbeat CPU 0 instructions: 190501033 cycles: 96934431 heartbeat IPC: 2.234 cumulative IPC: 1.637 (Simulation time: 00 hr 18 min 36 sec)
Heartbeat CPU 0 instructions: 191001039 cycles: 97183421 heartbeat IPC: 2.008 cumulative IPC: 1.638 (Simulation time: 00 hr 18 min 39 sec)
Heartbeat CPU 0 instructions: 191501045 cycles: 97820227 heartbeat IPC: 0.7852 cumulative IPC: 1.632 (Simulation time: 00 hr 18 min 49 sec)
Heartbeat CPU 0 instructions: 192001047 cycles: 98053651 heartbeat IPC: 2.142 cumulative IPC: 1.633 (Simulation time: 00 hr 18 min 52 sec)
Heartbeat CPU 0 instructions: 192501049 cycles: 98280721 heartbeat IPC: 2.202 cumulative IPC: 1.635 (Simulation time: 00 hr 18 min 55 sec)
Heartbeat CPU 0 instructions: 193001049 cycles: 98508547 heartbeat IPC: 2.195 cumulative IPC: 1.636 (Simulation time: 00 hr 18 min 58 sec)
Heartbeat CPU 0 instructions: 193501051 cycles: 98734839 heartbeat IPC: 2.21 cumulative IPC: 1.638 (Simulation time: 00 hr 19 min 01 sec)
Heartbeat CPU 0 instructions: 194001058 cycles: 99159940 heartbeat IPC: 1.176 cumulative IPC: 1.635 (Simulation time: 00 hr 19 min 05 sec)
Heartbeat CPU 0 instructions: 194501060 cycles: 99557970 heartbeat IPC: 1.256 cumulative IPC: 1.634 (Simulation time: 00 hr 19 min 09 sec)
Heartbeat CPU 0 instructions: 195001064 cycles: 99879416 heartbeat IPC: 1.555 cumulative IPC: 1.633 (Simulation time: 00 hr 19 min 12 sec)
Heartbeat CPU 0 instructions: 195501064 cycles: 100195242 heartbeat IPC: 1.583 cumulative IPC: 1.633 (Simulation time: 00 hr 19 min 15 sec)
Heartbeat CPU 0 instructions: 196001071 cycles: 100484279 heartbeat IPC: 1.73 cumulative IPC: 1.634 (Simulation time: 00 hr 19 min 18 sec)
Heartbeat CPU 0 instructions: 196501077 cycles: 101451377 heartbeat IPC: 0.517 cumulative IPC: 1.622 (Simulation time: 00 hr 19 min 31 sec)
Heartbeat CPU 0 instructions: 197001077 cycles: 101607632 heartbeat IPC: 3.2 cumulative IPC: 1.624 (Simulation time: 00 hr 19 min 33 sec)
Heartbeat CPU 0 instructions: 197501077 cycles: 101763890 heartbeat IPC: 3.2 cumulative IPC: 1.627 (Simulation time: 00 hr 19 min 35 sec)
Heartbeat CPU 0 instructions: 198001077 cycles: 101920142 heartbeat IPC: 3.2 cumulative IPC: 1.63 (Simulation time: 00 hr 19 min 37 sec)
Heartbeat CPU 0 instructions: 198501077 cycles: 102076393 heartbeat IPC: 3.2 cumulative IPC: 1.632 (Simulation time: 00 hr 19 min 39 sec)
Heartbeat CPU 0 instructions: 199001078 cycles: 102233051 heartbeat IPC: 3.192 cumulative IPC: 1.635 (Simulation time: 00 hr 19 min 41 sec)
Heartbeat CPU 0 instructions: 199501081 cycles: 102389301 heartbeat IPC: 3.2 cumulative IPC: 1.638 (Simulation time: 00 hr 19 min 43 sec)
Heartbeat CPU 0 instructions: 200001084 cycles: 102545548 heartbeat IPC: 3.2 cumulative IPC: 1.64 (Simulation time: 00 hr 19 min 45 sec)
Heartbeat CPU 0 instructions: 200501085 cycles: 102732951 heartbeat IPC: 2.668 cumulative IPC: 1.643 (Simulation time: 00 hr 19 min 47 sec)
Heartbeat CPU 0 instructions: 201001092 cycles: 102917850 heartbeat IPC: 2.704 cumulative IPC: 1.645 (Simulation time: 00 hr 19 min 50 sec)
Heartbeat CPU 0 instructions: 201501093 cycles: 103084540 heartbeat IPC: 3 cumulative IPC: 1.647 (Simulation time: 00 hr 19 min 52 sec)
Heartbeat CPU 0 instructions: 202001093 cycles: 103269607 heartbeat IPC: 2.702 cumulative IPC: 1.649 (Simulation time: 00 hr 19 min 54 sec)
Heartbeat CPU 0 instructions: 202501093 cycles: 103437041 heartbeat IPC: 2.986 cumulative IPC: 1.652 (Simulation time: 00 hr 19 min 56 sec)
Heartbeat CPU 0 instructions: 203001095 cycles: 103623163 heartbeat IPC: 2.686 cumulative IPC: 1.654 (Simulation time: 00 hr 19 min 58 sec)
Heartbeat CPU 0 instructions: 203501095 cycles: 103804658 heartbeat IPC: 2.755 cumulative IPC: 1.656 (Simulation time: 00 hr 20 min 01 sec)
Heartbeat CPU 0 instructions: 204001096 cycles: 104126994 heartbeat IPC: 1.551 cumulative IPC: 1.656 (Simulation time: 00 hr 20 min 04 sec)
Heartbeat CPU 0 instructions: 204501100 cycles: 104391771 heartbeat IPC: 1.888 cumulative IPC: 1.656 (Simulation time: 00 hr 20 min 07 sec)
Heartbeat CPU 0 instructions: 205001101 cycles: 104617833 heartbeat IPC: 2.212 cumulative IPC: 1.658 (Simulation time: 00 hr 20 min 10 sec)
Heartbeat CPU 0 instructions: 205501101 cycles: 104850021 heartbeat IPC: 2.153 cumulative IPC: 1.659 (Simulation time: 00 hr 20 min 13 sec)
Heartbeat CPU 0 instructions: 206001101 cycles: 105076794 heartbeat IPC: 2.205 cumulative IPC: 1.66 (Simulation time: 00 hr 20 min 16 sec)
Heartbeat CPU 0 instructions: 206501101 cycles: 105309798 heartbeat IPC: 2.146 cumulative IPC: 1.661 (Simulation time: 00 hr 20 min 19 sec)
Heartbeat CPU 0 instructions: 207001101 cycles: 105539097 heartbeat IPC: 2.181 cumulative IPC: 1.663 (Simulation time: 00 hr 20 min 22 sec)
Heartbeat CPU 0 instructions: 207501107 cycles: 105767310 heartbeat IPC: 2.191 cumulative IPC: 1.664 (Simulation time: 00 hr 20 min 25 sec)
Heartbeat CPU 0 instructions: 208001109 cycles: 105999223 heartbeat IPC: 2.156 cumulative IPC: 1.665 (Simulation time: 00 hr 20 min 28 sec)
Heartbeat CPU 0 instructions: 208501109 cycles: 106225022 heartbeat IPC: 2.214 cumulative IPC: 1.666 (Simulation time: 00 hr 20 min 31 sec)
Heartbeat CPU 0 instructions: 209001112 cycles: 106455167 heartbeat IPC: 2.173 cumulative IPC: 1.668 (Simulation time: 00 hr 20 min 34 sec)
Heartbeat CPU 0 instructions: 209501112 cycles: 106926777 heartbeat IPC: 1.06 cumulative IPC: 1.665 (Simulation time: 00 hr 20 min 41 sec)
Heartbeat CPU 0 instructions: 210001116 cycles: 107263258 heartbeat IPC: 1.486 cumulative IPC: 1.664 (Simulation time: 00 hr 20 min 44 sec)
Heartbeat CPU 0 instructions: 210501118 cycles: 107589041 heartbeat IPC: 1.535 cumulative IPC: 1.664 (Simulation time: 00 hr 20 min 47 sec)
Heartbeat CPU 0 instructions: 211001118 cycles: 107877810 heartbeat IPC: 1.731 cumulative IPC: 1.664 (Simulation time: 00 hr 20 min 50 sec)
Heartbeat CPU 0 instructions: 211501122 cycles: 108181377 heartbeat IPC: 1.647 cumulative IPC: 1.664 (Simulation time: 00 hr 20 min 53 sec)
Heartbeat CPU 0 instructions: 212001125 cycles: 108645065 heartbeat IPC: 1.078 cumulative IPC: 1.661 (Simulation time: 00 hr 20 min 58 sec)
Heartbeat CPU 0 instructions: 212501127 cycles: 108878357 heartbeat IPC: 2.143 cumulative IPC: 1.662 (Simulation time: 00 hr 21 min 01 sec)
Heartbeat CPU 0 instructions: 213001131 cycles: 109103432 heartbeat IPC: 2.221 cumulative IPC: 1.663 (Simulation time: 00 hr 21 min 04 sec)
Heartbeat CPU 0 instructions: 213501136 cycles: 109328641 heartbeat IPC: 2.22 cumulative IPC: 1.665 (Simulation time: 00 hr 21 min 07 sec)
Heartbeat CPU 0 instructions: 214001136 cycles: 109590670 heartbeat IPC: 1.908 cumulative IPC: 1.665 (Simulation time: 00 hr 21 min 10 sec)
Heartbeat CPU 0 instructions: 214501141 cycles: 109907488 heartbeat IPC: 1.578 cumulative IPC: 1.665 (Simulation time: 00 hr 21 min 14 sec)
Heartbeat CPU 0 instructions: 215001145 cycles: 110106776 heartbeat IPC: 2.509 cumulative IPC: 1.667 (Simulation time: 00 hr 21 min 16 sec)
Heartbeat CPU 0 instructions: 215501145 cycles: 110293690 heartbeat IPC: 2.675 cumulative IPC: 1.669 (Simulation time: 00 hr 21 min 18 sec)
Heartbeat CPU 0 instructions: 216001146 cycles: 110457377 heartbeat IPC: 3.055 cumulative IPC: 1.671 (Simulation time: 00 hr 21 min 20 sec)
Heartbeat CPU 0 instructions: 216501148 cycles: 110641585 heartbeat IPC: 2.714 cumulative IPC: 1.673 (Simulation time: 00 hr 21 min 22 sec)
Heartbeat CPU 0 instructions: 217001155 cycles: 110818801 heartbeat IPC: 2.821 cumulative IPC: 1.675 (Simulation time: 00 hr 21 min 25 sec)
Heartbeat CPU 0 instructions: 217501156 cycles: 110994618 heartbeat IPC: 2.844 cumulative IPC: 1.677 (Simulation time: 00 hr 21 min 27 sec)
Heartbeat CPU 0 instructions: 218001162 cycles: 111174914 heartbeat IPC: 2.773 cumulative IPC: 1.679 (Simulation time: 00 hr 21 min 29 sec)
Heartbeat CPU 0 instructions: 218501169 cycles: 111349202 heartbeat IPC: 2.869 cumulative IPC: 1.681 (Simulation time: 00 hr 21 min 31 sec)
Heartbeat CPU 0 instructions: 219001174 cycles: 111535540 heartbeat IPC: 2.683 cumulative IPC: 1.683 (Simulation time: 00 hr 21 min 33 sec)
Heartbeat CPU 0 instructions: 219501179 cycles: 111710029 heartbeat IPC: 2.866 cumulative IPC: 1.685 (Simulation time: 00 hr 21 min 35 sec)
Heartbeat CPU 0 instructions: 220001183 cycles: 111891994 heartbeat IPC: 2.748 cumulative IPC: 1.687 (Simulation time: 00 hr 21 min 37 sec)
Heartbeat CPU 0 instructions: 220501185 cycles: 112080447 heartbeat IPC: 2.653 cumulative IPC: 1.689 (Simulation time: 00 hr 21 min 39 sec)
Heartbeat CPU 0 instructions: 221001186 cycles: 112267974 heartbeat IPC: 2.666 cumulative IPC: 1.69 (Simulation time: 00 hr 21 min 41 sec)
Heartbeat CPU 0 instructions: 221501190 cycles: 112446031 heartbeat IPC: 2.808 cumulative IPC: 1.692 (Simulation time: 00 hr 21 min 44 sec)
Heartbeat CPU 0 instructions: 222001196 cycles: 112621213 heartbeat IPC: 2.854 cumulative IPC: 1.694 (Simulation time: 00 hr 21 min 46 sec)
Heartbeat CPU 0 instructions: 222501196 cycles: 112805938 heartbeat IPC: 2.707 cumulative IPC: 1.696 (Simulation time: 00 hr 21 min 48 sec)
Heartbeat CPU 0 instructions: 223001197 cycles: 112996204 heartbeat IPC: 2.628 cumulative IPC: 1.698 (Simulation time: 00 hr 21 min 50 sec)
Heartbeat CPU 0 instructions: 223501202 cycles: 113166813 heartbeat IPC: 2.931 cumulative IPC: 1.7 (Simulation time: 00 hr 21 min 52 sec)
Heartbeat CPU 0 instructions: 224001202 cycles: 113343316 heartbeat IPC: 2.833 cumulative IPC: 1.702 (Simulation time: 00 hr 21 min 54 sec)
Heartbeat CPU 0 instructions: 224501205 cycles: 114088717 heartbeat IPC: 0.6708 cumulative IPC: 1.694 (Simulation time: 00 hr 22 min 00 sec)
Heartbeat CPU 0 instructions: 225001205 cycles: 114315333 heartbeat IPC: 2.206 cumulative IPC: 1.696 (Simulation time: 00 hr 22 min 03 sec)
Heartbeat CPU 0 instructions: 225501208 cycles: 114543144 heartbeat IPC: 2.195 cumulative IPC: 1.697 (Simulation time: 00 hr 22 min 06 sec)
Heartbeat CPU 0 instructions: 226001211 cycles: 114771760 heartbeat IPC: 2.187 cumulative IPC: 1.698 (Simulation time: 00 hr 22 min 09 sec)
Heartbeat CPU 0 instructions: 226501211 cycles: 115004848 heartbeat IPC: 2.145 cumulative IPC: 1.699 (Simulation time: 00 hr 22 min 12 sec)
Heartbeat CPU 0 instructions: 227001211 cycles: 115364400 heartbeat IPC: 1.391 cumulative IPC: 1.698 (Simulation time: 00 hr 22 min 17 sec)
Heartbeat CPU 0 instructions: 227501212 cycles: 115593218 heartbeat IPC: 2.185 cumulative IPC: 1.699 (Simulation time: 00 hr 22 min 20 sec)
Heartbeat CPU 0 instructions: 228001212 cycles: 115816343 heartbeat IPC: 2.241 cumulative IPC: 1.7 (Simulation time: 00 hr 22 min 23 sec)
Heartbeat CPU 0 instructions: 228501216 cycles: 116058302 heartbeat IPC: 2.066 cumulative IPC: 1.701 (Simulation time: 00 hr 22 min 26 sec)
Heartbeat CPU 0 instructions: 229001216 cycles: 116650280 heartbeat IPC: 0.8446 cumulative IPC: 1.696 (Simulation time: 00 hr 22 min 33 sec)
Heartbeat CPU 0 instructions: 229501217 cycles: 116990312 heartbeat IPC: 1.47 cumulative IPC: 1.695 (Simulation time: 00 hr 22 min 36 sec)
Heartbeat CPU 0 instructions: 230001218 cycles: 117248151 heartbeat IPC: 1.939 cumulative IPC: 1.696 (Simulation time: 00 hr 22 min 39 sec)
Heartbeat CPU 0 instructions: 230501221 cycles: 117559888 heartbeat IPC: 1.604 cumulative IPC: 1.696 (Simulation time: 00 hr 22 min 42 sec)
Heartbeat CPU 0 instructions: 231001227 cycles: 117843220 heartbeat IPC: 1.765 cumulative IPC: 1.696 (Simulation time: 00 hr 22 min 45 sec)
Heartbeat CPU 0 instructions: 231501230 cycles: 118133086 heartbeat IPC: 1.725 cumulative IPC: 1.696 (Simulation time: 00 hr 22 min 47 sec)
Heartbeat CPU 0 instructions: 232001233 cycles: 118408982 heartbeat IPC: 1.812 cumulative IPC: 1.696 (Simulation time: 00 hr 22 min 50 sec)
Heartbeat CPU 0 instructions: 232501237 cycles: 118725354 heartbeat IPC: 1.58 cumulative IPC: 1.696 (Simulation time: 00 hr 22 min 53 sec)
Heartbeat CPU 0 instructions: 233001238 cycles: 119003102 heartbeat IPC: 1.8 cumulative IPC: 1.696 (Simulation time: 00 hr 22 min 55 sec)
Heartbeat CPU 0 instructions: 233501238 cycles: 119609131 heartbeat IPC: 0.825 cumulative IPC: 1.691 (Simulation time: 00 hr 23 min 01 sec)
Heartbeat CPU 0 instructions: 234001238 cycles: 119927515 heartbeat IPC: 1.57 cumulative IPC: 1.691 (Simulation time: 00 hr 23 min 04 sec)
Heartbeat CPU 0 instructions: 234501239 cycles: 120411671 heartbeat IPC: 1.033 cumulative IPC: 1.688 (Simulation time: 00 hr 23 min 08 sec)
Heartbeat CPU 0 instructions: 235001242 cycles: 120644326 heartbeat IPC: 2.149 cumulative IPC: 1.689 (Simulation time: 00 hr 23 min 10 sec)
Heartbeat CPU 0 instructions: 235501242 cycles: 120866104 heartbeat IPC: 2.255 cumulative IPC: 1.69 (Simulation time: 00 hr 23 min 13 sec)
Heartbeat CPU 0 instructions: 236001245 cycles: 121083766 heartbeat IPC: 2.297 cumulative IPC: 1.691 (Simulation time: 00 hr 23 min 15 sec)
Heartbeat CPU 0 instructions: 236501247 cycles: 121272288 heartbeat IPC: 2.652 cumulative IPC: 1.693 (Simulation time: 00 hr 23 min 17 sec)
Heartbeat CPU 0 instructions: 237001250 cycles: 121449735 heartbeat IPC: 2.818 cumulative IPC: 1.695 (Simulation time: 00 hr 23 min 19 sec)
Heartbeat CPU 0 instructions: 237501250 cycles: 121651068 heartbeat IPC: 2.483 cumulative IPC: 1.696 (Simulation time: 00 hr 23 min 22 sec)
Heartbeat CPU 0 instructions: 238001253 cycles: 121852788 heartbeat IPC: 2.479 cumulative IPC: 1.698 (Simulation time: 00 hr 23 min 24 sec)
Heartbeat CPU 0 instructions: 238501258 cycles: 122068144 heartbeat IPC: 2.322 cumulative IPC: 1.699 (Simulation time: 00 hr 23 min 26 sec)
Heartbeat CPU 0 instructions: 239001265 cycles: 122266429 heartbeat IPC: 2.522 cumulative IPC: 1.7 (Simulation time: 00 hr 23 min 29 sec)
Heartbeat CPU 0 instructions: 239501266 cycles: 122466076 heartbeat IPC: 2.504 cumulative IPC: 1.702 (Simulation time: 00 hr 23 min 31 sec)
Heartbeat CPU 0 instructions: 240001268 cycles: 122664117 heartbeat IPC: 2.525 cumulative IPC: 1.703 (Simulation time: 00 hr 23 min 33 sec)
Heartbeat CPU 0 instructions: 240501271 cycles: 122863312 heartbeat IPC: 2.51 cumulative IPC: 1.705 (Simulation time: 00 hr 23 min 35 sec)
Heartbeat CPU 0 instructions: 241001273 cycles: 123056394 heartbeat IPC: 2.59 cumulative IPC: 1.706 (Simulation time: 00 hr 23 min 38 sec)
Heartbeat CPU 0 instructions: 241501280 cycles: 123241963 heartbeat IPC: 2.694 cumulative IPC: 1.708 (Simulation time: 00 hr 23 min 40 sec)
Heartbeat CPU 0 instructions: 242001284 cycles: 123423355 heartbeat IPC: 2.756 cumulative IPC: 1.709 (Simulation time: 00 hr 23 min 42 sec)
Heartbeat CPU 0 instructions: 242501284 cycles: 123609204 heartbeat IPC: 2.69 cumulative IPC: 1.711 (Simulation time: 00 hr 23 min 44 sec)
Heartbeat CPU 0 instructions: 243001287 cycles: 123796480 heartbeat IPC: 2.67 cumulative IPC: 1.713 (Simulation time: 00 hr 23 min 46 sec)
Heartbeat CPU 0 instructions: 243501290 cycles: 123995389 heartbeat IPC: 2.514 cumulative IPC: 1.714 (Simulation time: 00 hr 23 min 48 sec)
Heartbeat CPU 0 instructions: 244001293 cycles: 124194115 heartbeat IPC: 2.516 cumulative IPC: 1.716 (Simulation time: 00 hr 23 min 51 sec)
Heartbeat CPU 0 instructions: 244501297 cycles: 124663896 heartbeat IPC: 1.064 cumulative IPC: 1.713 (Simulation time: 00 hr 23 min 54 sec)
Heartbeat CPU 0 instructions: 245001303 cycles: 125019053 heartbeat IPC: 1.408 cumulative IPC: 1.712 (Simulation time: 00 hr 23 min 58 sec)
Heartbeat CPU 0 instructions: 245501307 cycles: 125580589 heartbeat IPC: 0.8904 cumulative IPC: 1.708 (Simulation time: 00 hr 24 min 06 sec)
Heartbeat CPU 0 instructions: 246001307 cycles: 125807424 heartbeat IPC: 2.204 cumulative IPC: 1.709 (Simulation time: 00 hr 24 min 09 sec)
Heartbeat CPU 0 instructions: 246501307 cycles: 126034640 heartbeat IPC: 2.201 cumulative IPC: 1.71 (Simulation time: 00 hr 24 min 11 sec)
Heartbeat CPU 0 instructions: 247001313 cycles: 126267667 heartbeat IPC: 2.146 cumulative IPC: 1.711 (Simulation time: 00 hr 24 min 14 sec)
Heartbeat CPU 0 instructions: 247501313 cycles: 126494104 heartbeat IPC: 2.208 cumulative IPC: 1.712 (Simulation time: 00 hr 24 min 17 sec)
Heartbeat CPU 0 instructions: 248001315 cycles: 126723950 heartbeat IPC: 2.175 cumulative IPC: 1.713 (Simulation time: 00 hr 24 min 20 sec)
Heartbeat CPU 0 instructions: 248501319 cycles: 126949715 heartbeat IPC: 2.215 cumulative IPC: 1.714 (Simulation time: 00 hr 24 min 23 sec)
Heartbeat CPU 0 instructions: 249001323 cycles: 127176541 heartbeat IPC: 2.204 cumulative IPC: 1.715 (Simulation time: 00 hr 24 min 26 sec)
Heartbeat CPU 0 instructions: 249501328 cycles: 127401371 heartbeat IPC: 2.224 cumulative IPC: 1.715 (Simulation time: 00 hr 24 min 29 sec)
Simulation finished CPU 0 instructions: 200000001 cycles: 116516936 cumulative IPC: 1.716 (Simulation time: 00 hr 24 min 32 sec)
Simulation complete CPU 0 instructions: 200000001 cycles: 116516936 cumulative IPC: 1.716 (Simulation time: 00 hr 24 min 32 sec)

ChampSim completed all CPUs

=== Simulation ===
CPU 0 runs /local-ssd/ben/dpc4-traces/gtraces_v2/arizona_0001.champsim.gz

Region of Interest Statistics

CPU 0 cumulative IPC: 1.716 instructions: 200000001 cycles: 116516936
CPU 0 Branch Prediction Accuracy: 96.1% MPKI: 6.449 Average ROB Occupancy at Mispredict: 39.59
Branch type MPKI
BRANCH_DIRECT_JUMP: 0.05633
BRANCH_INDIRECT: 0.1739
BRANCH_CONDITIONAL: 6.184
BRANCH_DIRECT_CALL: 0.009825
BRANCH_INDIRECT_CALL: 0.004465
BRANCH_RETURN: 0.02033

cpu0->cpu0_STLB TOTAL        ACCESS:     137876 HIT:     100767 MISS:      37109 MSHR_MERGE:          0
cpu0->cpu0_STLB LOAD         ACCESS:     137876 HIT:     100767 MISS:      37109 MSHR_MERGE:          0
cpu0->cpu0_STLB RFO          ACCESS:          0 HIT:          0 MISS:          0 MSHR_MERGE:          0
cpu0->cpu0_STLB PREFETCH     ACCESS:          0 HIT:          0 MISS:          0 MSHR_MERGE:          0
cpu0->cpu0_STLB WRITE        ACCESS:          0 HIT:          0 MISS:          0 MSHR_MERGE:          0
cpu0->cpu0_STLB TRANSLATION  ACCESS:          0 HIT:          0 MISS:          0 MSHR_MERGE:          0
cpu0->cpu0_STLB PREFETCH REQUESTED:          0 ISSUED:          0 USEFUL:          0 USELESS:          0
cpu0->cpu0_STLB AVERAGE MISS LATENCY: 260.9 cycles
cpu0->cpu0_L2C TOTAL        ACCESS:    6425880 HIT:    4187177 MISS:    2238703 MSHR_MERGE:    1099268
cpu0->cpu0_L2C LOAD         ACCESS:     566049 HIT:     275965 MISS:     290084 MSHR_MERGE:     162106
cpu0->cpu0_L2C RFO          ACCESS:     668156 HIT:     149106 MISS:     519050 MSHR_MERGE:        886
cpu0->cpu0_L2C PREFETCH     ACCESS:    4449076 HIT:    3042723 MISS:    1406353 MSHR_MERGE:     936276
cpu0->cpu0_L2C WRITE        ACCESS:     710843 HIT:     710834 MISS:          9 MSHR_MERGE:          0
cpu0->cpu0_L2C TRANSLATION  ACCESS:      31756 HIT:       8549 MISS:      23207 MSHR_MERGE:          0
cpu0->cpu0_L2C PREFETCH REQUESTED:    4401120 ISSUED:    3990148 USEFUL:     345321 USELESS:      89818
cpu0->cpu0_L2C AVERAGE MISS LATENCY: 287.1 cycles
cpu0->cpu0_L1I TOTAL        ACCESS:   20919198 HIT:   20864540 MISS:      54658 MSHR_MERGE:      11232
cpu0->cpu0_L1I LOAD         ACCESS:   20919198 HIT:   20864540 MISS:      54658 MSHR_MERGE:      11232
cpu0->cpu0_L1I RFO          ACCESS:          0 HIT:          0 MISS:          0 MSHR_MERGE:          0
cpu0->cpu0_L1I PREFETCH     ACCESS:          0 HIT:          0 MISS:          0 MSHR_MERGE:          0
cpu0->cpu0_L1I WRITE        ACCESS:          0 HIT:          0 MISS:          0 MSHR_MERGE:          0
cpu0->cpu0_L1I TRANSLATION  ACCESS:          0 HIT:          0 MISS:          0 MSHR_MERGE:          0
cpu0->cpu0_L1I PREFETCH REQUESTED:          0 ISSUED:          0 USEFUL:          0 USELESS:          0
cpu0->cpu0_L1I AVERAGE MISS LATENCY: 117.7 cycles
cpu0->cpu0_L1D TOTAL        ACCESS:   59108986 HIT:   55793447 MISS:    3315539 MSHR_MERGE:    1633994
cpu0->cpu0_L1D LOAD         ACCESS:   33218690 HIT:   32582068 MISS:     636622 MSHR_MERGE:     113996
cpu0->cpu0_L1D RFO          ACCESS:          0 HIT:          0 MISS:          0 MSHR_MERGE:          0
cpu0->cpu0_L1D PREFETCH     ACCESS:     797469 HIT:     320983 MISS:     476486 MSHR_MERGE:      17558
cpu0->cpu0_L1D WRITE        ACCESS:   25003385 HIT:   22833360 MISS:    2170025 MSHR_MERGE:    1501790
cpu0->cpu0_L1D TRANSLATION  ACCESS:      89442 HIT:      57036 MISS:      32406 MSHR_MERGE:        650
cpu0->cpu0_L1D PREFETCH REQUESTED:    1071057 ISSUED:     797461 USEFUL:     362282 USELESS:      96635
cpu0->cpu0_L1D AVERAGE MISS LATENCY: 199.7 cycles
cpu0->cpu0_ITLB TOTAL        ACCESS:   18264929 HIT:   18253193 MISS:      11736 MSHR_MERGE:       5789
cpu0->cpu0_ITLB LOAD         ACCESS:   18264929 HIT:   18253193 MISS:      11736 MSHR_MERGE:       5789
cpu0->cpu0_ITLB RFO          ACCESS:          0 HIT:          0 MISS:          0 MSHR_MERGE:          0
cpu0->cpu0_ITLB PREFETCH     ACCESS:          0 HIT:          0 MISS:          0 MSHR_MERGE:          0
cpu0->cpu0_ITLB WRITE        ACCESS:          0 HIT:          0 MISS:          0 MSHR_MERGE:          0
cpu0->cpu0_ITLB TRANSLATION  ACCESS:          0 HIT:          0 MISS:          0 MSHR_MERGE:          0
cpu0->cpu0_ITLB PREFETCH REQUESTED:          0 ISSUED:          0 USEFUL:          0 USELESS:          0
cpu0->cpu0_ITLB AVERAGE MISS LATENCY: 123.8 cycles
cpu0->cpu0_DTLB TOTAL        ACCESS:   54338275 HIT:   54044000 MISS:     294275 MSHR_MERGE:     162346
cpu0->cpu0_DTLB LOAD         ACCESS:   54338275 HIT:   54044000 MISS:     294275 MSHR_MERGE:     162346
cpu0->cpu0_DTLB RFO          ACCESS:          0 HIT:          0 MISS:          0 MSHR_MERGE:          0
cpu0->cpu0_DTLB PREFETCH     ACCESS:          0 HIT:          0 MISS:          0 MSHR_MERGE:          0
cpu0->cpu0_DTLB WRITE        ACCESS:          0 HIT:          0 MISS:          0 MSHR_MERGE:          0
cpu0->cpu0_DTLB TRANSLATION  ACCESS:          0 HIT:          0 MISS:          0 MSHR_MERGE:          0
cpu0->cpu0_DTLB PREFETCH REQUESTED:          0 ISSUED:          0 USEFUL:          0 USELESS:          0
cpu0->cpu0_DTLB AVERAGE MISS LATENCY: 73.31 cycles
cpu0->LLC TOTAL        ACCESS:    1709721 HIT:     256148 MISS:    1453573 MSHR_MERGE:          0
cpu0->LLC LOAD         ACCESS:     127978 HIT:      23789 MISS:     104189 MSHR_MERGE:          0
cpu0->LLC RFO          ACCESS:     518164 HIT:      58839 MISS:     459325 MSHR_MERGE:          0
cpu0->LLC PREFETCH     ACCESS:     470077 HIT:      67566 MISS:     402511 MSHR_MERGE:          0
cpu0->LLC WRITE        ACCESS:     570295 HIT:     103617 MISS:     466678 MSHR_MERGE:          0
cpu0->LLC TRANSLATION  ACCESS:      23207 HIT:       2337 MISS:      20870 MSHR_MERGE:          0
cpu0->LLC PREFETCH REQUESTED:          0 ISSUED:          0 USEFUL:          0 USELESS:          0
cpu0->LLC AVERAGE MISS LATENCY: 169.9 cycles

DRAM Statistics

Channel 0 RQ ROW_BUFFER_HIT:     103847
  ROW_BUFFER_MISS:     882988
  AVG DBUS CONGESTED CYCLE: 16.52
Channel 0 WQ ROW_BUFFER_HIT:      65691
  ROW_BUFFER_MISS:     432474
  FULL:      47306
Channel 0 REFRESHES ISSUED:       9709
