[VMEM] WARNING: physical memory size is smaller than virtual memory size.

*** ChampSim Multicore Out-of-Order Simulator ***
Warmup Instructions: 50000000
Simulation Instructions: 200000000
Number of CPUs: 1
Page size: 4096
Core 0: /local-ssd/ben/dpc4-traces/gtraces_v2/sierra.a.6_0004.champsim.gz
 L1D Berti prefetcher
Off-chip DRAM Size: 64 GiB Channels: 1 Width: 64-bit Data Rate: 4807 MT/s
[BTB] WARNING: target of return is a lower address than the corresponding call. This is usually a problem with your trace.
[BTB] WARNING: target of return is a lower address than the corresponding call. This is usually a problem with your trace.
[BTB] WARNING: target of return is a lower address than the corresponding call. This is usually a problem with your trace.
[BTB] WARNING: target of return is a lower address than the corresponding call. This is usually a problem with your trace.
[BTB] WARNING: target of return is a lower address than the corresponding call. This is usually a problem with your trace.
[BTB] WARNING: target of return is a lower address than the corresponding call. This is usually a problem with your trace.
Heartbeat CPU 0 instructions: 500006 cycles: 210156 heartbeat IPC: 2.379 cumulative IPC: 2.379 (Simulation time: 00 hr 00 min 03 sec)
[BTB] WARNING: target of return is a lower address than the corresponding call. This is usually a problem with your trace.
[BTB] WARNING: target of return is a lower address than the corresponding call. This is usually a problem with your trace.
[BTB] WARNING: target of return is a lower address than the corresponding call. This is usually a problem with your trace.
[BTB] WARNING: target of return is a lower address than the corresponding call. This is usually a problem with your trace.
Heartbeat CPU 0 instructions: 1000006 cycles: 440212 heartbeat IPC: 2.173 cumulative IPC: 2.272 (Simulation time: 00 hr 00 min 07 sec)
Heartbeat CPU 0 instructions: 1500012 cycles: 637395 heartbeat IPC: 2.536 cumulative IPC: 2.353 (Simulation time: 00 hr 00 min 10 sec)
Heartbeat CPU 0 instructions: 2000015 cycles: 838945 heartbeat IPC: 2.481 cumulative IPC: 2.384 (Simulation time: 00 hr 00 min 14 sec)
Heartbeat CPU 0 instructions: 2500020 cycles: 994284 heartbeat IPC: 3.219 cumulative IPC: 2.514 (Simulation time: 00 hr 00 min 16 sec)
Heartbeat CPU 0 instructions: 3000027 cycles: 1147243 heartbeat IPC: 3.269 cumulative IPC: 2.615 (Simulation time: 00 hr 00 min 19 sec)
Heartbeat CPU 0 instructions: 3500029 cycles: 1291167 heartbeat IPC: 3.474 cumulative IPC: 2.711 (Simulation time: 00 hr 00 min 21 sec)
Heartbeat CPU 0 instructions: 4000029 cycles: 1460855 heartbeat IPC: 2.947 cumulative IPC: 2.738 (Simulation time: 00 hr 00 min 24 sec)
Heartbeat CPU 0 instructions: 4500034 cycles: 1580972 heartbeat IPC: 4.163 cumulative IPC: 2.846 (Simulation time: 00 hr 00 min 26 sec)
Heartbeat CPU 0 instructions: 5000037 cycles: 1741824 heartbeat IPC: 3.108 cumulative IPC: 2.871 (Simulation time: 00 hr 00 min 29 sec)
Heartbeat CPU 0 instructions: 5500037 cycles: 1889535 heartbeat IPC: 3.385 cumulative IPC: 2.911 (Simulation time: 00 hr 00 min 32 sec)
Heartbeat CPU 0 instructions: 6000043 cycles: 2039326 heartbeat IPC: 3.338 cumulative IPC: 2.942 (Simulation time: 00 hr 00 min 35 sec)
Heartbeat CPU 0 instructions: 6500045 cycles: 2164214 heartbeat IPC: 4.004 cumulative IPC: 3.003 (Simulation time: 00 hr 00 min 37 sec)
Heartbeat CPU 0 instructions: 7000051 cycles: 2292170 heartbeat IPC: 3.908 cumulative IPC: 3.054 (Simulation time: 00 hr 00 min 40 sec)
Heartbeat CPU 0 instructions: 7500051 cycles: 2427262 heartbeat IPC: 3.701 cumulative IPC: 3.09 (Simulation time: 00 hr 00 min 43 sec)
Heartbeat CPU 0 instructions: 8000055 cycles: 2560382 heartbeat IPC: 3.756 cumulative IPC: 3.125 (Simulation time: 00 hr 00 min 45 sec)
Heartbeat CPU 0 instructions: 8500057 cycles: 2692574 heartbeat IPC: 3.782 cumulative IPC: 3.157 (Simulation time: 00 hr 00 min 48 sec)
Heartbeat CPU 0 instructions: 9000058 cycles: 2825660 heartbeat IPC: 3.757 cumulative IPC: 3.185 (Simulation time: 00 hr 00 min 50 sec)
Heartbeat CPU 0 instructions: 9500060 cycles: 2967008 heartbeat IPC: 3.537 cumulative IPC: 3.202 (Simulation time: 00 hr 00 min 53 sec)
Heartbeat CPU 0 instructions: 10000061 cycles: 3098552 heartbeat IPC: 3.801 cumulative IPC: 3.227 (Simulation time: 00 hr 00 min 56 sec)
Heartbeat CPU 0 instructions: 10500066 cycles: 3219937 heartbeat IPC: 4.119 cumulative IPC: 3.261 (Simulation time: 00 hr 00 min 58 sec)
Heartbeat CPU 0 instructions: 11000066 cycles: 3381255 heartbeat IPC: 3.099 cumulative IPC: 3.253 (Simulation time: 00 hr 01 min 01 sec)
Heartbeat CPU 0 instructions: 11500067 cycles: 3516769 heartbeat IPC: 3.69 cumulative IPC: 3.27 (Simulation time: 00 hr 01 min 03 sec)
Heartbeat CPU 0 instructions: 12000071 cycles: 3640899 heartbeat IPC: 4.028 cumulative IPC: 3.296 (Simulation time: 00 hr 01 min 06 sec)
Heartbeat CPU 0 instructions: 12500078 cycles: 3790112 heartbeat IPC: 3.351 cumulative IPC: 3.298 (Simulation time: 00 hr 01 min 09 sec)
Heartbeat CPU 0 instructions: 13000081 cycles: 3930270 heartbeat IPC: 3.567 cumulative IPC: 3.308 (Simulation time: 00 hr 01 min 11 sec)
Heartbeat CPU 0 instructions: 13500085 cycles: 4120883 heartbeat IPC: 2.623 cumulative IPC: 3.276 (Simulation time: 00 hr 01 min 15 sec)
Heartbeat CPU 0 instructions: 14000089 cycles: 4320376 heartbeat IPC: 2.506 cumulative IPC: 3.24 (Simulation time: 00 hr 01 min 18 sec)
Heartbeat CPU 0 instructions: 14500089 cycles: 4532227 heartbeat IPC: 2.36 cumulative IPC: 3.199 (Simulation time: 00 hr 01 min 21 sec)
Heartbeat CPU 0 instructions: 15000090 cycles: 4721496 heartbeat IPC: 2.642 cumulative IPC: 3.177 (Simulation time: 00 hr 01 min 24 sec)
Heartbeat CPU 0 instructions: 15500094 cycles: 4932535 heartbeat IPC: 2.369 cumulative IPC: 3.142 (Simulation time: 00 hr 01 min 28 sec)
Heartbeat CPU 0 instructions: 16000097 cycles: 5134030 heartbeat IPC: 2.481 cumulative IPC: 3.116 (Simulation time: 00 hr 01 min 31 sec)
Heartbeat CPU 0 instructions: 16500100 cycles: 5337863 heartbeat IPC: 2.453 cumulative IPC: 3.091 (Simulation time: 00 hr 01 min 35 sec)
Heartbeat CPU 0 instructions: 17000101 cycles: 5549567 heartbeat IPC: 2.362 cumulative IPC: 3.063 (Simulation time: 00 hr 01 min 38 sec)
Heartbeat CPU 0 instructions: 17500102 cycles: 5724696 heartbeat IPC: 2.855 cumulative IPC: 3.057 (Simulation time: 00 hr 01 min 41 sec)
Heartbeat CPU 0 instructions: 18000105 cycles: 5891807 heartbeat IPC: 2.992 cumulative IPC: 3.055 (Simulation time: 00 hr 01 min 44 sec)
Heartbeat CPU 0 instructions: 18500109 cycles: 6023553 heartbeat IPC: 3.795 cumulative IPC: 3.071 (Simulation time: 00 hr 01 min 46 sec)
Heartbeat CPU 0 instructions: 19000114 cycles: 6225737 heartbeat IPC: 2.473 cumulative IPC: 3.052 (Simulation time: 00 hr 01 min 50 sec)
Heartbeat CPU 0 instructions: 19500117 cycles: 6388887 heartbeat IPC: 3.065 cumulative IPC: 3.052 (Simulation time: 00 hr 01 min 53 sec)
Heartbeat CPU 0 instructions: 20000123 cycles: 6522301 heartbeat IPC: 3.748 cumulative IPC: 3.066 (Simulation time: 00 hr 01 min 55 sec)
Heartbeat CPU 0 instructions: 20500126 cycles: 6666070 heartbeat IPC: 3.478 cumulative IPC: 3.075 (Simulation time: 00 hr 01 min 58 sec)
Heartbeat CPU 0 instructions: 21000128 cycles: 6814904 heartbeat IPC: 3.359 cumulative IPC: 3.082 (Simulation time: 00 hr 02 min 00 sec)
Heartbeat CPU 0 instructions: 21500133 cycles: 6938413 heartbeat IPC: 4.048 cumulative IPC: 3.099 (Simulation time: 00 hr 02 min 03 sec)
Heartbeat CPU 0 instructions: 22000138 cycles: 7062538 heartbeat IPC: 4.028 cumulative IPC: 3.115 (Simulation time: 00 hr 02 min 06 sec)
Heartbeat CPU 0 instructions: 22500144 cycles: 7195019 heartbeat IPC: 3.774 cumulative IPC: 3.127 (Simulation time: 00 hr 02 min 08 sec)
Heartbeat CPU 0 instructions: 23000150 cycles: 7331236 heartbeat IPC: 3.671 cumulative IPC: 3.137 (Simulation time: 00 hr 02 min 11 sec)
Heartbeat CPU 0 instructions: 23500155 cycles: 7482341 heartbeat IPC: 3.309 cumulative IPC: 3.141 (Simulation time: 00 hr 02 min 13 sec)
Heartbeat CPU 0 instructions: 24000160 cycles: 7632818 heartbeat IPC: 3.323 cumulative IPC: 3.144 (Simulation time: 00 hr 02 min 16 sec)
Heartbeat CPU 0 instructions: 24500160 cycles: 7786866 heartbeat IPC: 3.246 cumulative IPC: 3.146 (Simulation time: 00 hr 02 min 19 sec)
Heartbeat CPU 0 instructions: 25000161 cycles: 7910579 heartbeat IPC: 4.042 cumulative IPC: 3.16 (Simulation time: 00 hr 02 min 21 sec)
Heartbeat CPU 0 instructions: 25500163 cycles: 8033160 heartbeat IPC: 4.079 cumulative IPC: 3.174 (Simulation time: 00 hr 02 min 24 sec)
Heartbeat CPU 0 instructions: 26000164 cycles: 8153675 heartbeat IPC: 4.149 cumulative IPC: 3.189 (Simulation time: 00 hr 02 min 26 sec)
Heartbeat CPU 0 instructions: 26500165 cycles: 8292209 heartbeat IPC: 3.609 cumulative IPC: 3.196 (Simulation time: 00 hr 02 min 29 sec)
Heartbeat CPU 0 instructions: 27000165 cycles: 8415095 heartbeat IPC: 4.069 cumulative IPC: 3.209 (Simulation time: 00 hr 02 min 32 sec)
Heartbeat CPU 0 instructions: 27500170 cycles: 8558839 heartbeat IPC: 3.478 cumulative IPC: 3.213 (Simulation time: 00 hr 02 min 34 sec)
Heartbeat CPU 0 instructions: 28000170 cycles: 8691673 heartbeat IPC: 3.764 cumulative IPC: 3.221 (Simulation time: 00 hr 02 min 37 sec)
Heartbeat CPU 0 instructions: 28500176 cycles: 8823190 heartbeat IPC: 3.802 cumulative IPC: 3.23 (Simulation time: 00 hr 02 min 39 sec)
Heartbeat CPU 0 instructions: 29000181 cycles: 8972627 heartbeat IPC: 3.346 cumulative IPC: 3.232 (Simulation time: 00 hr 02 min 42 sec)
Heartbeat CPU 0 instructions: 29500186 cycles: 9123077 heartbeat IPC: 3.323 cumulative IPC: 3.234 (Simulation time: 00 hr 02 min 45 sec)
Heartbeat CPU 0 instructions: 30000191 cycles: 9263633 heartbeat IPC: 3.557 cumulative IPC: 3.238 (Simulation time: 00 hr 02 min 48 sec)
Heartbeat CPU 0 instructions: 30500193 cycles: 9395892 heartbeat IPC: 3.78 cumulative IPC: 3.246 (Simulation time: 00 hr 02 min 50 sec)
Heartbeat CPU 0 instructions: 31000200 cycles: 9527624 heartbeat IPC: 3.796 cumulative IPC: 3.254 (Simulation time: 00 hr 02 min 53 sec)
Heartbeat CPU 0 instructions: 31500200 cycles: 9668097 heartbeat IPC: 3.559 cumulative IPC: 3.258 (Simulation time: 00 hr 02 min 56 sec)
Heartbeat CPU 0 instructions: 32000204 cycles: 9797983 heartbeat IPC: 3.85 cumulative IPC: 3.266 (Simulation time: 00 hr 02 min 58 sec)
Heartbeat CPU 0 instructions: 32500204 cycles: 9944395 heartbeat IPC: 3.415 cumulative IPC: 3.268 (Simulation time: 00 hr 03 min 01 sec)
Heartbeat CPU 0 instructions: 33000207 cycles: 10084470 heartbeat IPC: 3.57 cumulative IPC: 3.272 (Simulation time: 00 hr 03 min 03 sec)
Heartbeat CPU 0 instructions: 33500214 cycles: 10226965 heartbeat IPC: 3.509 cumulative IPC: 3.276 (Simulation time: 00 hr 03 min 06 sec)
Heartbeat CPU 0 instructions: 34000218 cycles: 10359750 heartbeat IPC: 3.766 cumulative IPC: 3.282 (Simulation time: 00 hr 03 min 09 sec)
Heartbeat CPU 0 instructions: 34500224 cycles: 10497585 heartbeat IPC: 3.628 cumulative IPC: 3.286 (Simulation time: 00 hr 03 min 11 sec)
Heartbeat CPU 0 instructions: 35000227 cycles: 10624658 heartbeat IPC: 3.935 cumulative IPC: 3.294 (Simulation time: 00 hr 03 min 14 sec)
Heartbeat CPU 0 instructions: 35500229 cycles: 10756568 heartbeat IPC: 3.79 cumulative IPC: 3.3 (Simulation time: 00 hr 03 min 16 sec)
Heartbeat CPU 0 instructions: 36000232 cycles: 10883291 heartbeat IPC: 3.946 cumulative IPC: 3.308 (Simulation time: 00 hr 03 min 19 sec)
Heartbeat CPU 0 instructions: 36500232 cycles: 11016972 heartbeat IPC: 3.74 cumulative IPC: 3.313 (Simulation time: 00 hr 03 min 21 sec)
Heartbeat CPU 0 instructions: 37000234 cycles: 11151395 heartbeat IPC: 3.72 cumulative IPC: 3.318 (Simulation time: 00 hr 03 min 24 sec)
Heartbeat CPU 0 instructions: 37500236 cycles: 11278210 heartbeat IPC: 3.943 cumulative IPC: 3.325 (Simulation time: 00 hr 03 min 27 sec)
Heartbeat CPU 0 instructions: 38000242 cycles: 11421332 heartbeat IPC: 3.494 cumulative IPC: 3.327 (Simulation time: 00 hr 03 min 29 sec)
Heartbeat CPU 0 instructions: 38500244 cycles: 11568514 heartbeat IPC: 3.397 cumulative IPC: 3.328 (Simulation time: 00 hr 03 min 32 sec)
Heartbeat CPU 0 instructions: 39000250 cycles: 11704477 heartbeat IPC: 3.678 cumulative IPC: 3.332 (Simulation time: 00 hr 03 min 35 sec)
Heartbeat CPU 0 instructions: 39500253 cycles: 11863485 heartbeat IPC: 3.145 cumulative IPC: 3.33 (Simulation time: 00 hr 03 min 37 sec)
Heartbeat CPU 0 instructions: 40000254 cycles: 12026255 heartbeat IPC: 3.072 cumulative IPC: 3.326 (Simulation time: 00 hr 03 min 40 sec)
Heartbeat CPU 0 instructions: 40500256 cycles: 12173757 heartbeat IPC: 3.39 cumulative IPC: 3.327 (Simulation time: 00 hr 03 min 43 sec)
Heartbeat CPU 0 instructions: 41000256 cycles: 12303331 heartbeat IPC: 3.859 cumulative IPC: 3.332 (Simulation time: 00 hr 03 min 46 sec)
Heartbeat CPU 0 instructions: 41500259 cycles: 12442103 heartbeat IPC: 3.603 cumulative IPC: 3.335 (Simulation time: 00 hr 03 min 48 sec)
Heartbeat CPU 0 instructions: 42000260 cycles: 12575803 heartbeat IPC: 3.74 cumulative IPC: 3.34 (Simulation time: 00 hr 03 min 51 sec)
Heartbeat CPU 0 instructions: 42500264 cycles: 12709653 heartbeat IPC: 3.736 cumulative IPC: 3.344 (Simulation time: 00 hr 03 min 54 sec)
Heartbeat CPU 0 instructions: 43000266 cycles: 12843878 heartbeat IPC: 3.725 cumulative IPC: 3.348 (Simulation time: 00 hr 03 min 56 sec)
Heartbeat CPU 0 instructions: 43500272 cycles: 12975932 heartbeat IPC: 3.786 cumulative IPC: 3.352 (Simulation time: 00 hr 03 min 59 sec)
Heartbeat CPU 0 instructions: 44000272 cycles: 13106541 heartbeat IPC: 3.828 cumulative IPC: 3.357 (Simulation time: 00 hr 04 min 01 sec)
Heartbeat CPU 0 instructions: 44500277 cycles: 13247139 heartbeat IPC: 3.556 cumulative IPC: 3.359 (Simulation time: 00 hr 04 min 04 sec)
Heartbeat CPU 0 instructions: 45000280 cycles: 13385049 heartbeat IPC: 3.626 cumulative IPC: 3.362 (Simulation time: 00 hr 04 min 06 sec)
Heartbeat CPU 0 instructions: 45500286 cycles: 13523558 heartbeat IPC: 3.61 cumulative IPC: 3.365 (Simulation time: 00 hr 04 min 09 sec)
Heartbeat CPU 0 instructions: 46000289 cycles: 13653392 heartbeat IPC: 3.851 cumulative IPC: 3.369 (Simulation time: 00 hr 04 min 11 sec)
Heartbeat CPU 0 instructions: 46500292 cycles: 13780775 heartbeat IPC: 3.925 cumulative IPC: 3.374 (Simulation time: 00 hr 04 min 14 sec)
Heartbeat CPU 0 instructions: 47000295 cycles: 13910002 heartbeat IPC: 3.869 cumulative IPC: 3.379 (Simulation time: 00 hr 04 min 16 sec)
Heartbeat CPU 0 instructions: 47500298 cycles: 14043540 heartbeat IPC: 3.744 cumulative IPC: 3.382 (Simulation time: 00 hr 04 min 19 sec)
Heartbeat CPU 0 instructions: 48000303 cycles: 14179946 heartbeat IPC: 3.666 cumulative IPC: 3.385 (Simulation time: 00 hr 04 min 22 sec)
Heartbeat CPU 0 instructions: 48500310 cycles: 14305906 heartbeat IPC: 3.97 cumulative IPC: 3.39 (Simulation time: 00 hr 04 min 24 sec)
Heartbeat CPU 0 instructions: 49000312 cycles: 14430653 heartbeat IPC: 4.008 cumulative IPC: 3.396 (Simulation time: 00 hr 04 min 26 sec)
Heartbeat CPU 0 instructions: 49500316 cycles: 14562784 heartbeat IPC: 3.784 cumulative IPC: 3.399 (Simulation time: 00 hr 04 min 29 sec)
Warmup finished CPU 0 instructions: 50000004 cycles: 14690320 cumulative IPC: 3.404 (Simulation time: 00 hr 04 min 31 sec)
Warmup complete CPU 0 instructions: 50000004 cycles: 14690320 cumulative IPC: 3.404 (Simulation time: 00 hr 04 min 31 sec)
Heartbeat CPU 0 instructions: 50000316 cycles: 14690362 heartbeat IPC: 3.919 cumulative IPC: 7.429 (Simulation time: 00 hr 04 min 31 sec)
Heartbeat CPU 0 instructions: 50500323 cycles: 15525448 heartbeat IPC: 0.5987 cumulative IPC: 0.5991 (Simulation time: 00 hr 04 min 38 sec)
Heartbeat CPU 0 instructions: 51000323 cycles: 16797643 heartbeat IPC: 0.393 cumulative IPC: 0.4747 (Simulation time: 00 hr 04 min 47 sec)
Heartbeat CPU 0 instructions: 51500326 cycles: 17987958 heartbeat IPC: 0.4201 cumulative IPC: 0.455 (Simulation time: 00 hr 04 min 56 sec)
Heartbeat CPU 0 instructions: 52000332 cycles: 19004512 heartbeat IPC: 0.4919 cumulative IPC: 0.4637 (Simulation time: 00 hr 05 min 03 sec)
Heartbeat CPU 0 instructions: 52500333 cycles: 20002137 heartbeat IPC: 0.5012 cumulative IPC: 0.4707 (Simulation time: 00 hr 05 min 10 sec)
Heartbeat CPU 0 instructions: 53000333 cycles: 21084484 heartbeat IPC: 0.462 cumulative IPC: 0.4692 (Simulation time: 00 hr 05 min 18 sec)
Heartbeat CPU 0 instructions: 53500333 cycles: 22194174 heartbeat IPC: 0.4506 cumulative IPC: 0.4665 (Simulation time: 00 hr 05 min 26 sec)
Heartbeat CPU 0 instructions: 54000337 cycles: 23302118 heartbeat IPC: 0.4513 cumulative IPC: 0.4645 (Simulation time: 00 hr 05 min 34 sec)
Heartbeat CPU 0 instructions: 54500339 cycles: 24319197 heartbeat IPC: 0.4916 cumulative IPC: 0.4674 (Simulation time: 00 hr 05 min 41 sec)
Heartbeat CPU 0 instructions: 55000341 cycles: 25056039 heartbeat IPC: 0.6786 cumulative IPC: 0.4824 (Simulation time: 00 hr 05 min 47 sec)
Heartbeat CPU 0 instructions: 55500344 cycles: 26036194 heartbeat IPC: 0.5101 cumulative IPC: 0.4848 (Simulation time: 00 hr 05 min 54 sec)
Heartbeat CPU 0 instructions: 56000344 cycles: 27205460 heartbeat IPC: 0.4276 cumulative IPC: 0.4794 (Simulation time: 00 hr 06 min 03 sec)
Heartbeat CPU 0 instructions: 56500344 cycles: 28211393 heartbeat IPC: 0.4971 cumulative IPC: 0.4808 (Simulation time: 00 hr 06 min 11 sec)
Heartbeat CPU 0 instructions: 57000348 cycles: 29068064 heartbeat IPC: 0.5837 cumulative IPC: 0.4869 (Simulation time: 00 hr 06 min 18 sec)
Heartbeat CPU 0 instructions: 57500348 cycles: 30211023 heartbeat IPC: 0.4375 cumulative IPC: 0.4832 (Simulation time: 00 hr 06 min 27 sec)
Heartbeat CPU 0 instructions: 58000348 cycles: 31453625 heartbeat IPC: 0.4024 cumulative IPC: 0.4773 (Simulation time: 00 hr 06 min 36 sec)
Heartbeat CPU 0 instructions: 58500349 cycles: 32533286 heartbeat IPC: 0.4631 cumulative IPC: 0.4764 (Simulation time: 00 hr 06 min 44 sec)
Heartbeat CPU 0 instructions: 59000349 cycles: 33369897 heartbeat IPC: 0.5976 cumulative IPC: 0.4818 (Simulation time: 00 hr 06 min 50 sec)
Heartbeat CPU 0 instructions: 59500350 cycles: 34201961 heartbeat IPC: 0.6009 cumulative IPC: 0.4869 (Simulation time: 00 hr 06 min 56 sec)
Heartbeat CPU 0 instructions: 60000353 cycles: 35445171 heartbeat IPC: 0.4022 cumulative IPC: 0.4818 (Simulation time: 00 hr 07 min 05 sec)
Heartbeat CPU 0 instructions: 60500360 cycles: 36688218 heartbeat IPC: 0.4022 cumulative IPC: 0.4773 (Simulation time: 00 hr 07 min 14 sec)
Heartbeat CPU 0 instructions: 61000365 cycles: 37950766 heartbeat IPC: 0.396 cumulative IPC: 0.4729 (Simulation time: 00 hr 07 min 23 sec)
Heartbeat CPU 0 instructions: 61500368 cycles: 38961333 heartbeat IPC: 0.4948 cumulative IPC: 0.4738 (Simulation time: 00 hr 07 min 30 sec)
Heartbeat CPU 0 instructions: 62000368 cycles: 40057771 heartbeat IPC: 0.456 cumulative IPC: 0.4731 (Simulation time: 00 hr 07 min 38 sec)
Heartbeat CPU 0 instructions: 62500369 cycles: 41023428 heartbeat IPC: 0.5178 cumulative IPC: 0.4747 (Simulation time: 00 hr 07 min 45 sec)
Heartbeat CPU 0 instructions: 63000371 cycles: 41896366 heartbeat IPC: 0.5728 cumulative IPC: 0.4778 (Simulation time: 00 hr 07 min 52 sec)
Heartbeat CPU 0 instructions: 63500371 cycles: 42994437 heartbeat IPC: 0.4553 cumulative IPC: 0.477 (Simulation time: 00 hr 08 min 00 sec)
Heartbeat CPU 0 instructions: 64000372 cycles: 44002344 heartbeat IPC: 0.4961 cumulative IPC: 0.4776 (Simulation time: 00 hr 08 min 07 sec)
Heartbeat CPU 0 instructions: 64500372 cycles: 45002621 heartbeat IPC: 0.4999 cumulative IPC: 0.4784 (Simulation time: 00 hr 08 min 14 sec)
Heartbeat CPU 0 instructions: 65000379 cycles: 45919157 heartbeat IPC: 0.5455 cumulative IPC: 0.4803 (Simulation time: 00 hr 08 min 21 sec)
Heartbeat CPU 0 instructions: 65500381 cycles: 46695029 heartbeat IPC: 0.6444 cumulative IPC: 0.4843 (Simulation time: 00 hr 08 min 27 sec)
Heartbeat CPU 0 instructions: 66000381 cycles: 47682344 heartbeat IPC: 0.5064 cumulative IPC: 0.485 (Simulation time: 00 hr 08 min 34 sec)
Heartbeat CPU 0 instructions: 66500382 cycles: 49209931 heartbeat IPC: 0.3273 cumulative IPC: 0.478 (Simulation time: 00 hr 08 min 45 sec)
Heartbeat CPU 0 instructions: 67000383 cycles: 50530324 heartbeat IPC: 0.3787 cumulative IPC: 0.4743 (Simulation time: 00 hr 08 min 54 sec)
Heartbeat CPU 0 instructions: 67500384 cycles: 51366008 heartbeat IPC: 0.5983 cumulative IPC: 0.4772 (Simulation time: 00 hr 09 min 01 sec)
Heartbeat CPU 0 instructions: 68000386 cycles: 52595359 heartbeat IPC: 0.4067 cumulative IPC: 0.4749 (Simulation time: 00 hr 09 min 09 sec)
Heartbeat CPU 0 instructions: 68500386 cycles: 53903894 heartbeat IPC: 0.3821 cumulative IPC: 0.4718 (Simulation time: 00 hr 09 min 18 sec)
Heartbeat CPU 0 instructions: 69000386 cycles: 54573663 heartbeat IPC: 0.7465 cumulative IPC: 0.4764 (Simulation time: 00 hr 09 min 24 sec)
Heartbeat CPU 0 instructions: 69500392 cycles: 54921732 heartbeat IPC: 1.437 cumulative IPC: 0.4847 (Simulation time: 00 hr 09 min 27 sec)
Heartbeat CPU 0 instructions: 70000399 cycles: 55228731 heartbeat IPC: 1.629 cumulative IPC: 0.4934 (Simulation time: 00 hr 09 min 30 sec)
Heartbeat CPU 0 instructions: 70500400 cycles: 55532301 heartbeat IPC: 1.647 cumulative IPC: 0.5019 (Simulation time: 00 hr 09 min 33 sec)
Heartbeat CPU 0 instructions: 71000403 cycles: 55854190 heartbeat IPC: 1.553 cumulative IPC: 0.5102 (Simulation time: 00 hr 09 min 36 sec)
Heartbeat CPU 0 instructions: 71500405 cycles: 56199829 heartbeat IPC: 1.447 cumulative IPC: 0.518 (Simulation time: 00 hr 09 min 39 sec)
Heartbeat CPU 0 instructions: 72000412 cycles: 56528879 heartbeat IPC: 1.52 cumulative IPC: 0.5258 (Simulation time: 00 hr 09 min 42 sec)
Heartbeat CPU 0 instructions: 72500412 cycles: 56803395 heartbeat IPC: 1.821 cumulative IPC: 0.5343 (Simulation time: 00 hr 09 min 44 sec)
Heartbeat CPU 0 instructions: 73000412 cycles: 58006635 heartbeat IPC: 0.4155 cumulative IPC: 0.531 (Simulation time: 00 hr 09 min 53 sec)
Heartbeat CPU 0 instructions: 73500417 cycles: 59111787 heartbeat IPC: 0.4524 cumulative IPC: 0.529 (Simulation time: 00 hr 10 min 01 sec)
Heartbeat CPU 0 instructions: 74000417 cycles: 60251751 heartbeat IPC: 0.4386 cumulative IPC: 0.5268 (Simulation time: 00 hr 10 min 09 sec)
Heartbeat CPU 0 instructions: 74500417 cycles: 61468801 heartbeat IPC: 0.4108 cumulative IPC: 0.5238 (Simulation time: 00 hr 10 min 18 sec)
Heartbeat CPU 0 instructions: 75000417 cycles: 62440202 heartbeat IPC: 0.5147 cumulative IPC: 0.5236 (Simulation time: 00 hr 10 min 25 sec)
Heartbeat CPU 0 instructions: 75500417 cycles: 63710733 heartbeat IPC: 0.3935 cumulative IPC: 0.5202 (Simulation time: 00 hr 10 min 34 sec)
Heartbeat CPU 0 instructions: 76000418 cycles: 64873802 heartbeat IPC: 0.4299 cumulative IPC: 0.5181 (Simulation time: 00 hr 10 min 42 sec)
Heartbeat CPU 0 instructions: 76500418 cycles: 65707336 heartbeat IPC: 0.5999 cumulative IPC: 0.5194 (Simulation time: 00 hr 10 min 49 sec)
Heartbeat CPU 0 instructions: 77000420 cycles: 66633973 heartbeat IPC: 0.5396 cumulative IPC: 0.5198 (Simulation time: 00 hr 10 min 55 sec)
Heartbeat CPU 0 instructions: 77500420 cycles: 67883623 heartbeat IPC: 0.4001 cumulative IPC: 0.517 (Simulation time: 00 hr 11 min 04 sec)
Heartbeat CPU 0 instructions: 78000421 cycles: 69031914 heartbeat IPC: 0.4354 cumulative IPC: 0.5153 (Simulation time: 00 hr 11 min 13 sec)
Heartbeat CPU 0 instructions: 78500424 cycles: 69913380 heartbeat IPC: 0.5672 cumulative IPC: 0.5161 (Simulation time: 00 hr 11 min 20 sec)
Heartbeat CPU 0 instructions: 79000424 cycles: 71077379 heartbeat IPC: 0.4296 cumulative IPC: 0.5143 (Simulation time: 00 hr 11 min 28 sec)
Heartbeat CPU 0 instructions: 79500424 cycles: 72223782 heartbeat IPC: 0.4361 cumulative IPC: 0.5128 (Simulation time: 00 hr 11 min 36 sec)
Heartbeat CPU 0 instructions: 80000424 cycles: 73366362 heartbeat IPC: 0.4376 cumulative IPC: 0.5113 (Simulation time: 00 hr 11 min 44 sec)
Heartbeat CPU 0 instructions: 80500426 cycles: 74220114 heartbeat IPC: 0.5857 cumulative IPC: 0.5124 (Simulation time: 00 hr 11 min 51 sec)
Heartbeat CPU 0 instructions: 81000430 cycles: 74591917 heartbeat IPC: 1.345 cumulative IPC: 0.5175 (Simulation time: 00 hr 11 min 54 sec)
Heartbeat CPU 0 instructions: 81500436 cycles: 74898374 heartbeat IPC: 1.632 cumulative IPC: 0.5232 (Simulation time: 00 hr 11 min 57 sec)
Heartbeat CPU 0 instructions: 82000440 cycles: 75208366 heartbeat IPC: 1.613 cumulative IPC: 0.5288 (Simulation time: 00 hr 12 min 00 sec)
Heartbeat CPU 0 instructions: 82500442 cycles: 75513451 heartbeat IPC: 1.639 cumulative IPC: 0.5343 (Simulation time: 00 hr 12 min 03 sec)
Heartbeat CPU 0 instructions: 83000442 cycles: 75828481 heartbeat IPC: 1.587 cumulative IPC: 0.5398 (Simulation time: 00 hr 12 min 06 sec)
Heartbeat CPU 0 instructions: 83500442 cycles: 76163740 heartbeat IPC: 1.491 cumulative IPC: 0.545 (Simulation time: 00 hr 12 min 09 sec)
Heartbeat CPU 0 instructions: 84000442 cycles: 76466326 heartbeat IPC: 1.652 cumulative IPC: 0.5504 (Simulation time: 00 hr 12 min 12 sec)
Heartbeat CPU 0 instructions: 84500442 cycles: 77529138 heartbeat IPC: 0.4705 cumulative IPC: 0.549 (Simulation time: 00 hr 12 min 20 sec)
Heartbeat CPU 0 instructions: 85000442 cycles: 78651726 heartbeat IPC: 0.4454 cumulative IPC: 0.5472 (Simulation time: 00 hr 12 min 28 sec)
Heartbeat CPU 0 instructions: 85500442 cycles: 80018000 heartbeat IPC: 0.366 cumulative IPC: 0.5434 (Simulation time: 00 hr 12 min 37 sec)
Heartbeat CPU 0 instructions: 86000442 cycles: 81300074 heartbeat IPC: 0.39 cumulative IPC: 0.5405 (Simulation time: 00 hr 12 min 47 sec)
Heartbeat CPU 0 instructions: 86500442 cycles: 82645672 heartbeat IPC: 0.3716 cumulative IPC: 0.5371 (Simulation time: 00 hr 12 min 56 sec)
Heartbeat CPU 0 instructions: 87000442 cycles: 83558695 heartbeat IPC: 0.5476 cumulative IPC: 0.5373 (Simulation time: 00 hr 13 min 03 sec)
Heartbeat CPU 0 instructions: 87500442 cycles: 84470203 heartbeat IPC: 0.5485 cumulative IPC: 0.5374 (Simulation time: 00 hr 13 min 10 sec)
Heartbeat CPU 0 instructions: 88000444 cycles: 85508368 heartbeat IPC: 0.4816 cumulative IPC: 0.5366 (Simulation time: 00 hr 13 min 17 sec)
Heartbeat CPU 0 instructions: 88500447 cycles: 86580549 heartbeat IPC: 0.4663 cumulative IPC: 0.5355 (Simulation time: 00 hr 13 min 25 sec)
Heartbeat CPU 0 instructions: 89000448 cycles: 88013952 heartbeat IPC: 0.3488 cumulative IPC: 0.5319 (Simulation time: 00 hr 13 min 35 sec)
Heartbeat CPU 0 instructions: 89500449 cycles: 88884877 heartbeat IPC: 0.5741 cumulative IPC: 0.5324 (Simulation time: 00 hr 13 min 41 sec)
Heartbeat CPU 0 instructions: 90000452 cycles: 89771039 heartbeat IPC: 0.5642 cumulative IPC: 0.5328 (Simulation time: 00 hr 13 min 48 sec)
Heartbeat CPU 0 instructions: 90500453 cycles: 90823214 heartbeat IPC: 0.4752 cumulative IPC: 0.532 (Simulation time: 00 hr 13 min 56 sec)
Heartbeat CPU 0 instructions: 91000453 cycles: 92042705 heartbeat IPC: 0.41 cumulative IPC: 0.53 (Simulation time: 00 hr 14 min 04 sec)
Heartbeat CPU 0 instructions: 91500453 cycles: 92898002 heartbeat IPC: 0.5846 cumulative IPC: 0.5306 (Simulation time: 00 hr 14 min 11 sec)
Heartbeat CPU 0 instructions: 92000453 cycles: 94144390 heartbeat IPC: 0.4012 cumulative IPC: 0.5286 (Simulation time: 00 hr 14 min 20 sec)
Heartbeat CPU 0 instructions: 92500453 cycles: 95086531 heartbeat IPC: 0.5307 cumulative IPC: 0.5286 (Simulation time: 00 hr 14 min 27 sec)
Heartbeat CPU 0 instructions: 93000454 cycles: 96069418 heartbeat IPC: 0.5087 cumulative IPC: 0.5284 (Simulation time: 00 hr 14 min 34 sec)
Heartbeat CPU 0 instructions: 93500459 cycles: 96432197 heartbeat IPC: 1.378 cumulative IPC: 0.5322 (Simulation time: 00 hr 14 min 37 sec)
Heartbeat CPU 0 instructions: 94000459 cycles: 96788334 heartbeat IPC: 1.404 cumulative IPC: 0.536 (Simulation time: 00 hr 14 min 41 sec)
Heartbeat CPU 0 instructions: 94500461 cycles: 97132713 heartbeat IPC: 1.452 cumulative IPC: 0.5398 (Simulation time: 00 hr 14 min 44 sec)
Heartbeat CPU 0 instructions: 95000461 cycles: 98525108 heartbeat IPC: 0.3591 cumulative IPC: 0.5368 (Simulation time: 00 hr 14 min 53 sec)
Heartbeat CPU 0 instructions: 95500467 cycles: 99504943 heartbeat IPC: 0.5103 cumulative IPC: 0.5365 (Simulation time: 00 hr 15 min 00 sec)
Heartbeat CPU 0 instructions: 96000470 cycles: 100628900 heartbeat IPC: 0.4449 cumulative IPC: 0.5353 (Simulation time: 00 hr 15 min 08 sec)
Heartbeat CPU 0 instructions: 96500474 cycles: 101474848 heartbeat IPC: 0.5911 cumulative IPC: 0.5358 (Simulation time: 00 hr 15 min 15 sec)
Heartbeat CPU 0 instructions: 97000475 cycles: 102088488 heartbeat IPC: 0.8148 cumulative IPC: 0.5378 (Simulation time: 00 hr 15 min 20 sec)
Heartbeat CPU 0 instructions: 97500481 cycles: 102961598 heartbeat IPC: 0.5727 cumulative IPC: 0.5381 (Simulation time: 00 hr 15 min 26 sec)
Heartbeat CPU 0 instructions: 98000485 cycles: 103827801 heartbeat IPC: 0.5772 cumulative IPC: 0.5385 (Simulation time: 00 hr 15 min 33 sec)
Heartbeat CPU 0 instructions: 98500487 cycles: 105145745 heartbeat IPC: 0.3794 cumulative IPC: 0.5362 (Simulation time: 00 hr 15 min 42 sec)
Heartbeat CPU 0 instructions: 99000487 cycles: 106273121 heartbeat IPC: 0.4435 cumulative IPC: 0.535 (Simulation time: 00 hr 15 min 50 sec)
Heartbeat CPU 0 instructions: 99500494 cycles: 107444845 heartbeat IPC: 0.4267 cumulative IPC: 0.5337 (Simulation time: 00 hr 15 min 59 sec)
Heartbeat CPU 0 instructions: 100000494 cycles: 108403976 heartbeat IPC: 0.5213 cumulative IPC: 0.5335 (Simulation time: 00 hr 16 min 06 sec)
Heartbeat CPU 0 instructions: 100500496 cycles: 109434586 heartbeat IPC: 0.4852 cumulative IPC: 0.533 (Simulation time: 00 hr 16 min 13 sec)
Heartbeat CPU 0 instructions: 101000501 cycles: 110543098 heartbeat IPC: 0.4511 cumulative IPC: 0.5321 (Simulation time: 00 hr 16 min 21 sec)
Heartbeat CPU 0 instructions: 101500502 cycles: 111422464 heartbeat IPC: 0.5686 cumulative IPC: 0.5324 (Simulation time: 00 hr 16 min 28 sec)
Heartbeat CPU 0 instructions: 102000502 cycles: 112336957 heartbeat IPC: 0.5468 cumulative IPC: 0.5325 (Simulation time: 00 hr 16 min 35 sec)
Heartbeat CPU 0 instructions: 102500505 cycles: 113294788 heartbeat IPC: 0.522 cumulative IPC: 0.5324 (Simulation time: 00 hr 16 min 42 sec)
Heartbeat CPU 0 instructions: 103000506 cycles: 114437594 heartbeat IPC: 0.4375 cumulative IPC: 0.5313 (Simulation time: 00 hr 16 min 50 sec)
Heartbeat CPU 0 instructions: 103500506 cycles: 115022147 heartbeat IPC: 0.8554 cumulative IPC: 0.5332 (Simulation time: 00 hr 16 min 55 sec)
Heartbeat CPU 0 instructions: 104000506 cycles: 116740679 heartbeat IPC: 0.2909 cumulative IPC: 0.5292 (Simulation time: 00 hr 17 min 07 sec)
Heartbeat CPU 0 instructions: 104500507 cycles: 117854654 heartbeat IPC: 0.4488 cumulative IPC: 0.5283 (Simulation time: 00 hr 17 min 15 sec)
Heartbeat CPU 0 instructions: 105000508 cycles: 118764729 heartbeat IPC: 0.5494 cumulative IPC: 0.5285 (Simulation time: 00 hr 17 min 22 sec)
Heartbeat CPU 0 instructions: 105500509 cycles: 120110228 heartbeat IPC: 0.3716 cumulative IPC: 0.5265 (Simulation time: 00 hr 17 min 31 sec)
Heartbeat CPU 0 instructions: 106000510 cycles: 121074211 heartbeat IPC: 0.5187 cumulative IPC: 0.5264 (Simulation time: 00 hr 17 min 38 sec)
Heartbeat CPU 0 instructions: 106500511 cycles: 122111301 heartbeat IPC: 0.4821 cumulative IPC: 0.526 (Simulation time: 00 hr 17 min 46 sec)
Heartbeat CPU 0 instructions: 107000511 cycles: 122980029 heartbeat IPC: 0.5756 cumulative IPC: 0.5264 (Simulation time: 00 hr 17 min 53 sec)
Heartbeat CPU 0 instructions: 107500511 cycles: 124044836 heartbeat IPC: 0.4696 cumulative IPC: 0.5258 (Simulation time: 00 hr 18 min 01 sec)
Heartbeat CPU 0 instructions: 108000511 cycles: 124917635 heartbeat IPC: 0.5729 cumulative IPC: 0.5262 (Simulation time: 00 hr 18 min 07 sec)
Heartbeat CPU 0 instructions: 108500515 cycles: 125789084 heartbeat IPC: 0.5738 cumulative IPC: 0.5266 (Simulation time: 00 hr 18 min 13 sec)
Heartbeat CPU 0 instructions: 109000516 cycles: 127015543 heartbeat IPC: 0.4077 cumulative IPC: 0.5253 (Simulation time: 00 hr 18 min 22 sec)
Heartbeat CPU 0 instructions: 109500516 cycles: 127855505 heartbeat IPC: 0.5953 cumulative IPC: 0.5258 (Simulation time: 00 hr 18 min 29 sec)
Heartbeat CPU 0 instructions: 110000520 cycles: 128742241 heartbeat IPC: 0.5639 cumulative IPC: 0.5261 (Simulation time: 00 hr 18 min 35 sec)
Heartbeat CPU 0 instructions: 110500524 cycles: 129695999 heartbeat IPC: 0.5242 cumulative IPC: 0.5261 (Simulation time: 00 hr 18 min 42 sec)
Heartbeat CPU 0 instructions: 111000524 cycles: 130540051 heartbeat IPC: 0.5924 cumulative IPC: 0.5265 (Simulation time: 00 hr 18 min 48 sec)
Heartbeat CPU 0 instructions: 111500524 cycles: 131792683 heartbeat IPC: 0.3992 cumulative IPC: 0.5252 (Simulation time: 00 hr 18 min 57 sec)
Heartbeat CPU 0 instructions: 112000529 cycles: 132798274 heartbeat IPC: 0.4972 cumulative IPC: 0.5249 (Simulation time: 00 hr 19 min 05 sec)
Heartbeat CPU 0 instructions: 112500531 cycles: 133876275 heartbeat IPC: 0.4638 cumulative IPC: 0.5244 (Simulation time: 00 hr 19 min 12 sec)
Heartbeat CPU 0 instructions: 113000532 cycles: 135098869 heartbeat IPC: 0.409 cumulative IPC: 0.5232 (Simulation time: 00 hr 19 min 21 sec)
Heartbeat CPU 0 instructions: 113500534 cycles: 136001364 heartbeat IPC: 0.554 cumulative IPC: 0.5235 (Simulation time: 00 hr 19 min 28 sec)
Heartbeat CPU 0 instructions: 114000535 cycles: 137586199 heartbeat IPC: 0.3155 cumulative IPC: 0.5208 (Simulation time: 00 hr 19 min 38 sec)
Heartbeat CPU 0 instructions: 114500539 cycles: 139173699 heartbeat IPC: 0.315 cumulative IPC: 0.5181 (Simulation time: 00 hr 19 min 49 sec)
Heartbeat CPU 0 instructions: 115000539 cycles: 140416298 heartbeat IPC: 0.4024 cumulative IPC: 0.517 (Simulation time: 00 hr 19 min 58 sec)
Heartbeat CPU 0 instructions: 115500541 cycles: 141492819 heartbeat IPC: 0.4645 cumulative IPC: 0.5166 (Simulation time: 00 hr 20 min 06 sec)
Heartbeat CPU 0 instructions: 116000542 cycles: 142810508 heartbeat IPC: 0.3795 cumulative IPC: 0.5151 (Simulation time: 00 hr 20 min 15 sec)
Heartbeat CPU 0 instructions: 116500543 cycles: 143640052 heartbeat IPC: 0.6027 cumulative IPC: 0.5157 (Simulation time: 00 hr 20 min 21 sec)
Heartbeat CPU 0 instructions: 117000545 cycles: 144367049 heartbeat IPC: 0.6878 cumulative IPC: 0.5167 (Simulation time: 00 hr 20 min 27 sec)
Heartbeat CPU 0 instructions: 117500547 cycles: 145086323 heartbeat IPC: 0.6951 cumulative IPC: 0.5177 (Simulation time: 00 hr 20 min 33 sec)
Heartbeat CPU 0 instructions: 118000551 cycles: 145912539 heartbeat IPC: 0.6052 cumulative IPC: 0.5182 (Simulation time: 00 hr 20 min 39 sec)
Heartbeat CPU 0 instructions: 118500551 cycles: 147170120 heartbeat IPC: 0.3976 cumulative IPC: 0.5171 (Simulation time: 00 hr 20 min 48 sec)
Heartbeat CPU 0 instructions: 119000552 cycles: 148351387 heartbeat IPC: 0.4233 cumulative IPC: 0.5162 (Simulation time: 00 hr 20 min 57 sec)
Heartbeat CPU 0 instructions: 119500555 cycles: 149286771 heartbeat IPC: 0.5345 cumulative IPC: 0.5164 (Simulation time: 00 hr 21 min 04 sec)
Heartbeat CPU 0 instructions: 120000559 cycles: 151005610 heartbeat IPC: 0.2909 cumulative IPC: 0.5135 (Simulation time: 00 hr 21 min 16 sec)
Heartbeat CPU 0 instructions: 120500559 cycles: 152145734 heartbeat IPC: 0.4385 cumulative IPC: 0.5129 (Simulation time: 00 hr 21 min 24 sec)
Heartbeat CPU 0 instructions: 121000559 cycles: 153027433 heartbeat IPC: 0.5671 cumulative IPC: 0.5132 (Simulation time: 00 hr 21 min 30 sec)
Heartbeat CPU 0 instructions: 121500559 cycles: 154011420 heartbeat IPC: 0.5081 cumulative IPC: 0.5132 (Simulation time: 00 hr 21 min 37 sec)
Heartbeat CPU 0 instructions: 122000561 cycles: 155257684 heartbeat IPC: 0.4012 cumulative IPC: 0.5122 (Simulation time: 00 hr 21 min 46 sec)
Heartbeat CPU 0 instructions: 122500561 cycles: 156323293 heartbeat IPC: 0.4692 cumulative IPC: 0.5119 (Simulation time: 00 hr 21 min 53 sec)
Heartbeat CPU 0 instructions: 123000561 cycles: 157484431 heartbeat IPC: 0.4306 cumulative IPC: 0.5112 (Simulation time: 00 hr 22 min 01 sec)
Heartbeat CPU 0 instructions: 123500561 cycles: 158711528 heartbeat IPC: 0.4075 cumulative IPC: 0.5103 (Simulation time: 00 hr 22 min 09 sec)
Heartbeat CPU 0 instructions: 124000562 cycles: 159750089 heartbeat IPC: 0.4814 cumulative IPC: 0.5101 (Simulation time: 00 hr 22 min 17 sec)
Heartbeat CPU 0 instructions: 124500566 cycles: 160547614 heartbeat IPC: 0.6269 cumulative IPC: 0.5108 (Simulation time: 00 hr 22 min 22 sec)
Heartbeat CPU 0 instructions: 125000570 cycles: 161526419 heartbeat IPC: 0.5108 cumulative IPC: 0.5108 (Simulation time: 00 hr 22 min 29 sec)
Heartbeat CPU 0 instructions: 125500570 cycles: 162529146 heartbeat IPC: 0.4986 cumulative IPC: 0.5107 (Simulation time: 00 hr 22 min 36 sec)
Heartbeat CPU 0 instructions: 126000571 cycles: 163663288 heartbeat IPC: 0.4409 cumulative IPC: 0.5102 (Simulation time: 00 hr 22 min 43 sec)
Heartbeat CPU 0 instructions: 126500571 cycles: 164718008 heartbeat IPC: 0.4741 cumulative IPC: 0.5099 (Simulation time: 00 hr 22 min 51 sec)
Heartbeat CPU 0 instructions: 127000571 cycles: 165632668 heartbeat IPC: 0.5467 cumulative IPC: 0.5101 (Simulation time: 00 hr 22 min 57 sec)
Heartbeat CPU 0 instructions: 127500571 cycles: 166548386 heartbeat IPC: 0.546 cumulative IPC: 0.5103 (Simulation time: 00 hr 23 min 03 sec)
Heartbeat CPU 0 instructions: 128000574 cycles: 166932117 heartbeat IPC: 1.303 cumulative IPC: 0.5123 (Simulation time: 00 hr 23 min 07 sec)
Heartbeat CPU 0 instructions: 128500579 cycles: 167251929 heartbeat IPC: 1.563 cumulative IPC: 0.5145 (Simulation time: 00 hr 23 min 10 sec)
Heartbeat CPU 0 instructions: 129000579 cycles: 167572061 heartbeat IPC: 1.562 cumulative IPC: 0.5167 (Simulation time: 00 hr 23 min 12 sec)
Heartbeat CPU 0 instructions: 129500579 cycles: 169048105 heartbeat IPC: 0.3387 cumulative IPC: 0.515 (Simulation time: 00 hr 23 min 22 sec)
Heartbeat CPU 0 instructions: 130000579 cycles: 170429837 heartbeat IPC: 0.3619 cumulative IPC: 0.5137 (Simulation time: 00 hr 23 min 32 sec)
Heartbeat CPU 0 instructions: 130500579 cycles: 171543144 heartbeat IPC: 0.4491 cumulative IPC: 0.5132 (Simulation time: 00 hr 23 min 39 sec)
Heartbeat CPU 0 instructions: 131000586 cycles: 172764719 heartbeat IPC: 0.4093 cumulative IPC: 0.5124 (Simulation time: 00 hr 23 min 47 sec)
Heartbeat CPU 0 instructions: 131500587 cycles: 173824572 heartbeat IPC: 0.4718 cumulative IPC: 0.5121 (Simulation time: 00 hr 23 min 55 sec)
Heartbeat CPU 0 instructions: 132000591 cycles: 175552077 heartbeat IPC: 0.2894 cumulative IPC: 0.5098 (Simulation time: 00 hr 24 min 06 sec)
Heartbeat CPU 0 instructions: 132500591 cycles: 176680399 heartbeat IPC: 0.4431 cumulative IPC: 0.5093 (Simulation time: 00 hr 24 min 13 sec)
Heartbeat CPU 0 instructions: 133000594 cycles: 177905615 heartbeat IPC: 0.4081 cumulative IPC: 0.5085 (Simulation time: 00 hr 24 min 22 sec)
Heartbeat CPU 0 instructions: 133500601 cycles: 178992665 heartbeat IPC: 0.46 cumulative IPC: 0.5082 (Simulation time: 00 hr 24 min 29 sec)
Heartbeat CPU 0 instructions: 134000604 cycles: 179988728 heartbeat IPC: 0.502 cumulative IPC: 0.5082 (Simulation time: 00 hr 24 min 36 sec)
Heartbeat CPU 0 instructions: 134500606 cycles: 181261513 heartbeat IPC: 0.3928 cumulative IPC: 0.5073 (Simulation time: 00 hr 24 min 44 sec)
Heartbeat CPU 0 instructions: 135000611 cycles: 182331681 heartbeat IPC: 0.4672 cumulative IPC: 0.507 (Simulation time: 00 hr 24 min 51 sec)
Heartbeat CPU 0 instructions: 135500616 cycles: 183616936 heartbeat IPC: 0.389 cumulative IPC: 0.5061 (Simulation time: 00 hr 25 min 00 sec)
Heartbeat CPU 0 instructions: 136000617 cycles: 184817686 heartbeat IPC: 0.4164 cumulative IPC: 0.5055 (Simulation time: 00 hr 25 min 08 sec)
Heartbeat CPU 0 instructions: 136500618 cycles: 186055128 heartbeat IPC: 0.4041 cumulative IPC: 0.5048 (Simulation time: 00 hr 25 min 16 sec)
Heartbeat CPU 0 instructions: 137000622 cycles: 187481421 heartbeat IPC: 0.3506 cumulative IPC: 0.5035 (Simulation time: 00 hr 25 min 25 sec)
Heartbeat CPU 0 instructions: 137500622 cycles: 188709403 heartbeat IPC: 0.4072 cumulative IPC: 0.5028 (Simulation time: 00 hr 25 min 33 sec)
Heartbeat CPU 0 instructions: 138000622 cycles: 189978558 heartbeat IPC: 0.394 cumulative IPC: 0.502 (Simulation time: 00 hr 25 min 42 sec)
Heartbeat CPU 0 instructions: 138500625 cycles: 191179612 heartbeat IPC: 0.4163 cumulative IPC: 0.5015 (Simulation time: 00 hr 25 min 49 sec)
Heartbeat CPU 0 instructions: 139000626 cycles: 192243498 heartbeat IPC: 0.47 cumulative IPC: 0.5013 (Simulation time: 00 hr 25 min 57 sec)
Heartbeat CPU 0 instructions: 139500626 cycles: 193384811 heartbeat IPC: 0.4381 cumulative IPC: 0.5009 (Simulation time: 00 hr 26 min 04 sec)
Heartbeat CPU 0 instructions: 140000626 cycles: 194681075 heartbeat IPC: 0.3857 cumulative IPC: 0.5 (Simulation time: 00 hr 26 min 12 sec)
Heartbeat CPU 0 instructions: 140500633 cycles: 195676690 heartbeat IPC: 0.5022 cumulative IPC: 0.5 (Simulation time: 00 hr 26 min 19 sec)
Heartbeat CPU 0 instructions: 141000634 cycles: 196867930 heartbeat IPC: 0.4197 cumulative IPC: 0.4995 (Simulation time: 00 hr 26 min 27 sec)
Heartbeat CPU 0 instructions: 141500634 cycles: 197955185 heartbeat IPC: 0.4599 cumulative IPC: 0.4993 (Simulation time: 00 hr 26 min 34 sec)
Heartbeat CPU 0 instructions: 142000634 cycles: 199227391 heartbeat IPC: 0.393 cumulative IPC: 0.4985 (Simulation time: 00 hr 26 min 42 sec)
Heartbeat CPU 0 instructions: 142500638 cycles: 200255730 heartbeat IPC: 0.4862 cumulative IPC: 0.4985 (Simulation time: 00 hr 26 min 49 sec)
Heartbeat CPU 0 instructions: 143000638 cycles: 201277303 heartbeat IPC: 0.4894 cumulative IPC: 0.4984 (Simulation time: 00 hr 26 min 56 sec)
Heartbeat CPU 0 instructions: 143500638 cycles: 202978587 heartbeat IPC: 0.2939 cumulative IPC: 0.4966 (Simulation time: 00 hr 27 min 07 sec)
Heartbeat CPU 0 instructions: 144000638 cycles: 204423493 heartbeat IPC: 0.346 cumulative IPC: 0.4954 (Simulation time: 00 hr 27 min 16 sec)
Heartbeat CPU 0 instructions: 144500640 cycles: 205423499 heartbeat IPC: 0.5 cumulative IPC: 0.4955 (Simulation time: 00 hr 27 min 22 sec)
Heartbeat CPU 0 instructions: 145000640 cycles: 206523542 heartbeat IPC: 0.4545 cumulative IPC: 0.4952 (Simulation time: 00 hr 27 min 29 sec)
Heartbeat CPU 0 instructions: 145500641 cycles: 207669984 heartbeat IPC: 0.4361 cumulative IPC: 0.4949 (Simulation time: 00 hr 27 min 37 sec)
Heartbeat CPU 0 instructions: 146000643 cycles: 208715831 heartbeat IPC: 0.4781 cumulative IPC: 0.4948 (Simulation time: 00 hr 27 min 44 sec)
Heartbeat CPU 0 instructions: 146500643 cycles: 209796966 heartbeat IPC: 0.4625 cumulative IPC: 0.4946 (Simulation time: 00 hr 27 min 51 sec)
Heartbeat CPU 0 instructions: 147000643 cycles: 211191933 heartbeat IPC: 0.3584 cumulative IPC: 0.4936 (Simulation time: 00 hr 27 min 59 sec)
Heartbeat CPU 0 instructions: 147500644 cycles: 212226710 heartbeat IPC: 0.4832 cumulative IPC: 0.4936 (Simulation time: 00 hr 28 min 06 sec)
Heartbeat CPU 0 instructions: 148000644 cycles: 213545175 heartbeat IPC: 0.3792 cumulative IPC: 0.4928 (Simulation time: 00 hr 28 min 15 sec)
Heartbeat CPU 0 instructions: 148500649 cycles: 214839894 heartbeat IPC: 0.3862 cumulative IPC: 0.4921 (Simulation time: 00 hr 28 min 22 sec)
Heartbeat CPU 0 instructions: 149000655 cycles: 215850625 heartbeat IPC: 0.4947 cumulative IPC: 0.4921 (Simulation time: 00 hr 28 min 29 sec)
Heartbeat CPU 0 instructions: 149500655 cycles: 216752515 heartbeat IPC: 0.5544 cumulative IPC: 0.4924 (Simulation time: 00 hr 28 min 35 sec)
Heartbeat CPU 0 instructions: 150000659 cycles: 217637719 heartbeat IPC: 0.5648 cumulative IPC: 0.4927 (Simulation time: 00 hr 28 min 41 sec)
Heartbeat CPU 0 instructions: 150500659 cycles: 218297895 heartbeat IPC: 0.7574 cumulative IPC: 0.4936 (Simulation time: 00 hr 28 min 45 sec)
Heartbeat CPU 0 instructions: 151000662 cycles: 218673176 heartbeat IPC: 1.332 cumulative IPC: 0.4951 (Simulation time: 00 hr 28 min 48 sec)
Heartbeat CPU 0 instructions: 151500663 cycles: 219008543 heartbeat IPC: 1.491 cumulative IPC: 0.4968 (Simulation time: 00 hr 28 min 51 sec)
Heartbeat CPU 0 instructions: 152000665 cycles: 219342386 heartbeat IPC: 1.498 cumulative IPC: 0.4984 (Simulation time: 00 hr 28 min 54 sec)
Heartbeat CPU 0 instructions: 152500670 cycles: 219666839 heartbeat IPC: 1.541 cumulative IPC: 0.5001 (Simulation time: 00 hr 28 min 56 sec)
Heartbeat CPU 0 instructions: 153000670 cycles: 220809226 heartbeat IPC: 0.4377 cumulative IPC: 0.4997 (Simulation time: 00 hr 29 min 03 sec)
Heartbeat CPU 0 instructions: 153500677 cycles: 221811314 heartbeat IPC: 0.499 cumulative IPC: 0.4997 (Simulation time: 00 hr 29 min 10 sec)
Heartbeat CPU 0 instructions: 154000678 cycles: 222622356 heartbeat IPC: 0.6165 cumulative IPC: 0.5002 (Simulation time: 00 hr 29 min 15 sec)
Heartbeat CPU 0 instructions: 154500679 cycles: 223890612 heartbeat IPC: 0.3942 cumulative IPC: 0.4995 (Simulation time: 00 hr 29 min 23 sec)
Heartbeat CPU 0 instructions: 155000681 cycles: 225161403 heartbeat IPC: 0.3935 cumulative IPC: 0.4989 (Simulation time: 00 hr 29 min 31 sec)
Heartbeat CPU 0 instructions: 155500682 cycles: 226552824 heartbeat IPC: 0.3593 cumulative IPC: 0.498 (Simulation time: 00 hr 29 min 40 sec)
Heartbeat CPU 0 instructions: 156000684 cycles: 227843045 heartbeat IPC: 0.3875 cumulative IPC: 0.4973 (Simulation time: 00 hr 29 min 48 sec)
Heartbeat CPU 0 instructions: 156500685 cycles: 228943416 heartbeat IPC: 0.4544 cumulative IPC: 0.4971 (Simulation time: 00 hr 29 min 55 sec)
Heartbeat CPU 0 instructions: 157000686 cycles: 229982418 heartbeat IPC: 0.4812 cumulative IPC: 0.497 (Simulation time: 00 hr 30 min 01 sec)
Heartbeat CPU 0 instructions: 157500686 cycles: 231055186 heartbeat IPC: 0.4661 cumulative IPC: 0.4968 (Simulation time: 00 hr 30 min 08 sec)
Heartbeat CPU 0 instructions: 158000686 cycles: 232367503 heartbeat IPC: 0.381 cumulative IPC: 0.4962 (Simulation time: 00 hr 30 min 16 sec)
Heartbeat CPU 0 instructions: 158500688 cycles: 233514893 heartbeat IPC: 0.4358 cumulative IPC: 0.4958 (Simulation time: 00 hr 30 min 24 sec)
Heartbeat CPU 0 instructions: 159000692 cycles: 235097497 heartbeat IPC: 0.3159 cumulative IPC: 0.4945 (Simulation time: 00 hr 30 min 33 sec)
Heartbeat CPU 0 instructions: 159500695 cycles: 236305101 heartbeat IPC: 0.414 cumulative IPC: 0.4941 (Simulation time: 00 hr 30 min 41 sec)
Heartbeat CPU 0 instructions: 160000695 cycles: 237357757 heartbeat IPC: 0.475 cumulative IPC: 0.494 (Simulation time: 00 hr 30 min 48 sec)
Heartbeat CPU 0 instructions: 160500696 cycles: 238510983 heartbeat IPC: 0.4336 cumulative IPC: 0.4937 (Simulation time: 00 hr 30 min 55 sec)
Heartbeat CPU 0 instructions: 161000696 cycles: 239610469 heartbeat IPC: 0.4548 cumulative IPC: 0.4935 (Simulation time: 00 hr 31 min 02 sec)
Heartbeat CPU 0 instructions: 161500698 cycles: 240411310 heartbeat IPC: 0.6243 cumulative IPC: 0.494 (Simulation time: 00 hr 31 min 07 sec)
Heartbeat CPU 0 instructions: 162000698 cycles: 241256246 heartbeat IPC: 0.5918 cumulative IPC: 0.4943 (Simulation time: 00 hr 31 min 13 sec)
Heartbeat CPU 0 instructions: 162500698 cycles: 242170026 heartbeat IPC: 0.5472 cumulative IPC: 0.4946 (Simulation time: 00 hr 31 min 19 sec)
Heartbeat CPU 0 instructions: 163000698 cycles: 242930775 heartbeat IPC: 0.6572 cumulative IPC: 0.4951 (Simulation time: 00 hr 31 min 24 sec)
Heartbeat CPU 0 instructions: 163500701 cycles: 244590735 heartbeat IPC: 0.3012 cumulative IPC: 0.4937 (Simulation time: 00 hr 31 min 34 sec)
Heartbeat CPU 0 instructions: 164000706 cycles: 245599959 heartbeat IPC: 0.4954 cumulative IPC: 0.4937 (Simulation time: 00 hr 31 min 41 sec)
Heartbeat CPU 0 instructions: 164500706 cycles: 246569576 heartbeat IPC: 0.5157 cumulative IPC: 0.4938 (Simulation time: 00 hr 31 min 47 sec)
Heartbeat CPU 0 instructions: 165000713 cycles: 247839532 heartbeat IPC: 0.3937 cumulative IPC: 0.4932 (Simulation time: 00 hr 31 min 55 sec)
Heartbeat CPU 0 instructions: 165500717 cycles: 249009546 heartbeat IPC: 0.4273 cumulative IPC: 0.4929 (Simulation time: 00 hr 32 min 02 sec)
Heartbeat CPU 0 instructions: 166000717 cycles: 249875142 heartbeat IPC: 0.5776 cumulative IPC: 0.4932 (Simulation time: 00 hr 32 min 08 sec)
Heartbeat CPU 0 instructions: 166500720 cycles: 250825670 heartbeat IPC: 0.526 cumulative IPC: 0.4934 (Simulation time: 00 hr 32 min 14 sec)
Heartbeat CPU 0 instructions: 167000724 cycles: 251850641 heartbeat IPC: 0.4878 cumulative IPC: 0.4933 (Simulation time: 00 hr 32 min 20 sec)
Heartbeat CPU 0 instructions: 167500725 cycles: 253364035 heartbeat IPC: 0.3304 cumulative IPC: 0.4923 (Simulation time: 00 hr 32 min 30 sec)
Heartbeat CPU 0 instructions: 168000725 cycles: 254046401 heartbeat IPC: 0.7327 cumulative IPC: 0.493 (Simulation time: 00 hr 32 min 34 sec)
Heartbeat CPU 0 instructions: 168500726 cycles: 254454703 heartbeat IPC: 1.225 cumulative IPC: 0.4942 (Simulation time: 00 hr 32 min 37 sec)
Heartbeat CPU 0 instructions: 169000726 cycles: 255826821 heartbeat IPC: 0.3644 cumulative IPC: 0.4935 (Simulation time: 00 hr 32 min 46 sec)
Heartbeat CPU 0 instructions: 169500731 cycles: 256918238 heartbeat IPC: 0.4581 cumulative IPC: 0.4933 (Simulation time: 00 hr 32 min 53 sec)
Heartbeat CPU 0 instructions: 170000731 cycles: 258223910 heartbeat IPC: 0.3829 cumulative IPC: 0.4927 (Simulation time: 00 hr 33 min 01 sec)
Heartbeat CPU 0 instructions: 170500732 cycles: 259194956 heartbeat IPC: 0.5149 cumulative IPC: 0.4928 (Simulation time: 00 hr 33 min 07 sec)
Heartbeat CPU 0 instructions: 171000738 cycles: 260135272 heartbeat IPC: 0.5317 cumulative IPC: 0.493 (Simulation time: 00 hr 33 min 13 sec)
Heartbeat CPU 0 instructions: 171500740 cycles: 260925898 heartbeat IPC: 0.6324 cumulative IPC: 0.4934 (Simulation time: 00 hr 33 min 19 sec)
Heartbeat CPU 0 instructions: 172000740 cycles: 262725393 heartbeat IPC: 0.2779 cumulative IPC: 0.4919 (Simulation time: 00 hr 33 min 29 sec)
Heartbeat CPU 0 instructions: 172500743 cycles: 264127184 heartbeat IPC: 0.3567 cumulative IPC: 0.4911 (Simulation time: 00 hr 33 min 38 sec)
Heartbeat CPU 0 instructions: 173000743 cycles: 265837999 heartbeat IPC: 0.2923 cumulative IPC: 0.4898 (Simulation time: 00 hr 33 min 48 sec)
Heartbeat CPU 0 instructions: 173500747 cycles: 266901759 heartbeat IPC: 0.47 cumulative IPC: 0.4897 (Simulation time: 00 hr 33 min 55 sec)
Heartbeat CPU 0 instructions: 174000752 cycles: 268093925 heartbeat IPC: 0.4194 cumulative IPC: 0.4893 (Simulation time: 00 hr 34 min 02 sec)
Heartbeat CPU 0 instructions: 174500752 cycles: 269408749 heartbeat IPC: 0.3803 cumulative IPC: 0.4888 (Simulation time: 00 hr 34 min 11 sec)
Heartbeat CPU 0 instructions: 175000755 cycles: 270365031 heartbeat IPC: 0.5229 cumulative IPC: 0.4889 (Simulation time: 00 hr 34 min 17 sec)
Heartbeat CPU 0 instructions: 175500760 cycles: 271160262 heartbeat IPC: 0.6288 cumulative IPC: 0.4893 (Simulation time: 00 hr 34 min 22 sec)
Heartbeat CPU 0 instructions: 176000762 cycles: 272506960 heartbeat IPC: 0.3713 cumulative IPC: 0.4887 (Simulation time: 00 hr 34 min 31 sec)
Heartbeat CPU 0 instructions: 176500762 cycles: 273621768 heartbeat IPC: 0.4485 cumulative IPC: 0.4885 (Simulation time: 00 hr 34 min 38 sec)
Heartbeat CPU 0 instructions: 177000767 cycles: 274578916 heartbeat IPC: 0.5224 cumulative IPC: 0.4887 (Simulation time: 00 hr 34 min 44 sec)
Heartbeat CPU 0 instructions: 177500769 cycles: 275635917 heartbeat IPC: 0.473 cumulative IPC: 0.4886 (Simulation time: 00 hr 34 min 51 sec)
Heartbeat CPU 0 instructions: 178000771 cycles: 277203935 heartbeat IPC: 0.3189 cumulative IPC: 0.4876 (Simulation time: 00 hr 35 min 00 sec)
Heartbeat CPU 0 instructions: 178500773 cycles: 278251931 heartbeat IPC: 0.4771 cumulative IPC: 0.4876 (Simulation time: 00 hr 35 min 07 sec)
Heartbeat CPU 0 instructions: 179000773 cycles: 279232867 heartbeat IPC: 0.5097 cumulative IPC: 0.4876 (Simulation time: 00 hr 35 min 13 sec)
Heartbeat CPU 0 instructions: 179500774 cycles: 280327241 heartbeat IPC: 0.4569 cumulative IPC: 0.4875 (Simulation time: 00 hr 35 min 20 sec)
Heartbeat CPU 0 instructions: 180000774 cycles: 281179378 heartbeat IPC: 0.5868 cumulative IPC: 0.4878 (Simulation time: 00 hr 35 min 26 sec)
Heartbeat CPU 0 instructions: 180500775 cycles: 282656246 heartbeat IPC: 0.3386 cumulative IPC: 0.487 (Simulation time: 00 hr 35 min 35 sec)
Heartbeat CPU 0 instructions: 181000778 cycles: 283469757 heartbeat IPC: 0.6146 cumulative IPC: 0.4874 (Simulation time: 00 hr 35 min 40 sec)
Heartbeat CPU 0 instructions: 181500783 cycles: 284387814 heartbeat IPC: 0.5446 cumulative IPC: 0.4876 (Simulation time: 00 hr 35 min 46 sec)
Heartbeat CPU 0 instructions: 182000784 cycles: 285277553 heartbeat IPC: 0.562 cumulative IPC: 0.4878 (Simulation time: 00 hr 35 min 52 sec)
Heartbeat CPU 0 instructions: 182500786 cycles: 286093768 heartbeat IPC: 0.6126 cumulative IPC: 0.4882 (Simulation time: 00 hr 35 min 58 sec)
Heartbeat CPU 0 instructions: 183000791 cycles: 286617988 heartbeat IPC: 0.9538 cumulative IPC: 0.4891 (Simulation time: 00 hr 36 min 02 sec)
Heartbeat CPU 0 instructions: 183500792 cycles: 287303451 heartbeat IPC: 0.7294 cumulative IPC: 0.4897 (Simulation time: 00 hr 36 min 06 sec)
Heartbeat CPU 0 instructions: 184000792 cycles: 288405476 heartbeat IPC: 0.4537 cumulative IPC: 0.4896 (Simulation time: 00 hr 36 min 13 sec)
Heartbeat CPU 0 instructions: 184500793 cycles: 289476417 heartbeat IPC: 0.4669 cumulative IPC: 0.4895 (Simulation time: 00 hr 36 min 20 sec)
Heartbeat CPU 0 instructions: 185000793 cycles: 290922212 heartbeat IPC: 0.3458 cumulative IPC: 0.4887 (Simulation time: 00 hr 36 min 29 sec)
Heartbeat CPU 0 instructions: 185500794 cycles: 291978661 heartbeat IPC: 0.4733 cumulative IPC: 0.4887 (Simulation time: 00 hr 36 min 35 sec)
Heartbeat CPU 0 instructions: 186000800 cycles: 292973274 heartbeat IPC: 0.5027 cumulative IPC: 0.4887 (Simulation time: 00 hr 36 min 42 sec)
Heartbeat CPU 0 instructions: 186500802 cycles: 293713828 heartbeat IPC: 0.6752 cumulative IPC: 0.4892 (Simulation time: 00 hr 36 min 47 sec)
Heartbeat CPU 0 instructions: 187000803 cycles: 294034734 heartbeat IPC: 1.558 cumulative IPC: 0.4904 (Simulation time: 00 hr 36 min 50 sec)
Heartbeat CPU 0 instructions: 187500804 cycles: 294366281 heartbeat IPC: 1.508 cumulative IPC: 0.4916 (Simulation time: 00 hr 36 min 52 sec)
Heartbeat CPU 0 instructions: 188000810 cycles: 295016855 heartbeat IPC: 0.7686 cumulative IPC: 0.4923 (Simulation time: 00 hr 36 min 57 sec)
Heartbeat CPU 0 instructions: 188500812 cycles: 296719373 heartbeat IPC: 0.2937 cumulative IPC: 0.4911 (Simulation time: 00 hr 37 min 07 sec)
Heartbeat CPU 0 instructions: 189000812 cycles: 297695995 heartbeat IPC: 0.512 cumulative IPC: 0.4912 (Simulation time: 00 hr 37 min 13 sec)
Heartbeat CPU 0 instructions: 189500812 cycles: 299146377 heartbeat IPC: 0.3447 cumulative IPC: 0.4904 (Simulation time: 00 hr 37 min 22 sec)
Heartbeat CPU 0 instructions: 190000812 cycles: 300159088 heartbeat IPC: 0.4937 cumulative IPC: 0.4904 (Simulation time: 00 hr 37 min 29 sec)
Heartbeat CPU 0 instructions: 190500812 cycles: 301133156 heartbeat IPC: 0.5133 cumulative IPC: 0.4905 (Simulation time: 00 hr 37 min 35 sec)
Heartbeat CPU 0 instructions: 191000812 cycles: 303314699 heartbeat IPC: 0.2292 cumulative IPC: 0.4885 (Simulation time: 00 hr 37 min 48 sec)
Heartbeat CPU 0 instructions: 191500812 cycles: 304566025 heartbeat IPC: 0.3996 cumulative IPC: 0.4881 (Simulation time: 00 hr 37 min 55 sec)
Heartbeat CPU 0 instructions: 192000813 cycles: 305661118 heartbeat IPC: 0.4566 cumulative IPC: 0.488 (Simulation time: 00 hr 38 min 02 sec)
Heartbeat CPU 0 instructions: 192500814 cycles: 306869406 heartbeat IPC: 0.4138 cumulative IPC: 0.4877 (Simulation time: 00 hr 38 min 10 sec)
Heartbeat CPU 0 instructions: 193000817 cycles: 307229811 heartbeat IPC: 1.387 cumulative IPC: 0.4888 (Simulation time: 00 hr 38 min 13 sec)
Heartbeat CPU 0 instructions: 193500819 cycles: 307578880 heartbeat IPC: 1.432 cumulative IPC: 0.49 (Simulation time: 00 hr 38 min 15 sec)
Heartbeat CPU 0 instructions: 194000819 cycles: 307889576 heartbeat IPC: 1.609 cumulative IPC: 0.4911 (Simulation time: 00 hr 38 min 18 sec)
Heartbeat CPU 0 instructions: 194500820 cycles: 308196321 heartbeat IPC: 1.63 cumulative IPC: 0.4923 (Simulation time: 00 hr 38 min 21 sec)
Heartbeat CPU 0 instructions: 195000827 cycles: 308521099 heartbeat IPC: 1.54 cumulative IPC: 0.4935 (Simulation time: 00 hr 38 min 23 sec)
Heartbeat CPU 0 instructions: 195500829 cycles: 309577292 heartbeat IPC: 0.4734 cumulative IPC: 0.4934 (Simulation time: 00 hr 38 min 30 sec)
Heartbeat CPU 0 instructions: 196000831 cycles: 310954823 heartbeat IPC: 0.363 cumulative IPC: 0.4928 (Simulation time: 00 hr 38 min 38 sec)
Heartbeat CPU 0 instructions: 196500833 cycles: 312443737 heartbeat IPC: 0.3358 cumulative IPC: 0.492 (Simulation time: 00 hr 38 min 47 sec)
Heartbeat CPU 0 instructions: 197000833 cycles: 313328538 heartbeat IPC: 0.5651 cumulative IPC: 0.4922 (Simulation time: 00 hr 38 min 53 sec)
Heartbeat CPU 0 instructions: 197500834 cycles: 314137243 heartbeat IPC: 0.6183 cumulative IPC: 0.4926 (Simulation time: 00 hr 38 min 59 sec)
Heartbeat CPU 0 instructions: 198000838 cycles: 315128847 heartbeat IPC: 0.5042 cumulative IPC: 0.4926 (Simulation time: 00 hr 39 min 05 sec)
Heartbeat CPU 0 instructions: 198500845 cycles: 316563324 heartbeat IPC: 0.3486 cumulative IPC: 0.4919 (Simulation time: 00 hr 39 min 14 sec)
Heartbeat CPU 0 instructions: 199000845 cycles: 317344117 heartbeat IPC: 0.6404 cumulative IPC: 0.4923 (Simulation time: 00 hr 39 min 19 sec)
Heartbeat CPU 0 instructions: 199500846 cycles: 318295422 heartbeat IPC: 0.5256 cumulative IPC: 0.4924 (Simulation time: 00 hr 39 min 25 sec)
Heartbeat CPU 0 instructions: 200000847 cycles: 319624538 heartbeat IPC: 0.3762 cumulative IPC: 0.4919 (Simulation time: 00 hr 39 min 33 sec)
Heartbeat CPU 0 instructions: 200500852 cycles: 320434535 heartbeat IPC: 0.6173 cumulative IPC: 0.4922 (Simulation time: 00 hr 39 min 39 sec)
Heartbeat CPU 0 instructions: 201000859 cycles: 321793781 heartbeat IPC: 0.3679 cumulative IPC: 0.4917 (Simulation time: 00 hr 39 min 47 sec)
Heartbeat CPU 0 instructions: 201500866 cycles: 323166344 heartbeat IPC: 0.3643 cumulative IPC: 0.4911 (Simulation time: 00 hr 39 min 56 sec)
Heartbeat CPU 0 instructions: 202000866 cycles: 324689060 heartbeat IPC: 0.3284 cumulative IPC: 0.4903 (Simulation time: 00 hr 40 min 05 sec)
Heartbeat CPU 0 instructions: 202500866 cycles: 326218627 heartbeat IPC: 0.3269 cumulative IPC: 0.4895 (Simulation time: 00 hr 40 min 14 sec)
Heartbeat CPU 0 instructions: 203000866 cycles: 327115197 heartbeat IPC: 0.5577 cumulative IPC: 0.4897 (Simulation time: 00 hr 40 min 20 sec)
Heartbeat CPU 0 instructions: 203500866 cycles: 328348871 heartbeat IPC: 0.4053 cumulative IPC: 0.4894 (Simulation time: 00 hr 40 min 28 sec)
Heartbeat CPU 0 instructions: 204000873 cycles: 329417392 heartbeat IPC: 0.4679 cumulative IPC: 0.4893 (Simulation time: 00 hr 40 min 35 sec)
Heartbeat CPU 0 instructions: 204500873 cycles: 330368968 heartbeat IPC: 0.5254 cumulative IPC: 0.4894 (Simulation time: 00 hr 40 min 41 sec)
Heartbeat CPU 0 instructions: 205000874 cycles: 331285686 heartbeat IPC: 0.5454 cumulative IPC: 0.4896 (Simulation time: 00 hr 40 min 47 sec)
Heartbeat CPU 0 instructions: 205500876 cycles: 332358224 heartbeat IPC: 0.4662 cumulative IPC: 0.4895 (Simulation time: 00 hr 40 min 54 sec)
Heartbeat CPU 0 instructions: 206000879 cycles: 333178764 heartbeat IPC: 0.6094 cumulative IPC: 0.4898 (Simulation time: 00 hr 40 min 59 sec)
Heartbeat CPU 0 instructions: 206500883 cycles: 334144648 heartbeat IPC: 0.5177 cumulative IPC: 0.4899 (Simulation time: 00 hr 41 min 06 sec)
Heartbeat CPU 0 instructions: 207000887 cycles: 335006926 heartbeat IPC: 0.5799 cumulative IPC: 0.4901 (Simulation time: 00 hr 41 min 12 sec)
Heartbeat CPU 0 instructions: 207500891 cycles: 336619383 heartbeat IPC: 0.3101 cumulative IPC: 0.4892 (Simulation time: 00 hr 41 min 22 sec)
Heartbeat CPU 0 instructions: 208000892 cycles: 337839722 heartbeat IPC: 0.4097 cumulative IPC: 0.4889 (Simulation time: 00 hr 41 min 29 sec)
Heartbeat CPU 0 instructions: 208500892 cycles: 338892984 heartbeat IPC: 0.4747 cumulative IPC: 0.4889 (Simulation time: 00 hr 41 min 36 sec)
Heartbeat CPU 0 instructions: 209000896 cycles: 339675462 heartbeat IPC: 0.639 cumulative IPC: 0.4893 (Simulation time: 00 hr 41 min 41 sec)
Heartbeat CPU 0 instructions: 209500899 cycles: 340943496 heartbeat IPC: 0.3943 cumulative IPC: 0.4889 (Simulation time: 00 hr 41 min 49 sec)
Heartbeat CPU 0 instructions: 210000905 cycles: 342306776 heartbeat IPC: 0.3668 cumulative IPC: 0.4884 (Simulation time: 00 hr 41 min 57 sec)
Heartbeat CPU 0 instructions: 210500905 cycles: 343115425 heartbeat IPC: 0.6183 cumulative IPC: 0.4887 (Simulation time: 00 hr 42 min 03 sec)
Heartbeat CPU 0 instructions: 211000909 cycles: 343922330 heartbeat IPC: 0.6197 cumulative IPC: 0.489 (Simulation time: 00 hr 42 min 08 sec)
Heartbeat CPU 0 instructions: 211500914 cycles: 344690821 heartbeat IPC: 0.6506 cumulative IPC: 0.4894 (Simulation time: 00 hr 42 min 14 sec)
Heartbeat CPU 0 instructions: 212000915 cycles: 345689667 heartbeat IPC: 0.5006 cumulative IPC: 0.4894 (Simulation time: 00 hr 42 min 20 sec)
Heartbeat CPU 0 instructions: 212500915 cycles: 346288226 heartbeat IPC: 0.8353 cumulative IPC: 0.4901 (Simulation time: 00 hr 42 min 24 sec)
Heartbeat CPU 0 instructions: 213000917 cycles: 347035373 heartbeat IPC: 0.6692 cumulative IPC: 0.4905 (Simulation time: 00 hr 42 min 30 sec)
Heartbeat CPU 0 instructions: 213500917 cycles: 347739457 heartbeat IPC: 0.7101 cumulative IPC: 0.4909 (Simulation time: 00 hr 42 min 35 sec)
Heartbeat CPU 0 instructions: 214000917 cycles: 348608720 heartbeat IPC: 0.5752 cumulative IPC: 0.4911 (Simulation time: 00 hr 42 min 40 sec)
Heartbeat CPU 0 instructions: 214500924 cycles: 349982271 heartbeat IPC: 0.364 cumulative IPC: 0.4906 (Simulation time: 00 hr 42 min 49 sec)
Heartbeat CPU 0 instructions: 215000929 cycles: 351320586 heartbeat IPC: 0.3736 cumulative IPC: 0.4902 (Simulation time: 00 hr 42 min 58 sec)
Heartbeat CPU 0 instructions: 215500931 cycles: 352611027 heartbeat IPC: 0.3875 cumulative IPC: 0.4898 (Simulation time: 00 hr 43 min 06 sec)
Heartbeat CPU 0 instructions: 216000933 cycles: 353788146 heartbeat IPC: 0.4248 cumulative IPC: 0.4895 (Simulation time: 00 hr 43 min 14 sec)
Heartbeat CPU 0 instructions: 216500937 cycles: 354707624 heartbeat IPC: 0.5438 cumulative IPC: 0.4897 (Simulation time: 00 hr 43 min 20 sec)
Heartbeat CPU 0 instructions: 217000937 cycles: 355505001 heartbeat IPC: 0.6271 cumulative IPC: 0.49 (Simulation time: 00 hr 43 min 25 sec)
Heartbeat CPU 0 instructions: 217500937 cycles: 356379663 heartbeat IPC: 0.5716 cumulative IPC: 0.4902 (Simulation time: 00 hr 43 min 31 sec)
Heartbeat CPU 0 instructions: 218000937 cycles: 357922703 heartbeat IPC: 0.324 cumulative IPC: 0.4895 (Simulation time: 00 hr 43 min 41 sec)
Heartbeat CPU 0 instructions: 218500937 cycles: 358944784 heartbeat IPC: 0.4892 cumulative IPC: 0.4895 (Simulation time: 00 hr 43 min 47 sec)
Heartbeat CPU 0 instructions: 219000942 cycles: 360221191 heartbeat IPC: 0.3917 cumulative IPC: 0.4891 (Simulation time: 00 hr 43 min 56 sec)
Heartbeat CPU 0 instructions: 219500942 cycles: 361300253 heartbeat IPC: 0.4634 cumulative IPC: 0.489 (Simulation time: 00 hr 44 min 02 sec)
Heartbeat CPU 0 instructions: 220000944 cycles: 362219363 heartbeat IPC: 0.544 cumulative IPC: 0.4892 (Simulation time: 00 hr 44 min 08 sec)
Heartbeat CPU 0 instructions: 220500946 cycles: 363471570 heartbeat IPC: 0.3993 cumulative IPC: 0.4888 (Simulation time: 00 hr 44 min 16 sec)
Heartbeat CPU 0 instructions: 221000950 cycles: 364574381 heartbeat IPC: 0.4534 cumulative IPC: 0.4887 (Simulation time: 00 hr 44 min 23 sec)
Heartbeat CPU 0 instructions: 221500950 cycles: 365360341 heartbeat IPC: 0.6362 cumulative IPC: 0.4891 (Simulation time: 00 hr 44 min 29 sec)
Heartbeat CPU 0 instructions: 222000951 cycles: 367186159 heartbeat IPC: 0.2739 cumulative IPC: 0.488 (Simulation time: 00 hr 44 min 39 sec)
Heartbeat CPU 0 instructions: 222500951 cycles: 368332599 heartbeat IPC: 0.4361 cumulative IPC: 0.4878 (Simulation time: 00 hr 44 min 46 sec)
Heartbeat CPU 0 instructions: 223000955 cycles: 369274054 heartbeat IPC: 0.5311 cumulative IPC: 0.4879 (Simulation time: 00 hr 44 min 53 sec)
Heartbeat CPU 0 instructions: 223500956 cycles: 370071629 heartbeat IPC: 0.6269 cumulative IPC: 0.4882 (Simulation time: 00 hr 44 min 58 sec)
Heartbeat CPU 0 instructions: 224000961 cycles: 370819893 heartbeat IPC: 0.6682 cumulative IPC: 0.4886 (Simulation time: 00 hr 45 min 03 sec)
Heartbeat CPU 0 instructions: 224500968 cycles: 371980199 heartbeat IPC: 0.4309 cumulative IPC: 0.4884 (Simulation time: 00 hr 45 min 10 sec)
Heartbeat CPU 0 instructions: 225000969 cycles: 373183826 heartbeat IPC: 0.4154 cumulative IPC: 0.4882 (Simulation time: 00 hr 45 min 18 sec)
Heartbeat CPU 0 instructions: 225500973 cycles: 374666703 heartbeat IPC: 0.3372 cumulative IPC: 0.4875 (Simulation time: 00 hr 45 min 27 sec)
Heartbeat CPU 0 instructions: 226000973 cycles: 376143696 heartbeat IPC: 0.3385 cumulative IPC: 0.4869 (Simulation time: 00 hr 45 min 36 sec)
Heartbeat CPU 0 instructions: 226500975 cycles: 377059423 heartbeat IPC: 0.546 cumulative IPC: 0.4871 (Simulation time: 00 hr 45 min 42 sec)
Heartbeat CPU 0 instructions: 227000976 cycles: 378406331 heartbeat IPC: 0.3712 cumulative IPC: 0.4866 (Simulation time: 00 hr 45 min 50 sec)
Heartbeat CPU 0 instructions: 227500976 cycles: 379581728 heartbeat IPC: 0.4254 cumulative IPC: 0.4864 (Simulation time: 00 hr 45 min 57 sec)
Heartbeat CPU 0 instructions: 228000977 cycles: 380781276 heartbeat IPC: 0.4168 cumulative IPC: 0.4862 (Simulation time: 00 hr 46 min 05 sec)
Heartbeat CPU 0 instructions: 228500977 cycles: 382039415 heartbeat IPC: 0.3974 cumulative IPC: 0.4859 (Simulation time: 00 hr 46 min 13 sec)
Heartbeat CPU 0 instructions: 229000977 cycles: 383158715 heartbeat IPC: 0.4467 cumulative IPC: 0.4858 (Simulation time: 00 hr 46 min 20 sec)
Heartbeat CPU 0 instructions: 229500978 cycles: 383947893 heartbeat IPC: 0.6336 cumulative IPC: 0.4861 (Simulation time: 00 hr 46 min 25 sec)
Heartbeat CPU 0 instructions: 230000979 cycles: 384773933 heartbeat IPC: 0.6053 cumulative IPC: 0.4864 (Simulation time: 00 hr 46 min 31 sec)
Heartbeat CPU 0 instructions: 230500979 cycles: 386048602 heartbeat IPC: 0.3923 cumulative IPC: 0.4861 (Simulation time: 00 hr 46 min 39 sec)
Heartbeat CPU 0 instructions: 231000984 cycles: 386896865 heartbeat IPC: 0.5894 cumulative IPC: 0.4863 (Simulation time: 00 hr 46 min 44 sec)
Heartbeat CPU 0 instructions: 231500987 cycles: 387750262 heartbeat IPC: 0.5859 cumulative IPC: 0.4865 (Simulation time: 00 hr 46 min 50 sec)
Heartbeat CPU 0 instructions: 232000994 cycles: 388918302 heartbeat IPC: 0.4281 cumulative IPC: 0.4863 (Simulation time: 00 hr 46 min 57 sec)
Heartbeat CPU 0 instructions: 232500994 cycles: 389845914 heartbeat IPC: 0.539 cumulative IPC: 0.4865 (Simulation time: 00 hr 47 min 04 sec)
Heartbeat CPU 0 instructions: 233000997 cycles: 391553789 heartbeat IPC: 0.2928 cumulative IPC: 0.4856 (Simulation time: 00 hr 47 min 13 sec)
Heartbeat CPU 0 instructions: 233500998 cycles: 392835985 heartbeat IPC: 0.39 cumulative IPC: 0.4853 (Simulation time: 00 hr 47 min 21 sec)
Heartbeat CPU 0 instructions: 234001004 cycles: 393835556 heartbeat IPC: 0.5002 cumulative IPC: 0.4853 (Simulation time: 00 hr 47 min 28 sec)
Heartbeat CPU 0 instructions: 234501007 cycles: 394960053 heartbeat IPC: 0.4446 cumulative IPC: 0.4852 (Simulation time: 00 hr 47 min 35 sec)
Heartbeat CPU 0 instructions: 235001008 cycles: 396029728 heartbeat IPC: 0.4674 cumulative IPC: 0.4851 (Simulation time: 00 hr 47 min 42 sec)
Heartbeat CPU 0 instructions: 235501008 cycles: 397073172 heartbeat IPC: 0.4792 cumulative IPC: 0.4851 (Simulation time: 00 hr 47 min 49 sec)
Heartbeat CPU 0 instructions: 236001009 cycles: 398304485 heartbeat IPC: 0.4061 cumulative IPC: 0.4849 (Simulation time: 00 hr 47 min 57 sec)
Heartbeat CPU 0 instructions: 236501014 cycles: 399263204 heartbeat IPC: 0.5215 cumulative IPC: 0.485 (Simulation time: 00 hr 48 min 03 sec)
Heartbeat CPU 0 instructions: 237001014 cycles: 400692355 heartbeat IPC: 0.3499 cumulative IPC: 0.4845 (Simulation time: 00 hr 48 min 12 sec)
Heartbeat CPU 0 instructions: 237501017 cycles: 401755417 heartbeat IPC: 0.4703 cumulative IPC: 0.4844 (Simulation time: 00 hr 48 min 19 sec)
Heartbeat CPU 0 instructions: 238001017 cycles: 402689520 heartbeat IPC: 0.5353 cumulative IPC: 0.4845 (Simulation time: 00 hr 48 min 25 sec)
Heartbeat CPU 0 instructions: 238501022 cycles: 403663894 heartbeat IPC: 0.5132 cumulative IPC: 0.4846 (Simulation time: 00 hr 48 min 31 sec)
Heartbeat CPU 0 instructions: 239001024 cycles: 405067879 heartbeat IPC: 0.3561 cumulative IPC: 0.4841 (Simulation time: 00 hr 48 min 40 sec)
Heartbeat CPU 0 instructions: 239501028 cycles: 406162791 heartbeat IPC: 0.4567 cumulative IPC: 0.4841 (Simulation time: 00 hr 48 min 47 sec)
Heartbeat CPU 0 instructions: 240001028 cycles: 407015717 heartbeat IPC: 0.5862 cumulative IPC: 0.4843 (Simulation time: 00 hr 48 min 52 sec)
Heartbeat CPU 0 instructions: 240501028 cycles: 407980823 heartbeat IPC: 0.5181 cumulative IPC: 0.4844 (Simulation time: 00 hr 48 min 59 sec)
Heartbeat CPU 0 instructions: 241001028 cycles: 409241910 heartbeat IPC: 0.3965 cumulative IPC: 0.4841 (Simulation time: 00 hr 49 min 06 sec)
Heartbeat CPU 0 instructions: 241501034 cycles: 410106080 heartbeat IPC: 0.5786 cumulative IPC: 0.4843 (Simulation time: 00 hr 49 min 12 sec)
Heartbeat CPU 0 instructions: 242001036 cycles: 411465914 heartbeat IPC: 0.3677 cumulative IPC: 0.4839 (Simulation time: 00 hr 49 min 21 sec)
Heartbeat CPU 0 instructions: 242501038 cycles: 412934034 heartbeat IPC: 0.3406 cumulative IPC: 0.4834 (Simulation time: 00 hr 49 min 29 sec)
Heartbeat CPU 0 instructions: 243001039 cycles: 413889643 heartbeat IPC: 0.5232 cumulative IPC: 0.4835 (Simulation time: 00 hr 49 min 36 sec)
Heartbeat CPU 0 instructions: 243501039 cycles: 414760189 heartbeat IPC: 0.5744 cumulative IPC: 0.4837 (Simulation time: 00 hr 49 min 42 sec)
Heartbeat CPU 0 instructions: 244001046 cycles: 415605557 heartbeat IPC: 0.5915 cumulative IPC: 0.4839 (Simulation time: 00 hr 49 min 47 sec)
Heartbeat CPU 0 instructions: 244501048 cycles: 416479086 heartbeat IPC: 0.5724 cumulative IPC: 0.4841 (Simulation time: 00 hr 49 min 53 sec)
Heartbeat CPU 0 instructions: 245001053 cycles: 417483844 heartbeat IPC: 0.4976 cumulative IPC: 0.4841 (Simulation time: 00 hr 49 min 59 sec)
Heartbeat CPU 0 instructions: 245501054 cycles: 418561079 heartbeat IPC: 0.4642 cumulative IPC: 0.4841 (Simulation time: 00 hr 50 min 06 sec)
Heartbeat CPU 0 instructions: 246001057 cycles: 419444623 heartbeat IPC: 0.5659 cumulative IPC: 0.4842 (Simulation time: 00 hr 50 min 12 sec)
Heartbeat CPU 0 instructions: 246501057 cycles: 420806885 heartbeat IPC: 0.367 cumulative IPC: 0.4839 (Simulation time: 00 hr 50 min 21 sec)
Heartbeat CPU 0 instructions: 247001063 cycles: 422009299 heartbeat IPC: 0.4158 cumulative IPC: 0.4837 (Simulation time: 00 hr 50 min 28 sec)
Heartbeat CPU 0 instructions: 247501064 cycles: 422924545 heartbeat IPC: 0.5463 cumulative IPC: 0.4838 (Simulation time: 00 hr 50 min 34 sec)
Heartbeat CPU 0 instructions: 248001066 cycles: 423823848 heartbeat IPC: 0.556 cumulative IPC: 0.484 (Simulation time: 00 hr 50 min 40 sec)
Heartbeat CPU 0 instructions: 248501066 cycles: 425044627 heartbeat IPC: 0.4096 cumulative IPC: 0.4837 (Simulation time: 00 hr 50 min 48 sec)
Heartbeat CPU 0 instructions: 249001070 cycles: 426060927 heartbeat IPC: 0.492 cumulative IPC: 0.4838 (Simulation time: 00 hr 50 min 54 sec)
Heartbeat CPU 0 instructions: 249501070 cycles: 426884039 heartbeat IPC: 0.6075 cumulative IPC: 0.484 (Simulation time: 00 hr 50 min 59 sec)
Simulation finished CPU 0 instructions: 200000004 cycles: 413118722 cumulative IPC: 0.4841 (Simulation time: 00 hr 51 min 05 sec)
Simulation complete CPU 0 instructions: 200000004 cycles: 413118722 cumulative IPC: 0.4841 (Simulation time: 00 hr 51 min 05 sec)

ChampSim completed all CPUs

=== Simulation ===
CPU 0 runs /local-ssd/ben/dpc4-traces/gtraces_v2/sierra.a.6_0004.champsim.gz

Region of Interest Statistics

CPU 0 cumulative IPC: 0.4841 instructions: 200000004 cycles: 413118722
CPU 0 Branch Prediction Accuracy: 87.22% MPKI: 25.22 Average ROB Occupancy at Mispredict: 19.09
Branch type MPKI
BRANCH_DIRECT_JUMP: 1.876
BRANCH_INDIRECT: 0.272
BRANCH_CONDITIONAL: 20.41
BRANCH_DIRECT_CALL: 1.271
BRANCH_INDIRECT_CALL: 0.333
BRANCH_RETURN: 1.057

cpu0->cpu0_STLB TOTAL        ACCESS:    3626213 HIT:    2778102 MISS:     848111 MSHR_MERGE:          0
cpu0->cpu0_STLB LOAD         ACCESS:    3626213 HIT:    2778102 MISS:     848111 MSHR_MERGE:          0
cpu0->cpu0_STLB RFO          ACCESS:          0 HIT:          0 MISS:          0 MSHR_MERGE:          0
cpu0->cpu0_STLB PREFETCH     ACCESS:          0 HIT:          0 MISS:          0 MSHR_MERGE:          0
cpu0->cpu0_STLB WRITE        ACCESS:          0 HIT:          0 MISS:          0 MSHR_MERGE:          0
cpu0->cpu0_STLB TRANSLATION  ACCESS:          0 HIT:          0 MISS:          0 MSHR_MERGE:          0
cpu0->cpu0_STLB PREFETCH REQUESTED:          0 ISSUED:          0 USEFUL:          0 USELESS:          0
cpu0->cpu0_STLB AVERAGE MISS LATENCY: 122.9 cycles
cpu0->cpu0_L2C TOTAL        ACCESS:   45757585 HIT:   38122220 MISS:    7635365 MSHR_MERGE:    2374610
cpu0->cpu0_L2C LOAD         ACCESS:   10345836 HIT:    8923223 MISS:    1422613 MSHR_MERGE:     187614
cpu0->cpu0_L2C RFO          ACCESS:    1002872 HIT:     598605 MISS:     404267 MSHR_MERGE:       5833
cpu0->cpu0_L2C PREFETCH     ACCESS:   31530657 HIT:   26113736 MISS:    5416921 MSHR_MERGE:    2181163
cpu0->cpu0_L2C WRITE        ACCESS:    1940576 HIT:    1940476 MISS:        100 MSHR_MERGE:          0
cpu0->cpu0_L2C TRANSLATION  ACCESS:     937644 HIT:     546180 MISS:     391464 MSHR_MERGE:          0
cpu0->cpu0_L2C PREFETCH REQUESTED:   36118046 ISSUED:   30254647 USEFUL:    1324332 USELESS:    1409890
cpu0->cpu0_L2C AVERAGE MISS LATENCY: 196.3 cycles
cpu0->cpu0_L1I TOTAL        ACCESS:   22678479 HIT:   12515473 MISS:   10163006 MSHR_MERGE:    2542421
cpu0->cpu0_L1I LOAD         ACCESS:   22678479 HIT:   12515473 MISS:   10163006 MSHR_MERGE:    2542421
cpu0->cpu0_L1I RFO          ACCESS:          0 HIT:          0 MISS:          0 MSHR_MERGE:          0
cpu0->cpu0_L1I PREFETCH     ACCESS:          0 HIT:          0 MISS:          0 MSHR_MERGE:          0
cpu0->cpu0_L1I WRITE        ACCESS:          0 HIT:          0 MISS:          0 MSHR_MERGE:          0
cpu0->cpu0_L1I TRANSLATION  ACCESS:          0 HIT:          0 MISS:          0 MSHR_MERGE:          0
cpu0->cpu0_L1I PREFETCH REQUESTED:          0 ISSUED:          0 USEFUL:          0 USELESS:          0
cpu0->cpu0_L1I AVERAGE MISS LATENCY: 19.98 cycles
cpu0->cpu0_L1D TOTAL        ACCESS:   65750817 HIT:   56763798 MISS:    8987019 MSHR_MERGE:    3045167
cpu0->cpu0_L1D LOAD         ACCESS:   35378303 HIT:   31899992 MISS:    3478311 MSHR_MERGE:     753038
cpu0->cpu0_L1D RFO          ACCESS:          0 HIT:          0 MISS:          0 MSHR_MERGE:          0
cpu0->cpu0_L1D PREFETCH     ACCESS:    2544335 HIT:    1202124 MISS:    1342211 MSHR_MERGE:      66185
cpu0->cpu0_L1D WRITE        ACCESS:   25610597 HIT:   22387593 MISS:    3223004 MSHR_MERGE:    2220095
cpu0->cpu0_L1D TRANSLATION  ACCESS:    2217582 HIT:    1274089 MISS:     943493 MSHR_MERGE:       5849
cpu0->cpu0_L1D PREFETCH REQUESTED:    2560764 ISSUED:    2544327 USEFUL:     372339 USELESS:     903641
cpu0->cpu0_L1D AVERAGE MISS LATENCY: 81.14 cycles
cpu0->cpu0_ITLB TOTAL        ACCESS:   18422594 HIT:   17356766 MISS:    1065828 MSHR_MERGE:     501084
cpu0->cpu0_ITLB LOAD         ACCESS:   18422594 HIT:   17356766 MISS:    1065828 MSHR_MERGE:     501084
cpu0->cpu0_ITLB RFO          ACCESS:          0 HIT:          0 MISS:          0 MSHR_MERGE:          0
cpu0->cpu0_ITLB PREFETCH     ACCESS:          0 HIT:          0 MISS:          0 MSHR_MERGE:          0
cpu0->cpu0_ITLB WRITE        ACCESS:          0 HIT:          0 MISS:          0 MSHR_MERGE:          0
cpu0->cpu0_ITLB TRANSLATION  ACCESS:          0 HIT:          0 MISS:          0 MSHR_MERGE:          0
cpu0->cpu0_ITLB PREFETCH REQUESTED:          0 ISSUED:          0 USEFUL:          0 USELESS:          0
cpu0->cpu0_ITLB AVERAGE MISS LATENCY: 17.92 cycles
cpu0->cpu0_DTLB TOTAL        ACCESS:   60807483 HIT:   55958756 MISS:    4848727 MSHR_MERGE:    1787258
cpu0->cpu0_DTLB LOAD         ACCESS:   60807483 HIT:   55958756 MISS:    4848727 MSHR_MERGE:    1787258
cpu0->cpu0_DTLB RFO          ACCESS:          0 HIT:          0 MISS:          0 MSHR_MERGE:          0
cpu0->cpu0_DTLB PREFETCH     ACCESS:          0 HIT:          0 MISS:          0 MSHR_MERGE:          0
cpu0->cpu0_DTLB WRITE        ACCESS:          0 HIT:          0 MISS:          0 MSHR_MERGE:          0
cpu0->cpu0_DTLB TRANSLATION  ACCESS:          0 HIT:          0 MISS:          0 MSHR_MERGE:          0
cpu0->cpu0_DTLB PREFETCH REQUESTED:          0 ISSUED:          0 USEFUL:          0 USELESS:          0
cpu0->cpu0_DTLB AVERAGE MISS LATENCY: 36.95 cycles
cpu0->LLC TOTAL        ACCESS:    6206082 HIT:    1886485 MISS:    4319597 MSHR_MERGE:          0
cpu0->LLC LOAD         ACCESS:    1234999 HIT:     294882 MISS:     940117 MSHR_MERGE:          0
cpu0->LLC RFO          ACCESS:     398433 HIT:      26011 MISS:     372422 MSHR_MERGE:          0
cpu0->LLC PREFETCH     ACCESS:    3235758 HIT:     737976 MISS:    2497782 MSHR_MERGE:          0
cpu0->LLC WRITE        ACCESS:     945428 HIT:     716705 MISS:     228723 MSHR_MERGE:          0
cpu0->LLC TRANSLATION  ACCESS:     391464 HIT:     110911 MISS:     280553 MSHR_MERGE:          0
cpu0->LLC PREFETCH REQUESTED:          0 ISSUED:          0 USEFUL:          0 USELESS:          0
cpu0->LLC AVERAGE MISS LATENCY: 201.1 cycles

DRAM Statistics

Channel 0 RQ ROW_BUFFER_HIT:      37862
  ROW_BUFFER_MISS:    4052953
  AVG DBUS CONGESTED CYCLE: 22.76
Channel 0 WQ ROW_BUFFER_HIT:     246671
  ROW_BUFFER_MISS:     626811
  FULL:          0
Channel 0 REFRESHES ISSUED:      34424
