[VMEM] WARNING: physical memory size is smaller than virtual memory size.

*** ChampSim Multicore Out-of-Order Simulator ***
Warmup Instructions: 50000000
Simulation Instructions: 200000000
Number of CPUs: 1
Page size: 4096
Core 0: /local-ssd/ben/dpc4-traces/SPEC17/619.lbm_s-2677B.champsimtrace.xz
 L1D Berti prefetcher
Off-chip DRAM Size: 64 GiB Channels: 1 Width: 64-bit Data Rate: 4807 MT/s
Heartbeat CPU 0 instructions: 500000 cycles: 142011 heartbeat IPC: 3.521 cumulative IPC: 3.521 (Simulation time: 00 hr 00 min 03 sec)
Heartbeat CPU 0 instructions: 1000001 cycles: 266480 heartbeat IPC: 4.017 cumulative IPC: 3.753 (Simulation time: 00 hr 00 min 05 sec)
Heartbeat CPU 0 instructions: 1500004 cycles: 396654 heartbeat IPC: 3.841 cumulative IPC: 3.782 (Simulation time: 00 hr 00 min 07 sec)
Heartbeat CPU 0 instructions: 2000008 cycles: 527033 heartbeat IPC: 3.835 cumulative IPC: 3.795 (Simulation time: 00 hr 00 min 09 sec)
Heartbeat CPU 0 instructions: 2500009 cycles: 662020 heartbeat IPC: 3.704 cumulative IPC: 3.776 (Simulation time: 00 hr 00 min 11 sec)
Heartbeat CPU 0 instructions: 3000014 cycles: 781532 heartbeat IPC: 4.184 cumulative IPC: 3.839 (Simulation time: 00 hr 00 min 13 sec)
Heartbeat CPU 0 instructions: 3500015 cycles: 898802 heartbeat IPC: 4.264 cumulative IPC: 3.894 (Simulation time: 00 hr 00 min 15 sec)
Heartbeat CPU 0 instructions: 4000019 cycles: 1028563 heartbeat IPC: 3.853 cumulative IPC: 3.889 (Simulation time: 00 hr 00 min 17 sec)
Heartbeat CPU 0 instructions: 4500019 cycles: 1171378 heartbeat IPC: 3.501 cumulative IPC: 3.842 (Simulation time: 00 hr 00 min 19 sec)
Heartbeat CPU 0 instructions: 5000019 cycles: 1302023 heartbeat IPC: 3.827 cumulative IPC: 3.84 (Simulation time: 00 hr 00 min 21 sec)
Heartbeat CPU 0 instructions: 5500019 cycles: 1433256 heartbeat IPC: 3.81 cumulative IPC: 3.837 (Simulation time: 00 hr 00 min 23 sec)
Heartbeat CPU 0 instructions: 6000025 cycles: 1561503 heartbeat IPC: 3.899 cumulative IPC: 3.842 (Simulation time: 00 hr 00 min 25 sec)
Heartbeat CPU 0 instructions: 6500027 cycles: 1691745 heartbeat IPC: 3.839 cumulative IPC: 3.842 (Simulation time: 00 hr 00 min 27 sec)
Heartbeat CPU 0 instructions: 7000034 cycles: 1834542 heartbeat IPC: 3.502 cumulative IPC: 3.816 (Simulation time: 00 hr 00 min 29 sec)
Heartbeat CPU 0 instructions: 7500041 cycles: 1972080 heartbeat IPC: 3.635 cumulative IPC: 3.803 (Simulation time: 00 hr 00 min 32 sec)
Heartbeat CPU 0 instructions: 8000046 cycles: 2102755 heartbeat IPC: 3.826 cumulative IPC: 3.805 (Simulation time: 00 hr 00 min 34 sec)
Heartbeat CPU 0 instructions: 8500052 cycles: 2228873 heartbeat IPC: 3.965 cumulative IPC: 3.814 (Simulation time: 00 hr 00 min 36 sec)
Heartbeat CPU 0 instructions: 9000059 cycles: 2366335 heartbeat IPC: 3.637 cumulative IPC: 3.803 (Simulation time: 00 hr 00 min 38 sec)
Heartbeat CPU 0 instructions: 9500065 cycles: 2490484 heartbeat IPC: 4.027 cumulative IPC: 3.815 (Simulation time: 00 hr 00 min 40 sec)
Heartbeat CPU 0 instructions: 10000072 cycles: 2623549 heartbeat IPC: 3.758 cumulative IPC: 3.812 (Simulation time: 00 hr 00 min 42 sec)
Heartbeat CPU 0 instructions: 10500078 cycles: 2748793 heartbeat IPC: 3.992 cumulative IPC: 3.82 (Simulation time: 00 hr 00 min 44 sec)
Heartbeat CPU 0 instructions: 11000085 cycles: 2878033 heartbeat IPC: 3.869 cumulative IPC: 3.822 (Simulation time: 00 hr 00 min 46 sec)
Heartbeat CPU 0 instructions: 11500091 cycles: 2995875 heartbeat IPC: 4.243 cumulative IPC: 3.839 (Simulation time: 00 hr 00 min 48 sec)
Heartbeat CPU 0 instructions: 12000094 cycles: 3111787 heartbeat IPC: 4.314 cumulative IPC: 3.856 (Simulation time: 00 hr 00 min 50 sec)
Heartbeat CPU 0 instructions: 12500098 cycles: 3240602 heartbeat IPC: 3.882 cumulative IPC: 3.857 (Simulation time: 00 hr 00 min 52 sec)
Heartbeat CPU 0 instructions: 13000099 cycles: 3378304 heartbeat IPC: 3.631 cumulative IPC: 3.848 (Simulation time: 00 hr 00 min 54 sec)
Heartbeat CPU 0 instructions: 13500100 cycles: 3504357 heartbeat IPC: 3.967 cumulative IPC: 3.852 (Simulation time: 00 hr 00 min 56 sec)
Heartbeat CPU 0 instructions: 14000106 cycles: 3633627 heartbeat IPC: 3.868 cumulative IPC: 3.853 (Simulation time: 00 hr 00 min 59 sec)
Heartbeat CPU 0 instructions: 14500108 cycles: 3758408 heartbeat IPC: 4.007 cumulative IPC: 3.858 (Simulation time: 00 hr 01 min 01 sec)
Heartbeat CPU 0 instructions: 15000115 cycles: 3885116 heartbeat IPC: 3.946 cumulative IPC: 3.861 (Simulation time: 00 hr 01 min 03 sec)
Heartbeat CPU 0 instructions: 15500116 cycles: 4026686 heartbeat IPC: 3.532 cumulative IPC: 3.849 (Simulation time: 00 hr 01 min 05 sec)
Heartbeat CPU 0 instructions: 16000119 cycles: 4160330 heartbeat IPC: 3.741 cumulative IPC: 3.846 (Simulation time: 00 hr 01 min 07 sec)
Heartbeat CPU 0 instructions: 16500125 cycles: 4286496 heartbeat IPC: 3.963 cumulative IPC: 3.849 (Simulation time: 00 hr 01 min 09 sec)
Heartbeat CPU 0 instructions: 17000126 cycles: 4412562 heartbeat IPC: 3.966 cumulative IPC: 3.853 (Simulation time: 00 hr 01 min 11 sec)
Heartbeat CPU 0 instructions: 17500128 cycles: 4551635 heartbeat IPC: 3.595 cumulative IPC: 3.845 (Simulation time: 00 hr 01 min 14 sec)
Heartbeat CPU 0 instructions: 18000130 cycles: 4678764 heartbeat IPC: 3.933 cumulative IPC: 3.847 (Simulation time: 00 hr 01 min 16 sec)
Heartbeat CPU 0 instructions: 18500131 cycles: 4815529 heartbeat IPC: 3.656 cumulative IPC: 3.842 (Simulation time: 00 hr 01 min 18 sec)
Heartbeat CPU 0 instructions: 19000133 cycles: 4941983 heartbeat IPC: 3.954 cumulative IPC: 3.845 (Simulation time: 00 hr 01 min 20 sec)
Heartbeat CPU 0 instructions: 19500133 cycles: 5068058 heartbeat IPC: 3.966 cumulative IPC: 3.848 (Simulation time: 00 hr 01 min 22 sec)
Heartbeat CPU 0 instructions: 20000139 cycles: 5185502 heartbeat IPC: 4.257 cumulative IPC: 3.857 (Simulation time: 00 hr 01 min 24 sec)
Heartbeat CPU 0 instructions: 20500145 cycles: 5302539 heartbeat IPC: 4.272 cumulative IPC: 3.866 (Simulation time: 00 hr 01 min 26 sec)
Heartbeat CPU 0 instructions: 21000147 cycles: 5432187 heartbeat IPC: 3.857 cumulative IPC: 3.866 (Simulation time: 00 hr 01 min 28 sec)
Heartbeat CPU 0 instructions: 21500149 cycles: 5571032 heartbeat IPC: 3.601 cumulative IPC: 3.859 (Simulation time: 00 hr 01 min 30 sec)
Heartbeat CPU 0 instructions: 22000151 cycles: 5695515 heartbeat IPC: 4.017 cumulative IPC: 3.863 (Simulation time: 00 hr 01 min 32 sec)
Heartbeat CPU 0 instructions: 22500155 cycles: 5825509 heartbeat IPC: 3.846 cumulative IPC: 3.862 (Simulation time: 00 hr 01 min 34 sec)
Heartbeat CPU 0 instructions: 23000161 cycles: 5948545 heartbeat IPC: 4.064 cumulative IPC: 3.867 (Simulation time: 00 hr 01 min 36 sec)
Heartbeat CPU 0 instructions: 23500165 cycles: 6074837 heartbeat IPC: 3.959 cumulative IPC: 3.868 (Simulation time: 00 hr 01 min 38 sec)
Heartbeat CPU 0 instructions: 24000171 cycles: 6215202 heartbeat IPC: 3.562 cumulative IPC: 3.862 (Simulation time: 00 hr 01 min 41 sec)
Heartbeat CPU 0 instructions: 24500175 cycles: 6353170 heartbeat IPC: 3.624 cumulative IPC: 3.856 (Simulation time: 00 hr 01 min 43 sec)
Heartbeat CPU 0 instructions: 25000181 cycles: 6477975 heartbeat IPC: 4.006 cumulative IPC: 3.859 (Simulation time: 00 hr 01 min 45 sec)
Heartbeat CPU 0 instructions: 25500186 cycles: 6605015 heartbeat IPC: 3.936 cumulative IPC: 3.861 (Simulation time: 00 hr 01 min 47 sec)
Heartbeat CPU 0 instructions: 26000187 cycles: 6744252 heartbeat IPC: 3.591 cumulative IPC: 3.855 (Simulation time: 00 hr 01 min 49 sec)
Heartbeat CPU 0 instructions: 26500187 cycles: 6873349 heartbeat IPC: 3.873 cumulative IPC: 3.855 (Simulation time: 00 hr 01 min 51 sec)
Heartbeat CPU 0 instructions: 27000192 cycles: 7011911 heartbeat IPC: 3.609 cumulative IPC: 3.851 (Simulation time: 00 hr 01 min 54 sec)
Heartbeat CPU 0 instructions: 27500199 cycles: 7139483 heartbeat IPC: 3.919 cumulative IPC: 3.852 (Simulation time: 00 hr 01 min 56 sec)
Heartbeat CPU 0 instructions: 28000205 cycles: 7263220 heartbeat IPC: 4.041 cumulative IPC: 3.855 (Simulation time: 00 hr 01 min 58 sec)
Heartbeat CPU 0 instructions: 28500209 cycles: 7380284 heartbeat IPC: 4.271 cumulative IPC: 3.862 (Simulation time: 00 hr 01 min 59 sec)
Heartbeat CPU 0 instructions: 29000209 cycles: 7504516 heartbeat IPC: 4.025 cumulative IPC: 3.864 (Simulation time: 00 hr 02 min 01 sec)
Heartbeat CPU 0 instructions: 29500210 cycles: 7637411 heartbeat IPC: 3.762 cumulative IPC: 3.863 (Simulation time: 00 hr 02 min 04 sec)
Heartbeat CPU 0 instructions: 30000213 cycles: 7769581 heartbeat IPC: 3.783 cumulative IPC: 3.861 (Simulation time: 00 hr 02 min 06 sec)
Heartbeat CPU 0 instructions: 30500218 cycles: 7893146 heartbeat IPC: 4.046 cumulative IPC: 3.864 (Simulation time: 00 hr 02 min 08 sec)
Heartbeat CPU 0 instructions: 31000219 cycles: 8022119 heartbeat IPC: 3.877 cumulative IPC: 3.864 (Simulation time: 00 hr 02 min 10 sec)
Heartbeat CPU 0 instructions: 31500226 cycles: 8142741 heartbeat IPC: 4.145 cumulative IPC: 3.869 (Simulation time: 00 hr 02 min 12 sec)
Heartbeat CPU 0 instructions: 32000228 cycles: 8266760 heartbeat IPC: 4.032 cumulative IPC: 3.871 (Simulation time: 00 hr 02 min 14 sec)
Heartbeat CPU 0 instructions: 32500229 cycles: 8404779 heartbeat IPC: 3.623 cumulative IPC: 3.867 (Simulation time: 00 hr 02 min 16 sec)
Heartbeat CPU 0 instructions: 33000231 cycles: 8541140 heartbeat IPC: 3.667 cumulative IPC: 3.864 (Simulation time: 00 hr 02 min 18 sec)
Heartbeat CPU 0 instructions: 33500235 cycles: 8666241 heartbeat IPC: 3.997 cumulative IPC: 3.866 (Simulation time: 00 hr 02 min 21 sec)
Heartbeat CPU 0 instructions: 34000237 cycles: 8795966 heartbeat IPC: 3.854 cumulative IPC: 3.865 (Simulation time: 00 hr 02 min 23 sec)
Heartbeat CPU 0 instructions: 34500239 cycles: 8935500 heartbeat IPC: 3.583 cumulative IPC: 3.861 (Simulation time: 00 hr 02 min 25 sec)
Heartbeat CPU 0 instructions: 35000240 cycles: 9065299 heartbeat IPC: 3.852 cumulative IPC: 3.861 (Simulation time: 00 hr 02 min 27 sec)
Heartbeat CPU 0 instructions: 35500247 cycles: 9200426 heartbeat IPC: 3.7 cumulative IPC: 3.859 (Simulation time: 00 hr 02 min 29 sec)
Heartbeat CPU 0 instructions: 36000254 cycles: 9325981 heartbeat IPC: 3.982 cumulative IPC: 3.86 (Simulation time: 00 hr 02 min 31 sec)
Heartbeat CPU 0 instructions: 36500254 cycles: 9451671 heartbeat IPC: 3.978 cumulative IPC: 3.862 (Simulation time: 00 hr 02 min 33 sec)
Heartbeat CPU 0 instructions: 37000260 cycles: 9568774 heartbeat IPC: 4.27 cumulative IPC: 3.867 (Simulation time: 00 hr 02 min 35 sec)
Heartbeat CPU 0 instructions: 37500261 cycles: 9696623 heartbeat IPC: 3.911 cumulative IPC: 3.867 (Simulation time: 00 hr 02 min 37 sec)
Heartbeat CPU 0 instructions: 38000261 cycles: 9830192 heartbeat IPC: 3.743 cumulative IPC: 3.866 (Simulation time: 00 hr 02 min 40 sec)
Heartbeat CPU 0 instructions: 38500261 cycles: 9960728 heartbeat IPC: 3.83 cumulative IPC: 3.865 (Simulation time: 00 hr 02 min 42 sec)
Heartbeat CPU 0 instructions: 39000262 cycles: 10089206 heartbeat IPC: 3.892 cumulative IPC: 3.866 (Simulation time: 00 hr 02 min 44 sec)
Heartbeat CPU 0 instructions: 39500262 cycles: 10216874 heartbeat IPC: 3.916 cumulative IPC: 3.866 (Simulation time: 00 hr 02 min 46 sec)
Heartbeat CPU 0 instructions: 40000268 cycles: 10337667 heartbeat IPC: 4.139 cumulative IPC: 3.869 (Simulation time: 00 hr 02 min 48 sec)
Heartbeat CPU 0 instructions: 40500268 cycles: 10464849 heartbeat IPC: 3.931 cumulative IPC: 3.87 (Simulation time: 00 hr 02 min 50 sec)
Heartbeat CPU 0 instructions: 41000271 cycles: 10602439 heartbeat IPC: 3.634 cumulative IPC: 3.867 (Simulation time: 00 hr 02 min 52 sec)
Heartbeat CPU 0 instructions: 41500276 cycles: 10733842 heartbeat IPC: 3.805 cumulative IPC: 3.866 (Simulation time: 00 hr 02 min 54 sec)
Heartbeat CPU 0 instructions: 42000276 cycles: 10857219 heartbeat IPC: 4.053 cumulative IPC: 3.868 (Simulation time: 00 hr 02 min 56 sec)
Heartbeat CPU 0 instructions: 42500278 cycles: 10990397 heartbeat IPC: 3.754 cumulative IPC: 3.867 (Simulation time: 00 hr 02 min 59 sec)
Heartbeat CPU 0 instructions: 43000284 cycles: 11130351 heartbeat IPC: 3.573 cumulative IPC: 3.863 (Simulation time: 00 hr 03 min 01 sec)
Heartbeat CPU 0 instructions: 43500285 cycles: 11260445 heartbeat IPC: 3.843 cumulative IPC: 3.863 (Simulation time: 00 hr 03 min 03 sec)
Heartbeat CPU 0 instructions: 44000292 cycles: 11391033 heartbeat IPC: 3.829 cumulative IPC: 3.863 (Simulation time: 00 hr 03 min 05 sec)
Heartbeat CPU 0 instructions: 44500296 cycles: 11516057 heartbeat IPC: 3.999 cumulative IPC: 3.864 (Simulation time: 00 hr 03 min 07 sec)
Heartbeat CPU 0 instructions: 45000302 cycles: 11643762 heartbeat IPC: 3.915 cumulative IPC: 3.865 (Simulation time: 00 hr 03 min 09 sec)
Heartbeat CPU 0 instructions: 45500307 cycles: 11761227 heartbeat IPC: 4.257 cumulative IPC: 3.869 (Simulation time: 00 hr 03 min 11 sec)
Heartbeat CPU 0 instructions: 46000309 cycles: 11894510 heartbeat IPC: 3.751 cumulative IPC: 3.867 (Simulation time: 00 hr 03 min 13 sec)
Heartbeat CPU 0 instructions: 46500309 cycles: 12031151 heartbeat IPC: 3.659 cumulative IPC: 3.865 (Simulation time: 00 hr 03 min 15 sec)
Heartbeat CPU 0 instructions: 47000309 cycles: 12158421 heartbeat IPC: 3.929 cumulative IPC: 3.866 (Simulation time: 00 hr 03 min 17 sec)
Heartbeat CPU 0 instructions: 47500310 cycles: 12288924 heartbeat IPC: 3.831 cumulative IPC: 3.865 (Simulation time: 00 hr 03 min 20 sec)
Heartbeat CPU 0 instructions: 48000313 cycles: 12414563 heartbeat IPC: 3.98 cumulative IPC: 3.866 (Simulation time: 00 hr 03 min 22 sec)
Heartbeat CPU 0 instructions: 48500318 cycles: 12538596 heartbeat IPC: 4.031 cumulative IPC: 3.868 (Simulation time: 00 hr 03 min 24 sec)
Heartbeat CPU 0 instructions: 49000320 cycles: 12667364 heartbeat IPC: 3.883 cumulative IPC: 3.868 (Simulation time: 00 hr 03 min 26 sec)
Heartbeat CPU 0 instructions: 49500326 cycles: 12804056 heartbeat IPC: 3.658 cumulative IPC: 3.866 (Simulation time: 00 hr 03 min 28 sec)
Warmup finished CPU 0 instructions: 50000007 cycles: 12930882 cumulative IPC: 3.867 (Simulation time: 00 hr 03 min 30 sec)
Warmup complete CPU 0 instructions: 50000007 cycles: 12930882 cumulative IPC: 3.867 (Simulation time: 00 hr 03 min 30 sec)
Heartbeat CPU 0 instructions: 50000331 cycles: 12931105 heartbeat IPC: 3.936 cumulative IPC: 1.453 (Simulation time: 00 hr 03 min 30 sec)
Heartbeat CPU 0 instructions: 50500331 cycles: 13696975 heartbeat IPC: 0.6529 cumulative IPC: 0.6531 (Simulation time: 00 hr 03 min 41 sec)
Heartbeat CPU 0 instructions: 51000335 cycles: 14522640 heartbeat IPC: 0.6056 cumulative IPC: 0.6284 (Simulation time: 00 hr 03 min 53 sec)
Heartbeat CPU 0 instructions: 51500337 cycles: 15449002 heartbeat IPC: 0.5397 cumulative IPC: 0.5958 (Simulation time: 00 hr 04 min 07 sec)
Heartbeat CPU 0 instructions: 52000339 cycles: 16297023 heartbeat IPC: 0.5896 cumulative IPC: 0.5943 (Simulation time: 00 hr 04 min 19 sec)
Heartbeat CPU 0 instructions: 52500344 cycles: 17115420 heartbeat IPC: 0.611 cumulative IPC: 0.5975 (Simulation time: 00 hr 04 min 31 sec)
Heartbeat CPU 0 instructions: 53000347 cycles: 17880903 heartbeat IPC: 0.6532 cumulative IPC: 0.6061 (Simulation time: 00 hr 04 min 42 sec)
Heartbeat CPU 0 instructions: 53500351 cycles: 18654156 heartbeat IPC: 0.6466 cumulative IPC: 0.6116 (Simulation time: 00 hr 04 min 54 sec)
Heartbeat CPU 0 instructions: 54000357 cycles: 19192923 heartbeat IPC: 0.9281 cumulative IPC: 0.6388 (Simulation time: 00 hr 05 min 02 sec)
Heartbeat CPU 0 instructions: 54500357 cycles: 20146053 heartbeat IPC: 0.5246 cumulative IPC: 0.6237 (Simulation time: 00 hr 05 min 16 sec)
Heartbeat CPU 0 instructions: 55000361 cycles: 21133164 heartbeat IPC: 0.5065 cumulative IPC: 0.6096 (Simulation time: 00 hr 05 min 30 sec)
Heartbeat CPU 0 instructions: 55500361 cycles: 21940381 heartbeat IPC: 0.6194 cumulative IPC: 0.6105 (Simulation time: 00 hr 05 min 42 sec)
Heartbeat CPU 0 instructions: 56000362 cycles: 22787710 heartbeat IPC: 0.5901 cumulative IPC: 0.6088 (Simulation time: 00 hr 05 min 54 sec)
Heartbeat CPU 0 instructions: 56500363 cycles: 23555467 heartbeat IPC: 0.6512 cumulative IPC: 0.6118 (Simulation time: 00 hr 06 min 06 sec)
Heartbeat CPU 0 instructions: 57000363 cycles: 24385725 heartbeat IPC: 0.6022 cumulative IPC: 0.6111 (Simulation time: 00 hr 06 min 18 sec)
Heartbeat CPU 0 instructions: 57500370 cycles: 25139638 heartbeat IPC: 0.6632 cumulative IPC: 0.6143 (Simulation time: 00 hr 06 min 29 sec)
Heartbeat CPU 0 instructions: 58000377 cycles: 26004305 heartbeat IPC: 0.5783 cumulative IPC: 0.612 (Simulation time: 00 hr 06 min 42 sec)
Heartbeat CPU 0 instructions: 58500378 cycles: 26800874 heartbeat IPC: 0.6277 cumulative IPC: 0.6129 (Simulation time: 00 hr 06 min 53 sec)
Heartbeat CPU 0 instructions: 59000383 cycles: 27584596 heartbeat IPC: 0.638 cumulative IPC: 0.6142 (Simulation time: 00 hr 07 min 05 sec)
Heartbeat CPU 0 instructions: 59500385 cycles: 28390393 heartbeat IPC: 0.6205 cumulative IPC: 0.6145 (Simulation time: 00 hr 07 min 17 sec)
Heartbeat CPU 0 instructions: 60000391 cycles: 29304597 heartbeat IPC: 0.5469 cumulative IPC: 0.6108 (Simulation time: 00 hr 07 min 30 sec)
Heartbeat CPU 0 instructions: 60500394 cycles: 30109655 heartbeat IPC: 0.6211 cumulative IPC: 0.6112 (Simulation time: 00 hr 07 min 42 sec)
Heartbeat CPU 0 instructions: 61000394 cycles: 30922815 heartbeat IPC: 0.6149 cumulative IPC: 0.6114 (Simulation time: 00 hr 07 min 54 sec)
Heartbeat CPU 0 instructions: 61500399 cycles: 31701074 heartbeat IPC: 0.6425 cumulative IPC: 0.6127 (Simulation time: 00 hr 08 min 05 sec)
Heartbeat CPU 0 instructions: 62000404 cycles: 32434336 heartbeat IPC: 0.6819 cumulative IPC: 0.6153 (Simulation time: 00 hr 08 min 16 sec)
Heartbeat CPU 0 instructions: 62500405 cycles: 33042656 heartbeat IPC: 0.8219 cumulative IPC: 0.6215 (Simulation time: 00 hr 08 min 25 sec)
Heartbeat CPU 0 instructions: 63000411 cycles: 34037834 heartbeat IPC: 0.5024 cumulative IPC: 0.6159 (Simulation time: 00 hr 08 min 40 sec)
Heartbeat CPU 0 instructions: 63500413 cycles: 34969156 heartbeat IPC: 0.5369 cumulative IPC: 0.6126 (Simulation time: 00 hr 08 min 53 sec)
Heartbeat CPU 0 instructions: 64000414 cycles: 35861588 heartbeat IPC: 0.5603 cumulative IPC: 0.6106 (Simulation time: 00 hr 09 min 06 sec)
Heartbeat CPU 0 instructions: 64500416 cycles: 36738292 heartbeat IPC: 0.5703 cumulative IPC: 0.6091 (Simulation time: 00 hr 09 min 19 sec)
Heartbeat CPU 0 instructions: 65000421 cycles: 37475827 heartbeat IPC: 0.6779 cumulative IPC: 0.6111 (Simulation time: 00 hr 09 min 30 sec)
Heartbeat CPU 0 instructions: 65500425 cycles: 38336269 heartbeat IPC: 0.5811 cumulative IPC: 0.6101 (Simulation time: 00 hr 09 min 42 sec)
Heartbeat CPU 0 instructions: 66000432 cycles: 39083764 heartbeat IPC: 0.6689 cumulative IPC: 0.6118 (Simulation time: 00 hr 09 min 53 sec)
Heartbeat CPU 0 instructions: 66500437 cycles: 39873750 heartbeat IPC: 0.6329 cumulative IPC: 0.6124 (Simulation time: 00 hr 10 min 05 sec)
Heartbeat CPU 0 instructions: 67000443 cycles: 40664812 heartbeat IPC: 0.6321 cumulative IPC: 0.613 (Simulation time: 00 hr 10 min 17 sec)
Heartbeat CPU 0 instructions: 67500446 cycles: 41413565 heartbeat IPC: 0.6678 cumulative IPC: 0.6144 (Simulation time: 00 hr 10 min 28 sec)
Heartbeat CPU 0 instructions: 68000450 cycles: 42222675 heartbeat IPC: 0.618 cumulative IPC: 0.6145 (Simulation time: 00 hr 10 min 40 sec)
Heartbeat CPU 0 instructions: 68500453 cycles: 43120090 heartbeat IPC: 0.5572 cumulative IPC: 0.6128 (Simulation time: 00 hr 10 min 53 sec)
Heartbeat CPU 0 instructions: 69000460 cycles: 43895932 heartbeat IPC: 0.6445 cumulative IPC: 0.6136 (Simulation time: 00 hr 11 min 04 sec)
Heartbeat CPU 0 instructions: 69500465 cycles: 44692318 heartbeat IPC: 0.6278 cumulative IPC: 0.614 (Simulation time: 00 hr 11 min 16 sec)
Heartbeat CPU 0 instructions: 70000468 cycles: 45443039 heartbeat IPC: 0.666 cumulative IPC: 0.6152 (Simulation time: 00 hr 11 min 27 sec)
Heartbeat CPU 0 instructions: 70500468 cycles: 46187968 heartbeat IPC: 0.6712 cumulative IPC: 0.6164 (Simulation time: 00 hr 11 min 38 sec)
Heartbeat CPU 0 instructions: 71000468 cycles: 46830619 heartbeat IPC: 0.778 cumulative IPC: 0.6195 (Simulation time: 00 hr 11 min 48 sec)
Heartbeat CPU 0 instructions: 71500468 cycles: 47833388 heartbeat IPC: 0.4986 cumulative IPC: 0.616 (Simulation time: 00 hr 12 min 02 sec)
Heartbeat CPU 0 instructions: 72000469 cycles: 48720343 heartbeat IPC: 0.5637 cumulative IPC: 0.6147 (Simulation time: 00 hr 12 min 15 sec)
Heartbeat CPU 0 instructions: 72500470 cycles: 49651039 heartbeat IPC: 0.5372 cumulative IPC: 0.6128 (Simulation time: 00 hr 12 min 29 sec)
Heartbeat CPU 0 instructions: 73000475 cycles: 50534426 heartbeat IPC: 0.566 cumulative IPC: 0.6117 (Simulation time: 00 hr 12 min 42 sec)
Heartbeat CPU 0 instructions: 73500480 cycles: 51293128 heartbeat IPC: 0.659 cumulative IPC: 0.6126 (Simulation time: 00 hr 12 min 53 sec)
Heartbeat CPU 0 instructions: 74000483 cycles: 52159665 heartbeat IPC: 0.577 cumulative IPC: 0.6118 (Simulation time: 00 hr 13 min 05 sec)
Heartbeat CPU 0 instructions: 74500489 cycles: 52894982 heartbeat IPC: 0.68 cumulative IPC: 0.6131 (Simulation time: 00 hr 13 min 16 sec)
Heartbeat CPU 0 instructions: 75000489 cycles: 53703483 heartbeat IPC: 0.6184 cumulative IPC: 0.6132 (Simulation time: 00 hr 13 min 28 sec)
Heartbeat CPU 0 instructions: 75500493 cycles: 54524066 heartbeat IPC: 0.6093 cumulative IPC: 0.6131 (Simulation time: 00 hr 13 min 40 sec)
Heartbeat CPU 0 instructions: 76000497 cycles: 55266695 heartbeat IPC: 0.6733 cumulative IPC: 0.6141 (Simulation time: 00 hr 13 min 51 sec)
Heartbeat CPU 0 instructions: 76500500 cycles: 56095670 heartbeat IPC: 0.6032 cumulative IPC: 0.6139 (Simulation time: 00 hr 14 min 03 sec)
Heartbeat CPU 0 instructions: 77000502 cycles: 56990838 heartbeat IPC: 0.5586 cumulative IPC: 0.6128 (Simulation time: 00 hr 14 min 16 sec)
Heartbeat CPU 0 instructions: 77500507 cycles: 57771419 heartbeat IPC: 0.6406 cumulative IPC: 0.6133 (Simulation time: 00 hr 14 min 28 sec)
Heartbeat CPU 0 instructions: 78000507 cycles: 58525984 heartbeat IPC: 0.6626 cumulative IPC: 0.6141 (Simulation time: 00 hr 14 min 39 sec)
Heartbeat CPU 0 instructions: 78500511 cycles: 59318045 heartbeat IPC: 0.6313 cumulative IPC: 0.6144 (Simulation time: 00 hr 14 min 51 sec)
Heartbeat CPU 0 instructions: 79000511 cycles: 59981764 heartbeat IPC: 0.7533 cumulative IPC: 0.6164 (Simulation time: 00 hr 15 min 01 sec)
Heartbeat CPU 0 instructions: 79500516 cycles: 60707970 heartbeat IPC: 0.6885 cumulative IPC: 0.6175 (Simulation time: 00 hr 15 min 12 sec)
Heartbeat CPU 0 instructions: 80000520 cycles: 61678749 heartbeat IPC: 0.5151 cumulative IPC: 0.6154 (Simulation time: 00 hr 15 min 26 sec)
Heartbeat CPU 0 instructions: 80500520 cycles: 62534189 heartbeat IPC: 0.5845 cumulative IPC: 0.6149 (Simulation time: 00 hr 15 min 38 sec)
Heartbeat CPU 0 instructions: 81000520 cycles: 63481223 heartbeat IPC: 0.528 cumulative IPC: 0.6133 (Simulation time: 00 hr 15 min 52 sec)
Heartbeat CPU 0 instructions: 81500522 cycles: 64361979 heartbeat IPC: 0.5677 cumulative IPC: 0.6125 (Simulation time: 00 hr 16 min 05 sec)
Heartbeat CPU 0 instructions: 82000522 cycles: 65160016 heartbeat IPC: 0.6265 cumulative IPC: 0.6127 (Simulation time: 00 hr 16 min 16 sec)
Heartbeat CPU 0 instructions: 82500522 cycles: 66002310 heartbeat IPC: 0.5936 cumulative IPC: 0.6124 (Simulation time: 00 hr 16 min 29 sec)
Heartbeat CPU 0 instructions: 83000528 cycles: 66746648 heartbeat IPC: 0.6717 cumulative IPC: 0.6132 (Simulation time: 00 hr 16 min 40 sec)
Heartbeat CPU 0 instructions: 83500528 cycles: 67536594 heartbeat IPC: 0.633 cumulative IPC: 0.6135 (Simulation time: 00 hr 16 min 51 sec)
Heartbeat CPU 0 instructions: 84000530 cycles: 68385494 heartbeat IPC: 0.589 cumulative IPC: 0.6131 (Simulation time: 00 hr 17 min 04 sec)
Heartbeat CPU 0 instructions: 84500532 cycles: 69193656 heartbeat IPC: 0.6187 cumulative IPC: 0.6132 (Simulation time: 00 hr 17 min 16 sec)
Heartbeat CPU 0 instructions: 85000532 cycles: 69998838 heartbeat IPC: 0.621 cumulative IPC: 0.6133 (Simulation time: 00 hr 17 min 28 sec)
Heartbeat CPU 0 instructions: 85500539 cycles: 70866226 heartbeat IPC: 0.5765 cumulative IPC: 0.6128 (Simulation time: 00 hr 17 min 40 sec)
Heartbeat CPU 0 instructions: 86000540 cycles: 71631786 heartbeat IPC: 0.6531 cumulative IPC: 0.6133 (Simulation time: 00 hr 17 min 52 sec)
Heartbeat CPU 0 instructions: 86500542 cycles: 72379586 heartbeat IPC: 0.6686 cumulative IPC: 0.614 (Simulation time: 00 hr 18 min 03 sec)
Heartbeat CPU 0 instructions: 87000545 cycles: 73252689 heartbeat IPC: 0.5727 cumulative IPC: 0.6134 (Simulation time: 00 hr 18 min 15 sec)
Heartbeat CPU 0 instructions: 87500545 cycles: 73899210 heartbeat IPC: 0.7734 cumulative IPC: 0.6151 (Simulation time: 00 hr 18 min 25 sec)
Heartbeat CPU 0 instructions: 88000552 cycles: 74617155 heartbeat IPC: 0.6964 cumulative IPC: 0.616 (Simulation time: 00 hr 18 min 36 sec)
Heartbeat CPU 0 instructions: 88500558 cycles: 75538263 heartbeat IPC: 0.5428 cumulative IPC: 0.615 (Simulation time: 00 hr 18 min 49 sec)
Heartbeat CPU 0 instructions: 89000565 cycles: 76369191 heartbeat IPC: 0.6017 cumulative IPC: 0.6148 (Simulation time: 00 hr 19 min 01 sec)
Heartbeat CPU 0 instructions: 89500567 cycles: 77324228 heartbeat IPC: 0.5235 cumulative IPC: 0.6134 (Simulation time: 00 hr 19 min 15 sec)
Heartbeat CPU 0 instructions: 90000574 cycles: 78276150 heartbeat IPC: 0.5253 cumulative IPC: 0.6121 (Simulation time: 00 hr 19 min 28 sec)
Heartbeat CPU 0 instructions: 90500577 cycles: 79172726 heartbeat IPC: 0.5577 cumulative IPC: 0.6114 (Simulation time: 00 hr 19 min 41 sec)
Heartbeat CPU 0 instructions: 91000579 cycles: 79957777 heartbeat IPC: 0.6369 cumulative IPC: 0.6117 (Simulation time: 00 hr 19 min 52 sec)
Heartbeat CPU 0 instructions: 91500585 cycles: 80712407 heartbeat IPC: 0.6626 cumulative IPC: 0.6123 (Simulation time: 00 hr 20 min 03 sec)
Heartbeat CPU 0 instructions: 92000590 cycles: 81547251 heartbeat IPC: 0.5989 cumulative IPC: 0.6121 (Simulation time: 00 hr 20 min 15 sec)
Heartbeat CPU 0 instructions: 92500592 cycles: 82451540 heartbeat IPC: 0.5529 cumulative IPC: 0.6113 (Simulation time: 00 hr 20 min 28 sec)
Heartbeat CPU 0 instructions: 93000598 cycles: 83361700 heartbeat IPC: 0.5494 cumulative IPC: 0.6105 (Simulation time: 00 hr 20 min 41 sec)
Heartbeat CPU 0 instructions: 93500603 cycles: 84144698 heartbeat IPC: 0.6386 cumulative IPC: 0.6108 (Simulation time: 00 hr 20 min 53 sec)
Heartbeat CPU 0 instructions: 94000603 cycles: 84897594 heartbeat IPC: 0.6641 cumulative IPC: 0.6114 (Simulation time: 00 hr 21 min 04 sec)
Heartbeat CPU 0 instructions: 94500606 cycles: 85623403 heartbeat IPC: 0.6889 cumulative IPC: 0.6122 (Simulation time: 00 hr 21 min 14 sec)
Heartbeat CPU 0 instructions: 95000610 cycles: 86391296 heartbeat IPC: 0.6511 cumulative IPC: 0.6126 (Simulation time: 00 hr 21 min 25 sec)
Heartbeat CPU 0 instructions: 95500614 cycles: 87206966 heartbeat IPC: 0.613 cumulative IPC: 0.6126 (Simulation time: 00 hr 21 min 37 sec)
Heartbeat CPU 0 instructions: 96000620 cycles: 87732117 heartbeat IPC: 0.9521 cumulative IPC: 0.615 (Simulation time: 00 hr 21 min 45 sec)
Heartbeat CPU 0 instructions: 96500624 cycles: 88796494 heartbeat IPC: 0.4698 cumulative IPC: 0.6129 (Simulation time: 00 hr 21 min 59 sec)
Heartbeat CPU 0 instructions: 97000628 cycles: 89534202 heartbeat IPC: 0.6778 cumulative IPC: 0.6136 (Simulation time: 00 hr 22 min 10 sec)
Heartbeat CPU 0 instructions: 97500628 cycles: 90417346 heartbeat IPC: 0.5662 cumulative IPC: 0.613 (Simulation time: 00 hr 22 min 22 sec)
Heartbeat CPU 0 instructions: 98000629 cycles: 91229268 heartbeat IPC: 0.6158 cumulative IPC: 0.613 (Simulation time: 00 hr 22 min 34 sec)
Heartbeat CPU 0 instructions: 98500631 cycles: 92239446 heartbeat IPC: 0.495 cumulative IPC: 0.6115 (Simulation time: 00 hr 22 min 48 sec)
Heartbeat CPU 0 instructions: 99000634 cycles: 93168951 heartbeat IPC: 0.5379 cumulative IPC: 0.6107 (Simulation time: 00 hr 23 min 01 sec)
Heartbeat CPU 0 instructions: 99500635 cycles: 93825843 heartbeat IPC: 0.7612 cumulative IPC: 0.6119 (Simulation time: 00 hr 23 min 10 sec)
Heartbeat CPU 0 instructions: 100000642 cycles: 94636594 heartbeat IPC: 0.6167 cumulative IPC: 0.612 (Simulation time: 00 hr 23 min 21 sec)
Heartbeat CPU 0 instructions: 100500646 cycles: 95448941 heartbeat IPC: 0.6155 cumulative IPC: 0.612 (Simulation time: 00 hr 23 min 33 sec)
Heartbeat CPU 0 instructions: 101000647 cycles: 96314024 heartbeat IPC: 0.578 cumulative IPC: 0.6116 (Simulation time: 00 hr 23 min 45 sec)
Heartbeat CPU 0 instructions: 101500651 cycles: 97221615 heartbeat IPC: 0.5509 cumulative IPC: 0.611 (Simulation time: 00 hr 23 min 57 sec)
Heartbeat CPU 0 instructions: 102000653 cycles: 98037592 heartbeat IPC: 0.6128 cumulative IPC: 0.611 (Simulation time: 00 hr 24 min 09 sec)
Heartbeat CPU 0 instructions: 102500654 cycles: 98792742 heartbeat IPC: 0.6621 cumulative IPC: 0.6115 (Simulation time: 00 hr 24 min 19 sec)
Heartbeat CPU 0 instructions: 103000658 cycles: 99527985 heartbeat IPC: 0.6801 cumulative IPC: 0.612 (Simulation time: 00 hr 24 min 30 sec)
Heartbeat CPU 0 instructions: 103500661 cycles: 100350363 heartbeat IPC: 0.608 cumulative IPC: 0.612 (Simulation time: 00 hr 24 min 41 sec)
Heartbeat CPU 0 instructions: 104000665 cycles: 100966970 heartbeat IPC: 0.8109 cumulative IPC: 0.6134 (Simulation time: 00 hr 24 min 50 sec)
Heartbeat CPU 0 instructions: 104500670 cycles: 101668311 heartbeat IPC: 0.7129 cumulative IPC: 0.6142 (Simulation time: 00 hr 24 min 59 sec)
Heartbeat CPU 0 instructions: 105000673 cycles: 102713743 heartbeat IPC: 0.4783 cumulative IPC: 0.6126 (Simulation time: 00 hr 25 min 13 sec)
Heartbeat CPU 0 instructions: 105500677 cycles: 103470014 heartbeat IPC: 0.6611 cumulative IPC: 0.613 (Simulation time: 00 hr 25 min 24 sec)
Heartbeat CPU 0 instructions: 106000680 cycles: 104374964 heartbeat IPC: 0.5525 cumulative IPC: 0.6124 (Simulation time: 00 hr 25 min 36 sec)
Heartbeat CPU 0 instructions: 106500684 cycles: 105255175 heartbeat IPC: 0.5681 cumulative IPC: 0.612 (Simulation time: 00 hr 25 min 48 sec)
Heartbeat CPU 0 instructions: 107000688 cycles: 106217324 heartbeat IPC: 0.5197 cumulative IPC: 0.611 (Simulation time: 00 hr 26 min 01 sec)
Heartbeat CPU 0 instructions: 107500689 cycles: 107082667 heartbeat IPC: 0.5778 cumulative IPC: 0.6107 (Simulation time: 00 hr 26 min 12 sec)
Heartbeat CPU 0 instructions: 108000690 cycles: 107741556 heartbeat IPC: 0.7589 cumulative IPC: 0.6118 (Simulation time: 00 hr 26 min 21 sec)
Heartbeat CPU 0 instructions: 108500691 cycles: 108522189 heartbeat IPC: 0.6405 cumulative IPC: 0.612 (Simulation time: 00 hr 26 min 32 sec)
Heartbeat CPU 0 instructions: 109000697 cycles: 109432280 heartbeat IPC: 0.5494 cumulative IPC: 0.6114 (Simulation time: 00 hr 26 min 44 sec)
Heartbeat CPU 0 instructions: 109500701 cycles: 110369614 heartbeat IPC: 0.5334 cumulative IPC: 0.6106 (Simulation time: 00 hr 26 min 56 sec)
Heartbeat CPU 0 instructions: 110000703 cycles: 111173879 heartbeat IPC: 0.6217 cumulative IPC: 0.6107 (Simulation time: 00 hr 27 min 07 sec)
Heartbeat CPU 0 instructions: 110500704 cycles: 111952632 heartbeat IPC: 0.6421 cumulative IPC: 0.611 (Simulation time: 00 hr 27 min 17 sec)
Heartbeat CPU 0 instructions: 111000704 cycles: 112720316 heartbeat IPC: 0.6513 cumulative IPC: 0.6113 (Simulation time: 00 hr 27 min 27 sec)
Heartbeat CPU 0 instructions: 111500706 cycles: 113475947 heartbeat IPC: 0.6617 cumulative IPC: 0.6117 (Simulation time: 00 hr 27 min 37 sec)
Heartbeat CPU 0 instructions: 112000710 cycles: 114311190 heartbeat IPC: 0.5986 cumulative IPC: 0.6116 (Simulation time: 00 hr 27 min 48 sec)
Heartbeat CPU 0 instructions: 112500716 cycles: 114864576 heartbeat IPC: 0.9035 cumulative IPC: 0.6132 (Simulation time: 00 hr 27 min 56 sec)
Heartbeat CPU 0 instructions: 113000716 cycles: 115754773 heartbeat IPC: 0.5617 cumulative IPC: 0.6127 (Simulation time: 00 hr 28 min 07 sec)
Heartbeat CPU 0 instructions: 113500721 cycles: 116625674 heartbeat IPC: 0.5741 cumulative IPC: 0.6124 (Simulation time: 00 hr 28 min 19 sec)
Heartbeat CPU 0 instructions: 114000723 cycles: 117454226 heartbeat IPC: 0.6035 cumulative IPC: 0.6123 (Simulation time: 00 hr 28 min 30 sec)
Heartbeat CPU 0 instructions: 114500730 cycles: 118191265 heartbeat IPC: 0.6784 cumulative IPC: 0.6128 (Simulation time: 00 hr 28 min 39 sec)
Heartbeat CPU 0 instructions: 115000737 cycles: 119223183 heartbeat IPC: 0.4845 cumulative IPC: 0.6115 (Simulation time: 00 hr 28 min 53 sec)
Heartbeat CPU 0 instructions: 115500742 cycles: 120129188 heartbeat IPC: 0.5519 cumulative IPC: 0.611 (Simulation time: 00 hr 29 min 04 sec)
Heartbeat CPU 0 instructions: 116000746 cycles: 120865808 heartbeat IPC: 0.6788 cumulative IPC: 0.6115 (Simulation time: 00 hr 29 min 14 sec)
Heartbeat CPU 0 instructions: 116500747 cycles: 121561453 heartbeat IPC: 0.7188 cumulative IPC: 0.6122 (Simulation time: 00 hr 29 min 23 sec)
Heartbeat CPU 0 instructions: 117000748 cycles: 122335496 heartbeat IPC: 0.646 cumulative IPC: 0.6124 (Simulation time: 00 hr 29 min 33 sec)
Heartbeat CPU 0 instructions: 117500751 cycles: 123222032 heartbeat IPC: 0.564 cumulative IPC: 0.612 (Simulation time: 00 hr 29 min 44 sec)
Heartbeat CPU 0 instructions: 118000757 cycles: 124163675 heartbeat IPC: 0.531 cumulative IPC: 0.6113 (Simulation time: 00 hr 29 min 56 sec)
Heartbeat CPU 0 instructions: 118500760 cycles: 124980470 heartbeat IPC: 0.6122 cumulative IPC: 0.6113 (Simulation time: 00 hr 30 min 07 sec)
Heartbeat CPU 0 instructions: 119000766 cycles: 125748328 heartbeat IPC: 0.6512 cumulative IPC: 0.6116 (Simulation time: 00 hr 30 min 17 sec)
Heartbeat CPU 0 instructions: 119500772 cycles: 126514110 heartbeat IPC: 0.6529 cumulative IPC: 0.6119 (Simulation time: 00 hr 30 min 27 sec)
Heartbeat CPU 0 instructions: 120000776 cycles: 127375139 heartbeat IPC: 0.5807 cumulative IPC: 0.6117 (Simulation time: 00 hr 30 min 38 sec)
Heartbeat CPU 0 instructions: 120500777 cycles: 128083808 heartbeat IPC: 0.7055 cumulative IPC: 0.6122 (Simulation time: 00 hr 30 min 47 sec)
Heartbeat CPU 0 instructions: 121000780 cycles: 128605897 heartbeat IPC: 0.9577 cumulative IPC: 0.6138 (Simulation time: 00 hr 30 min 54 sec)
Heartbeat CPU 0 instructions: 121500784 cycles: 129673265 heartbeat IPC: 0.4684 cumulative IPC: 0.6125 (Simulation time: 00 hr 31 min 07 sec)
Heartbeat CPU 0 instructions: 122000789 cycles: 130501217 heartbeat IPC: 0.6039 cumulative IPC: 0.6124 (Simulation time: 00 hr 31 min 18 sec)
Heartbeat CPU 0 instructions: 122500791 cycles: 131380921 heartbeat IPC: 0.5684 cumulative IPC: 0.6121 (Simulation time: 00 hr 31 min 29 sec)
Heartbeat CPU 0 instructions: 123000795 cycles: 132042439 heartbeat IPC: 0.7558 cumulative IPC: 0.6129 (Simulation time: 00 hr 31 min 38 sec)
Heartbeat CPU 0 instructions: 123500801 cycles: 133069603 heartbeat IPC: 0.4868 cumulative IPC: 0.6118 (Simulation time: 00 hr 31 min 51 sec)
Heartbeat CPU 0 instructions: 124000804 cycles: 134012134 heartbeat IPC: 0.5305 cumulative IPC: 0.6112 (Simulation time: 00 hr 32 min 03 sec)
Heartbeat CPU 0 instructions: 124500804 cycles: 134690938 heartbeat IPC: 0.7366 cumulative IPC: 0.6119 (Simulation time: 00 hr 32 min 12 sec)
Heartbeat CPU 0 instructions: 125000810 cycles: 135497566 heartbeat IPC: 0.6199 cumulative IPC: 0.6119 (Simulation time: 00 hr 32 min 22 sec)
Heartbeat CPU 0 instructions: 125500811 cycles: 136339312 heartbeat IPC: 0.594 cumulative IPC: 0.6118 (Simulation time: 00 hr 32 min 33 sec)
Heartbeat CPU 0 instructions: 126000816 cycles: 137093398 heartbeat IPC: 0.6631 cumulative IPC: 0.6121 (Simulation time: 00 hr 32 min 43 sec)
Heartbeat CPU 0 instructions: 126500819 cycles: 138042550 heartbeat IPC: 0.5268 cumulative IPC: 0.6115 (Simulation time: 00 hr 32 min 55 sec)
Heartbeat CPU 0 instructions: 127000819 cycles: 138930318 heartbeat IPC: 0.5632 cumulative IPC: 0.6111 (Simulation time: 00 hr 33 min 06 sec)
Heartbeat CPU 0 instructions: 127500825 cycles: 139693933 heartbeat IPC: 0.6548 cumulative IPC: 0.6114 (Simulation time: 00 hr 33 min 16 sec)
Heartbeat CPU 0 instructions: 128000830 cycles: 140535525 heartbeat IPC: 0.5941 cumulative IPC: 0.6113 (Simulation time: 00 hr 33 min 27 sec)
Heartbeat CPU 0 instructions: 128500836 cycles: 141358514 heartbeat IPC: 0.6075 cumulative IPC: 0.6112 (Simulation time: 00 hr 33 min 38 sec)
Heartbeat CPU 0 instructions: 129000841 cycles: 141858794 heartbeat IPC: 0.9995 cumulative IPC: 0.6128 (Simulation time: 00 hr 33 min 44 sec)
Heartbeat CPU 0 instructions: 129500842 cycles: 142598427 heartbeat IPC: 0.676 cumulative IPC: 0.6131 (Simulation time: 00 hr 33 min 54 sec)
Heartbeat CPU 0 instructions: 130000843 cycles: 143558064 heartbeat IPC: 0.521 cumulative IPC: 0.6124 (Simulation time: 00 hr 34 min 06 sec)
Heartbeat CPU 0 instructions: 130500845 cycles: 144444294 heartbeat IPC: 0.5642 cumulative IPC: 0.6121 (Simulation time: 00 hr 34 min 18 sec)
Heartbeat CPU 0 instructions: 131000848 cycles: 145231686 heartbeat IPC: 0.635 cumulative IPC: 0.6122 (Simulation time: 00 hr 34 min 28 sec)
Heartbeat CPU 0 instructions: 131500850 cycles: 145957793 heartbeat IPC: 0.6886 cumulative IPC: 0.6127 (Simulation time: 00 hr 34 min 37 sec)
Heartbeat CPU 0 instructions: 132000856 cycles: 146903874 heartbeat IPC: 0.5285 cumulative IPC: 0.6121 (Simulation time: 00 hr 34 min 49 sec)
Heartbeat CPU 0 instructions: 132500859 cycles: 147895488 heartbeat IPC: 0.5042 cumulative IPC: 0.6113 (Simulation time: 00 hr 35 min 02 sec)
Heartbeat CPU 0 instructions: 133000865 cycles: 148608841 heartbeat IPC: 0.7009 cumulative IPC: 0.6117 (Simulation time: 00 hr 35 min 11 sec)
Heartbeat CPU 0 instructions: 133500870 cycles: 149473051 heartbeat IPC: 0.5786 cumulative IPC: 0.6115 (Simulation time: 00 hr 35 min 22 sec)
Heartbeat CPU 0 instructions: 134000872 cycles: 150273940 heartbeat IPC: 0.6243 cumulative IPC: 0.6116 (Simulation time: 00 hr 35 min 33 sec)
Heartbeat CPU 0 instructions: 134500873 cycles: 151148028 heartbeat IPC: 0.572 cumulative IPC: 0.6114 (Simulation time: 00 hr 35 min 44 sec)
Heartbeat CPU 0 instructions: 135000878 cycles: 152025891 heartbeat IPC: 0.5696 cumulative IPC: 0.6111 (Simulation time: 00 hr 35 min 55 sec)
Heartbeat CPU 0 instructions: 135500878 cycles: 152851778 heartbeat IPC: 0.6054 cumulative IPC: 0.6111 (Simulation time: 00 hr 36 min 06 sec)
Heartbeat CPU 0 instructions: 136000879 cycles: 153591897 heartbeat IPC: 0.6756 cumulative IPC: 0.6114 (Simulation time: 00 hr 36 min 15 sec)
Heartbeat CPU 0 instructions: 136500882 cycles: 154470836 heartbeat IPC: 0.5689 cumulative IPC: 0.6111 (Simulation time: 00 hr 36 min 27 sec)
Heartbeat CPU 0 instructions: 137000887 cycles: 155204774 heartbeat IPC: 0.6813 cumulative IPC: 0.6115 (Simulation time: 00 hr 36 min 36 sec)
Heartbeat CPU 0 instructions: 137500890 cycles: 155721368 heartbeat IPC: 0.9679 cumulative IPC: 0.6128 (Simulation time: 00 hr 36 min 43 sec)
Heartbeat CPU 0 instructions: 138000892 cycles: 156505719 heartbeat IPC: 0.6375 cumulative IPC: 0.6129 (Simulation time: 00 hr 36 min 53 sec)
Heartbeat CPU 0 instructions: 138500898 cycles: 157502740 heartbeat IPC: 0.5015 cumulative IPC: 0.6122 (Simulation time: 00 hr 37 min 06 sec)
Heartbeat CPU 0 instructions: 139000902 cycles: 158327496 heartbeat IPC: 0.6062 cumulative IPC: 0.6121 (Simulation time: 00 hr 37 min 17 sec)
Heartbeat CPU 0 instructions: 139500908 cycles: 159036378 heartbeat IPC: 0.7053 cumulative IPC: 0.6126 (Simulation time: 00 hr 37 min 26 sec)
Heartbeat CPU 0 instructions: 140000911 cycles: 159900342 heartbeat IPC: 0.5787 cumulative IPC: 0.6124 (Simulation time: 00 hr 37 min 37 sec)
Heartbeat CPU 0 instructions: 140500915 cycles: 160668991 heartbeat IPC: 0.6505 cumulative IPC: 0.6126 (Simulation time: 00 hr 37 min 47 sec)
Heartbeat CPU 0 instructions: 141000921 cycles: 161688376 heartbeat IPC: 0.4905 cumulative IPC: 0.6117 (Simulation time: 00 hr 38 min 00 sec)
Heartbeat CPU 0 instructions: 141500922 cycles: 162592130 heartbeat IPC: 0.5532 cumulative IPC: 0.6114 (Simulation time: 00 hr 38 min 12 sec)
Heartbeat CPU 0 instructions: 142000926 cycles: 163411105 heartbeat IPC: 0.6105 cumulative IPC: 0.6114 (Simulation time: 00 hr 38 min 22 sec)
Heartbeat CPU 0 instructions: 142500929 cycles: 164161987 heartbeat IPC: 0.6659 cumulative IPC: 0.6117 (Simulation time: 00 hr 38 min 32 sec)
Heartbeat CPU 0 instructions: 143000935 cycles: 165072415 heartbeat IPC: 0.5492 cumulative IPC: 0.6113 (Simulation time: 00 hr 38 min 43 sec)
Heartbeat CPU 0 instructions: 143500937 cycles: 165937824 heartbeat IPC: 0.5778 cumulative IPC: 0.6111 (Simulation time: 00 hr 38 min 55 sec)
Heartbeat CPU 0 instructions: 144000937 cycles: 166715937 heartbeat IPC: 0.6426 cumulative IPC: 0.6112 (Simulation time: 00 hr 39 min 05 sec)
Heartbeat CPU 0 instructions: 144500943 cycles: 167503424 heartbeat IPC: 0.6349 cumulative IPC: 0.6114 (Simulation time: 00 hr 39 min 15 sec)
Heartbeat CPU 0 instructions: 145000949 cycles: 168391980 heartbeat IPC: 0.5627 cumulative IPC: 0.6111 (Simulation time: 00 hr 39 min 26 sec)
Heartbeat CPU 0 instructions: 145500954 cycles: 168981046 heartbeat IPC: 0.8488 cumulative IPC: 0.612 (Simulation time: 00 hr 39 min 34 sec)
Heartbeat CPU 0 instructions: 146000955 cycles: 169507868 heartbeat IPC: 0.9491 cumulative IPC: 0.6131 (Simulation time: 00 hr 39 min 41 sec)
Heartbeat CPU 0 instructions: 146500958 cycles: 170422201 heartbeat IPC: 0.5468 cumulative IPC: 0.6127 (Simulation time: 00 hr 39 min 53 sec)
Heartbeat CPU 0 instructions: 147000962 cycles: 171387072 heartbeat IPC: 0.5182 cumulative IPC: 0.6122 (Simulation time: 00 hr 40 min 05 sec)
Heartbeat CPU 0 instructions: 147500963 cycles: 172156550 heartbeat IPC: 0.6498 cumulative IPC: 0.6123 (Simulation time: 00 hr 40 min 15 sec)
Heartbeat CPU 0 instructions: 148000970 cycles: 172824766 heartbeat IPC: 0.7483 cumulative IPC: 0.6129 (Simulation time: 00 hr 40 min 24 sec)
Heartbeat CPU 0 instructions: 148500970 cycles: 173740980 heartbeat IPC: 0.5457 cumulative IPC: 0.6125 (Simulation time: 00 hr 40 min 35 sec)
Heartbeat CPU 0 instructions: 149000976 cycles: 174456877 heartbeat IPC: 0.6984 cumulative IPC: 0.6129 (Simulation time: 00 hr 40 min 45 sec)
Heartbeat CPU 0 instructions: 149500982 cycles: 175460574 heartbeat IPC: 0.4982 cumulative IPC: 0.6122 (Simulation time: 00 hr 40 min 57 sec)
Heartbeat CPU 0 instructions: 150000987 cycles: 176407651 heartbeat IPC: 0.5279 cumulative IPC: 0.6117 (Simulation time: 00 hr 41 min 10 sec)
Heartbeat CPU 0 instructions: 150500994 cycles: 177195863 heartbeat IPC: 0.6344 cumulative IPC: 0.6118 (Simulation time: 00 hr 41 min 20 sec)
Heartbeat CPU 0 instructions: 151000996 cycles: 177964230 heartbeat IPC: 0.6507 cumulative IPC: 0.612 (Simulation time: 00 hr 41 min 30 sec)
Heartbeat CPU 0 instructions: 151500996 cycles: 178820321 heartbeat IPC: 0.5841 cumulative IPC: 0.6119 (Simulation time: 00 hr 41 min 41 sec)
Heartbeat CPU 0 instructions: 152001002 cycles: 179682333 heartbeat IPC: 0.58 cumulative IPC: 0.6117 (Simulation time: 00 hr 41 min 52 sec)
Heartbeat CPU 0 instructions: 152501005 cycles: 180417391 heartbeat IPC: 0.6802 cumulative IPC: 0.612 (Simulation time: 00 hr 42 min 01 sec)
Heartbeat CPU 0 instructions: 153001005 cycles: 181234706 heartbeat IPC: 0.6118 cumulative IPC: 0.612 (Simulation time: 00 hr 42 min 12 sec)
Heartbeat CPU 0 instructions: 153501010 cycles: 182137137 heartbeat IPC: 0.5541 cumulative IPC: 0.6117 (Simulation time: 00 hr 42 min 23 sec)
Heartbeat CPU 0 instructions: 154001015 cycles: 182682672 heartbeat IPC: 0.9165 cumulative IPC: 0.6127 (Simulation time: 00 hr 42 min 31 sec)
Heartbeat CPU 0 instructions: 154501019 cycles: 183243728 heartbeat IPC: 0.8912 cumulative IPC: 0.6136 (Simulation time: 00 hr 42 min 38 sec)
Heartbeat CPU 0 instructions: 155001024 cycles: 184181236 heartbeat IPC: 0.5333 cumulative IPC: 0.6131 (Simulation time: 00 hr 42 min 50 sec)
Heartbeat CPU 0 instructions: 155501026 cycles: 185108287 heartbeat IPC: 0.5393 cumulative IPC: 0.6127 (Simulation time: 00 hr 43 min 02 sec)
Heartbeat CPU 0 instructions: 156001031 cycles: 185891877 heartbeat IPC: 0.6381 cumulative IPC: 0.6129 (Simulation time: 00 hr 43 min 12 sec)
Heartbeat CPU 0 instructions: 156501032 cycles: 186577728 heartbeat IPC: 0.729 cumulative IPC: 0.6133 (Simulation time: 00 hr 43 min 21 sec)
Heartbeat CPU 0 instructions: 157001037 cycles: 187436192 heartbeat IPC: 0.5824 cumulative IPC: 0.6132 (Simulation time: 00 hr 43 min 32 sec)
Heartbeat CPU 0 instructions: 157501041 cycles: 188203412 heartbeat IPC: 0.6517 cumulative IPC: 0.6133 (Simulation time: 00 hr 43 min 42 sec)
Heartbeat CPU 0 instructions: 158001048 cycles: 189164191 heartbeat IPC: 0.5204 cumulative IPC: 0.6128 (Simulation time: 00 hr 43 min 54 sec)
Heartbeat CPU 0 instructions: 158501053 cycles: 190136780 heartbeat IPC: 0.5141 cumulative IPC: 0.6123 (Simulation time: 00 hr 44 min 07 sec)
Heartbeat CPU 0 instructions: 159001058 cycles: 190889113 heartbeat IPC: 0.6646 cumulative IPC: 0.6125 (Simulation time: 00 hr 44 min 16 sec)
Heartbeat CPU 0 instructions: 159501064 cycles: 191667744 heartbeat IPC: 0.6422 cumulative IPC: 0.6126 (Simulation time: 00 hr 44 min 27 sec)
Heartbeat CPU 0 instructions: 160001064 cycles: 192551626 heartbeat IPC: 0.5657 cumulative IPC: 0.6124 (Simulation time: 00 hr 44 min 38 sec)
Heartbeat CPU 0 instructions: 160501064 cycles: 193405890 heartbeat IPC: 0.5853 cumulative IPC: 0.6123 (Simulation time: 00 hr 44 min 49 sec)
Heartbeat CPU 0 instructions: 161001067 cycles: 194127438 heartbeat IPC: 0.693 cumulative IPC: 0.6126 (Simulation time: 00 hr 44 min 58 sec)
Heartbeat CPU 0 instructions: 161501073 cycles: 194987411 heartbeat IPC: 0.5814 cumulative IPC: 0.6125 (Simulation time: 00 hr 45 min 09 sec)
Heartbeat CPU 0 instructions: 162001078 cycles: 195868237 heartbeat IPC: 0.5677 cumulative IPC: 0.6122 (Simulation time: 00 hr 45 min 21 sec)
Heartbeat CPU 0 instructions: 162501078 cycles: 196353607 heartbeat IPC: 1.03 cumulative IPC: 0.6133 (Simulation time: 00 hr 45 min 27 sec)
Heartbeat CPU 0 instructions: 163001078 cycles: 196999352 heartbeat IPC: 0.7743 cumulative IPC: 0.6139 (Simulation time: 00 hr 45 min 36 sec)
Heartbeat CPU 0 instructions: 163501085 cycles: 197912781 heartbeat IPC: 0.5474 cumulative IPC: 0.6136 (Simulation time: 00 hr 45 min 47 sec)
Heartbeat CPU 0 instructions: 164001090 cycles: 198836304 heartbeat IPC: 0.5414 cumulative IPC: 0.6132 (Simulation time: 00 hr 45 min 59 sec)
Heartbeat CPU 0 instructions: 164501097 cycles: 199646885 heartbeat IPC: 0.6169 cumulative IPC: 0.6132 (Simulation time: 00 hr 46 min 10 sec)
Heartbeat CPU 0 instructions: 165001098 cycles: 200342512 heartbeat IPC: 0.7188 cumulative IPC: 0.6136 (Simulation time: 00 hr 46 min 19 sec)
Heartbeat CPU 0 instructions: 165501100 cycles: 201198728 heartbeat IPC: 0.584 cumulative IPC: 0.6135 (Simulation time: 00 hr 46 min 30 sec)
Heartbeat CPU 0 instructions: 166001102 cycles: 202020456 heartbeat IPC: 0.6085 cumulative IPC: 0.6135 (Simulation time: 00 hr 46 min 40 sec)
Heartbeat CPU 0 instructions: 166501102 cycles: 202868425 heartbeat IPC: 0.5896 cumulative IPC: 0.6134 (Simulation time: 00 hr 46 min 51 sec)
Heartbeat CPU 0 instructions: 167001104 cycles: 203805074 heartbeat IPC: 0.5338 cumulative IPC: 0.613 (Simulation time: 00 hr 47 min 03 sec)
Heartbeat CPU 0 instructions: 167501105 cycles: 204537624 heartbeat IPC: 0.6825 cumulative IPC: 0.6132 (Simulation time: 00 hr 47 min 13 sec)
Heartbeat CPU 0 instructions: 168001109 cycles: 205339958 heartbeat IPC: 0.6232 cumulative IPC: 0.6133 (Simulation time: 00 hr 47 min 23 sec)
Heartbeat CPU 0 instructions: 168501111 cycles: 206184709 heartbeat IPC: 0.5919 cumulative IPC: 0.6132 (Simulation time: 00 hr 47 min 34 sec)
Heartbeat CPU 0 instructions: 169001111 cycles: 206992708 heartbeat IPC: 0.6188 cumulative IPC: 0.6132 (Simulation time: 00 hr 47 min 44 sec)
Heartbeat CPU 0 instructions: 169501116 cycles: 207767294 heartbeat IPC: 0.6455 cumulative IPC: 0.6133 (Simulation time: 00 hr 47 min 54 sec)
Heartbeat CPU 0 instructions: 170001122 cycles: 208603651 heartbeat IPC: 0.5978 cumulative IPC: 0.6133 (Simulation time: 00 hr 48 min 05 sec)
Heartbeat CPU 0 instructions: 170501124 cycles: 209454632 heartbeat IPC: 0.5876 cumulative IPC: 0.6132 (Simulation time: 00 hr 48 min 16 sec)
Heartbeat CPU 0 instructions: 171001130 cycles: 209980772 heartbeat IPC: 0.9503 cumulative IPC: 0.6141 (Simulation time: 00 hr 48 min 23 sec)
Heartbeat CPU 0 instructions: 171501134 cycles: 210592470 heartbeat IPC: 0.8174 cumulative IPC: 0.6147 (Simulation time: 00 hr 48 min 31 sec)
Heartbeat CPU 0 instructions: 172001139 cycles: 211489364 heartbeat IPC: 0.5575 cumulative IPC: 0.6144 (Simulation time: 00 hr 48 min 43 sec)
Heartbeat CPU 0 instructions: 172501139 cycles: 212415449 heartbeat IPC: 0.5399 cumulative IPC: 0.6141 (Simulation time: 00 hr 48 min 55 sec)
Heartbeat CPU 0 instructions: 173001145 cycles: 213288225 heartbeat IPC: 0.5729 cumulative IPC: 0.6139 (Simulation time: 00 hr 49 min 06 sec)
Heartbeat CPU 0 instructions: 173501148 cycles: 214026836 heartbeat IPC: 0.677 cumulative IPC: 0.6141 (Simulation time: 00 hr 49 min 15 sec)
Heartbeat CPU 0 instructions: 174001149 cycles: 214829710 heartbeat IPC: 0.6228 cumulative IPC: 0.6142 (Simulation time: 00 hr 49 min 26 sec)
Heartbeat CPU 0 instructions: 174501149 cycles: 215623126 heartbeat IPC: 0.6302 cumulative IPC: 0.6142 (Simulation time: 00 hr 49 min 36 sec)
Heartbeat CPU 0 instructions: 175001149 cycles: 216402869 heartbeat IPC: 0.6412 cumulative IPC: 0.6143 (Simulation time: 00 hr 49 min 46 sec)
Heartbeat CPU 0 instructions: 175501151 cycles: 217356982 heartbeat IPC: 0.524 cumulative IPC: 0.6139 (Simulation time: 00 hr 49 min 58 sec)
Heartbeat CPU 0 instructions: 176001157 cycles: 218089626 heartbeat IPC: 0.6825 cumulative IPC: 0.6142 (Simulation time: 00 hr 50 min 08 sec)
Heartbeat CPU 0 instructions: 176501157 cycles: 218905203 heartbeat IPC: 0.6131 cumulative IPC: 0.6142 (Simulation time: 00 hr 50 min 18 sec)
Heartbeat CPU 0 instructions: 177001162 cycles: 219733532 heartbeat IPC: 0.6036 cumulative IPC: 0.6141 (Simulation time: 00 hr 50 min 29 sec)
Heartbeat CPU 0 instructions: 177501165 cycles: 220485848 heartbeat IPC: 0.6646 cumulative IPC: 0.6143 (Simulation time: 00 hr 50 min 39 sec)
Heartbeat CPU 0 instructions: 178001168 cycles: 221340701 heartbeat IPC: 0.5849 cumulative IPC: 0.6142 (Simulation time: 00 hr 50 min 50 sec)
Heartbeat CPU 0 instructions: 178501170 cycles: 222138181 heartbeat IPC: 0.627 cumulative IPC: 0.6142 (Simulation time: 00 hr 51 min 00 sec)
Heartbeat CPU 0 instructions: 179001173 cycles: 222981955 heartbeat IPC: 0.5926 cumulative IPC: 0.6141 (Simulation time: 00 hr 51 min 11 sec)
Heartbeat CPU 0 instructions: 179501180 cycles: 223580402 heartbeat IPC: 0.8355 cumulative IPC: 0.6148 (Simulation time: 00 hr 51 min 19 sec)
Heartbeat CPU 0 instructions: 180001186 cycles: 224164711 heartbeat IPC: 0.8557 cumulative IPC: 0.6154 (Simulation time: 00 hr 51 min 27 sec)
Heartbeat CPU 0 instructions: 180501193 cycles: 225009050 heartbeat IPC: 0.5922 cumulative IPC: 0.6153 (Simulation time: 00 hr 51 min 37 sec)
Heartbeat CPU 0 instructions: 181001194 cycles: 225920542 heartbeat IPC: 0.5486 cumulative IPC: 0.6151 (Simulation time: 00 hr 51 min 49 sec)
Heartbeat CPU 0 instructions: 181501200 cycles: 226819271 heartbeat IPC: 0.5563 cumulative IPC: 0.6148 (Simulation time: 00 hr 52 min 01 sec)
Heartbeat CPU 0 instructions: 182001201 cycles: 227603224 heartbeat IPC: 0.6378 cumulative IPC: 0.6149 (Simulation time: 00 hr 52 min 11 sec)
Heartbeat CPU 0 instructions: 182501208 cycles: 228394634 heartbeat IPC: 0.6318 cumulative IPC: 0.615 (Simulation time: 00 hr 52 min 21 sec)
Heartbeat CPU 0 instructions: 183001210 cycles: 229145766 heartbeat IPC: 0.6657 cumulative IPC: 0.6151 (Simulation time: 00 hr 52 min 31 sec)
Heartbeat CPU 0 instructions: 183501211 cycles: 229880021 heartbeat IPC: 0.681 cumulative IPC: 0.6154 (Simulation time: 00 hr 52 min 40 sec)
Heartbeat CPU 0 instructions: 184001215 cycles: 230838767 heartbeat IPC: 0.5215 cumulative IPC: 0.6149 (Simulation time: 00 hr 52 min 53 sec)
Heartbeat CPU 0 instructions: 184501221 cycles: 231588403 heartbeat IPC: 0.667 cumulative IPC: 0.6151 (Simulation time: 00 hr 53 min 02 sec)
Heartbeat CPU 0 instructions: 185001228 cycles: 232398534 heartbeat IPC: 0.6172 cumulative IPC: 0.6151 (Simulation time: 00 hr 53 min 13 sec)
Heartbeat CPU 0 instructions: 185501228 cycles: 233245773 heartbeat IPC: 0.5902 cumulative IPC: 0.615 (Simulation time: 00 hr 53 min 24 sec)
Heartbeat CPU 0 instructions: 186001228 cycles: 234000650 heartbeat IPC: 0.6624 cumulative IPC: 0.6152 (Simulation time: 00 hr 53 min 33 sec)
Heartbeat CPU 0 instructions: 186501232 cycles: 234868521 heartbeat IPC: 0.5761 cumulative IPC: 0.615 (Simulation time: 00 hr 53 min 44 sec)
Heartbeat CPU 0 instructions: 187001234 cycles: 235605218 heartbeat IPC: 0.6787 cumulative IPC: 0.6153 (Simulation time: 00 hr 53 min 54 sec)
Heartbeat CPU 0 instructions: 187501234 cycles: 236491843 heartbeat IPC: 0.5639 cumulative IPC: 0.6151 (Simulation time: 00 hr 54 min 05 sec)
Heartbeat CPU 0 instructions: 188001241 cycles: 237168263 heartbeat IPC: 0.7392 cumulative IPC: 0.6154 (Simulation time: 00 hr 54 min 14 sec)
Heartbeat CPU 0 instructions: 188501244 cycles: 237737283 heartbeat IPC: 0.8787 cumulative IPC: 0.6161 (Simulation time: 00 hr 54 min 22 sec)
Heartbeat CPU 0 instructions: 189001244 cycles: 238582026 heartbeat IPC: 0.5919 cumulative IPC: 0.616 (Simulation time: 00 hr 54 min 32 sec)
Heartbeat CPU 0 instructions: 189501251 cycles: 239480114 heartbeat IPC: 0.5567 cumulative IPC: 0.6158 (Simulation time: 00 hr 54 min 44 sec)
Heartbeat CPU 0 instructions: 190001258 cycles: 240384924 heartbeat IPC: 0.5526 cumulative IPC: 0.6155 (Simulation time: 00 hr 54 min 55 sec)
Heartbeat CPU 0 instructions: 190501260 cycles: 241238393 heartbeat IPC: 0.5858 cumulative IPC: 0.6154 (Simulation time: 00 hr 55 min 06 sec)
Heartbeat CPU 0 instructions: 191001260 cycles: 242023293 heartbeat IPC: 0.637 cumulative IPC: 0.6155 (Simulation time: 00 hr 55 min 16 sec)
Heartbeat CPU 0 instructions: 191501263 cycles: 242795250 heartbeat IPC: 0.6477 cumulative IPC: 0.6156 (Simulation time: 00 hr 55 min 26 sec)
Heartbeat CPU 0 instructions: 192001269 cycles: 243462877 heartbeat IPC: 0.7489 cumulative IPC: 0.616 (Simulation time: 00 hr 55 min 35 sec)
Heartbeat CPU 0 instructions: 192501276 cycles: 244367070 heartbeat IPC: 0.553 cumulative IPC: 0.6157 (Simulation time: 00 hr 55 min 46 sec)
Heartbeat CPU 0 instructions: 193001277 cycles: 245113902 heartbeat IPC: 0.6695 cumulative IPC: 0.6159 (Simulation time: 00 hr 55 min 56 sec)
Heartbeat CPU 0 instructions: 193501278 cycles: 245917919 heartbeat IPC: 0.6219 cumulative IPC: 0.6159 (Simulation time: 00 hr 56 min 06 sec)
Heartbeat CPU 0 instructions: 194001278 cycles: 246772003 heartbeat IPC: 0.5854 cumulative IPC: 0.6158 (Simulation time: 00 hr 56 min 17 sec)
Heartbeat CPU 0 instructions: 194501279 cycles: 247554883 heartbeat IPC: 0.6387 cumulative IPC: 0.6159 (Simulation time: 00 hr 56 min 27 sec)
Heartbeat CPU 0 instructions: 195001282 cycles: 248446330 heartbeat IPC: 0.5609 cumulative IPC: 0.6157 (Simulation time: 00 hr 56 min 38 sec)
Heartbeat CPU 0 instructions: 195501288 cycles: 249129324 heartbeat IPC: 0.7321 cumulative IPC: 0.616 (Simulation time: 00 hr 56 min 47 sec)
Heartbeat CPU 0 instructions: 196001291 cycles: 250008855 heartbeat IPC: 0.5685 cumulative IPC: 0.6158 (Simulation time: 00 hr 56 min 58 sec)
Heartbeat CPU 0 instructions: 196501291 cycles: 250759172 heartbeat IPC: 0.6664 cumulative IPC: 0.616 (Simulation time: 00 hr 57 min 08 sec)
Heartbeat CPU 0 instructions: 197001298 cycles: 251336897 heartbeat IPC: 0.8655 cumulative IPC: 0.6166 (Simulation time: 00 hr 57 min 15 sec)
Heartbeat CPU 0 instructions: 197501303 cycles: 252185507 heartbeat IPC: 0.5892 cumulative IPC: 0.6165 (Simulation time: 00 hr 57 min 26 sec)
Heartbeat CPU 0 instructions: 198001303 cycles: 253059837 heartbeat IPC: 0.5719 cumulative IPC: 0.6163 (Simulation time: 00 hr 57 min 37 sec)
Heartbeat CPU 0 instructions: 198501303 cycles: 253932159 heartbeat IPC: 0.5732 cumulative IPC: 0.6162 (Simulation time: 00 hr 57 min 48 sec)
Heartbeat CPU 0 instructions: 199001305 cycles: 254827938 heartbeat IPC: 0.5582 cumulative IPC: 0.616 (Simulation time: 00 hr 58 min 00 sec)
Heartbeat CPU 0 instructions: 199501311 cycles: 255613086 heartbeat IPC: 0.6368 cumulative IPC: 0.616 (Simulation time: 00 hr 58 min 10 sec)
Heartbeat CPU 0 instructions: 200001315 cycles: 256398782 heartbeat IPC: 0.6364 cumulative IPC: 0.6161 (Simulation time: 00 hr 58 min 20 sec)
Heartbeat CPU 0 instructions: 200501322 cycles: 257066727 heartbeat IPC: 0.7486 cumulative IPC: 0.6165 (Simulation time: 00 hr 58 min 29 sec)
Heartbeat CPU 0 instructions: 201001323 cycles: 257957839 heartbeat IPC: 0.5611 cumulative IPC: 0.6163 (Simulation time: 00 hr 58 min 40 sec)
Heartbeat CPU 0 instructions: 201501326 cycles: 258711202 heartbeat IPC: 0.6637 cumulative IPC: 0.6164 (Simulation time: 00 hr 58 min 50 sec)
Heartbeat CPU 0 instructions: 202001326 cycles: 259518690 heartbeat IPC: 0.6192 cumulative IPC: 0.6164 (Simulation time: 00 hr 59 min 00 sec)
Heartbeat CPU 0 instructions: 202501329 cycles: 260444823 heartbeat IPC: 0.5399 cumulative IPC: 0.6161 (Simulation time: 00 hr 59 min 11 sec)
Heartbeat CPU 0 instructions: 203001333 cycles: 261170648 heartbeat IPC: 0.6889 cumulative IPC: 0.6163 (Simulation time: 00 hr 59 min 21 sec)
Heartbeat CPU 0 instructions: 203501335 cycles: 262067567 heartbeat IPC: 0.5575 cumulative IPC: 0.6161 (Simulation time: 00 hr 59 min 32 sec)
Heartbeat CPU 0 instructions: 204001341 cycles: 262755745 heartbeat IPC: 0.7266 cumulative IPC: 0.6164 (Simulation time: 00 hr 59 min 41 sec)
Heartbeat CPU 0 instructions: 204501343 cycles: 263615468 heartbeat IPC: 0.5816 cumulative IPC: 0.6163 (Simulation time: 00 hr 59 min 52 sec)
Heartbeat CPU 0 instructions: 205001345 cycles: 264387342 heartbeat IPC: 0.6478 cumulative IPC: 0.6164 (Simulation time: 01 hr 00 min 02 sec)
Heartbeat CPU 0 instructions: 205501349 cycles: 264996612 heartbeat IPC: 0.8207 cumulative IPC: 0.6169 (Simulation time: 01 hr 00 min 10 sec)
Heartbeat CPU 0 instructions: 206001353 cycles: 265862653 heartbeat IPC: 0.5773 cumulative IPC: 0.6168 (Simulation time: 01 hr 00 min 21 sec)
Heartbeat CPU 0 instructions: 206501357 cycles: 266756576 heartbeat IPC: 0.5593 cumulative IPC: 0.6166 (Simulation time: 01 hr 00 min 32 sec)
Heartbeat CPU 0 instructions: 207001357 cycles: 267631354 heartbeat IPC: 0.5716 cumulative IPC: 0.6164 (Simulation time: 01 hr 00 min 43 sec)
Heartbeat CPU 0 instructions: 207501357 cycles: 268528549 heartbeat IPC: 0.5573 cumulative IPC: 0.6162 (Simulation time: 01 hr 00 min 54 sec)
Heartbeat CPU 0 instructions: 208001357 cycles: 269297111 heartbeat IPC: 0.6506 cumulative IPC: 0.6163 (Simulation time: 01 hr 01 min 04 sec)
Heartbeat CPU 0 instructions: 208501362 cycles: 270058845 heartbeat IPC: 0.6564 cumulative IPC: 0.6164 (Simulation time: 01 hr 01 min 14 sec)
Heartbeat CPU 0 instructions: 209001369 cycles: 270768884 heartbeat IPC: 0.7042 cumulative IPC: 0.6167 (Simulation time: 01 hr 01 min 23 sec)
Heartbeat CPU 0 instructions: 209501372 cycles: 271642851 heartbeat IPC: 0.5721 cumulative IPC: 0.6165 (Simulation time: 01 hr 01 min 34 sec)
Heartbeat CPU 0 instructions: 210001373 cycles: 272407209 heartbeat IPC: 0.6541 cumulative IPC: 0.6166 (Simulation time: 01 hr 01 min 44 sec)
Heartbeat CPU 0 instructions: 210501377 cycles: 273260232 heartbeat IPC: 0.5862 cumulative IPC: 0.6165 (Simulation time: 01 hr 01 min 55 sec)
Heartbeat CPU 0 instructions: 211001383 cycles: 274207682 heartbeat IPC: 0.5277 cumulative IPC: 0.6162 (Simulation time: 01 hr 02 min 07 sec)
Heartbeat CPU 0 instructions: 211501387 cycles: 274874846 heartbeat IPC: 0.7494 cumulative IPC: 0.6165 (Simulation time: 01 hr 02 min 15 sec)
Heartbeat CPU 0 instructions: 212001392 cycles: 275753115 heartbeat IPC: 0.5693 cumulative IPC: 0.6164 (Simulation time: 01 hr 02 min 27 sec)
Heartbeat CPU 0 instructions: 212501399 cycles: 276504972 heartbeat IPC: 0.665 cumulative IPC: 0.6165 (Simulation time: 01 hr 02 min 36 sec)
Heartbeat CPU 0 instructions: 213001399 cycles: 277363046 heartbeat IPC: 0.5827 cumulative IPC: 0.6164 (Simulation time: 01 hr 02 min 47 sec)
Heartbeat CPU 0 instructions: 213501400 cycles: 278066355 heartbeat IPC: 0.7109 cumulative IPC: 0.6167 (Simulation time: 01 hr 02 min 56 sec)
Heartbeat CPU 0 instructions: 214001403 cycles: 278796768 heartbeat IPC: 0.6845 cumulative IPC: 0.6169 (Simulation time: 01 hr 03 min 06 sec)
Heartbeat CPU 0 instructions: 214501410 cycles: 279641724 heartbeat IPC: 0.5918 cumulative IPC: 0.6168 (Simulation time: 01 hr 03 min 16 sec)
Heartbeat CPU 0 instructions: 215001414 cycles: 280515282 heartbeat IPC: 0.5724 cumulative IPC: 0.6166 (Simulation time: 01 hr 03 min 27 sec)
Heartbeat CPU 0 instructions: 215501415 cycles: 281427199 heartbeat IPC: 0.5483 cumulative IPC: 0.6164 (Simulation time: 01 hr 03 min 39 sec)
Heartbeat CPU 0 instructions: 216001419 cycles: 282338154 heartbeat IPC: 0.5489 cumulative IPC: 0.6162 (Simulation time: 01 hr 03 min 51 sec)
Heartbeat CPU 0 instructions: 216501422 cycles: 283091201 heartbeat IPC: 0.664 cumulative IPC: 0.6163 (Simulation time: 01 hr 04 min 00 sec)
Heartbeat CPU 0 instructions: 217001424 cycles: 283825766 heartbeat IPC: 0.6807 cumulative IPC: 0.6165 (Simulation time: 01 hr 04 min 10 sec)
Heartbeat CPU 0 instructions: 217501430 cycles: 284604973 heartbeat IPC: 0.6417 cumulative IPC: 0.6166 (Simulation time: 01 hr 04 min 20 sec)
Heartbeat CPU 0 instructions: 218001433 cycles: 285484803 heartbeat IPC: 0.5683 cumulative IPC: 0.6164 (Simulation time: 01 hr 04 min 31 sec)
Heartbeat CPU 0 instructions: 218501433 cycles: 286324500 heartbeat IPC: 0.5955 cumulative IPC: 0.6163 (Simulation time: 01 hr 04 min 42 sec)
Heartbeat CPU 0 instructions: 219001437 cycles: 287185181 heartbeat IPC: 0.5809 cumulative IPC: 0.6162 (Simulation time: 01 hr 04 min 52 sec)
Heartbeat CPU 0 instructions: 219501441 cycles: 288072617 heartbeat IPC: 0.5634 cumulative IPC: 0.6161 (Simulation time: 01 hr 05 min 04 sec)
Heartbeat CPU 0 instructions: 220001448 cycles: 288875347 heartbeat IPC: 0.6229 cumulative IPC: 0.6161 (Simulation time: 01 hr 05 min 14 sec)
Heartbeat CPU 0 instructions: 220501448 cycles: 289752769 heartbeat IPC: 0.5699 cumulative IPC: 0.6159 (Simulation time: 01 hr 05 min 25 sec)
Heartbeat CPU 0 instructions: 221001451 cycles: 290566666 heartbeat IPC: 0.6143 cumulative IPC: 0.6159 (Simulation time: 01 hr 05 min 36 sec)
Heartbeat CPU 0 instructions: 221501456 cycles: 291448746 heartbeat IPC: 0.5668 cumulative IPC: 0.6158 (Simulation time: 01 hr 05 min 47 sec)
Heartbeat CPU 0 instructions: 222001461 cycles: 291986052 heartbeat IPC: 0.9306 cumulative IPC: 0.6164 (Simulation time: 01 hr 05 min 54 sec)
Heartbeat CPU 0 instructions: 222501464 cycles: 292895547 heartbeat IPC: 0.5498 cumulative IPC: 0.6162 (Simulation time: 01 hr 06 min 05 sec)
Heartbeat CPU 0 instructions: 223001470 cycles: 293720796 heartbeat IPC: 0.6059 cumulative IPC: 0.6161 (Simulation time: 01 hr 06 min 16 sec)
Heartbeat CPU 0 instructions: 223501476 cycles: 294581971 heartbeat IPC: 0.5806 cumulative IPC: 0.616 (Simulation time: 01 hr 06 min 27 sec)
Heartbeat CPU 0 instructions: 224001478 cycles: 295573725 heartbeat IPC: 0.5042 cumulative IPC: 0.6156 (Simulation time: 01 hr 06 min 39 sec)
Heartbeat CPU 0 instructions: 224501484 cycles: 296402165 heartbeat IPC: 0.6036 cumulative IPC: 0.6156 (Simulation time: 01 hr 06 min 50 sec)
Heartbeat CPU 0 instructions: 225001485 cycles: 297229192 heartbeat IPC: 0.6046 cumulative IPC: 0.6156 (Simulation time: 01 hr 07 min 00 sec)
Heartbeat CPU 0 instructions: 225501492 cycles: 297964056 heartbeat IPC: 0.6804 cumulative IPC: 0.6157 (Simulation time: 01 hr 07 min 10 sec)
Heartbeat CPU 0 instructions: 226001494 cycles: 298845728 heartbeat IPC: 0.5671 cumulative IPC: 0.6156 (Simulation time: 01 hr 07 min 21 sec)
Heartbeat CPU 0 instructions: 226501499 cycles: 299721588 heartbeat IPC: 0.5709 cumulative IPC: 0.6154 (Simulation time: 01 hr 07 min 32 sec)
Heartbeat CPU 0 instructions: 227001503 cycles: 300628578 heartbeat IPC: 0.5513 cumulative IPC: 0.6152 (Simulation time: 01 hr 07 min 43 sec)
Heartbeat CPU 0 instructions: 227501508 cycles: 301506582 heartbeat IPC: 0.5695 cumulative IPC: 0.6151 (Simulation time: 01 hr 07 min 55 sec)
Heartbeat CPU 0 instructions: 228001512 cycles: 302214850 heartbeat IPC: 0.706 cumulative IPC: 0.6153 (Simulation time: 01 hr 08 min 04 sec)
Heartbeat CPU 0 instructions: 228501513 cycles: 303204068 heartbeat IPC: 0.5055 cumulative IPC: 0.6149 (Simulation time: 01 hr 08 min 16 sec)
Heartbeat CPU 0 instructions: 229001516 cycles: 304021938 heartbeat IPC: 0.6113 cumulative IPC: 0.6149 (Simulation time: 01 hr 08 min 27 sec)
Heartbeat CPU 0 instructions: 229501523 cycles: 304876530 heartbeat IPC: 0.5851 cumulative IPC: 0.6148 (Simulation time: 01 hr 08 min 38 sec)
Heartbeat CPU 0 instructions: 230001524 cycles: 305511176 heartbeat IPC: 0.7878 cumulative IPC: 0.6152 (Simulation time: 01 hr 08 min 46 sec)
Heartbeat CPU 0 instructions: 230501530 cycles: 306345168 heartbeat IPC: 0.5995 cumulative IPC: 0.6152 (Simulation time: 01 hr 08 min 57 sec)
Heartbeat CPU 0 instructions: 231001535 cycles: 307216440 heartbeat IPC: 0.5739 cumulative IPC: 0.6151 (Simulation time: 01 hr 09 min 08 sec)
Heartbeat CPU 0 instructions: 231501535 cycles: 308090489 heartbeat IPC: 0.5721 cumulative IPC: 0.6149 (Simulation time: 01 hr 09 min 19 sec)
Heartbeat CPU 0 instructions: 232001536 cycles: 309109091 heartbeat IPC: 0.4909 cumulative IPC: 0.6145 (Simulation time: 01 hr 09 min 32 sec)
Heartbeat CPU 0 instructions: 232501537 cycles: 309979691 heartbeat IPC: 0.5743 cumulative IPC: 0.6144 (Simulation time: 01 hr 09 min 43 sec)
Heartbeat CPU 0 instructions: 233001537 cycles: 310849312 heartbeat IPC: 0.575 cumulative IPC: 0.6143 (Simulation time: 01 hr 09 min 54 sec)
Heartbeat CPU 0 instructions: 233501543 cycles: 311626907 heartbeat IPC: 0.643 cumulative IPC: 0.6143 (Simulation time: 01 hr 10 min 04 sec)
Heartbeat CPU 0 instructions: 234001549 cycles: 312500203 heartbeat IPC: 0.5726 cumulative IPC: 0.6142 (Simulation time: 01 hr 10 min 15 sec)
Heartbeat CPU 0 instructions: 234501555 cycles: 313428931 heartbeat IPC: 0.5384 cumulative IPC: 0.614 (Simulation time: 01 hr 10 min 26 sec)
Heartbeat CPU 0 instructions: 235001555 cycles: 314320453 heartbeat IPC: 0.5608 cumulative IPC: 0.6138 (Simulation time: 01 hr 10 min 38 sec)
Heartbeat CPU 0 instructions: 235501557 cycles: 315144308 heartbeat IPC: 0.6069 cumulative IPC: 0.6138 (Simulation time: 01 hr 10 min 48 sec)
Heartbeat CPU 0 instructions: 236001561 cycles: 315840210 heartbeat IPC: 0.7185 cumulative IPC: 0.6141 (Simulation time: 01 hr 10 min 57 sec)
Heartbeat CPU 0 instructions: 236501568 cycles: 316871238 heartbeat IPC: 0.485 cumulative IPC: 0.6136 (Simulation time: 01 hr 11 min 10 sec)
Heartbeat CPU 0 instructions: 237001570 cycles: 317722286 heartbeat IPC: 0.5875 cumulative IPC: 0.6135 (Simulation time: 01 hr 11 min 21 sec)
Heartbeat CPU 0 instructions: 237501576 cycles: 318561938 heartbeat IPC: 0.5955 cumulative IPC: 0.6135 (Simulation time: 01 hr 11 min 32 sec)
Heartbeat CPU 0 instructions: 238001576 cycles: 319139129 heartbeat IPC: 0.8663 cumulative IPC: 0.614 (Simulation time: 01 hr 11 min 39 sec)
Heartbeat CPU 0 instructions: 238501582 cycles: 320000238 heartbeat IPC: 0.5807 cumulative IPC: 0.6139 (Simulation time: 01 hr 11 min 50 sec)
Heartbeat CPU 0 instructions: 239001583 cycles: 320869013 heartbeat IPC: 0.5755 cumulative IPC: 0.6138 (Simulation time: 01 hr 12 min 01 sec)
Heartbeat CPU 0 instructions: 239501589 cycles: 321770420 heartbeat IPC: 0.5547 cumulative IPC: 0.6136 (Simulation time: 01 hr 12 min 13 sec)
Heartbeat CPU 0 instructions: 240001589 cycles: 322790046 heartbeat IPC: 0.4904 cumulative IPC: 0.6132 (Simulation time: 01 hr 12 min 25 sec)
Heartbeat CPU 0 instructions: 240501594 cycles: 323633711 heartbeat IPC: 0.5927 cumulative IPC: 0.6131 (Simulation time: 01 hr 12 min 36 sec)
Heartbeat CPU 0 instructions: 241001598 cycles: 324536132 heartbeat IPC: 0.5541 cumulative IPC: 0.613 (Simulation time: 01 hr 12 min 48 sec)
Heartbeat CPU 0 instructions: 241501598 cycles: 325363332 heartbeat IPC: 0.6044 cumulative IPC: 0.6129 (Simulation time: 01 hr 12 min 58 sec)
Heartbeat CPU 0 instructions: 242001598 cycles: 326209845 heartbeat IPC: 0.5907 cumulative IPC: 0.6129 (Simulation time: 01 hr 13 min 09 sec)
Heartbeat CPU 0 instructions: 242501602 cycles: 327206566 heartbeat IPC: 0.5016 cumulative IPC: 0.6125 (Simulation time: 01 hr 13 min 21 sec)
Heartbeat CPU 0 instructions: 243001603 cycles: 328000260 heartbeat IPC: 0.63 cumulative IPC: 0.6126 (Simulation time: 01 hr 13 min 32 sec)
Heartbeat CPU 0 instructions: 243501605 cycles: 328784918 heartbeat IPC: 0.6372 cumulative IPC: 0.6126 (Simulation time: 01 hr 13 min 42 sec)
Heartbeat CPU 0 instructions: 244001606 cycles: 329479897 heartbeat IPC: 0.7194 cumulative IPC: 0.6129 (Simulation time: 01 hr 13 min 51 sec)
Heartbeat CPU 0 instructions: 244501609 cycles: 330521440 heartbeat IPC: 0.4801 cumulative IPC: 0.6124 (Simulation time: 01 hr 14 min 04 sec)
Heartbeat CPU 0 instructions: 245001609 cycles: 331459910 heartbeat IPC: 0.5328 cumulative IPC: 0.6122 (Simulation time: 01 hr 14 min 16 sec)
Heartbeat CPU 0 instructions: 245501615 cycles: 332265068 heartbeat IPC: 0.621 cumulative IPC: 0.6122 (Simulation time: 01 hr 14 min 26 sec)
Heartbeat CPU 0 instructions: 246001617 cycles: 332805077 heartbeat IPC: 0.9259 cumulative IPC: 0.6127 (Simulation time: 01 hr 14 min 33 sec)
Heartbeat CPU 0 instructions: 246501619 cycles: 333666287 heartbeat IPC: 0.5806 cumulative IPC: 0.6127 (Simulation time: 01 hr 14 min 44 sec)
Heartbeat CPU 0 instructions: 247001624 cycles: 334556864 heartbeat IPC: 0.5614 cumulative IPC: 0.6125 (Simulation time: 01 hr 14 min 55 sec)
Heartbeat CPU 0 instructions: 247501631 cycles: 335450614 heartbeat IPC: 0.5594 cumulative IPC: 0.6124 (Simulation time: 01 hr 15 min 07 sec)
Heartbeat CPU 0 instructions: 248001633 cycles: 336452280 heartbeat IPC: 0.4992 cumulative IPC: 0.612 (Simulation time: 01 hr 15 min 19 sec)
Heartbeat CPU 0 instructions: 248501638 cycles: 337275005 heartbeat IPC: 0.6077 cumulative IPC: 0.612 (Simulation time: 01 hr 15 min 30 sec)
Heartbeat CPU 0 instructions: 249001641 cycles: 338184050 heartbeat IPC: 0.55 cumulative IPC: 0.6118 (Simulation time: 01 hr 15 min 41 sec)
Heartbeat CPU 0 instructions: 249501641 cycles: 338992514 heartbeat IPC: 0.6185 cumulative IPC: 0.6119 (Simulation time: 01 hr 15 min 52 sec)
Simulation finished CPU 0 instructions: 200000004 cycles: 326845576 cumulative IPC: 0.6119 (Simulation time: 01 hr 16 min 02 sec)
Simulation complete CPU 0 instructions: 200000004 cycles: 326845576 cumulative IPC: 0.6119 (Simulation time: 01 hr 16 min 02 sec)

ChampSim completed all CPUs

=== Simulation ===
CPU 0 runs /local-ssd/ben/dpc4-traces/SPEC17/619.lbm_s-2677B.champsimtrace.xz

Region of Interest Statistics

CPU 0 cumulative IPC: 0.6119 instructions: 200000004 cycles: 326845576
CPU 0 Branch Prediction Accuracy: 97.09% MPKI: 0.5251 Average ROB Occupancy at Mispredict: 348.8
Branch type MPKI
BRANCH_DIRECT_JUMP: 0
BRANCH_INDIRECT: 0
BRANCH_CONDITIONAL: 0.5251
BRANCH_DIRECT_CALL: 0
BRANCH_INDIRECT_CALL: 0
BRANCH_RETURN: 0

cpu0->cpu0_STLB TOTAL        ACCESS:     276134 HIT:     126350 MISS:     149784 MSHR_MERGE:          0
cpu0->cpu0_STLB LOAD         ACCESS:     276134 HIT:     126350 MISS:     149784 MSHR_MERGE:          0
cpu0->cpu0_STLB RFO          ACCESS:          0 HIT:          0 MISS:          0 MSHR_MERGE:          0
cpu0->cpu0_STLB PREFETCH     ACCESS:          0 HIT:          0 MISS:          0 MSHR_MERGE:          0
cpu0->cpu0_STLB WRITE        ACCESS:          0 HIT:          0 MISS:          0 MSHR_MERGE:          0
cpu0->cpu0_STLB TRANSLATION  ACCESS:          0 HIT:          0 MISS:          0 MSHR_MERGE:          0
cpu0->cpu0_STLB PREFETCH REQUESTED:          0 ISSUED:          0 USEFUL:          0 USELESS:          0
cpu0->cpu0_STLB AVERAGE MISS LATENCY: 275.2 cycles
cpu0->cpu0_L2C TOTAL        ACCESS:   37005742 HIT:   24962172 MISS:   12043570 MSHR_MERGE:    2441131
cpu0->cpu0_L2C LOAD         ACCESS:    1525185 HIT:    1018738 MISS:     506447 MSHR_MERGE:     285019
cpu0->cpu0_L2C RFO          ACCESS:   13528413 HIT:    6341033 MISS:    7187380 MSHR_MERGE:          0
cpu0->cpu0_L2C PREFETCH     ACCESS:    8403065 HIT:    4072233 MISS:    4330832 MSHR_MERGE:    2156112
cpu0->cpu0_L2C WRITE        ACCESS:   13530168 HIT:   13530168 MISS:          0 MSHR_MERGE:          0
cpu0->cpu0_L2C TRANSLATION  ACCESS:      18911 HIT:          0 MISS:      18911 MSHR_MERGE:          0
cpu0->cpu0_L2C PREFETCH REQUESTED:    8336428 ISSUED:    7532182 USEFUL:    1926403 USELESS:     144039
cpu0->cpu0_L2C AVERAGE MISS LATENCY: 603.3 cycles
cpu0->cpu0_L1I TOTAL        ACCESS:   33442577 HIT:   33442577 MISS:          0 MSHR_MERGE:          0
cpu0->cpu0_L1I LOAD         ACCESS:   33442577 HIT:   33442577 MISS:          0 MSHR_MERGE:          0
cpu0->cpu0_L1I RFO          ACCESS:          0 HIT:          0 MISS:          0 MSHR_MERGE:          0
cpu0->cpu0_L1I PREFETCH     ACCESS:          0 HIT:          0 MISS:          0 MSHR_MERGE:          0
cpu0->cpu0_L1I WRITE        ACCESS:          0 HIT:          0 MISS:          0 MSHR_MERGE:          0
cpu0->cpu0_L1I TRANSLATION  ACCESS:          0 HIT:          0 MISS:          0 MSHR_MERGE:          0
cpu0->cpu0_L1I PREFETCH REQUESTED:          0 ISSUED:          0 USEFUL:          0 USELESS:          0
cpu0->cpu0_L1I AVERAGE MISS LATENCY: - cycles
cpu0->cpu0_L1D TOTAL        ACCESS:   45471554 HIT:   28259729 MISS:   17211825 MSHR_MERGE:    1266674
cpu0->cpu0_L1D LOAD         ACCESS:    7675731 HIT:    5989801 MISS:    1685930 MSHR_MERGE:     160745
cpu0->cpu0_L1D RFO          ACCESS:          0 HIT:          0 MISS:          0 MSHR_MERGE:          0
cpu0->cpu0_L1D PREFETCH     ACCESS:    1500377 HIT:     483714 MISS:    1016663 MSHR_MERGE:     145786
cpu0->cpu0_L1D WRITE        ACCESS:   35995732 HIT:   21505411 MISS:   14490321 MSHR_MERGE:     960143
cpu0->cpu0_L1D TRANSLATION  ACCESS:     299714 HIT:     280803 MISS:      18911 MSHR_MERGE:          0
cpu0->cpu0_L1D PREFETCH REQUESTED:    2235031 ISSUED:    1500378 USEFUL:     870874 USELESS:          3
cpu0->cpu0_L1D AVERAGE MISS LATENCY: 318.4 cycles
cpu0->cpu0_ITLB TOTAL        ACCESS:   23827922 HIT:   23827922 MISS:          0 MSHR_MERGE:          0
cpu0->cpu0_ITLB LOAD         ACCESS:   23827922 HIT:   23827922 MISS:          0 MSHR_MERGE:          0
cpu0->cpu0_ITLB RFO          ACCESS:          0 HIT:          0 MISS:          0 MSHR_MERGE:          0
cpu0->cpu0_ITLB PREFETCH     ACCESS:          0 HIT:          0 MISS:          0 MSHR_MERGE:          0
cpu0->cpu0_ITLB WRITE        ACCESS:          0 HIT:          0 MISS:          0 MSHR_MERGE:          0
cpu0->cpu0_ITLB TRANSLATION  ACCESS:          0 HIT:          0 MISS:          0 MSHR_MERGE:          0
cpu0->cpu0_ITLB PREFETCH REQUESTED:          0 ISSUED:          0 USEFUL:          0 USELESS:          0
cpu0->cpu0_ITLB AVERAGE MISS LATENCY: - cycles
cpu0->cpu0_DTLB TOTAL        ACCESS:   42104525 HIT:   41536911 MISS:     567614 MSHR_MERGE:     291480
cpu0->cpu0_DTLB LOAD         ACCESS:   42104525 HIT:   41536911 MISS:     567614 MSHR_MERGE:     291480
cpu0->cpu0_DTLB RFO          ACCESS:          0 HIT:          0 MISS:          0 MSHR_MERGE:          0
cpu0->cpu0_DTLB PREFETCH     ACCESS:          0 HIT:          0 MISS:          0 MSHR_MERGE:          0
cpu0->cpu0_DTLB WRITE        ACCESS:          0 HIT:          0 MISS:          0 MSHR_MERGE:          0
cpu0->cpu0_DTLB TRANSLATION  ACCESS:          0 HIT:          0 MISS:          0 MSHR_MERGE:          0
cpu0->cpu0_DTLB PREFETCH REQUESTED:          0 ISSUED:          0 USEFUL:          0 USELESS:          0
cpu0->cpu0_DTLB AVERAGE MISS LATENCY: 154.8 cycles
cpu0->LLC TOTAL        ACCESS:   16789805 HIT:     186209 MISS:   16603596 MSHR_MERGE:          0
cpu0->LLC LOAD         ACCESS:     221428 HIT:          0 MISS:     221428 MSHR_MERGE:          0
cpu0->LLC RFO          ACCESS:    7187376 HIT:          0 MISS:    7187376 MSHR_MERGE:          0
cpu0->LLC PREFETCH     ACCESS:    2174720 HIT:          0 MISS:    2174720 MSHR_MERGE:          0
cpu0->LLC WRITE        ACCESS:    7187370 HIT:     186209 MISS:    7001161 MSHR_MERGE:          0
cpu0->LLC TRANSLATION  ACCESS:      18911 HIT:          0 MISS:      18911 MSHR_MERGE:          0
cpu0->LLC PREFETCH REQUESTED:          0 ISSUED:          0 USEFUL:          0 USELESS:          0
cpu0->LLC AVERAGE MISS LATENCY: 310.2 cycles

DRAM Statistics

Channel 0 RQ ROW_BUFFER_HIT:     638702
  ROW_BUFFER_MISS:    8963722
  AVG DBUS CONGESTED CYCLE: 14.32
Channel 0 WQ ROW_BUFFER_HIT:     873976
  ROW_BUFFER_MISS:    6313305
  FULL:     239977
Channel 0 REFRESHES ISSUED:      27235
