[VMEM] WARNING: physical memory size is smaller than virtual memory size.

*** ChampSim Multicore Out-of-Order Simulator ***
Warmup Instructions: 50000000
Simulation Instructions: 200000000
Number of CPUs: 1
Page size: 4096
Core 0: /local-ssd/ben/dpc4-traces/ai-ml/biogpt.cpp-ggml-model-tocilizumab.3.champsimtrace.gz
Off-chip DRAM Size: 64 GiB Channels: 1 Width: 64-bit Data Rate: 4807 MT/s
Heartbeat CPU 0 instructions: 500003 cycles: 467482 heartbeat IPC: 1.07 cumulative IPC: 1.07 (Simulation time: 00 hr 00 min 07 sec)
Heartbeat CPU 0 instructions: 1000008 cycles: 976460 heartbeat IPC: 0.9824 cumulative IPC: 1.024 (Simulation time: 00 hr 00 min 15 sec)
Heartbeat CPU 0 instructions: 1500008 cycles: 1489817 heartbeat IPC: 0.974 cumulative IPC: 1.007 (Simulation time: 00 hr 00 min 24 sec)
Heartbeat CPU 0 instructions: 2000008 cycles: 1954857 heartbeat IPC: 1.075 cumulative IPC: 1.023 (Simulation time: 00 hr 00 min 32 sec)
Heartbeat CPU 0 instructions: 2500014 cycles: 2381257 heartbeat IPC: 1.173 cumulative IPC: 1.05 (Simulation time: 00 hr 00 min 40 sec)
Heartbeat CPU 0 instructions: 3000014 cycles: 2649867 heartbeat IPC: 1.861 cumulative IPC: 1.132 (Simulation time: 00 hr 00 min 45 sec)
Heartbeat CPU 0 instructions: 3500021 cycles: 3038221 heartbeat IPC: 1.288 cumulative IPC: 1.152 (Simulation time: 00 hr 00 min 52 sec)
Heartbeat CPU 0 instructions: 4000023 cycles: 3362719 heartbeat IPC: 1.541 cumulative IPC: 1.19 (Simulation time: 00 hr 00 min 58 sec)
Heartbeat CPU 0 instructions: 4500027 cycles: 3774614 heartbeat IPC: 1.214 cumulative IPC: 1.192 (Simulation time: 00 hr 01 min 05 sec)
Heartbeat CPU 0 instructions: 5000032 cycles: 4199834 heartbeat IPC: 1.176 cumulative IPC: 1.191 (Simulation time: 00 hr 01 min 13 sec)
Heartbeat CPU 0 instructions: 5500032 cycles: 4623973 heartbeat IPC: 1.179 cumulative IPC: 1.189 (Simulation time: 00 hr 01 min 21 sec)
Heartbeat CPU 0 instructions: 6000036 cycles: 5029419 heartbeat IPC: 1.233 cumulative IPC: 1.193 (Simulation time: 00 hr 01 min 28 sec)
Heartbeat CPU 0 instructions: 6500036 cycles: 5484854 heartbeat IPC: 1.098 cumulative IPC: 1.185 (Simulation time: 00 hr 01 min 37 sec)
Heartbeat CPU 0 instructions: 7000036 cycles: 5937193 heartbeat IPC: 1.105 cumulative IPC: 1.179 (Simulation time: 00 hr 01 min 45 sec)
Heartbeat CPU 0 instructions: 7500037 cycles: 6390846 heartbeat IPC: 1.102 cumulative IPC: 1.174 (Simulation time: 00 hr 01 min 54 sec)
Heartbeat CPU 0 instructions: 8000040 cycles: 6806051 heartbeat IPC: 1.204 cumulative IPC: 1.175 (Simulation time: 00 hr 02 min 02 sec)
Heartbeat CPU 0 instructions: 8500042 cycles: 7213426 heartbeat IPC: 1.227 cumulative IPC: 1.178 (Simulation time: 00 hr 02 min 09 sec)
Heartbeat CPU 0 instructions: 9000044 cycles: 7470315 heartbeat IPC: 1.946 cumulative IPC: 1.205 (Simulation time: 00 hr 02 min 15 sec)
Heartbeat CPU 0 instructions: 9500045 cycles: 7756103 heartbeat IPC: 1.75 cumulative IPC: 1.225 (Simulation time: 00 hr 02 min 20 sec)
Heartbeat CPU 0 instructions: 10000045 cycles: 8167292 heartbeat IPC: 1.216 cumulative IPC: 1.224 (Simulation time: 00 hr 02 min 27 sec)
Heartbeat CPU 0 instructions: 10500050 cycles: 8593650 heartbeat IPC: 1.173 cumulative IPC: 1.222 (Simulation time: 00 hr 02 min 35 sec)
Heartbeat CPU 0 instructions: 11000050 cycles: 9017898 heartbeat IPC: 1.179 cumulative IPC: 1.22 (Simulation time: 00 hr 02 min 43 sec)
Heartbeat CPU 0 instructions: 11500054 cycles: 9443859 heartbeat IPC: 1.174 cumulative IPC: 1.218 (Simulation time: 00 hr 02 min 51 sec)
Heartbeat CPU 0 instructions: 12000059 cycles: 9894065 heartbeat IPC: 1.111 cumulative IPC: 1.213 (Simulation time: 00 hr 03 min 00 sec)
Heartbeat CPU 0 instructions: 12500059 cycles: 10407784 heartbeat IPC: 0.9733 cumulative IPC: 1.201 (Simulation time: 00 hr 03 min 09 sec)
Heartbeat CPU 0 instructions: 13000061 cycles: 10921225 heartbeat IPC: 0.9738 cumulative IPC: 1.19 (Simulation time: 00 hr 03 min 19 sec)
Heartbeat CPU 0 instructions: 13500061 cycles: 11393789 heartbeat IPC: 1.058 cumulative IPC: 1.185 (Simulation time: 00 hr 03 min 27 sec)
Heartbeat CPU 0 instructions: 14000062 cycles: 11818139 heartbeat IPC: 1.178 cumulative IPC: 1.185 (Simulation time: 00 hr 03 min 35 sec)
Heartbeat CPU 0 instructions: 14500063 cycles: 12095252 heartbeat IPC: 1.804 cumulative IPC: 1.199 (Simulation time: 00 hr 03 min 41 sec)
Heartbeat CPU 0 instructions: 15000067 cycles: 12483480 heartbeat IPC: 1.288 cumulative IPC: 1.202 (Simulation time: 00 hr 03 min 48 sec)
Heartbeat CPU 0 instructions: 15500068 cycles: 12769678 heartbeat IPC: 1.747 cumulative IPC: 1.214 (Simulation time: 00 hr 03 min 54 sec)
Heartbeat CPU 0 instructions: 16000068 cycles: 13181963 heartbeat IPC: 1.213 cumulative IPC: 1.214 (Simulation time: 00 hr 04 min 01 sec)
Heartbeat CPU 0 instructions: 16500072 cycles: 13606038 heartbeat IPC: 1.179 cumulative IPC: 1.213 (Simulation time: 00 hr 04 min 09 sec)
Heartbeat CPU 0 instructions: 17000077 cycles: 14031158 heartbeat IPC: 1.176 cumulative IPC: 1.212 (Simulation time: 00 hr 04 min 17 sec)
Heartbeat CPU 0 instructions: 17500080 cycles: 14431720 heartbeat IPC: 1.248 cumulative IPC: 1.213 (Simulation time: 00 hr 04 min 25 sec)
Heartbeat CPU 0 instructions: 18000081 cycles: 14945744 heartbeat IPC: 0.9727 cumulative IPC: 1.204 (Simulation time: 00 hr 04 min 35 sec)
Heartbeat CPU 0 instructions: 18500081 cycles: 15459205 heartbeat IPC: 0.9738 cumulative IPC: 1.197 (Simulation time: 00 hr 04 min 44 sec)
Heartbeat CPU 0 instructions: 19000083 cycles: 15971274 heartbeat IPC: 0.9764 cumulative IPC: 1.19 (Simulation time: 00 hr 04 min 53 sec)
Heartbeat CPU 0 instructions: 19500085 cycles: 16403673 heartbeat IPC: 1.156 cumulative IPC: 1.189 (Simulation time: 00 hr 05 min 02 sec)
Heartbeat CPU 0 instructions: 20000089 cycles: 16828058 heartbeat IPC: 1.178 cumulative IPC: 1.188 (Simulation time: 00 hr 05 min 10 sec)
Heartbeat CPU 0 instructions: 20500089 cycles: 17069188 heartbeat IPC: 2.074 cumulative IPC: 1.201 (Simulation time: 00 hr 05 min 15 sec)
Heartbeat CPU 0 instructions: 21000089 cycles: 17357991 heartbeat IPC: 1.731 cumulative IPC: 1.21 (Simulation time: 00 hr 05 min 20 sec)
Heartbeat CPU 0 instructions: 21500090 cycles: 17765979 heartbeat IPC: 1.226 cumulative IPC: 1.21 (Simulation time: 00 hr 05 min 28 sec)
Heartbeat CPU 0 instructions: 22000094 cycles: 18192448 heartbeat IPC: 1.172 cumulative IPC: 1.209 (Simulation time: 00 hr 05 min 36 sec)
Heartbeat CPU 0 instructions: 22500095 cycles: 18618059 heartbeat IPC: 1.175 cumulative IPC: 1.209 (Simulation time: 00 hr 05 min 44 sec)
Heartbeat CPU 0 instructions: 23000099 cycles: 19044187 heartbeat IPC: 1.173 cumulative IPC: 1.208 (Simulation time: 00 hr 05 min 52 sec)
Heartbeat CPU 0 instructions: 23500099 cycles: 19483407 heartbeat IPC: 1.138 cumulative IPC: 1.206 (Simulation time: 00 hr 06 min 00 sec)
Heartbeat CPU 0 instructions: 24000106 cycles: 19998524 heartbeat IPC: 0.9707 cumulative IPC: 1.2 (Simulation time: 00 hr 06 min 09 sec)
Heartbeat CPU 0 instructions: 24500112 cycles: 20509703 heartbeat IPC: 0.9781 cumulative IPC: 1.195 (Simulation time: 00 hr 06 min 19 sec)
Heartbeat CPU 0 instructions: 25000113 cycles: 20992748 heartbeat IPC: 1.035 cumulative IPC: 1.191 (Simulation time: 00 hr 06 min 28 sec)
Heartbeat CPU 0 instructions: 25500117 cycles: 21416766 heartbeat IPC: 1.179 cumulative IPC: 1.191 (Simulation time: 00 hr 06 min 36 sec)
Heartbeat CPU 0 instructions: 26000121 cycles: 21747022 heartbeat IPC: 1.514 cumulative IPC: 1.196 (Simulation time: 00 hr 06 min 42 sec)
Heartbeat CPU 0 instructions: 26500121 cycles: 22104362 heartbeat IPC: 1.399 cumulative IPC: 1.199 (Simulation time: 00 hr 06 min 49 sec)
Heartbeat CPU 0 instructions: 27000128 cycles: 22390592 heartbeat IPC: 1.747 cumulative IPC: 1.206 (Simulation time: 00 hr 06 min 54 sec)
Heartbeat CPU 0 instructions: 27500128 cycles: 22802906 heartbeat IPC: 1.213 cumulative IPC: 1.206 (Simulation time: 00 hr 07 min 02 sec)
Heartbeat CPU 0 instructions: 28000129 cycles: 23228911 heartbeat IPC: 1.174 cumulative IPC: 1.205 (Simulation time: 00 hr 07 min 10 sec)
Heartbeat CPU 0 instructions: 28500129 cycles: 23655486 heartbeat IPC: 1.172 cumulative IPC: 1.205 (Simulation time: 00 hr 07 min 18 sec)
Heartbeat CPU 0 instructions: 29000129 cycles: 24079989 heartbeat IPC: 1.178 cumulative IPC: 1.204 (Simulation time: 00 hr 07 min 26 sec)
Heartbeat CPU 0 instructions: 29500133 cycles: 24557949 heartbeat IPC: 1.046 cumulative IPC: 1.201 (Simulation time: 00 hr 07 min 35 sec)
Heartbeat CPU 0 instructions: 30000136 cycles: 25069093 heartbeat IPC: 0.9782 cumulative IPC: 1.197 (Simulation time: 00 hr 07 min 44 sec)
Heartbeat CPU 0 instructions: 30500136 cycles: 25579448 heartbeat IPC: 0.9797 cumulative IPC: 1.192 (Simulation time: 00 hr 07 min 54 sec)
Heartbeat CPU 0 instructions: 31000137 cycles: 26027254 heartbeat IPC: 1.117 cumulative IPC: 1.191 (Simulation time: 00 hr 08 min 02 sec)
Heartbeat CPU 0 instructions: 31500141 cycles: 26450913 heartbeat IPC: 1.18 cumulative IPC: 1.191 (Simulation time: 00 hr 08 min 10 sec)
Heartbeat CPU 0 instructions: 32000145 cycles: 26691502 heartbeat IPC: 2.078 cumulative IPC: 1.199 (Simulation time: 00 hr 08 min 15 sec)
Heartbeat CPU 0 instructions: 32500145 cycles: 27022460 heartbeat IPC: 1.511 cumulative IPC: 1.203 (Simulation time: 00 hr 08 min 22 sec)
Heartbeat CPU 0 instructions: 33000151 cycles: 27401063 heartbeat IPC: 1.321 cumulative IPC: 1.204 (Simulation time: 00 hr 08 min 29 sec)
Heartbeat CPU 0 instructions: 33500155 cycles: 27813451 heartbeat IPC: 1.212 cumulative IPC: 1.204 (Simulation time: 00 hr 08 min 37 sec)
Heartbeat CPU 0 instructions: 34000155 cycles: 28238908 heartbeat IPC: 1.175 cumulative IPC: 1.204 (Simulation time: 00 hr 08 min 45 sec)
Heartbeat CPU 0 instructions: 34500155 cycles: 28665402 heartbeat IPC: 1.172 cumulative IPC: 1.204 (Simulation time: 00 hr 08 min 53 sec)
Heartbeat CPU 0 instructions: 35000158 cycles: 29097646 heartbeat IPC: 1.157 cumulative IPC: 1.203 (Simulation time: 00 hr 09 min 01 sec)
Heartbeat CPU 0 instructions: 35500158 cycles: 29611188 heartbeat IPC: 0.9736 cumulative IPC: 1.199 (Simulation time: 00 hr 09 min 11 sec)
Heartbeat CPU 0 instructions: 36000158 cycles: 30124613 heartbeat IPC: 0.9739 cumulative IPC: 1.195 (Simulation time: 00 hr 09 min 20 sec)
Heartbeat CPU 0 instructions: 36500162 cycles: 30618518 heartbeat IPC: 1.012 cumulative IPC: 1.192 (Simulation time: 00 hr 09 min 29 sec)
Heartbeat CPU 0 instructions: 37000163 cycles: 31041712 heartbeat IPC: 1.181 cumulative IPC: 1.192 (Simulation time: 00 hr 09 min 37 sec)
Heartbeat CPU 0 instructions: 37500165 cycles: 31399876 heartbeat IPC: 1.396 cumulative IPC: 1.194 (Simulation time: 00 hr 09 min 44 sec)
Heartbeat CPU 0 instructions: 38000172 cycles: 31708819 heartbeat IPC: 1.618 cumulative IPC: 1.198 (Simulation time: 00 hr 09 min 50 sec)
Heartbeat CPU 0 instructions: 38500173 cycles: 31995031 heartbeat IPC: 1.747 cumulative IPC: 1.203 (Simulation time: 00 hr 09 min 56 sec)
Heartbeat CPU 0 instructions: 39000175 cycles: 32407678 heartbeat IPC: 1.212 cumulative IPC: 1.203 (Simulation time: 00 hr 10 min 04 sec)
Heartbeat CPU 0 instructions: 39500177 cycles: 32831415 heartbeat IPC: 1.18 cumulative IPC: 1.203 (Simulation time: 00 hr 10 min 12 sec)
Heartbeat CPU 0 instructions: 40000178 cycles: 33257257 heartbeat IPC: 1.174 cumulative IPC: 1.203 (Simulation time: 00 hr 10 min 20 sec)
Heartbeat CPU 0 instructions: 40500178 cycles: 33681997 heartbeat IPC: 1.177 cumulative IPC: 1.202 (Simulation time: 00 hr 10 min 28 sec)
Heartbeat CPU 0 instructions: 41000180 cycles: 34146159 heartbeat IPC: 1.077 cumulative IPC: 1.201 (Simulation time: 00 hr 10 min 37 sec)
Heartbeat CPU 0 instructions: 41500186 cycles: 34658218 heartbeat IPC: 0.9765 cumulative IPC: 1.197 (Simulation time: 00 hr 10 min 46 sec)
Heartbeat CPU 0 instructions: 42000187 cycles: 35170750 heartbeat IPC: 0.9756 cumulative IPC: 1.194 (Simulation time: 00 hr 10 min 56 sec)
Heartbeat CPU 0 instructions: 42500190 cycles: 35631614 heartbeat IPC: 1.085 cumulative IPC: 1.193 (Simulation time: 00 hr 11 min 05 sec)
Heartbeat CPU 0 instructions: 43000194 cycles: 36056691 heartbeat IPC: 1.176 cumulative IPC: 1.193 (Simulation time: 00 hr 11 min 13 sec)
Heartbeat CPU 0 instructions: 43500194 cycles: 36296956 heartbeat IPC: 2.081 cumulative IPC: 1.198 (Simulation time: 00 hr 11 min 18 sec)
Heartbeat CPU 0 instructions: 44000200 cycles: 36671225 heartbeat IPC: 1.336 cumulative IPC: 1.2 (Simulation time: 00 hr 11 min 25 sec)
Heartbeat CPU 0 instructions: 44500201 cycles: 37007410 heartbeat IPC: 1.487 cumulative IPC: 1.202 (Simulation time: 00 hr 11 min 31 sec)
Heartbeat CPU 0 instructions: 45000207 cycles: 37419536 heartbeat IPC: 1.213 cumulative IPC: 1.203 (Simulation time: 00 hr 11 min 39 sec)
Heartbeat CPU 0 instructions: 45500208 cycles: 37845419 heartbeat IPC: 1.174 cumulative IPC: 1.202 (Simulation time: 00 hr 11 min 47 sec)
Heartbeat CPU 0 instructions: 46000212 cycles: 38272432 heartbeat IPC: 1.171 cumulative IPC: 1.202 (Simulation time: 00 hr 11 min 56 sec)
Heartbeat CPU 0 instructions: 46500212 cycles: 38690414 heartbeat IPC: 1.196 cumulative IPC: 1.202 (Simulation time: 00 hr 12 min 04 sec)
Heartbeat CPU 0 instructions: 47000214 cycles: 39202546 heartbeat IPC: 0.9763 cumulative IPC: 1.199 (Simulation time: 00 hr 12 min 13 sec)
Heartbeat CPU 0 instructions: 47500217 cycles: 39718961 heartbeat IPC: 0.9682 cumulative IPC: 1.196 (Simulation time: 00 hr 12 min 23 sec)
Heartbeat CPU 0 instructions: 48000223 cycles: 40231111 heartbeat IPC: 0.9763 cumulative IPC: 1.193 (Simulation time: 00 hr 12 min 33 sec)
Heartbeat CPU 0 instructions: 48500226 cycles: 40649722 heartbeat IPC: 1.194 cumulative IPC: 1.193 (Simulation time: 00 hr 12 min 41 sec)
Heartbeat CPU 0 instructions: 49000233 cycles: 41046023 heartbeat IPC: 1.262 cumulative IPC: 1.194 (Simulation time: 00 hr 12 min 49 sec)
Heartbeat CPU 0 instructions: 49500234 cycles: 41313650 heartbeat IPC: 1.868 cumulative IPC: 1.198 (Simulation time: 00 hr 12 min 54 sec)
Warmup halting CPU 0 at instruction 50000001 cycle 41599219 for remainder of phase
Warmup finished CPU 0 instructions: 50000001 cycles: 41599219 cumulative IPC: 1.202 (Simulation time: 00 hr 12 min 59 sec)
Warmup complete CPU 0 instructions: 50000001 cycles: 41599219 cumulative IPC: 1.202 (Simulation time: 00 hr 12 min 59 sec)
Heartbeat CPU 0 instructions: 50000241 cycles: 41599249 heartbeat IPC: 1.751 cumulative IPC: 8 (Simulation time: 00 hr 12 min 59 sec)
Heartbeat CPU 0 instructions: 50500243 cycles: 42641363 heartbeat IPC: 0.4798 cumulative IPC: 0.48 (Simulation time: 00 hr 13 min 14 sec)
Heartbeat CPU 0 instructions: 51000244 cycles: 43717077 heartbeat IPC: 0.4648 cumulative IPC: 0.4723 (Simulation time: 00 hr 13 min 29 sec)
Heartbeat CPU 0 instructions: 51500251 cycles: 44796846 heartbeat IPC: 0.4631 cumulative IPC: 0.4692 (Simulation time: 00 hr 13 min 45 sec)
Heartbeat CPU 0 instructions: 52000254 cycles: 45871927 heartbeat IPC: 0.4651 cumulative IPC: 0.4681 (Simulation time: 00 hr 14 min 00 sec)
Heartbeat CPU 0 instructions: 52500257 cycles: 46954390 heartbeat IPC: 0.4619 cumulative IPC: 0.4669 (Simulation time: 00 hr 14 min 14 sec)
Heartbeat CPU 0 instructions: 53000257 cycles: 48119216 heartbeat IPC: 0.4292 cumulative IPC: 0.4602 (Simulation time: 00 hr 14 min 30 sec)
Heartbeat CPU 0 instructions: 53500261 cycles: 49293363 heartbeat IPC: 0.4258 cumulative IPC: 0.4549 (Simulation time: 00 hr 14 min 46 sec)
Heartbeat CPU 0 instructions: 54000267 cycles: 50399565 heartbeat IPC: 0.452 cumulative IPC: 0.4546 (Simulation time: 00 hr 15 min 01 sec)
Heartbeat CPU 0 instructions: 54500274 cycles: 51474235 heartbeat IPC: 0.4653 cumulative IPC: 0.4557 (Simulation time: 00 hr 15 min 16 sec)
Heartbeat CPU 0 instructions: 55000276 cycles: 52114420 heartbeat IPC: 0.781 cumulative IPC: 0.4755 (Simulation time: 00 hr 15 min 25 sec)
Heartbeat CPU 0 instructions: 55500282 cycles: 53093567 heartbeat IPC: 0.5107 cumulative IPC: 0.4785 (Simulation time: 00 hr 15 min 39 sec)
Heartbeat CPU 0 instructions: 56000282 cycles: 53835140 heartbeat IPC: 0.6742 cumulative IPC: 0.4904 (Simulation time: 00 hr 15 min 49 sec)
Heartbeat CPU 0 instructions: 56500288 cycles: 54838674 heartbeat IPC: 0.4982 cumulative IPC: 0.491 (Simulation time: 00 hr 16 min 02 sec)
Heartbeat CPU 0 instructions: 57000288 cycles: 55855233 heartbeat IPC: 0.4919 cumulative IPC: 0.491 (Simulation time: 00 hr 16 min 16 sec)
Heartbeat CPU 0 instructions: 57500288 cycles: 56866000 heartbeat IPC: 0.4947 cumulative IPC: 0.4913 (Simulation time: 00 hr 16 min 29 sec)
Heartbeat CPU 0 instructions: 58000289 cycles: 57845800 heartbeat IPC: 0.5103 cumulative IPC: 0.4924 (Simulation time: 00 hr 16 min 42 sec)
Heartbeat CPU 0 instructions: 58500295 cycles: 58963809 heartbeat IPC: 0.4472 cumulative IPC: 0.4895 (Simulation time: 00 hr 16 min 57 sec)
Heartbeat CPU 0 instructions: 59000297 cycles: 60083467 heartbeat IPC: 0.4466 cumulative IPC: 0.4869 (Simulation time: 00 hr 17 min 12 sec)
Heartbeat CPU 0 instructions: 59500304 cycles: 61200961 heartbeat IPC: 0.4474 cumulative IPC: 0.4847 (Simulation time: 00 hr 17 min 27 sec)
Heartbeat CPU 0 instructions: 60000309 cycles: 62216154 heartbeat IPC: 0.4925 cumulative IPC: 0.4851 (Simulation time: 00 hr 17 min 40 sec)
Heartbeat CPU 0 instructions: 60500311 cycles: 63237345 heartbeat IPC: 0.4896 cumulative IPC: 0.4853 (Simulation time: 00 hr 17 min 54 sec)
Heartbeat CPU 0 instructions: 61000311 cycles: 63781983 heartbeat IPC: 0.918 cumulative IPC: 0.4959 (Simulation time: 00 hr 18 min 01 sec)
Heartbeat CPU 0 instructions: 61500312 cycles: 64484285 heartbeat IPC: 0.7119 cumulative IPC: 0.5025 (Simulation time: 00 hr 18 min 11 sec)
Heartbeat CPU 0 instructions: 62000314 cycles: 65493706 heartbeat IPC: 0.4953 cumulative IPC: 0.5022 (Simulation time: 00 hr 18 min 24 sec)
Heartbeat CPU 0 instructions: 62500320 cycles: 66533715 heartbeat IPC: 0.4808 cumulative IPC: 0.5013 (Simulation time: 00 hr 18 min 38 sec)
Heartbeat CPU 0 instructions: 63000320 cycles: 67575325 heartbeat IPC: 0.48 cumulative IPC: 0.5005 (Simulation time: 00 hr 18 min 53 sec)
Heartbeat CPU 0 instructions: 63500321 cycles: 68619978 heartbeat IPC: 0.4786 cumulative IPC: 0.4996 (Simulation time: 00 hr 19 min 07 sec)
Heartbeat CPU 0 instructions: 64000325 cycles: 69648046 heartbeat IPC: 0.4864 cumulative IPC: 0.4991 (Simulation time: 00 hr 19 min 21 sec)
Heartbeat CPU 0 instructions: 64500325 cycles: 70764537 heartbeat IPC: 0.4478 cumulative IPC: 0.4972 (Simulation time: 00 hr 19 min 36 sec)
Heartbeat CPU 0 instructions: 65000330 cycles: 71880371 heartbeat IPC: 0.4481 cumulative IPC: 0.4954 (Simulation time: 00 hr 19 min 51 sec)
Heartbeat CPU 0 instructions: 65500335 cycles: 72939928 heartbeat IPC: 0.4719 cumulative IPC: 0.4946 (Simulation time: 00 hr 20 min 05 sec)
Heartbeat CPU 0 instructions: 66000335 cycles: 73964628 heartbeat IPC: 0.4879 cumulative IPC: 0.4944 (Simulation time: 00 hr 20 min 19 sec)
Heartbeat CPU 0 instructions: 66500339 cycles: 74693740 heartbeat IPC: 0.6858 cumulative IPC: 0.4986 (Simulation time: 00 hr 20 min 29 sec)
Heartbeat CPU 0 instructions: 67000339 cycles: 75560003 heartbeat IPC: 0.5772 cumulative IPC: 0.5006 (Simulation time: 00 hr 20 min 41 sec)
Heartbeat CPU 0 instructions: 67500340 cycles: 76271797 heartbeat IPC: 0.7025 cumulative IPC: 0.5047 (Simulation time: 00 hr 20 min 50 sec)
Heartbeat CPU 0 instructions: 68000342 cycles: 77271523 heartbeat IPC: 0.5001 cumulative IPC: 0.5046 (Simulation time: 00 hr 21 min 04 sec)
Heartbeat CPU 0 instructions: 68500345 cycles: 78284076 heartbeat IPC: 0.4938 cumulative IPC: 0.5043 (Simulation time: 00 hr 21 min 17 sec)
Heartbeat CPU 0 instructions: 69000345 cycles: 79303230 heartbeat IPC: 0.4906 cumulative IPC: 0.5039 (Simulation time: 00 hr 21 min 30 sec)
Heartbeat CPU 0 instructions: 69500346 cycles: 80317471 heartbeat IPC: 0.493 cumulative IPC: 0.5036 (Simulation time: 00 hr 21 min 43 sec)
Heartbeat CPU 0 instructions: 70000350 cycles: 81379422 heartbeat IPC: 0.4708 cumulative IPC: 0.5028 (Simulation time: 00 hr 21 min 58 sec)
Heartbeat CPU 0 instructions: 70500350 cycles: 82506698 heartbeat IPC: 0.4435 cumulative IPC: 0.5011 (Simulation time: 00 hr 22 min 12 sec)
Heartbeat CPU 0 instructions: 71000350 cycles: 83629613 heartbeat IPC: 0.4453 cumulative IPC: 0.4996 (Simulation time: 00 hr 22 min 27 sec)
Heartbeat CPU 0 instructions: 71500352 cycles: 84669088 heartbeat IPC: 0.481 cumulative IPC: 0.4992 (Simulation time: 00 hr 22 min 41 sec)
Heartbeat CPU 0 instructions: 72000355 cycles: 85713304 heartbeat IPC: 0.4788 cumulative IPC: 0.4987 (Simulation time: 00 hr 22 min 56 sec)
Heartbeat CPU 0 instructions: 72500355 cycles: 86266977 heartbeat IPC: 0.9031 cumulative IPC: 0.5037 (Simulation time: 00 hr 23 min 03 sec)
Heartbeat CPU 0 instructions: 73000362 cycles: 87066973 heartbeat IPC: 0.625 cumulative IPC: 0.5059 (Simulation time: 00 hr 23 min 14 sec)
Heartbeat CPU 0 instructions: 73500362 cycles: 87977540 heartbeat IPC: 0.5491 cumulative IPC: 0.5067 (Simulation time: 00 hr 23 min 26 sec)
Heartbeat CPU 0 instructions: 74000365 cycles: 88979183 heartbeat IPC: 0.4992 cumulative IPC: 0.5066 (Simulation time: 00 hr 23 min 39 sec)
Heartbeat CPU 0 instructions: 74500372 cycles: 89993609 heartbeat IPC: 0.4929 cumulative IPC: 0.5063 (Simulation time: 00 hr 23 min 52 sec)
Heartbeat CPU 0 instructions: 75000377 cycles: 90995332 heartbeat IPC: 0.4991 cumulative IPC: 0.5061 (Simulation time: 00 hr 24 min 05 sec)
Heartbeat CPU 0 instructions: 75500378 cycles: 91979372 heartbeat IPC: 0.5081 cumulative IPC: 0.5062 (Simulation time: 00 hr 24 min 18 sec)
Heartbeat CPU 0 instructions: 76000380 cycles: 93070889 heartbeat IPC: 0.4581 cumulative IPC: 0.5051 (Simulation time: 00 hr 24 min 32 sec)
Heartbeat CPU 0 instructions: 76500380 cycles: 94158175 heartbeat IPC: 0.4599 cumulative IPC: 0.5042 (Simulation time: 00 hr 24 min 47 sec)
Heartbeat CPU 0 instructions: 77000382 cycles: 95213849 heartbeat IPC: 0.4736 cumulative IPC: 0.5036 (Simulation time: 00 hr 25 min 01 sec)
Heartbeat CPU 0 instructions: 77500387 cycles: 96215606 heartbeat IPC: 0.4991 cumulative IPC: 0.5035 (Simulation time: 00 hr 25 min 14 sec)
Heartbeat CPU 0 instructions: 78000394 cycles: 97022823 heartbeat IPC: 0.6194 cumulative IPC: 0.5052 (Simulation time: 00 hr 25 min 24 sec)
Heartbeat CPU 0 instructions: 78500401 cycles: 97778766 heartbeat IPC: 0.6614 cumulative IPC: 0.5073 (Simulation time: 00 hr 25 min 34 sec)
Heartbeat CPU 0 instructions: 79000402 cycles: 98496566 heartbeat IPC: 0.6966 cumulative IPC: 0.5097 (Simulation time: 00 hr 25 min 43 sec)
Heartbeat CPU 0 instructions: 79500406 cycles: 99512621 heartbeat IPC: 0.4921 cumulative IPC: 0.5094 (Simulation time: 00 hr 25 min 56 sec)
Heartbeat CPU 0 instructions: 80000408 cycles: 100563250 heartbeat IPC: 0.4759 cumulative IPC: 0.5088 (Simulation time: 00 hr 26 min 10 sec)
Heartbeat CPU 0 instructions: 80500409 cycles: 101614948 heartbeat IPC: 0.4754 cumulative IPC: 0.5082 (Simulation time: 00 hr 26 min 23 sec)
Heartbeat CPU 0 instructions: 81000411 cycles: 102665418 heartbeat IPC: 0.476 cumulative IPC: 0.5077 (Simulation time: 00 hr 26 min 37 sec)
Heartbeat CPU 0 instructions: 81500415 cycles: 103733729 heartbeat IPC: 0.468 cumulative IPC: 0.507 (Simulation time: 00 hr 26 min 51 sec)
Heartbeat CPU 0 instructions: 82000415 cycles: 104876993 heartbeat IPC: 0.4373 cumulative IPC: 0.5057 (Simulation time: 00 hr 27 min 07 sec)
Heartbeat CPU 0 instructions: 82500418 cycles: 106020280 heartbeat IPC: 0.4373 cumulative IPC: 0.5045 (Simulation time: 00 hr 27 min 22 sec)
Heartbeat CPU 0 instructions: 83000421 cycles: 107084064 heartbeat IPC: 0.47 cumulative IPC: 0.5039 (Simulation time: 00 hr 27 min 36 sec)
Heartbeat CPU 0 instructions: 83500421 cycles: 108136841 heartbeat IPC: 0.4749 cumulative IPC: 0.5035 (Simulation time: 00 hr 27 min 50 sec)
Heartbeat CPU 0 instructions: 84000424 cycles: 109187070 heartbeat IPC: 0.4761 cumulative IPC: 0.5031 (Simulation time: 00 hr 28 min 03 sec)
Heartbeat CPU 0 instructions: 84500426 cycles: 110240903 heartbeat IPC: 0.4745 cumulative IPC: 0.5026 (Simulation time: 00 hr 28 min 17 sec)
Heartbeat CPU 0 instructions: 85000432 cycles: 111291776 heartbeat IPC: 0.4758 cumulative IPC: 0.5022 (Simulation time: 00 hr 28 min 31 sec)
Heartbeat CPU 0 instructions: 85500433 cycles: 112344768 heartbeat IPC: 0.4748 cumulative IPC: 0.5018 (Simulation time: 00 hr 28 min 45 sec)
Heartbeat CPU 0 instructions: 86000433 cycles: 113397526 heartbeat IPC: 0.4749 cumulative IPC: 0.5014 (Simulation time: 00 hr 28 min 59 sec)
Heartbeat CPU 0 instructions: 86500438 cycles: 114449816 heartbeat IPC: 0.4752 cumulative IPC: 0.501 (Simulation time: 00 hr 29 min 12 sec)
Heartbeat CPU 0 instructions: 87000444 cycles: 115500818 heartbeat IPC: 0.4757 cumulative IPC: 0.5007 (Simulation time: 00 hr 29 min 26 sec)
Heartbeat CPU 0 instructions: 87500444 cycles: 116552812 heartbeat IPC: 0.4753 cumulative IPC: 0.5003 (Simulation time: 00 hr 29 min 40 sec)
Heartbeat CPU 0 instructions: 88000446 cycles: 117604634 heartbeat IPC: 0.4754 cumulative IPC: 0.5 (Simulation time: 00 hr 29 min 54 sec)
Heartbeat CPU 0 instructions: 88500453 cycles: 118651612 heartbeat IPC: 0.4776 cumulative IPC: 0.4997 (Simulation time: 00 hr 30 min 08 sec)
Heartbeat CPU 0 instructions: 89000455 cycles: 119702647 heartbeat IPC: 0.4757 cumulative IPC: 0.4993 (Simulation time: 00 hr 30 min 22 sec)
Heartbeat CPU 0 instructions: 89500455 cycles: 120753789 heartbeat IPC: 0.4757 cumulative IPC: 0.499 (Simulation time: 00 hr 30 min 35 sec)
Heartbeat CPU 0 instructions: 90000456 cycles: 121804127 heartbeat IPC: 0.476 cumulative IPC: 0.4987 (Simulation time: 00 hr 30 min 49 sec)
Heartbeat CPU 0 instructions: 90500456 cycles: 122854646 heartbeat IPC: 0.476 cumulative IPC: 0.4984 (Simulation time: 00 hr 31 min 03 sec)
Heartbeat CPU 0 instructions: 91000458 cycles: 123905950 heartbeat IPC: 0.4756 cumulative IPC: 0.4981 (Simulation time: 00 hr 31 min 17 sec)
Heartbeat CPU 0 instructions: 91500465 cycles: 124958610 heartbeat IPC: 0.475 cumulative IPC: 0.4978 (Simulation time: 00 hr 31 min 31 sec)
Heartbeat CPU 0 instructions: 92000465 cycles: 126014761 heartbeat IPC: 0.4734 cumulative IPC: 0.4975 (Simulation time: 00 hr 31 min 45 sec)
Heartbeat CPU 0 instructions: 92500467 cycles: 127066996 heartbeat IPC: 0.4752 cumulative IPC: 0.4973 (Simulation time: 00 hr 31 min 58 sec)
Heartbeat CPU 0 instructions: 93000467 cycles: 128118542 heartbeat IPC: 0.4755 cumulative IPC: 0.497 (Simulation time: 00 hr 32 min 12 sec)
Heartbeat CPU 0 instructions: 93500470 cycles: 129170075 heartbeat IPC: 0.4755 cumulative IPC: 0.4967 (Simulation time: 00 hr 32 min 26 sec)
Heartbeat CPU 0 instructions: 94000474 cycles: 130220460 heartbeat IPC: 0.476 cumulative IPC: 0.4965 (Simulation time: 00 hr 32 min 40 sec)
Heartbeat CPU 0 instructions: 94500475 cycles: 131271142 heartbeat IPC: 0.4759 cumulative IPC: 0.4963 (Simulation time: 00 hr 32 min 54 sec)
Heartbeat CPU 0 instructions: 95000478 cycles: 132324239 heartbeat IPC: 0.4748 cumulative IPC: 0.496 (Simulation time: 00 hr 33 min 07 sec)
Heartbeat CPU 0 instructions: 95500481 cycles: 133376597 heartbeat IPC: 0.4751 cumulative IPC: 0.4958 (Simulation time: 00 hr 33 min 21 sec)
Heartbeat CPU 0 instructions: 96000488 cycles: 134427493 heartbeat IPC: 0.4758 cumulative IPC: 0.4955 (Simulation time: 00 hr 33 min 35 sec)
Heartbeat CPU 0 instructions: 96500490 cycles: 135479452 heartbeat IPC: 0.4753 cumulative IPC: 0.4953 (Simulation time: 00 hr 33 min 49 sec)
Heartbeat CPU 0 instructions: 97000492 cycles: 136532057 heartbeat IPC: 0.475 cumulative IPC: 0.4951 (Simulation time: 00 hr 34 min 03 sec)
Heartbeat CPU 0 instructions: 97500499 cycles: 137585758 heartbeat IPC: 0.4745 cumulative IPC: 0.4949 (Simulation time: 00 hr 34 min 17 sec)
Heartbeat CPU 0 instructions: 98000499 cycles: 138638561 heartbeat IPC: 0.4749 cumulative IPC: 0.4946 (Simulation time: 00 hr 34 min 31 sec)
Heartbeat CPU 0 instructions: 98500501 cycles: 139688726 heartbeat IPC: 0.4761 cumulative IPC: 0.4945 (Simulation time: 00 hr 34 min 45 sec)
Heartbeat CPU 0 instructions: 99000501 cycles: 140742797 heartbeat IPC: 0.4744 cumulative IPC: 0.4942 (Simulation time: 00 hr 34 min 59 sec)
Heartbeat CPU 0 instructions: 99500502 cycles: 141794647 heartbeat IPC: 0.4754 cumulative IPC: 0.494 (Simulation time: 00 hr 35 min 13 sec)
Heartbeat CPU 0 instructions: 100000502 cycles: 142848276 heartbeat IPC: 0.4746 cumulative IPC: 0.4938 (Simulation time: 00 hr 35 min 27 sec)
Heartbeat CPU 0 instructions: 100500507 cycles: 143899136 heartbeat IPC: 0.4758 cumulative IPC: 0.4937 (Simulation time: 00 hr 35 min 41 sec)
Heartbeat CPU 0 instructions: 101000512 cycles: 144951961 heartbeat IPC: 0.4749 cumulative IPC: 0.4935 (Simulation time: 00 hr 35 min 54 sec)
Heartbeat CPU 0 instructions: 101500513 cycles: 146175839 heartbeat IPC: 0.4085 cumulative IPC: 0.4925 (Simulation time: 00 hr 36 min 07 sec)
Heartbeat CPU 0 instructions: 102000514 cycles: 146516572 heartbeat IPC: 1.467 cumulative IPC: 0.4956 (Simulation time: 00 hr 36 min 11 sec)
Heartbeat CPU 0 instructions: 102500517 cycles: 146944013 heartbeat IPC: 1.17 cumulative IPC: 0.4984 (Simulation time: 00 hr 36 min 16 sec)
Heartbeat CPU 0 instructions: 103000522 cycles: 147258506 heartbeat IPC: 1.59 cumulative IPC: 0.5016 (Simulation time: 00 hr 36 min 20 sec)
Heartbeat CPU 0 instructions: 103500524 cycles: 147525217 heartbeat IPC: 1.875 cumulative IPC: 0.5051 (Simulation time: 00 hr 36 min 24 sec)
Heartbeat CPU 0 instructions: 104000524 cycles: 148058087 heartbeat IPC: 0.9383 cumulative IPC: 0.5072 (Simulation time: 00 hr 36 min 29 sec)
Heartbeat CPU 0 instructions: 104500529 cycles: 148541199 heartbeat IPC: 1.035 cumulative IPC: 0.5096 (Simulation time: 00 hr 36 min 34 sec)
Heartbeat CPU 0 instructions: 105000533 cycles: 148789943 heartbeat IPC: 2.01 cumulative IPC: 0.5131 (Simulation time: 00 hr 36 min 37 sec)
Heartbeat CPU 0 instructions: 105500534 cycles: 149020198 heartbeat IPC: 2.172 cumulative IPC: 0.5167 (Simulation time: 00 hr 36 min 40 sec)
Heartbeat CPU 0 instructions: 106000538 cycles: 149250659 heartbeat IPC: 2.17 cumulative IPC: 0.5202 (Simulation time: 00 hr 36 min 43 sec)
Heartbeat CPU 0 instructions: 106500538 cycles: 149736857 heartbeat IPC: 1.028 cumulative IPC: 0.5225 (Simulation time: 00 hr 36 min 48 sec)
Heartbeat CPU 0 instructions: 107000539 cycles: 150219616 heartbeat IPC: 1.036 cumulative IPC: 0.5248 (Simulation time: 00 hr 36 min 53 sec)
Heartbeat CPU 0 instructions: 107500541 cycles: 151391856 heartbeat IPC: 0.4265 cumulative IPC: 0.5237 (Simulation time: 00 hr 37 min 06 sec)
Heartbeat CPU 0 instructions: 108000543 cycles: 152461853 heartbeat IPC: 0.4673 cumulative IPC: 0.5232 (Simulation time: 00 hr 37 min 21 sec)
Heartbeat CPU 0 instructions: 108500544 cycles: 153002301 heartbeat IPC: 0.9252 cumulative IPC: 0.5251 (Simulation time: 00 hr 37 min 28 sec)
Heartbeat CPU 0 instructions: 109000547 cycles: 153991484 heartbeat IPC: 0.5055 cumulative IPC: 0.525 (Simulation time: 00 hr 37 min 40 sec)
Heartbeat CPU 0 instructions: 109500551 cycles: 154804562 heartbeat IPC: 0.615 cumulative IPC: 0.5256 (Simulation time: 00 hr 37 min 51 sec)
Heartbeat CPU 0 instructions: 110000553 cycles: 155823399 heartbeat IPC: 0.4908 cumulative IPC: 0.5253 (Simulation time: 00 hr 38 min 03 sec)
Heartbeat CPU 0 instructions: 110500560 cycles: 156881830 heartbeat IPC: 0.4724 cumulative IPC: 0.5248 (Simulation time: 00 hr 38 min 16 sec)
Heartbeat CPU 0 instructions: 111000562 cycles: 157946135 heartbeat IPC: 0.4698 cumulative IPC: 0.5243 (Simulation time: 00 hr 38 min 29 sec)
Heartbeat CPU 0 instructions: 111500563 cycles: 158972600 heartbeat IPC: 0.4871 cumulative IPC: 0.524 (Simulation time: 00 hr 38 min 42 sec)
Heartbeat CPU 0 instructions: 112000563 cycles: 160113561 heartbeat IPC: 0.4382 cumulative IPC: 0.5231 (Simulation time: 00 hr 38 min 57 sec)
Heartbeat CPU 0 instructions: 112500565 cycles: 161259438 heartbeat IPC: 0.4363 cumulative IPC: 0.5223 (Simulation time: 00 hr 39 min 12 sec)
Heartbeat CPU 0 instructions: 113000567 cycles: 162404383 heartbeat IPC: 0.4367 cumulative IPC: 0.5215 (Simulation time: 00 hr 39 min 27 sec)
Heartbeat CPU 0 instructions: 113500567 cycles: 163438297 heartbeat IPC: 0.4836 cumulative IPC: 0.5212 (Simulation time: 00 hr 39 min 41 sec)
Heartbeat CPU 0 instructions: 114000568 cycles: 164454450 heartbeat IPC: 0.4921 cumulative IPC: 0.5209 (Simulation time: 00 hr 39 min 54 sec)
Heartbeat CPU 0 instructions: 114500572 cycles: 165040015 heartbeat IPC: 0.8539 cumulative IPC: 0.5225 (Simulation time: 00 hr 40 min 01 sec)
Heartbeat CPU 0 instructions: 115000575 cycles: 165787403 heartbeat IPC: 0.669 cumulative IPC: 0.5234 (Simulation time: 00 hr 40 min 10 sec)
Heartbeat CPU 0 instructions: 115500575 cycles: 166806299 heartbeat IPC: 0.4907 cumulative IPC: 0.5231 (Simulation time: 00 hr 40 min 23 sec)
Heartbeat CPU 0 instructions: 116000575 cycles: 167859390 heartbeat IPC: 0.4748 cumulative IPC: 0.5227 (Simulation time: 00 hr 40 min 36 sec)
Heartbeat CPU 0 instructions: 116500577 cycles: 168918582 heartbeat IPC: 0.4721 cumulative IPC: 0.5223 (Simulation time: 00 hr 40 min 49 sec)
Heartbeat CPU 0 instructions: 117000584 cycles: 169974561 heartbeat IPC: 0.4735 cumulative IPC: 0.5219 (Simulation time: 00 hr 41 min 02 sec)
Heartbeat CPU 0 instructions: 117500587 cycles: 170945540 heartbeat IPC: 0.5149 cumulative IPC: 0.5219 (Simulation time: 00 hr 41 min 15 sec)
Heartbeat CPU 0 instructions: 118000593 cycles: 172089242 heartbeat IPC: 0.4372 cumulative IPC: 0.5211 (Simulation time: 00 hr 41 min 29 sec)
Heartbeat CPU 0 instructions: 118500595 cycles: 173235194 heartbeat IPC: 0.4363 cumulative IPC: 0.5204 (Simulation time: 00 hr 41 min 44 sec)
Heartbeat CPU 0 instructions: 119000596 cycles: 174318543 heartbeat IPC: 0.4615 cumulative IPC: 0.5199 (Simulation time: 00 hr 41 min 58 sec)
Heartbeat CPU 0 instructions: 119500598 cycles: 175380606 heartbeat IPC: 0.4708 cumulative IPC: 0.5195 (Simulation time: 00 hr 42 min 11 sec)
Heartbeat CPU 0 instructions: 120000599 cycles: 176012086 heartbeat IPC: 0.7918 cumulative IPC: 0.5208 (Simulation time: 00 hr 42 min 20 sec)
Heartbeat CPU 0 instructions: 120500600 cycles: 176978754 heartbeat IPC: 0.5172 cumulative IPC: 0.5208 (Simulation time: 00 hr 42 min 31 sec)
Heartbeat CPU 0 instructions: 121000602 cycles: 177724486 heartbeat IPC: 0.6705 cumulative IPC: 0.5216 (Simulation time: 00 hr 42 min 40 sec)
Heartbeat CPU 0 instructions: 121500602 cycles: 178749052 heartbeat IPC: 0.488 cumulative IPC: 0.5213 (Simulation time: 00 hr 42 min 52 sec)
Heartbeat CPU 0 instructions: 122000608 cycles: 179804705 heartbeat IPC: 0.4736 cumulative IPC: 0.521 (Simulation time: 00 hr 43 min 05 sec)
Heartbeat CPU 0 instructions: 122500611 cycles: 180869900 heartbeat IPC: 0.4694 cumulative IPC: 0.5206 (Simulation time: 00 hr 43 min 17 sec)
Heartbeat CPU 0 instructions: 123000615 cycles: 181881809 heartbeat IPC: 0.4941 cumulative IPC: 0.5204 (Simulation time: 00 hr 43 min 29 sec)
Heartbeat CPU 0 instructions: 123500615 cycles: 183020588 heartbeat IPC: 0.4391 cumulative IPC: 0.5197 (Simulation time: 00 hr 43 min 44 sec)
Heartbeat CPU 0 instructions: 124000615 cycles: 184162897 heartbeat IPC: 0.4377 cumulative IPC: 0.5191 (Simulation time: 00 hr 43 min 58 sec)
Heartbeat CPU 0 instructions: 124500615 cycles: 185305151 heartbeat IPC: 0.4377 cumulative IPC: 0.5184 (Simulation time: 00 hr 44 min 12 sec)
Heartbeat CPU 0 instructions: 125000617 cycles: 186351499 heartbeat IPC: 0.4779 cumulative IPC: 0.5181 (Simulation time: 00 hr 44 min 25 sec)
Heartbeat CPU 0 instructions: 125500617 cycles: 187411840 heartbeat IPC: 0.4715 cumulative IPC: 0.5178 (Simulation time: 00 hr 44 min 38 sec)
Heartbeat CPU 0 instructions: 126000622 cycles: 187957602 heartbeat IPC: 0.9162 cumulative IPC: 0.5193 (Simulation time: 00 hr 44 min 45 sec)
Heartbeat CPU 0 instructions: 126500623 cycles: 188708351 heartbeat IPC: 0.666 cumulative IPC: 0.52 (Simulation time: 00 hr 44 min 54 sec)
Heartbeat CPU 0 instructions: 127000625 cycles: 189732355 heartbeat IPC: 0.4883 cumulative IPC: 0.5198 (Simulation time: 00 hr 45 min 05 sec)
Heartbeat CPU 0 instructions: 127500626 cycles: 190796541 heartbeat IPC: 0.4698 cumulative IPC: 0.5195 (Simulation time: 00 hr 45 min 18 sec)
Heartbeat CPU 0 instructions: 128000633 cycles: 191859002 heartbeat IPC: 0.4706 cumulative IPC: 0.5191 (Simulation time: 00 hr 45 min 30 sec)
Heartbeat CPU 0 instructions: 128500634 cycles: 192918778 heartbeat IPC: 0.4718 cumulative IPC: 0.5188 (Simulation time: 00 hr 45 min 42 sec)
Heartbeat CPU 0 instructions: 129000639 cycles: 193964771 heartbeat IPC: 0.478 cumulative IPC: 0.5185 (Simulation time: 00 hr 45 min 55 sec)
Heartbeat CPU 0 instructions: 129500641 cycles: 195114174 heartbeat IPC: 0.435 cumulative IPC: 0.5179 (Simulation time: 00 hr 46 min 10 sec)
Heartbeat CPU 0 instructions: 130000641 cycles: 196258672 heartbeat IPC: 0.4369 cumulative IPC: 0.5173 (Simulation time: 00 hr 46 min 24 sec)
Heartbeat CPU 0 instructions: 130500642 cycles: 197353825 heartbeat IPC: 0.4566 cumulative IPC: 0.5168 (Simulation time: 00 hr 46 min 37 sec)
Heartbeat CPU 0 instructions: 131000644 cycles: 198417431 heartbeat IPC: 0.4701 cumulative IPC: 0.5165 (Simulation time: 00 hr 46 min 49 sec)
Heartbeat CPU 0 instructions: 131500645 cycles: 199137071 heartbeat IPC: 0.6948 cumulative IPC: 0.5173 (Simulation time: 00 hr 46 min 58 sec)
Heartbeat CPU 0 instructions: 132000652 cycles: 200023130 heartbeat IPC: 0.5643 cumulative IPC: 0.5176 (Simulation time: 00 hr 47 min 08 sec)
Heartbeat CPU 0 instructions: 132500653 cycles: 200769033 heartbeat IPC: 0.6703 cumulative IPC: 0.5183 (Simulation time: 00 hr 47 min 17 sec)
Heartbeat CPU 0 instructions: 133000654 cycles: 201789176 heartbeat IPC: 0.4901 cumulative IPC: 0.5181 (Simulation time: 00 hr 47 min 29 sec)
Heartbeat CPU 0 instructions: 133500659 cycles: 202845866 heartbeat IPC: 0.4732 cumulative IPC: 0.5178 (Simulation time: 00 hr 47 min 41 sec)
Heartbeat CPU 0 instructions: 134000661 cycles: 203902503 heartbeat IPC: 0.4732 cumulative IPC: 0.5176 (Simulation time: 00 hr 47 min 54 sec)
Heartbeat CPU 0 instructions: 134500667 cycles: 204946742 heartbeat IPC: 0.4788 cumulative IPC: 0.5173 (Simulation time: 00 hr 48 min 06 sec)
Heartbeat CPU 0 instructions: 135000667 cycles: 206038513 heartbeat IPC: 0.458 cumulative IPC: 0.5169 (Simulation time: 00 hr 48 min 20 sec)
Heartbeat CPU 0 instructions: 135500667 cycles: 207175508 heartbeat IPC: 0.4398 cumulative IPC: 0.5164 (Simulation time: 00 hr 48 min 34 sec)
Heartbeat CPU 0 instructions: 136000672 cycles: 208315130 heartbeat IPC: 0.4387 cumulative IPC: 0.5159 (Simulation time: 00 hr 48 min 48 sec)
Heartbeat CPU 0 instructions: 136500674 cycles: 209362941 heartbeat IPC: 0.4772 cumulative IPC: 0.5156 (Simulation time: 00 hr 49 min 00 sec)
Heartbeat CPU 0 instructions: 137000678 cycles: 210417780 heartbeat IPC: 0.474 cumulative IPC: 0.5154 (Simulation time: 00 hr 49 min 13 sec)
Heartbeat CPU 0 instructions: 137500679 cycles: 210959269 heartbeat IPC: 0.9234 cumulative IPC: 0.5167 (Simulation time: 00 hr 49 min 20 sec)
Heartbeat CPU 0 instructions: 138000680 cycles: 211749732 heartbeat IPC: 0.6325 cumulative IPC: 0.5172 (Simulation time: 00 hr 49 min 29 sec)
Heartbeat CPU 0 instructions: 138500684 cycles: 212732264 heartbeat IPC: 0.5089 cumulative IPC: 0.5171 (Simulation time: 00 hr 49 min 40 sec)
Heartbeat CPU 0 instructions: 139000686 cycles: 213789183 heartbeat IPC: 0.4731 cumulative IPC: 0.5169 (Simulation time: 00 hr 49 min 52 sec)
Heartbeat CPU 0 instructions: 139500689 cycles: 214850970 heartbeat IPC: 0.4709 cumulative IPC: 0.5166 (Simulation time: 00 hr 50 min 04 sec)
Heartbeat CPU 0 instructions: 140000689 cycles: 215913746 heartbeat IPC: 0.4705 cumulative IPC: 0.5163 (Simulation time: 00 hr 50 min 16 sec)
Heartbeat CPU 0 instructions: 140500693 cycles: 216955146 heartbeat IPC: 0.4801 cumulative IPC: 0.5161 (Simulation time: 00 hr 50 min 28 sec)
Heartbeat CPU 0 instructions: 141000695 cycles: 218100759 heartbeat IPC: 0.4364 cumulative IPC: 0.5156 (Simulation time: 00 hr 50 min 42 sec)
Heartbeat CPU 0 instructions: 141500699 cycles: 219248266 heartbeat IPC: 0.4357 cumulative IPC: 0.5151 (Simulation time: 00 hr 50 min 57 sec)
Heartbeat CPU 0 instructions: 142000700 cycles: 220352130 heartbeat IPC: 0.453 cumulative IPC: 0.5147 (Simulation time: 00 hr 51 min 11 sec)
Heartbeat CPU 0 instructions: 142500701 cycles: 221415414 heartbeat IPC: 0.4702 cumulative IPC: 0.5144 (Simulation time: 00 hr 51 min 25 sec)
Heartbeat CPU 0 instructions: 143000703 cycles: 222224058 heartbeat IPC: 0.6183 cumulative IPC: 0.5149 (Simulation time: 00 hr 51 min 33 sec)
Heartbeat CPU 0 instructions: 143500704 cycles: 223019442 heartbeat IPC: 0.6286 cumulative IPC: 0.5154 (Simulation time: 00 hr 51 min 41 sec)
Heartbeat CPU 0 instructions: 144000705 cycles: 223770895 heartbeat IPC: 0.6654 cumulative IPC: 0.516 (Simulation time: 00 hr 51 min 48 sec)
Heartbeat CPU 0 instructions: 144500712 cycles: 224797131 heartbeat IPC: 0.4872 cumulative IPC: 0.5158 (Simulation time: 00 hr 51 min 58 sec)
Heartbeat CPU 0 instructions: 145000714 cycles: 225858890 heartbeat IPC: 0.4709 cumulative IPC: 0.5156 (Simulation time: 00 hr 52 min 08 sec)
Heartbeat CPU 0 instructions: 145500720 cycles: 226921502 heartbeat IPC: 0.4705 cumulative IPC: 0.5153 (Simulation time: 00 hr 52 min 20 sec)
Heartbeat CPU 0 instructions: 146000720 cycles: 227985368 heartbeat IPC: 0.47 cumulative IPC: 0.5151 (Simulation time: 00 hr 52 min 33 sec)
Heartbeat CPU 0 instructions: 146500723 cycles: 229058753 heartbeat IPC: 0.4658 cumulative IPC: 0.5148 (Simulation time: 00 hr 52 min 47 sec)
Heartbeat CPU 0 instructions: 147000725 cycles: 230196607 heartbeat IPC: 0.4394 cumulative IPC: 0.5143 (Simulation time: 00 hr 53 min 02 sec)
Heartbeat CPU 0 instructions: 147500728 cycles: 231335611 heartbeat IPC: 0.439 cumulative IPC: 0.5139 (Simulation time: 00 hr 53 min 16 sec)
Heartbeat CPU 0 instructions: 148000732 cycles: 232396395 heartbeat IPC: 0.4714 cumulative IPC: 0.5136 (Simulation time: 00 hr 53 min 30 sec)
Heartbeat CPU 0 instructions: 148500732 cycles: 233452472 heartbeat IPC: 0.4735 cumulative IPC: 0.5134 (Simulation time: 00 hr 53 min 43 sec)
Heartbeat CPU 0 instructions: 149000737 cycles: 233996565 heartbeat IPC: 0.919 cumulative IPC: 0.5146 (Simulation time: 00 hr 53 min 50 sec)
Heartbeat CPU 0 instructions: 149500738 cycles: 234876968 heartbeat IPC: 0.5679 cumulative IPC: 0.5148 (Simulation time: 00 hr 54 min 01 sec)
Heartbeat CPU 0 instructions: 150000741 cycles: 235794451 heartbeat IPC: 0.545 cumulative IPC: 0.5149 (Simulation time: 00 hr 54 min 13 sec)
Heartbeat CPU 0 instructions: 150500747 cycles: 236817513 heartbeat IPC: 0.4887 cumulative IPC: 0.5148 (Simulation time: 00 hr 54 min 26 sec)
Heartbeat CPU 0 instructions: 151000747 cycles: 237871313 heartbeat IPC: 0.4745 cumulative IPC: 0.5146 (Simulation time: 00 hr 54 min 39 sec)
Heartbeat CPU 0 instructions: 151500749 cycles: 238923280 heartbeat IPC: 0.4753 cumulative IPC: 0.5144 (Simulation time: 00 hr 54 min 52 sec)
Heartbeat CPU 0 instructions: 152000751 cycles: 239941445 heartbeat IPC: 0.4911 cumulative IPC: 0.5143 (Simulation time: 00 hr 55 min 05 sec)
Heartbeat CPU 0 instructions: 152500751 cycles: 241081188 heartbeat IPC: 0.4387 cumulative IPC: 0.5138 (Simulation time: 00 hr 55 min 20 sec)
Heartbeat CPU 0 instructions: 153000755 cycles: 242224790 heartbeat IPC: 0.4372 cumulative IPC: 0.5134 (Simulation time: 00 hr 55 min 34 sec)
Heartbeat CPU 0 instructions: 153500756 cycles: 243336906 heartbeat IPC: 0.4496 cumulative IPC: 0.513 (Simulation time: 00 hr 55 min 48 sec)
Heartbeat CPU 0 instructions: 154000757 cycles: 244397926 heartbeat IPC: 0.4712 cumulative IPC: 0.5128 (Simulation time: 00 hr 56 min 02 sec)
Heartbeat CPU 0 instructions: 154500761 cycles: 245293293 heartbeat IPC: 0.5584 cumulative IPC: 0.513 (Simulation time: 00 hr 56 min 14 sec)
Heartbeat CPU 0 instructions: 155000768 cycles: 246005885 heartbeat IPC: 0.7017 cumulative IPC: 0.5137 (Simulation time: 00 hr 56 min 24 sec)
Heartbeat CPU 0 instructions: 155500769 cycles: 246754958 heartbeat IPC: 0.6675 cumulative IPC: 0.5142 (Simulation time: 00 hr 56 min 33 sec)
Heartbeat CPU 0 instructions: 156000772 cycles: 247783036 heartbeat IPC: 0.4863 cumulative IPC: 0.5141 (Simulation time: 00 hr 56 min 46 sec)
Heartbeat CPU 0 instructions: 156500772 cycles: 248842399 heartbeat IPC: 0.472 cumulative IPC: 0.5139 (Simulation time: 00 hr 56 min 59 sec)
Heartbeat CPU 0 instructions: 157000775 cycles: 249902070 heartbeat IPC: 0.4718 cumulative IPC: 0.5137 (Simulation time: 00 hr 57 min 13 sec)
Heartbeat CPU 0 instructions: 157500781 cycles: 250966255 heartbeat IPC: 0.4698 cumulative IPC: 0.5135 (Simulation time: 00 hr 57 min 27 sec)
Heartbeat CPU 0 instructions: 158000781 cycles: 252032251 heartbeat IPC: 0.469 cumulative IPC: 0.5132 (Simulation time: 00 hr 57 min 42 sec)
Heartbeat CPU 0 instructions: 158500785 cycles: 253176575 heartbeat IPC: 0.4369 cumulative IPC: 0.5128 (Simulation time: 00 hr 57 min 58 sec)
Heartbeat CPU 0 instructions: 159000788 cycles: 254324848 heartbeat IPC: 0.4354 cumulative IPC: 0.5124 (Simulation time: 00 hr 58 min 13 sec)
Heartbeat CPU 0 instructions: 159500795 cycles: 255395907 heartbeat IPC: 0.4668 cumulative IPC: 0.5122 (Simulation time: 00 hr 58 min 28 sec)
Heartbeat CPU 0 instructions: 160000795 cycles: 256456184 heartbeat IPC: 0.4716 cumulative IPC: 0.512 (Simulation time: 00 hr 58 min 42 sec)
Heartbeat CPU 0 instructions: 160500796 cycles: 257000176 heartbeat IPC: 0.9191 cumulative IPC: 0.513 (Simulation time: 00 hr 58 min 49 sec)
Heartbeat CPU 0 instructions: 161000799 cycles: 257974428 heartbeat IPC: 0.5132 cumulative IPC: 0.513 (Simulation time: 00 hr 59 min 01 sec)
Heartbeat CPU 0 instructions: 161500799 cycles: 258799822 heartbeat IPC: 0.6058 cumulative IPC: 0.5134 (Simulation time: 00 hr 59 min 12 sec)
Heartbeat CPU 0 instructions: 162000801 cycles: 259818772 heartbeat IPC: 0.4907 cumulative IPC: 0.5132 (Simulation time: 00 hr 59 min 25 sec)
Heartbeat CPU 0 instructions: 162500808 cycles: 260867114 heartbeat IPC: 0.477 cumulative IPC: 0.5131 (Simulation time: 00 hr 59 min 39 sec)
Heartbeat CPU 0 instructions: 163000808 cycles: 261922813 heartbeat IPC: 0.4736 cumulative IPC: 0.5129 (Simulation time: 00 hr 59 min 52 sec)
Heartbeat CPU 0 instructions: 163500811 cycles: 262836381 heartbeat IPC: 0.5473 cumulative IPC: 0.513 (Simulation time: 01 hr 00 min 04 sec)
Heartbeat CPU 0 instructions: 164000813 cycles: 263726761 heartbeat IPC: 0.5616 cumulative IPC: 0.5132 (Simulation time: 01 hr 00 min 17 sec)
Heartbeat CPU 0 instructions: 164500813 cycles: 264615783 heartbeat IPC: 0.5624 cumulative IPC: 0.5134 (Simulation time: 01 hr 00 min 29 sec)
Heartbeat CPU 0 instructions: 165000816 cycles: 265506929 heartbeat IPC: 0.5611 cumulative IPC: 0.5136 (Simulation time: 01 hr 00 min 41 sec)
Heartbeat CPU 0 instructions: 165500816 cycles: 266327181 heartbeat IPC: 0.6096 cumulative IPC: 0.514 (Simulation time: 01 hr 00 min 53 sec)
Heartbeat CPU 0 instructions: 166000816 cycles: 267105693 heartbeat IPC: 0.6423 cumulative IPC: 0.5144 (Simulation time: 01 hr 01 min 04 sec)
Heartbeat CPU 0 instructions: 166500820 cycles: 267621708 heartbeat IPC: 0.969 cumulative IPC: 0.5154 (Simulation time: 01 hr 01 min 11 sec)
Heartbeat CPU 0 instructions: 167000827 cycles: 268232068 heartbeat IPC: 0.8192 cumulative IPC: 0.5163 (Simulation time: 01 hr 01 min 20 sec)
Heartbeat CPU 0 instructions: 167500833 cycles: 268993274 heartbeat IPC: 0.6569 cumulative IPC: 0.5167 (Simulation time: 01 hr 01 min 30 sec)
Heartbeat CPU 0 instructions: 168000835 cycles: 269787715 heartbeat IPC: 0.6294 cumulative IPC: 0.5171 (Simulation time: 01 hr 01 min 41 sec)
Heartbeat CPU 0 instructions: 168500837 cycles: 270580326 heartbeat IPC: 0.6308 cumulative IPC: 0.5175 (Simulation time: 01 hr 01 min 52 sec)
Heartbeat CPU 0 instructions: 169000844 cycles: 271371170 heartbeat IPC: 0.6322 cumulative IPC: 0.5179 (Simulation time: 01 hr 02 min 03 sec)
Heartbeat CPU 0 instructions: 169500845 cycles: 272171456 heartbeat IPC: 0.6248 cumulative IPC: 0.5183 (Simulation time: 01 hr 02 min 15 sec)
Heartbeat CPU 0 instructions: 170000845 cycles: 273038580 heartbeat IPC: 0.5766 cumulative IPC: 0.5185 (Simulation time: 01 hr 02 min 27 sec)
Heartbeat CPU 0 instructions: 170500852 cycles: 273902814 heartbeat IPC: 0.5786 cumulative IPC: 0.5187 (Simulation time: 01 hr 02 min 39 sec)
Heartbeat CPU 0 instructions: 171000858 cycles: 274720120 heartbeat IPC: 0.6118 cumulative IPC: 0.519 (Simulation time: 01 hr 02 min 51 sec)
Heartbeat CPU 0 instructions: 171500859 cycles: 275513288 heartbeat IPC: 0.6304 cumulative IPC: 0.5194 (Simulation time: 01 hr 03 min 01 sec)
Heartbeat CPU 0 instructions: 172000862 cycles: 275994234 heartbeat IPC: 1.04 cumulative IPC: 0.5205 (Simulation time: 01 hr 03 min 08 sec)
Heartbeat CPU 0 instructions: 172500863 cycles: 276778468 heartbeat IPC: 0.6376 cumulative IPC: 0.5209 (Simulation time: 01 hr 03 min 19 sec)
Heartbeat CPU 0 instructions: 173000866 cycles: 277379338 heartbeat IPC: 0.8321 cumulative IPC: 0.5217 (Simulation time: 01 hr 03 min 27 sec)
Heartbeat CPU 0 instructions: 173500870 cycles: 278158000 heartbeat IPC: 0.6421 cumulative IPC: 0.5221 (Simulation time: 01 hr 03 min 38 sec)
Heartbeat CPU 0 instructions: 174000870 cycles: 278969281 heartbeat IPC: 0.6163 cumulative IPC: 0.5224 (Simulation time: 01 hr 03 min 49 sec)
Heartbeat CPU 0 instructions: 174500871 cycles: 279792894 heartbeat IPC: 0.6071 cumulative IPC: 0.5227 (Simulation time: 01 hr 04 min 00 sec)
Heartbeat CPU 0 instructions: 175000873 cycles: 280582296 heartbeat IPC: 0.6334 cumulative IPC: 0.5231 (Simulation time: 01 hr 04 min 11 sec)
Heartbeat CPU 0 instructions: 175500879 cycles: 281448430 heartbeat IPC: 0.5773 cumulative IPC: 0.5232 (Simulation time: 01 hr 04 min 23 sec)
Heartbeat CPU 0 instructions: 176000879 cycles: 282320934 heartbeat IPC: 0.5731 cumulative IPC: 0.5234 (Simulation time: 01 hr 04 min 35 sec)
Heartbeat CPU 0 instructions: 176500879 cycles: 283192230 heartbeat IPC: 0.5739 cumulative IPC: 0.5236 (Simulation time: 01 hr 04 min 48 sec)
Heartbeat CPU 0 instructions: 177000886 cycles: 283985450 heartbeat IPC: 0.6304 cumulative IPC: 0.524 (Simulation time: 01 hr 04 min 59 sec)
Heartbeat CPU 0 instructions: 177500886 cycles: 284794238 heartbeat IPC: 0.6182 cumulative IPC: 0.5243 (Simulation time: 01 hr 05 min 11 sec)
Heartbeat CPU 0 instructions: 178000886 cycles: 285240952 heartbeat IPC: 1.119 cumulative IPC: 0.5254 (Simulation time: 01 hr 05 min 17 sec)
Heartbeat CPU 0 instructions: 178500887 cycles: 285853428 heartbeat IPC: 0.8164 cumulative IPC: 0.5261 (Simulation time: 01 hr 05 min 25 sec)
Heartbeat CPU 0 instructions: 179000893 cycles: 286625222 heartbeat IPC: 0.6478 cumulative IPC: 0.5265 (Simulation time: 01 hr 05 min 35 sec)
Heartbeat CPU 0 instructions: 179500893 cycles: 287428687 heartbeat IPC: 0.6223 cumulative IPC: 0.5268 (Simulation time: 01 hr 05 min 45 sec)
Heartbeat CPU 0 instructions: 180000893 cycles: 288235871 heartbeat IPC: 0.6194 cumulative IPC: 0.5271 (Simulation time: 01 hr 05 min 56 sec)
Heartbeat CPU 0 instructions: 180500894 cycles: 289031254 heartbeat IPC: 0.6286 cumulative IPC: 0.5274 (Simulation time: 01 hr 06 min 07 sec)
Heartbeat CPU 0 instructions: 181000897 cycles: 289828216 heartbeat IPC: 0.6274 cumulative IPC: 0.5277 (Simulation time: 01 hr 06 min 18 sec)
Heartbeat CPU 0 instructions: 181500899 cycles: 290696712 heartbeat IPC: 0.5757 cumulative IPC: 0.5279 (Simulation time: 01 hr 06 min 31 sec)
Heartbeat CPU 0 instructions: 182000900 cycles: 291561712 heartbeat IPC: 0.578 cumulative IPC: 0.5281 (Simulation time: 01 hr 06 min 44 sec)
Heartbeat CPU 0 instructions: 182500902 cycles: 292384906 heartbeat IPC: 0.6074 cumulative IPC: 0.5283 (Simulation time: 01 hr 06 min 56 sec)
Heartbeat CPU 0 instructions: 183000904 cycles: 293186485 heartbeat IPC: 0.6238 cumulative IPC: 0.5286 (Simulation time: 01 hr 07 min 07 sec)
Heartbeat CPU 0 instructions: 183500905 cycles: 293731267 heartbeat IPC: 0.9178 cumulative IPC: 0.5295 (Simulation time: 01 hr 07 min 15 sec)
Heartbeat CPU 0 instructions: 184000912 cycles: 294454941 heartbeat IPC: 0.6909 cumulative IPC: 0.53 (Simulation time: 01 hr 07 min 25 sec)
Heartbeat CPU 0 instructions: 184500914 cycles: 295038385 heartbeat IPC: 0.857 cumulative IPC: 0.5307 (Simulation time: 01 hr 07 min 33 sec)
Heartbeat CPU 0 instructions: 185000921 cycles: 295810960 heartbeat IPC: 0.6472 cumulative IPC: 0.5311 (Simulation time: 01 hr 07 min 44 sec)
Heartbeat CPU 0 instructions: 185500921 cycles: 296613011 heartbeat IPC: 0.6234 cumulative IPC: 0.5313 (Simulation time: 01 hr 07 min 55 sec)
Heartbeat CPU 0 instructions: 186000921 cycles: 297412355 heartbeat IPC: 0.6255 cumulative IPC: 0.5316 (Simulation time: 01 hr 08 min 06 sec)
Heartbeat CPU 0 instructions: 186500922 cycles: 298182715 heartbeat IPC: 0.649 cumulative IPC: 0.532 (Simulation time: 01 hr 08 min 17 sec)
Heartbeat CPU 0 instructions: 187000923 cycles: 299034916 heartbeat IPC: 0.5867 cumulative IPC: 0.5322 (Simulation time: 01 hr 08 min 30 sec)
Heartbeat CPU 0 instructions: 187500923 cycles: 299895645 heartbeat IPC: 0.5809 cumulative IPC: 0.5323 (Simulation time: 01 hr 08 min 44 sec)
Heartbeat CPU 0 instructions: 188000928 cycles: 300758961 heartbeat IPC: 0.5792 cumulative IPC: 0.5325 (Simulation time: 01 hr 08 min 57 sec)
Heartbeat CPU 0 instructions: 188500932 cycles: 301549779 heartbeat IPC: 0.6323 cumulative IPC: 0.5328 (Simulation time: 01 hr 09 min 09 sec)
Heartbeat CPU 0 instructions: 189000932 cycles: 302350139 heartbeat IPC: 0.6247 cumulative IPC: 0.5331 (Simulation time: 01 hr 09 min 21 sec)
Heartbeat CPU 0 instructions: 189500935 cycles: 302798278 heartbeat IPC: 1.116 cumulative IPC: 0.5341 (Simulation time: 01 hr 09 min 28 sec)
Heartbeat CPU 0 instructions: 190000935 cycles: 303416617 heartbeat IPC: 0.8086 cumulative IPC: 0.5347 (Simulation time: 01 hr 09 min 36 sec)
Heartbeat CPU 0 instructions: 190500936 cycles: 304205224 heartbeat IPC: 0.634 cumulative IPC: 0.535 (Simulation time: 01 hr 09 min 47 sec)
Heartbeat CPU 0 instructions: 191000936 cycles: 305030137 heartbeat IPC: 0.6061 cumulative IPC: 0.5352 (Simulation time: 01 hr 09 min 59 sec)
Heartbeat CPU 0 instructions: 191500943 cycles: 305858775 heartbeat IPC: 0.6034 cumulative IPC: 0.5355 (Simulation time: 01 hr 10 min 11 sec)
Heartbeat CPU 0 instructions: 192000945 cycles: 306685801 heartbeat IPC: 0.6046 cumulative IPC: 0.5357 (Simulation time: 01 hr 10 min 23 sec)
Heartbeat CPU 0 instructions: 192500945 cycles: 307489930 heartbeat IPC: 0.6218 cumulative IPC: 0.5359 (Simulation time: 01 hr 10 min 36 sec)
Heartbeat CPU 0 instructions: 193000945 cycles: 308386063 heartbeat IPC: 0.558 cumulative IPC: 0.536 (Simulation time: 01 hr 10 min 49 sec)
Heartbeat CPU 0 instructions: 193500948 cycles: 309276948 heartbeat IPC: 0.5612 cumulative IPC: 0.5361 (Simulation time: 01 hr 11 min 02 sec)
Heartbeat CPU 0 instructions: 194000951 cycles: 310134090 heartbeat IPC: 0.5833 cumulative IPC: 0.5362 (Simulation time: 01 hr 11 min 15 sec)
Heartbeat CPU 0 instructions: 194500951 cycles: 310962712 heartbeat IPC: 0.6034 cumulative IPC: 0.5365 (Simulation time: 01 hr 11 min 27 sec)
Heartbeat CPU 0 instructions: 195000951 cycles: 311594583 heartbeat IPC: 0.7913 cumulative IPC: 0.537 (Simulation time: 01 hr 11 min 36 sec)
Heartbeat CPU 0 instructions: 195500952 cycles: 312252171 heartbeat IPC: 0.7604 cumulative IPC: 0.5376 (Simulation time: 01 hr 11 min 46 sec)
Heartbeat CPU 0 instructions: 196000953 cycles: 312845125 heartbeat IPC: 0.8432 cumulative IPC: 0.5383 (Simulation time: 01 hr 11 min 54 sec)
Heartbeat CPU 0 instructions: 196500956 cycles: 313637984 heartbeat IPC: 0.6306 cumulative IPC: 0.5385 (Simulation time: 01 hr 12 min 05 sec)
Heartbeat CPU 0 instructions: 197000958 cycles: 314468075 heartbeat IPC: 0.6023 cumulative IPC: 0.5387 (Simulation time: 01 hr 12 min 16 sec)
Heartbeat CPU 0 instructions: 197500958 cycles: 315291758 heartbeat IPC: 0.607 cumulative IPC: 0.5389 (Simulation time: 01 hr 12 min 28 sec)
Heartbeat CPU 0 instructions: 198000960 cycles: 316117688 heartbeat IPC: 0.6054 cumulative IPC: 0.5391 (Simulation time: 01 hr 12 min 41 sec)
Heartbeat CPU 0 instructions: 198500961 cycles: 316958693 heartbeat IPC: 0.5945 cumulative IPC: 0.5393 (Simulation time: 01 hr 12 min 54 sec)
Heartbeat CPU 0 instructions: 199000963 cycles: 317848765 heartbeat IPC: 0.5618 cumulative IPC: 0.5394 (Simulation time: 01 hr 13 min 07 sec)
Heartbeat CPU 0 instructions: 199500966 cycles: 318742676 heartbeat IPC: 0.5593 cumulative IPC: 0.5394 (Simulation time: 01 hr 13 min 20 sec)
Heartbeat CPU 0 instructions: 200000970 cycles: 319566258 heartbeat IPC: 0.6071 cumulative IPC: 0.5396 (Simulation time: 01 hr 13 min 33 sec)
Heartbeat CPU 0 instructions: 200500970 cycles: 320391797 heartbeat IPC: 0.6057 cumulative IPC: 0.5398 (Simulation time: 01 hr 13 min 46 sec)
Heartbeat CPU 0 instructions: 201000971 cycles: 320849292 heartbeat IPC: 1.093 cumulative IPC: 0.5407 (Simulation time: 01 hr 13 min 53 sec)
Heartbeat CPU 0 instructions: 201500973 cycles: 321530908 heartbeat IPC: 0.7336 cumulative IPC: 0.5412 (Simulation time: 01 hr 14 min 02 sec)
Heartbeat CPU 0 instructions: 202000977 cycles: 322263371 heartbeat IPC: 0.6826 cumulative IPC: 0.5416 (Simulation time: 01 hr 14 min 12 sec)
Heartbeat CPU 0 instructions: 202500983 cycles: 323040995 heartbeat IPC: 0.643 cumulative IPC: 0.5419 (Simulation time: 01 hr 14 min 23 sec)
Heartbeat CPU 0 instructions: 203000983 cycles: 323846352 heartbeat IPC: 0.6208 cumulative IPC: 0.5421 (Simulation time: 01 hr 14 min 34 sec)
Heartbeat CPU 0 instructions: 203500983 cycles: 324651459 heartbeat IPC: 0.621 cumulative IPC: 0.5423 (Simulation time: 01 hr 14 min 45 sec)
Heartbeat CPU 0 instructions: 204000985 cycles: 325433891 heartbeat IPC: 0.639 cumulative IPC: 0.5426 (Simulation time: 01 hr 14 min 56 sec)
Heartbeat CPU 0 instructions: 204500991 cycles: 326303559 heartbeat IPC: 0.5749 cumulative IPC: 0.5427 (Simulation time: 01 hr 15 min 09 sec)
Heartbeat CPU 0 instructions: 205000994 cycles: 327172305 heartbeat IPC: 0.5755 cumulative IPC: 0.5428 (Simulation time: 01 hr 15 min 21 sec)
Heartbeat CPU 0 instructions: 205500999 cycles: 328012146 heartbeat IPC: 0.5954 cumulative IPC: 0.5429 (Simulation time: 01 hr 15 min 33 sec)
Heartbeat CPU 0 instructions: 206000999 cycles: 328811108 heartbeat IPC: 0.6258 cumulative IPC: 0.5432 (Simulation time: 01 hr 15 min 44 sec)
Heartbeat CPU 0 instructions: 206501000 cycles: 329479388 heartbeat IPC: 0.7482 cumulative IPC: 0.5436 (Simulation time: 01 hr 15 min 54 sec)
Heartbeat CPU 0 instructions: 207001003 cycles: 330073876 heartbeat IPC: 0.8411 cumulative IPC: 0.5442 (Simulation time: 01 hr 16 min 02 sec)
Heartbeat CPU 0 instructions: 207501005 cycles: 330667544 heartbeat IPC: 0.8422 cumulative IPC: 0.5449 (Simulation time: 01 hr 16 min 11 sec)
Heartbeat CPU 0 instructions: 208001008 cycles: 331440743 heartbeat IPC: 0.6467 cumulative IPC: 0.5451 (Simulation time: 01 hr 16 min 21 sec)
Heartbeat CPU 0 instructions: 208501009 cycles: 332245614 heartbeat IPC: 0.6212 cumulative IPC: 0.5453 (Simulation time: 01 hr 16 min 33 sec)
Heartbeat CPU 0 instructions: 209001009 cycles: 333044359 heartbeat IPC: 0.626 cumulative IPC: 0.5456 (Simulation time: 01 hr 16 min 44 sec)
Heartbeat CPU 0 instructions: 209501009 cycles: 333840520 heartbeat IPC: 0.628 cumulative IPC: 0.5458 (Simulation time: 01 hr 16 min 55 sec)
Heartbeat CPU 0 instructions: 210001012 cycles: 334649013 heartbeat IPC: 0.6184 cumulative IPC: 0.546 (Simulation time: 01 hr 17 min 06 sec)
Heartbeat CPU 0 instructions: 210501017 cycles: 335512555 heartbeat IPC: 0.579 cumulative IPC: 0.5461 (Simulation time: 01 hr 17 min 19 sec)
Heartbeat CPU 0 instructions: 211001018 cycles: 336376986 heartbeat IPC: 0.5784 cumulative IPC: 0.5462 (Simulation time: 01 hr 17 min 31 sec)
Heartbeat CPU 0 instructions: 211501019 cycles: 337185038 heartbeat IPC: 0.6188 cumulative IPC: 0.5464 (Simulation time: 01 hr 17 min 44 sec)
Heartbeat CPU 0 instructions: 212001021 cycles: 337982479 heartbeat IPC: 0.627 cumulative IPC: 0.5466 (Simulation time: 01 hr 17 min 56 sec)
Heartbeat CPU 0 instructions: 212501026 cycles: 338428455 heartbeat IPC: 1.121 cumulative IPC: 0.5475 (Simulation time: 01 hr 18 min 03 sec)
Heartbeat CPU 0 instructions: 213001033 cycles: 339175348 heartbeat IPC: 0.6694 cumulative IPC: 0.5478 (Simulation time: 01 hr 18 min 13 sec)
Heartbeat CPU 0 instructions: 213501035 cycles: 339832395 heartbeat IPC: 0.761 cumulative IPC: 0.5482 (Simulation time: 01 hr 18 min 22 sec)
Heartbeat CPU 0 instructions: 214001035 cycles: 340607152 heartbeat IPC: 0.6454 cumulative IPC: 0.5485 (Simulation time: 01 hr 18 min 32 sec)
Heartbeat CPU 0 instructions: 214501042 cycles: 341416721 heartbeat IPC: 0.6176 cumulative IPC: 0.5487 (Simulation time: 01 hr 18 min 44 sec)
Heartbeat CPU 0 instructions: 215001042 cycles: 342241424 heartbeat IPC: 0.6063 cumulative IPC: 0.5488 (Simulation time: 01 hr 18 min 56 sec)
Heartbeat CPU 0 instructions: 215501043 cycles: 343034606 heartbeat IPC: 0.6304 cumulative IPC: 0.549 (Simulation time: 01 hr 19 min 08 sec)
Heartbeat CPU 0 instructions: 216001047 cycles: 343901473 heartbeat IPC: 0.5768 cumulative IPC: 0.5491 (Simulation time: 01 hr 19 min 21 sec)
Heartbeat CPU 0 instructions: 216501048 cycles: 344765859 heartbeat IPC: 0.5784 cumulative IPC: 0.5492 (Simulation time: 01 hr 19 min 34 sec)
Heartbeat CPU 0 instructions: 217001050 cycles: 345629328 heartbeat IPC: 0.5791 cumulative IPC: 0.5493 (Simulation time: 01 hr 19 min 47 sec)
Heartbeat CPU 0 instructions: 217501052 cycles: 346401630 heartbeat IPC: 0.6474 cumulative IPC: 0.5495 (Simulation time: 01 hr 19 min 58 sec)
Heartbeat CPU 0 instructions: 218001052 cycles: 347129604 heartbeat IPC: 0.6868 cumulative IPC: 0.5499 (Simulation time: 01 hr 20 min 08 sec)
Heartbeat CPU 0 instructions: 218501059 cycles: 347659974 heartbeat IPC: 0.9428 cumulative IPC: 0.5505 (Simulation time: 01 hr 20 min 16 sec)
Heartbeat CPU 0 instructions: 219001063 cycles: 348256188 heartbeat IPC: 0.8386 cumulative IPC: 0.5511 (Simulation time: 01 hr 20 min 24 sec)
Heartbeat CPU 0 instructions: 219501068 cycles: 349031668 heartbeat IPC: 0.6448 cumulative IPC: 0.5513 (Simulation time: 01 hr 20 min 35 sec)
Heartbeat CPU 0 instructions: 220001069 cycles: 349840453 heartbeat IPC: 0.6182 cumulative IPC: 0.5515 (Simulation time: 01 hr 20 min 46 sec)
Heartbeat CPU 0 instructions: 220501071 cycles: 350649187 heartbeat IPC: 0.6183 cumulative IPC: 0.5517 (Simulation time: 01 hr 20 min 57 sec)
Heartbeat CPU 0 instructions: 221001073 cycles: 351451911 heartbeat IPC: 0.6229 cumulative IPC: 0.5519 (Simulation time: 01 hr 21 min 07 sec)
Heartbeat CPU 0 instructions: 221501075 cycles: 352246047 heartbeat IPC: 0.6296 cumulative IPC: 0.5521 (Simulation time: 01 hr 21 min 19 sec)
Heartbeat CPU 0 instructions: 222001075 cycles: 353089056 heartbeat IPC: 0.5931 cumulative IPC: 0.5522 (Simulation time: 01 hr 21 min 31 sec)
Heartbeat CPU 0 instructions: 222501078 cycles: 353928991 heartbeat IPC: 0.5953 cumulative IPC: 0.5523 (Simulation time: 01 hr 21 min 43 sec)
Heartbeat CPU 0 instructions: 223001084 cycles: 354721410 heartbeat IPC: 0.631 cumulative IPC: 0.5525 (Simulation time: 01 hr 21 min 54 sec)
Heartbeat CPU 0 instructions: 223501089 cycles: 355497454 heartbeat IPC: 0.6443 cumulative IPC: 0.5527 (Simulation time: 01 hr 22 min 06 sec)
Heartbeat CPU 0 instructions: 224001091 cycles: 355946998 heartbeat IPC: 1.112 cumulative IPC: 0.5535 (Simulation time: 01 hr 22 min 12 sec)
Heartbeat CPU 0 instructions: 224501092 cycles: 356717236 heartbeat IPC: 0.6492 cumulative IPC: 0.5538 (Simulation time: 01 hr 22 min 23 sec)
Heartbeat CPU 0 instructions: 225001094 cycles: 357328194 heartbeat IPC: 0.8184 cumulative IPC: 0.5543 (Simulation time: 01 hr 22 min 31 sec)
Heartbeat CPU 0 instructions: 225501094 cycles: 358111485 heartbeat IPC: 0.6383 cumulative IPC: 0.5545 (Simulation time: 01 hr 22 min 42 sec)
Heartbeat CPU 0 instructions: 226001094 cycles: 358928573 heartbeat IPC: 0.6119 cumulative IPC: 0.5546 (Simulation time: 01 hr 22 min 53 sec)
Heartbeat CPU 0 instructions: 226501097 cycles: 359741512 heartbeat IPC: 0.6151 cumulative IPC: 0.5548 (Simulation time: 01 hr 23 min 04 sec)
Heartbeat CPU 0 instructions: 227001103 cycles: 360515270 heartbeat IPC: 0.6462 cumulative IPC: 0.555 (Simulation time: 01 hr 23 min 15 sec)
Heartbeat CPU 0 instructions: 227501103 cycles: 361354704 heartbeat IPC: 0.5956 cumulative IPC: 0.5551 (Simulation time: 01 hr 23 min 27 sec)
Heartbeat CPU 0 instructions: 228001104 cycles: 362191544 heartbeat IPC: 0.5975 cumulative IPC: 0.5552 (Simulation time: 01 hr 23 min 39 sec)
Heartbeat CPU 0 instructions: 228501108 cycles: 363031234 heartbeat IPC: 0.5955 cumulative IPC: 0.5553 (Simulation time: 01 hr 23 min 52 sec)
Heartbeat CPU 0 instructions: 229001114 cycles: 363795318 heartbeat IPC: 0.6544 cumulative IPC: 0.5556 (Simulation time: 01 hr 24 min 03 sec)
Heartbeat CPU 0 instructions: 229501116 cycles: 364562160 heartbeat IPC: 0.652 cumulative IPC: 0.5558 (Simulation time: 01 hr 24 min 14 sec)
Heartbeat CPU 0 instructions: 230001118 cycles: 365025674 heartbeat IPC: 1.079 cumulative IPC: 0.5565 (Simulation time: 01 hr 24 min 21 sec)
Heartbeat CPU 0 instructions: 230501119 cycles: 365618598 heartbeat IPC: 0.8433 cumulative IPC: 0.5571 (Simulation time: 01 hr 24 min 29 sec)
Heartbeat CPU 0 instructions: 231001121 cycles: 366392519 heartbeat IPC: 0.6461 cumulative IPC: 0.5573 (Simulation time: 01 hr 24 min 40 sec)
Heartbeat CPU 0 instructions: 231501121 cycles: 367202601 heartbeat IPC: 0.6172 cumulative IPC: 0.5574 (Simulation time: 01 hr 24 min 51 sec)
Heartbeat CPU 0 instructions: 232001121 cycles: 368014620 heartbeat IPC: 0.6157 cumulative IPC: 0.5576 (Simulation time: 01 hr 25 min 02 sec)
Heartbeat CPU 0 instructions: 232501122 cycles: 368821947 heartbeat IPC: 0.6193 cumulative IPC: 0.5577 (Simulation time: 01 hr 25 min 13 sec)
Heartbeat CPU 0 instructions: 233001129 cycles: 369607989 heartbeat IPC: 0.6361 cumulative IPC: 0.5579 (Simulation time: 01 hr 25 min 25 sec)
Heartbeat CPU 0 instructions: 233501131 cycles: 370448395 heartbeat IPC: 0.595 cumulative IPC: 0.558 (Simulation time: 01 hr 25 min 39 sec)
Heartbeat CPU 0 instructions: 234001136 cycles: 371284910 heartbeat IPC: 0.5977 cumulative IPC: 0.5581 (Simulation time: 01 hr 25 min 52 sec)
Heartbeat CPU 0 instructions: 234501138 cycles: 372092833 heartbeat IPC: 0.6189 cumulative IPC: 0.5583 (Simulation time: 01 hr 26 min 05 sec)
Heartbeat CPU 0 instructions: 235001140 cycles: 372900111 heartbeat IPC: 0.6194 cumulative IPC: 0.5584 (Simulation time: 01 hr 26 min 17 sec)
Heartbeat CPU 0 instructions: 235501145 cycles: 373424203 heartbeat IPC: 0.954 cumulative IPC: 0.559 (Simulation time: 01 hr 26 min 26 sec)
Heartbeat CPU 0 instructions: 236001146 cycles: 374164993 heartbeat IPC: 0.675 cumulative IPC: 0.5593 (Simulation time: 01 hr 26 min 36 sec)
Heartbeat CPU 0 instructions: 236501148 cycles: 374754367 heartbeat IPC: 0.8484 cumulative IPC: 0.5598 (Simulation time: 01 hr 26 min 44 sec)
Heartbeat CPU 0 instructions: 237001149 cycles: 375556236 heartbeat IPC: 0.6235 cumulative IPC: 0.56 (Simulation time: 01 hr 26 min 55 sec)
Heartbeat CPU 0 instructions: 237501149 cycles: 376394250 heartbeat IPC: 0.5966 cumulative IPC: 0.56 (Simulation time: 01 hr 27 min 06 sec)
Heartbeat CPU 0 instructions: 238001155 cycles: 377219061 heartbeat IPC: 0.6062 cumulative IPC: 0.5602 (Simulation time: 01 hr 27 min 17 sec)
Heartbeat CPU 0 instructions: 238501157 cycles: 377992643 heartbeat IPC: 0.6463 cumulative IPC: 0.5604 (Simulation time: 01 hr 27 min 28 sec)
Heartbeat CPU 0 instructions: 239001157 cycles: 378858919 heartbeat IPC: 0.5772 cumulative IPC: 0.5604 (Simulation time: 01 hr 27 min 40 sec)
Heartbeat CPU 0 instructions: 239501164 cycles: 379730030 heartbeat IPC: 0.574 cumulative IPC: 0.5604 (Simulation time: 01 hr 27 min 54 sec)
Heartbeat CPU 0 instructions: 240001164 cycles: 380598886 heartbeat IPC: 0.5755 cumulative IPC: 0.5605 (Simulation time: 01 hr 28 min 07 sec)
Heartbeat CPU 0 instructions: 240501168 cycles: 381393455 heartbeat IPC: 0.6293 cumulative IPC: 0.5606 (Simulation time: 01 hr 28 min 19 sec)
Heartbeat CPU 0 instructions: 241001175 cycles: 382205183 heartbeat IPC: 0.616 cumulative IPC: 0.5608 (Simulation time: 01 hr 28 min 31 sec)
Heartbeat CPU 0 instructions: 241501176 cycles: 382647670 heartbeat IPC: 1.13 cumulative IPC: 0.5615 (Simulation time: 01 hr 28 min 37 sec)
Heartbeat CPU 0 instructions: 242001177 cycles: 383246895 heartbeat IPC: 0.8344 cumulative IPC: 0.562 (Simulation time: 01 hr 28 min 45 sec)
Heartbeat CPU 0 instructions: 242501177 cycles: 383998178 heartbeat IPC: 0.6655 cumulative IPC: 0.5622 (Simulation time: 01 hr 28 min 56 sec)
Heartbeat CPU 0 instructions: 243001182 cycles: 384799537 heartbeat IPC: 0.6239 cumulative IPC: 0.5624 (Simulation time: 01 hr 29 min 07 sec)
Heartbeat CPU 0 instructions: 243501182 cycles: 385611189 heartbeat IPC: 0.616 cumulative IPC: 0.5625 (Simulation time: 01 hr 29 min 18 sec)
Heartbeat CPU 0 instructions: 244001184 cycles: 386420699 heartbeat IPC: 0.6177 cumulative IPC: 0.5626 (Simulation time: 01 hr 29 min 29 sec)
Heartbeat CPU 0 instructions: 244501184 cycles: 387216815 heartbeat IPC: 0.628 cumulative IPC: 0.5628 (Simulation time: 01 hr 29 min 41 sec)
Heartbeat CPU 0 instructions: 245001190 cycles: 388079772 heartbeat IPC: 0.5794 cumulative IPC: 0.5628 (Simulation time: 01 hr 29 min 54 sec)
Heartbeat CPU 0 instructions: 245501191 cycles: 388946451 heartbeat IPC: 0.5769 cumulative IPC: 0.5628 (Simulation time: 01 hr 30 min 07 sec)
Heartbeat CPU 0 instructions: 246001192 cycles: 389772892 heartbeat IPC: 0.605 cumulative IPC: 0.5629 (Simulation time: 01 hr 30 min 19 sec)
Heartbeat CPU 0 instructions: 246501198 cycles: 390574554 heartbeat IPC: 0.6237 cumulative IPC: 0.5631 (Simulation time: 01 hr 30 min 31 sec)
Heartbeat CPU 0 instructions: 247001201 cycles: 391384100 heartbeat IPC: 0.6176 cumulative IPC: 0.5632 (Simulation time: 01 hr 30 min 42 sec)
Heartbeat CPU 0 instructions: 247501201 cycles: 392192262 heartbeat IPC: 0.6187 cumulative IPC: 0.5633 (Simulation time: 01 hr 30 min 54 sec)
Heartbeat CPU 0 instructions: 248001203 cycles: 393005856 heartbeat IPC: 0.6146 cumulative IPC: 0.5635 (Simulation time: 01 hr 31 min 06 sec)
Heartbeat CPU 0 instructions: 248501210 cycles: 393812322 heartbeat IPC: 0.62 cumulative IPC: 0.5636 (Simulation time: 01 hr 31 min 18 sec)
Heartbeat CPU 0 instructions: 249001210 cycles: 394617701 heartbeat IPC: 0.6208 cumulative IPC: 0.5637 (Simulation time: 01 hr 31 min 30 sec)
Heartbeat CPU 0 instructions: 249501214 cycles: 395427065 heartbeat IPC: 0.6178 cumulative IPC: 0.5638 (Simulation time: 01 hr 31 min 42 sec)
Simulation finished CPU 0 instructions: 200000003 cycles: 354636661 cumulative IPC: 0.564 (Simulation time: 01 hr 31 min 53 sec)
Simulation complete CPU 0 instructions: 200000003 cycles: 354636661 cumulative IPC: 0.564 (Simulation time: 01 hr 31 min 53 sec)

ChampSim completed all CPUs

=== Simulation ===
CPU 0 runs /local-ssd/ben/dpc4-traces/ai-ml/biogpt.cpp-ggml-model-tocilizumab.3.champsimtrace.gz

Region of Interest Statistics

CPU 0 cumulative IPC: 0.564 instructions: 200000003 cycles: 354636661
CPU 0 Branch Prediction Accuracy: 97.81% MPKI: 2.078 Average ROB Occupancy at Mispredict: 370.7
Branch type MPKI
BRANCH_DIRECT_JUMP: 0.00233
BRANCH_INDIRECT: 0.006125
BRANCH_CONDITIONAL: 2.057
BRANCH_DIRECT_CALL: 0.00287
BRANCH_INDIRECT_CALL: 0.00153
BRANCH_RETURN: 0.007845

cpu0->cpu0_STLB TOTAL        ACCESS:     456763 HIT:      29167 MISS:     427596 MSHR_MERGE:          0
cpu0->cpu0_STLB LOAD         ACCESS:     456763 HIT:      29167 MISS:     427596 MSHR_MERGE:          0
cpu0->cpu0_STLB RFO          ACCESS:          0 HIT:          0 MISS:          0 MSHR_MERGE:          0
cpu0->cpu0_STLB PREFETCH     ACCESS:          0 HIT:          0 MISS:          0 MSHR_MERGE:          0
cpu0->cpu0_STLB WRITE        ACCESS:          0 HIT:          0 MISS:          0 MSHR_MERGE:          0
cpu0->cpu0_STLB TRANSLATION  ACCESS:          0 HIT:          0 MISS:          0 MSHR_MERGE:          0
cpu0->cpu0_STLB PREFETCH REQUESTED:          0 ISSUED:          0 USEFUL:          0 USELESS:          0
cpu0->cpu0_STLB AVERAGE MISS LATENCY: 159.6 cycles
cpu0->cpu0_L2C TOTAL        ACCESS:   89451249 HIT:    7455128 MISS:   81996121 MSHR_MERGE:   54600576
cpu0->cpu0_L2C LOAD         ACCESS:   18118018 HIT:    3108706 MISS:   15009312 MSHR_MERGE:   12184470
cpu0->cpu0_L2C RFO          ACCESS:     205705 HIT:      46353 MISS:     159352 MSHR_MERGE:        238
cpu0->cpu0_L2C PREFETCH     ACCESS:   70758325 HIT:    3994571 MISS:   66763754 MSHR_MERGE:   42415868
cpu0->cpu0_L2C WRITE        ACCESS:     312293 HIT:     304564 MISS:       7729 MSHR_MERGE:          0
cpu0->cpu0_L2C TRANSLATION  ACCESS:      56908 HIT:        934 MISS:      55974 MSHR_MERGE:          0
cpu0->cpu0_L2C PREFETCH REQUESTED:   68428075 ISSUED:   59794984 USEFUL:   14128306 USELESS:    5648357
cpu0->cpu0_L2C AVERAGE MISS LATENCY: 141.2 cycles
cpu0->cpu0_L1I TOTAL        ACCESS:   30809654 HIT:   30807801 MISS:       1853 MSHR_MERGE:        226
cpu0->cpu0_L1I LOAD         ACCESS:   30809654 HIT:   30807801 MISS:       1853 MSHR_MERGE:        226
cpu0->cpu0_L1I RFO          ACCESS:          0 HIT:          0 MISS:          0 MSHR_MERGE:          0
cpu0->cpu0_L1I PREFETCH     ACCESS:          0 HIT:          0 MISS:          0 MSHR_MERGE:          0
cpu0->cpu0_L1I WRITE        ACCESS:          0 HIT:          0 MISS:          0 MSHR_MERGE:          0
cpu0->cpu0_L1I TRANSLATION  ACCESS:          0 HIT:          0 MISS:          0 MSHR_MERGE:          0
cpu0->cpu0_L1I PREFETCH REQUESTED:          0 ISSUED:          0 USEFUL:          0 USELESS:          0
cpu0->cpu0_L1I AVERAGE MISS LATENCY: 233.8 cycles
cpu0->cpu0_L1D TOTAL        ACCESS:  104231278 HIT:   51842083 MISS:   52389195 MSHR_MERGE:   23046796
cpu0->cpu0_L1D LOAD         ACCESS:   61769212 HIT:   31860301 MISS:   29908911 MSHR_MERGE:   11792519
cpu0->cpu0_L1D RFO          ACCESS:          0 HIT:          0 MISS:          0 MSHR_MERGE:          0
cpu0->cpu0_L1D PREFETCH     ACCESS:   36321140 HIT:   16828538 MISS:   19492602 MSHR_MERGE:    8529248
cpu0->cpu0_L1D WRITE        ACCESS:    5287198 HIT:    2357826 MISS:    2929372 MSHR_MERGE:    2723627
cpu0->cpu0_L1D TRANSLATION  ACCESS:     853728 HIT:     795418 MISS:      58310 MSHR_MERGE:       1402
cpu0->cpu0_L1D PREFETCH REQUESTED:  309519659 ISSUED:   36321139 USEFUL:   10563969 USELESS:     399376
cpu0->cpu0_L1D AVERAGE MISS LATENCY: 134.9 cycles
cpu0->cpu0_ITLB TOTAL        ACCESS:   20548724 HIT:   20548438 MISS:        286 MSHR_MERGE:         97
cpu0->cpu0_ITLB LOAD         ACCESS:   20548724 HIT:   20548438 MISS:        286 MSHR_MERGE:         97
cpu0->cpu0_ITLB RFO          ACCESS:          0 HIT:          0 MISS:          0 MSHR_MERGE:          0
cpu0->cpu0_ITLB PREFETCH     ACCESS:          0 HIT:          0 MISS:          0 MSHR_MERGE:          0
cpu0->cpu0_ITLB WRITE        ACCESS:          0 HIT:          0 MISS:          0 MSHR_MERGE:          0
cpu0->cpu0_ITLB TRANSLATION  ACCESS:          0 HIT:          0 MISS:          0 MSHR_MERGE:          0
cpu0->cpu0_ITLB PREFETCH REQUESTED:          0 ISSUED:          0 USEFUL:          0 USELESS:          0
cpu0->cpu0_ITLB AVERAGE MISS LATENCY: 221.1 cycles
cpu0->cpu0_DTLB TOTAL        ACCESS:   92681636 HIT:   88211127 MISS:    4470509 MSHR_MERGE:    4013935
cpu0->cpu0_DTLB LOAD         ACCESS:   92681636 HIT:   88211127 MISS:    4470509 MSHR_MERGE:    4013935
cpu0->cpu0_DTLB RFO          ACCESS:          0 HIT:          0 MISS:          0 MSHR_MERGE:          0
cpu0->cpu0_DTLB PREFETCH     ACCESS:          0 HIT:          0 MISS:          0 MSHR_MERGE:          0
cpu0->cpu0_DTLB WRITE        ACCESS:          0 HIT:          0 MISS:          0 MSHR_MERGE:          0
cpu0->cpu0_DTLB TRANSLATION  ACCESS:          0 HIT:          0 MISS:          0 MSHR_MERGE:          0
cpu0->cpu0_DTLB PREFETCH REQUESTED:          0 ISSUED:          0 USEFUL:          0 USELESS:          0
cpu0->cpu0_DTLB AVERAGE MISS LATENCY: 155.3 cycles
cpu0->LLC TOTAL        ACCESS:   34530117 HIT:     839965 MISS:   33690152 MSHR_MERGE:    6494231
cpu0->LLC LOAD         ACCESS:    2824842 HIT:     133582 MISS:    2691260 MSHR_MERGE:     473501
cpu0->LLC RFO          ACCESS:     159114 HIT:      91881 MISS:      67233 MSHR_MERGE:         52
cpu0->LLC PREFETCH     ACCESS:   31295735 HIT:     477069 MISS:   30818666 MSHR_MERGE:    6020678
cpu0->LLC WRITE        ACCESS:     194452 HIT:     137323 MISS:      57129 MSHR_MERGE:          0
cpu0->LLC TRANSLATION  ACCESS:      55974 HIT:        110 MISS:      55864 MSHR_MERGE:          0
cpu0->LLC PREFETCH REQUESTED:    7019852 ISSUED:    6947856 USEFUL:     770131 USELESS:    2030578
cpu0->LLC AVERAGE MISS LATENCY: 214.4 cycles

DRAM Statistics

Channel 0 RQ ROW_BUFFER_HIT:   12774239
  ROW_BUFFER_MISS:   14363844
  AVG DBUS CONGESTED CYCLE: 4.204
Channel 0 WQ ROW_BUFFER_HIT:       3372
  ROW_BUFFER_MISS:      74307
  FULL:         47
Channel 0 REFRESHES ISSUED:      29551
