[VMEM] WARNING: physical memory size is smaller than virtual memory size.

*** ChampSim Multicore Out-of-Order Simulator ***
Warmup Instructions: 50000000
Simulation Instructions: 200000000
Number of CPUs: 1
Page size: 4096
Core 0: /local-ssd/ben/dpc4-traces/ai-ml/biogpt.cpp-ggml-model-tocilizumab.2.champsimtrace.gz
Off-chip DRAM Size: 64 GiB Channels: 1 Width: 64-bit Data Rate: 4807 MT/s
Heartbeat CPU 0 instructions: 500005 cycles: 515084 heartbeat IPC: 0.9707 cumulative IPC: 0.9707 (Simulation time: 00 hr 00 min 08 sec)
Heartbeat CPU 0 instructions: 1000009 cycles: 1025309 heartbeat IPC: 0.98 cumulative IPC: 0.9753 (Simulation time: 00 hr 00 min 16 sec)
Heartbeat CPU 0 instructions: 1500011 cycles: 1540600 heartbeat IPC: 0.9703 cumulative IPC: 0.9737 (Simulation time: 00 hr 00 min 25 sec)
Heartbeat CPU 0 instructions: 2000012 cycles: 1962904 heartbeat IPC: 1.184 cumulative IPC: 1.019 (Simulation time: 00 hr 00 min 33 sec)
Heartbeat CPU 0 instructions: 2500013 cycles: 2364705 heartbeat IPC: 1.244 cumulative IPC: 1.057 (Simulation time: 00 hr 00 min 41 sec)
Heartbeat CPU 0 instructions: 3000017 cycles: 2668220 heartbeat IPC: 1.647 cumulative IPC: 1.124 (Simulation time: 00 hr 00 min 46 sec)
Heartbeat CPU 0 instructions: 3500018 cycles: 2966992 heartbeat IPC: 1.674 cumulative IPC: 1.18 (Simulation time: 00 hr 00 min 52 sec)
Heartbeat CPU 0 instructions: 4000020 cycles: 3379147 heartbeat IPC: 1.213 cumulative IPC: 1.184 (Simulation time: 00 hr 00 min 59 sec)
Heartbeat CPU 0 instructions: 4500021 cycles: 3802985 heartbeat IPC: 1.18 cumulative IPC: 1.183 (Simulation time: 00 hr 01 min 07 sec)
Heartbeat CPU 0 instructions: 5000025 cycles: 4228512 heartbeat IPC: 1.175 cumulative IPC: 1.182 (Simulation time: 00 hr 01 min 15 sec)
Heartbeat CPU 0 instructions: 5500029 cycles: 4654413 heartbeat IPC: 1.174 cumulative IPC: 1.182 (Simulation time: 00 hr 01 min 23 sec)
Heartbeat CPU 0 instructions: 6000029 cycles: 5114789 heartbeat IPC: 1.086 cumulative IPC: 1.173 (Simulation time: 00 hr 01 min 32 sec)
Heartbeat CPU 0 instructions: 6500030 cycles: 5631364 heartbeat IPC: 0.9679 cumulative IPC: 1.154 (Simulation time: 00 hr 01 min 42 sec)
Heartbeat CPU 0 instructions: 7000030 cycles: 6146031 heartbeat IPC: 0.9715 cumulative IPC: 1.139 (Simulation time: 00 hr 01 min 51 sec)
Heartbeat CPU 0 instructions: 7500032 cycles: 6607753 heartbeat IPC: 1.083 cumulative IPC: 1.135 (Simulation time: 00 hr 02 min 00 sec)
Heartbeat CPU 0 instructions: 8000037 cycles: 7031785 heartbeat IPC: 1.179 cumulative IPC: 1.138 (Simulation time: 00 hr 02 min 08 sec)
Heartbeat CPU 0 instructions: 8500044 cycles: 7280188 heartbeat IPC: 2.013 cumulative IPC: 1.168 (Simulation time: 00 hr 02 min 13 sec)
Heartbeat CPU 0 instructions: 9000045 cycles: 7659598 heartbeat IPC: 1.318 cumulative IPC: 1.175 (Simulation time: 00 hr 02 min 20 sec)
Heartbeat CPU 0 instructions: 9500052 cycles: 7999987 heartbeat IPC: 1.469 cumulative IPC: 1.188 (Simulation time: 00 hr 02 min 27 sec)
Heartbeat CPU 0 instructions: 10000054 cycles: 8411101 heartbeat IPC: 1.216 cumulative IPC: 1.189 (Simulation time: 00 hr 02 min 34 sec)
Heartbeat CPU 0 instructions: 10500061 cycles: 8836248 heartbeat IPC: 1.176 cumulative IPC: 1.188 (Simulation time: 00 hr 02 min 42 sec)
Heartbeat CPU 0 instructions: 11000061 cycles: 9261654 heartbeat IPC: 1.175 cumulative IPC: 1.188 (Simulation time: 00 hr 02 min 51 sec)
Heartbeat CPU 0 instructions: 11500068 cycles: 9678543 heartbeat IPC: 1.199 cumulative IPC: 1.188 (Simulation time: 00 hr 02 min 59 sec)
Heartbeat CPU 0 instructions: 12000068 cycles: 10196077 heartbeat IPC: 0.9661 cumulative IPC: 1.177 (Simulation time: 00 hr 03 min 08 sec)
Heartbeat CPU 0 instructions: 12500074 cycles: 10712719 heartbeat IPC: 0.9678 cumulative IPC: 1.167 (Simulation time: 00 hr 03 min 18 sec)
Heartbeat CPU 0 instructions: 13000081 cycles: 11227425 heartbeat IPC: 0.9714 cumulative IPC: 1.158 (Simulation time: 00 hr 03 min 27 sec)
Heartbeat CPU 0 instructions: 13500085 cycles: 11643383 heartbeat IPC: 1.202 cumulative IPC: 1.159 (Simulation time: 00 hr 03 min 35 sec)
Heartbeat CPU 0 instructions: 14000085 cycles: 12035753 heartbeat IPC: 1.274 cumulative IPC: 1.163 (Simulation time: 00 hr 03 min 43 sec)
Heartbeat CPU 0 instructions: 14500088 cycles: 12315805 heartbeat IPC: 1.785 cumulative IPC: 1.177 (Simulation time: 00 hr 03 min 48 sec)
Heartbeat CPU 0 instructions: 15000088 cycles: 12613852 heartbeat IPC: 1.678 cumulative IPC: 1.189 (Simulation time: 00 hr 03 min 54 sec)
Heartbeat CPU 0 instructions: 15500092 cycles: 13025475 heartbeat IPC: 1.215 cumulative IPC: 1.19 (Simulation time: 00 hr 04 min 02 sec)
Heartbeat CPU 0 instructions: 16000092 cycles: 13451603 heartbeat IPC: 1.173 cumulative IPC: 1.189 (Simulation time: 00 hr 04 min 10 sec)
Heartbeat CPU 0 instructions: 16500092 cycles: 13876677 heartbeat IPC: 1.176 cumulative IPC: 1.189 (Simulation time: 00 hr 04 min 18 sec)
Heartbeat CPU 0 instructions: 17000097 cycles: 14301344 heartbeat IPC: 1.177 cumulative IPC: 1.189 (Simulation time: 00 hr 04 min 26 sec)
Heartbeat CPU 0 instructions: 17500101 cycles: 14764347 heartbeat IPC: 1.08 cumulative IPC: 1.185 (Simulation time: 00 hr 04 min 35 sec)
Heartbeat CPU 0 instructions: 18000101 cycles: 15276129 heartbeat IPC: 0.977 cumulative IPC: 1.178 (Simulation time: 00 hr 04 min 45 sec)
Heartbeat CPU 0 instructions: 18500101 cycles: 15786848 heartbeat IPC: 0.979 cumulative IPC: 1.172 (Simulation time: 00 hr 04 min 55 sec)
Heartbeat CPU 0 instructions: 19000107 cycles: 16249158 heartbeat IPC: 1.082 cumulative IPC: 1.169 (Simulation time: 00 hr 05 min 03 sec)
Heartbeat CPU 0 instructions: 19500111 cycles: 16672498 heartbeat IPC: 1.181 cumulative IPC: 1.17 (Simulation time: 00 hr 05 min 11 sec)
Heartbeat CPU 0 instructions: 20000111 cycles: 16920626 heartbeat IPC: 2.015 cumulative IPC: 1.182 (Simulation time: 00 hr 05 min 16 sec)
Heartbeat CPU 0 instructions: 20500114 cycles: 17296559 heartbeat IPC: 1.33 cumulative IPC: 1.185 (Simulation time: 00 hr 05 min 24 sec)
Heartbeat CPU 0 instructions: 21000115 cycles: 17642119 heartbeat IPC: 1.447 cumulative IPC: 1.19 (Simulation time: 00 hr 05 min 30 sec)
Heartbeat CPU 0 instructions: 21500116 cycles: 18055423 heartbeat IPC: 1.21 cumulative IPC: 1.191 (Simulation time: 00 hr 05 min 38 sec)
Heartbeat CPU 0 instructions: 22000120 cycles: 18481263 heartbeat IPC: 1.174 cumulative IPC: 1.19 (Simulation time: 00 hr 05 min 46 sec)
Heartbeat CPU 0 instructions: 22500120 cycles: 18906958 heartbeat IPC: 1.175 cumulative IPC: 1.19 (Simulation time: 00 hr 05 min 55 sec)
Heartbeat CPU 0 instructions: 23000122 cycles: 19324929 heartbeat IPC: 1.196 cumulative IPC: 1.19 (Simulation time: 00 hr 06 min 03 sec)
Heartbeat CPU 0 instructions: 23500122 cycles: 19837979 heartbeat IPC: 0.9746 cumulative IPC: 1.185 (Simulation time: 00 hr 06 min 13 sec)
Heartbeat CPU 0 instructions: 24000122 cycles: 20351477 heartbeat IPC: 0.9737 cumulative IPC: 1.179 (Simulation time: 00 hr 06 min 22 sec)
Heartbeat CPU 0 instructions: 24500123 cycles: 20862946 heartbeat IPC: 0.9776 cumulative IPC: 1.174 (Simulation time: 00 hr 06 min 32 sec)
Heartbeat CPU 0 instructions: 25000128 cycles: 21278117 heartbeat IPC: 1.204 cumulative IPC: 1.175 (Simulation time: 00 hr 06 min 40 sec)
Heartbeat CPU 0 instructions: 25500135 cycles: 21664736 heartbeat IPC: 1.293 cumulative IPC: 1.177 (Simulation time: 00 hr 06 min 48 sec)
Heartbeat CPU 0 instructions: 26000135 cycles: 21950558 heartbeat IPC: 1.749 cumulative IPC: 1.184 (Simulation time: 00 hr 06 min 53 sec)
Heartbeat CPU 0 instructions: 26500139 cycles: 22248545 heartbeat IPC: 1.678 cumulative IPC: 1.191 (Simulation time: 00 hr 06 min 59 sec)
Heartbeat CPU 0 instructions: 27000143 cycles: 22660370 heartbeat IPC: 1.214 cumulative IPC: 1.192 (Simulation time: 00 hr 07 min 07 sec)
Heartbeat CPU 0 instructions: 27500147 cycles: 23085590 heartbeat IPC: 1.176 cumulative IPC: 1.191 (Simulation time: 00 hr 07 min 15 sec)
Heartbeat CPU 0 instructions: 28000148 cycles: 23511009 heartbeat IPC: 1.175 cumulative IPC: 1.191 (Simulation time: 00 hr 07 min 23 sec)
Heartbeat CPU 0 instructions: 28500148 cycles: 23934681 heartbeat IPC: 1.18 cumulative IPC: 1.191 (Simulation time: 00 hr 07 min 32 sec)
Heartbeat CPU 0 instructions: 29000152 cycles: 24399643 heartbeat IPC: 1.075 cumulative IPC: 1.189 (Simulation time: 00 hr 07 min 41 sec)
Heartbeat CPU 0 instructions: 29500159 cycles: 24914577 heartbeat IPC: 0.971 cumulative IPC: 1.184 (Simulation time: 00 hr 07 min 50 sec)
Heartbeat CPU 0 instructions: 30000165 cycles: 25427167 heartbeat IPC: 0.9755 cumulative IPC: 1.18 (Simulation time: 00 hr 08 min 00 sec)
Heartbeat CPU 0 instructions: 30500170 cycles: 25886206 heartbeat IPC: 1.089 cumulative IPC: 1.178 (Simulation time: 00 hr 08 min 09 sec)
Heartbeat CPU 0 instructions: 31000170 cycles: 26309673 heartbeat IPC: 1.181 cumulative IPC: 1.178 (Simulation time: 00 hr 08 min 17 sec)
Heartbeat CPU 0 instructions: 31500175 cycles: 26557869 heartbeat IPC: 2.015 cumulative IPC: 1.186 (Simulation time: 00 hr 08 min 22 sec)
Heartbeat CPU 0 instructions: 32000178 cycles: 26927966 heartbeat IPC: 1.351 cumulative IPC: 1.188 (Simulation time: 00 hr 08 min 29 sec)
Heartbeat CPU 0 instructions: 32500179 cycles: 27280795 heartbeat IPC: 1.417 cumulative IPC: 1.191 (Simulation time: 00 hr 08 min 36 sec)
Heartbeat CPU 0 instructions: 33000179 cycles: 27693333 heartbeat IPC: 1.212 cumulative IPC: 1.192 (Simulation time: 00 hr 08 min 44 sec)
Heartbeat CPU 0 instructions: 33500183 cycles: 28119526 heartbeat IPC: 1.173 cumulative IPC: 1.191 (Simulation time: 00 hr 08 min 52 sec)
Heartbeat CPU 0 instructions: 34000183 cycles: 28545868 heartbeat IPC: 1.173 cumulative IPC: 1.191 (Simulation time: 00 hr 09 min 01 sec)
Heartbeat CPU 0 instructions: 34500187 cycles: 28968108 heartbeat IPC: 1.184 cumulative IPC: 1.191 (Simulation time: 00 hr 09 min 09 sec)
Heartbeat CPU 0 instructions: 35000187 cycles: 29485268 heartbeat IPC: 0.9668 cumulative IPC: 1.187 (Simulation time: 00 hr 09 min 19 sec)
Heartbeat CPU 0 instructions: 35500192 cycles: 29998442 heartbeat IPC: 0.9743 cumulative IPC: 1.183 (Simulation time: 00 hr 09 min 29 sec)
Heartbeat CPU 0 instructions: 36000194 cycles: 30511648 heartbeat IPC: 0.9743 cumulative IPC: 1.18 (Simulation time: 00 hr 09 min 38 sec)
Heartbeat CPU 0 instructions: 36500197 cycles: 30926041 heartbeat IPC: 1.207 cumulative IPC: 1.18 (Simulation time: 00 hr 09 min 47 sec)
Heartbeat CPU 0 instructions: 37000201 cycles: 31307636 heartbeat IPC: 1.31 cumulative IPC: 1.182 (Simulation time: 00 hr 09 min 54 sec)
Heartbeat CPU 0 instructions: 37500208 cycles: 31599606 heartbeat IPC: 1.713 cumulative IPC: 1.187 (Simulation time: 00 hr 10 min 00 sec)
Heartbeat CPU 0 instructions: 38000214 cycles: 31897922 heartbeat IPC: 1.676 cumulative IPC: 1.191 (Simulation time: 00 hr 10 min 06 sec)
Heartbeat CPU 0 instructions: 38500214 cycles: 32310123 heartbeat IPC: 1.213 cumulative IPC: 1.192 (Simulation time: 00 hr 10 min 14 sec)
Heartbeat CPU 0 instructions: 39000219 cycles: 32735497 heartbeat IPC: 1.175 cumulative IPC: 1.191 (Simulation time: 00 hr 10 min 22 sec)
Heartbeat CPU 0 instructions: 39500219 cycles: 33160642 heartbeat IPC: 1.176 cumulative IPC: 1.191 (Simulation time: 00 hr 10 min 30 sec)
Heartbeat CPU 0 instructions: 40000221 cycles: 33586144 heartbeat IPC: 1.175 cumulative IPC: 1.191 (Simulation time: 00 hr 10 min 39 sec)
Heartbeat CPU 0 instructions: 40500222 cycles: 34052371 heartbeat IPC: 1.072 cumulative IPC: 1.189 (Simulation time: 00 hr 10 min 48 sec)
Heartbeat CPU 0 instructions: 41000223 cycles: 34563363 heartbeat IPC: 0.9785 cumulative IPC: 1.186 (Simulation time: 00 hr 10 min 57 sec)
Heartbeat CPU 0 instructions: 41500225 cycles: 35077401 heartbeat IPC: 0.9727 cumulative IPC: 1.183 (Simulation time: 00 hr 11 min 07 sec)
Heartbeat CPU 0 instructions: 42000227 cycles: 35534381 heartbeat IPC: 1.094 cumulative IPC: 1.182 (Simulation time: 00 hr 11 min 16 sec)
Heartbeat CPU 0 instructions: 42500227 cycles: 35958892 heartbeat IPC: 1.178 cumulative IPC: 1.182 (Simulation time: 00 hr 11 min 24 sec)
Heartbeat CPU 0 instructions: 43000231 cycles: 36206250 heartbeat IPC: 2.021 cumulative IPC: 1.188 (Simulation time: 00 hr 11 min 29 sec)
Heartbeat CPU 0 instructions: 43500235 cycles: 36570304 heartbeat IPC: 1.373 cumulative IPC: 1.189 (Simulation time: 00 hr 11 min 36 sec)
Heartbeat CPU 0 instructions: 44000241 cycles: 36928331 heartbeat IPC: 1.397 cumulative IPC: 1.192 (Simulation time: 00 hr 11 min 43 sec)
Heartbeat CPU 0 instructions: 44500243 cycles: 37340356 heartbeat IPC: 1.214 cumulative IPC: 1.192 (Simulation time: 00 hr 11 min 51 sec)
Heartbeat CPU 0 instructions: 45000244 cycles: 37766291 heartbeat IPC: 1.174 cumulative IPC: 1.192 (Simulation time: 00 hr 12 min 00 sec)
Heartbeat CPU 0 instructions: 45500248 cycles: 38192331 heartbeat IPC: 1.174 cumulative IPC: 1.191 (Simulation time: 00 hr 12 min 08 sec)
Heartbeat CPU 0 instructions: 46000251 cycles: 38612239 heartbeat IPC: 1.191 cumulative IPC: 1.191 (Simulation time: 00 hr 12 min 16 sec)
Heartbeat CPU 0 instructions: 46500256 cycles: 39124637 heartbeat IPC: 0.9758 cumulative IPC: 1.189 (Simulation time: 00 hr 12 min 26 sec)
Heartbeat CPU 0 instructions: 47000256 cycles: 39636327 heartbeat IPC: 0.9772 cumulative IPC: 1.186 (Simulation time: 00 hr 12 min 36 sec)
Heartbeat CPU 0 instructions: 47500261 cycles: 40146023 heartbeat IPC: 0.981 cumulative IPC: 1.183 (Simulation time: 00 hr 12 min 46 sec)
Heartbeat CPU 0 instructions: 48000266 cycles: 40558581 heartbeat IPC: 1.212 cumulative IPC: 1.183 (Simulation time: 00 hr 12 min 54 sec)
Heartbeat CPU 0 instructions: 48500269 cycles: 40983147 heartbeat IPC: 1.178 cumulative IPC: 1.183 (Simulation time: 00 hr 13 min 02 sec)
Heartbeat CPU 0 instructions: 49000271 cycles: 41407997 heartbeat IPC: 1.177 cumulative IPC: 1.183 (Simulation time: 00 hr 13 min 10 sec)
Heartbeat CPU 0 instructions: 49500271 cycles: 41833247 heartbeat IPC: 1.176 cumulative IPC: 1.183 (Simulation time: 00 hr 13 min 19 sec)
Warmup halting CPU 0 at instruction 50000004 cycle 42259140 for remainder of phase
Warmup finished CPU 0 instructions: 50000004 cycles: 42259140 cumulative IPC: 1.183 (Simulation time: 00 hr 13 min 27 sec)
Warmup complete CPU 0 instructions: 50000004 cycles: 42259140 cumulative IPC: 1.183 (Simulation time: 00 hr 13 min 27 sec)
Heartbeat CPU 0 instructions: 50000276 cycles: 42259174 heartbeat IPC: 1.174 cumulative IPC: 8 (Simulation time: 00 hr 13 min 27 sec)
Heartbeat CPU 0 instructions: 50500276 cycles: 43334609 heartbeat IPC: 0.4649 cumulative IPC: 0.4652 (Simulation time: 00 hr 13 min 42 sec)
Heartbeat CPU 0 instructions: 51000276 cycles: 44413720 heartbeat IPC: 0.4633 cumulative IPC: 0.4643 (Simulation time: 00 hr 13 min 57 sec)
Heartbeat CPU 0 instructions: 51500277 cycles: 45494098 heartbeat IPC: 0.4628 cumulative IPC: 0.4638 (Simulation time: 00 hr 14 min 12 sec)
Heartbeat CPU 0 instructions: 52000277 cycles: 46573088 heartbeat IPC: 0.4634 cumulative IPC: 0.4637 (Simulation time: 00 hr 14 min 26 sec)
Heartbeat CPU 0 instructions: 52500284 cycles: 47653119 heartbeat IPC: 0.463 cumulative IPC: 0.4635 (Simulation time: 00 hr 14 min 41 sec)
Heartbeat CPU 0 instructions: 53000286 cycles: 48732132 heartbeat IPC: 0.4634 cumulative IPC: 0.4635 (Simulation time: 00 hr 14 min 56 sec)
Heartbeat CPU 0 instructions: 53500288 cycles: 49808917 heartbeat IPC: 0.4643 cumulative IPC: 0.4636 (Simulation time: 00 hr 15 min 11 sec)
Heartbeat CPU 0 instructions: 54000288 cycles: 50884498 heartbeat IPC: 0.4649 cumulative IPC: 0.4638 (Simulation time: 00 hr 15 min 26 sec)
Heartbeat CPU 0 instructions: 54500288 cycles: 51963278 heartbeat IPC: 0.4635 cumulative IPC: 0.4637 (Simulation time: 00 hr 15 min 41 sec)
Heartbeat CPU 0 instructions: 55000289 cycles: 53042382 heartbeat IPC: 0.4633 cumulative IPC: 0.4637 (Simulation time: 00 hr 15 min 55 sec)
Heartbeat CPU 0 instructions: 55500289 cycles: 54120436 heartbeat IPC: 0.4638 cumulative IPC: 0.4637 (Simulation time: 00 hr 16 min 10 sec)
Heartbeat CPU 0 instructions: 56000296 cycles: 55198843 heartbeat IPC: 0.4637 cumulative IPC: 0.4637 (Simulation time: 00 hr 16 min 25 sec)
Heartbeat CPU 0 instructions: 56500299 cycles: 56275087 heartbeat IPC: 0.4646 cumulative IPC: 0.4638 (Simulation time: 00 hr 16 min 40 sec)
Heartbeat CPU 0 instructions: 57000300 cycles: 57350377 heartbeat IPC: 0.465 cumulative IPC: 0.4639 (Simulation time: 00 hr 16 min 55 sec)
Heartbeat CPU 0 instructions: 57500301 cycles: 58428358 heartbeat IPC: 0.4638 cumulative IPC: 0.4639 (Simulation time: 00 hr 17 min 10 sec)
Heartbeat CPU 0 instructions: 58000307 cycles: 59507313 heartbeat IPC: 0.4634 cumulative IPC: 0.4638 (Simulation time: 00 hr 17 min 24 sec)
Heartbeat CPU 0 instructions: 58500309 cycles: 60586501 heartbeat IPC: 0.4633 cumulative IPC: 0.4638 (Simulation time: 00 hr 17 min 39 sec)
Heartbeat CPU 0 instructions: 59000312 cycles: 61663154 heartbeat IPC: 0.4644 cumulative IPC: 0.4638 (Simulation time: 00 hr 17 min 54 sec)
Heartbeat CPU 0 instructions: 59500318 cycles: 62738372 heartbeat IPC: 0.465 cumulative IPC: 0.4639 (Simulation time: 00 hr 18 min 09 sec)
Heartbeat CPU 0 instructions: 60000318 cycles: 63818806 heartbeat IPC: 0.4628 cumulative IPC: 0.4638 (Simulation time: 00 hr 18 min 24 sec)
Heartbeat CPU 0 instructions: 60500318 cycles: 64892856 heartbeat IPC: 0.4655 cumulative IPC: 0.4639 (Simulation time: 00 hr 18 min 38 sec)
Heartbeat CPU 0 instructions: 61000319 cycles: 65969701 heartbeat IPC: 0.4643 cumulative IPC: 0.4639 (Simulation time: 00 hr 18 min 53 sec)
Heartbeat CPU 0 instructions: 61500321 cycles: 67049822 heartbeat IPC: 0.4629 cumulative IPC: 0.4639 (Simulation time: 00 hr 19 min 08 sec)
Heartbeat CPU 0 instructions: 62000321 cycles: 68124697 heartbeat IPC: 0.4652 cumulative IPC: 0.4639 (Simulation time: 00 hr 19 min 23 sec)
Heartbeat CPU 0 instructions: 62500324 cycles: 69202676 heartbeat IPC: 0.4638 cumulative IPC: 0.4639 (Simulation time: 00 hr 19 min 38 sec)
Heartbeat CPU 0 instructions: 63000330 cycles: 70278787 heartbeat IPC: 0.4646 cumulative IPC: 0.464 (Simulation time: 00 hr 19 min 52 sec)
Heartbeat CPU 0 instructions: 63500330 cycles: 71355633 heartbeat IPC: 0.4643 cumulative IPC: 0.464 (Simulation time: 00 hr 20 min 07 sec)
Heartbeat CPU 0 instructions: 64000331 cycles: 72429630 heartbeat IPC: 0.4656 cumulative IPC: 0.464 (Simulation time: 00 hr 20 min 22 sec)
Heartbeat CPU 0 instructions: 64500336 cycles: 73508815 heartbeat IPC: 0.4633 cumulative IPC: 0.464 (Simulation time: 00 hr 20 min 37 sec)
Heartbeat CPU 0 instructions: 65000343 cycles: 74588805 heartbeat IPC: 0.463 cumulative IPC: 0.464 (Simulation time: 00 hr 20 min 52 sec)
Heartbeat CPU 0 instructions: 65500344 cycles: 75667294 heartbeat IPC: 0.4636 cumulative IPC: 0.464 (Simulation time: 00 hr 21 min 06 sec)
Heartbeat CPU 0 instructions: 66000344 cycles: 77231889 heartbeat IPC: 0.3196 cumulative IPC: 0.4575 (Simulation time: 00 hr 21 min 25 sec)
Heartbeat CPU 0 instructions: 66500345 cycles: 77648894 heartbeat IPC: 1.199 cumulative IPC: 0.4662 (Simulation time: 00 hr 21 min 31 sec)
Heartbeat CPU 0 instructions: 67000345 cycles: 77888973 heartbeat IPC: 2.083 cumulative IPC: 0.4771 (Simulation time: 00 hr 21 min 34 sec)
Heartbeat CPU 0 instructions: 67500348 cycles: 78405489 heartbeat IPC: 0.968 cumulative IPC: 0.4842 (Simulation time: 00 hr 21 min 40 sec)
Heartbeat CPU 0 instructions: 68000351 cycles: 78687662 heartbeat IPC: 1.772 cumulative IPC: 0.4941 (Simulation time: 00 hr 21 min 44 sec)
Heartbeat CPU 0 instructions: 68500351 cycles: 79070315 heartbeat IPC: 1.307 cumulative IPC: 0.5026 (Simulation time: 00 hr 21 min 48 sec)
Heartbeat CPU 0 instructions: 69000351 cycles: 79610442 heartbeat IPC: 0.9257 cumulative IPC: 0.5087 (Simulation time: 00 hr 21 min 53 sec)
Heartbeat CPU 0 instructions: 69500353 cycles: 79940324 heartbeat IPC: 1.516 cumulative IPC: 0.5175 (Simulation time: 00 hr 21 min 57 sec)
Heartbeat CPU 0 instructions: 70000355 cycles: 80178656 heartbeat IPC: 2.098 cumulative IPC: 0.5274 (Simulation time: 00 hr 22 min 01 sec)
Heartbeat CPU 0 instructions: 70500362 cycles: 80410141 heartbeat IPC: 2.16 cumulative IPC: 0.5373 (Simulation time: 00 hr 22 min 04 sec)
Heartbeat CPU 0 instructions: 71000362 cycles: 80728988 heartbeat IPC: 1.568 cumulative IPC: 0.5459 (Simulation time: 00 hr 22 min 08 sec)
Heartbeat CPU 0 instructions: 71500363 cycles: 81277820 heartbeat IPC: 0.911 cumulative IPC: 0.551 (Simulation time: 00 hr 22 min 13 sec)
Heartbeat CPU 0 instructions: 72000363 cycles: 81864093 heartbeat IPC: 0.8528 cumulative IPC: 0.5555 (Simulation time: 00 hr 22 min 19 sec)
Heartbeat CPU 0 instructions: 72500364 cycles: 83515302 heartbeat IPC: 0.3028 cumulative IPC: 0.5454 (Simulation time: 00 hr 22 min 41 sec)
Heartbeat CPU 0 instructions: 73000369 cycles: 84603461 heartbeat IPC: 0.4595 cumulative IPC: 0.5432 (Simulation time: 00 hr 22 min 56 sec)
Heartbeat CPU 0 instructions: 73500376 cycles: 85231174 heartbeat IPC: 0.7966 cumulative IPC: 0.5469 (Simulation time: 00 hr 23 min 04 sec)
Heartbeat CPU 0 instructions: 74000377 cycles: 85965426 heartbeat IPC: 0.681 cumulative IPC: 0.5491 (Simulation time: 00 hr 23 min 14 sec)
Heartbeat CPU 0 instructions: 74500377 cycles: 86988105 heartbeat IPC: 0.4889 cumulative IPC: 0.5478 (Simulation time: 00 hr 23 min 27 sec)
Heartbeat CPU 0 instructions: 75000377 cycles: 88031923 heartbeat IPC: 0.479 cumulative IPC: 0.5462 (Simulation time: 00 hr 23 min 41 sec)
Heartbeat CPU 0 instructions: 75500378 cycles: 89078332 heartbeat IPC: 0.4778 cumulative IPC: 0.5447 (Simulation time: 00 hr 23 min 54 sec)
Heartbeat CPU 0 instructions: 76000378 cycles: 90133861 heartbeat IPC: 0.4737 cumulative IPC: 0.5431 (Simulation time: 00 hr 24 min 08 sec)
Heartbeat CPU 0 instructions: 76500379 cycles: 91200231 heartbeat IPC: 0.4689 cumulative IPC: 0.5415 (Simulation time: 00 hr 24 min 23 sec)
Heartbeat CPU 0 instructions: 77000385 cycles: 92337725 heartbeat IPC: 0.4396 cumulative IPC: 0.5392 (Simulation time: 00 hr 24 min 39 sec)
Heartbeat CPU 0 instructions: 77500385 cycles: 93479844 heartbeat IPC: 0.4378 cumulative IPC: 0.5369 (Simulation time: 00 hr 25 min 01 sec)
Heartbeat CPU 0 instructions: 78000392 cycles: 94553074 heartbeat IPC: 0.4659 cumulative IPC: 0.5354 (Simulation time: 00 hr 25 min 23 sec)
Heartbeat CPU 0 instructions: 78500398 cycles: 95601282 heartbeat IPC: 0.477 cumulative IPC: 0.5343 (Simulation time: 00 hr 25 min 44 sec)
Heartbeat CPU 0 instructions: 79000400 cycles: 96194294 heartbeat IPC: 0.8432 cumulative IPC: 0.5377 (Simulation time: 00 hr 25 min 52 sec)
Heartbeat CPU 0 instructions: 79500401 cycles: 97177828 heartbeat IPC: 0.5084 cumulative IPC: 0.5372 (Simulation time: 00 hr 26 min 05 sec)
Heartbeat CPU 0 instructions: 80000402 cycles: 97957377 heartbeat IPC: 0.6414 cumulative IPC: 0.5386 (Simulation time: 00 hr 26 min 16 sec)
Heartbeat CPU 0 instructions: 80500407 cycles: 98964941 heartbeat IPC: 0.4963 cumulative IPC: 0.5379 (Simulation time: 00 hr 26 min 29 sec)
Heartbeat CPU 0 instructions: 81000409 cycles: 100008827 heartbeat IPC: 0.479 cumulative IPC: 0.5368 (Simulation time: 00 hr 26 min 43 sec)
Heartbeat CPU 0 instructions: 81500409 cycles: 101052845 heartbeat IPC: 0.4789 cumulative IPC: 0.5358 (Simulation time: 00 hr 26 min 57 sec)
Heartbeat CPU 0 instructions: 82000412 cycles: 102060380 heartbeat IPC: 0.4963 cumulative IPC: 0.5351 (Simulation time: 00 hr 27 min 11 sec)
Heartbeat CPU 0 instructions: 82500414 cycles: 103193324 heartbeat IPC: 0.4413 cumulative IPC: 0.5334 (Simulation time: 00 hr 27 min 26 sec)
Heartbeat CPU 0 instructions: 83000415 cycles: 104330624 heartbeat IPC: 0.4396 cumulative IPC: 0.5317 (Simulation time: 00 hr 27 min 42 sec)
Heartbeat CPU 0 instructions: 83500419 cycles: 105467389 heartbeat IPC: 0.4398 cumulative IPC: 0.53 (Simulation time: 00 hr 27 min 57 sec)
Heartbeat CPU 0 instructions: 84000420 cycles: 106497409 heartbeat IPC: 0.4854 cumulative IPC: 0.5293 (Simulation time: 00 hr 28 min 11 sec)
Heartbeat CPU 0 instructions: 84500421 cycles: 107527580 heartbeat IPC: 0.4854 cumulative IPC: 0.5286 (Simulation time: 00 hr 28 min 25 sec)
Heartbeat CPU 0 instructions: 85000423 cycles: 108122797 heartbeat IPC: 0.84 cumulative IPC: 0.5314 (Simulation time: 00 hr 28 min 33 sec)
Heartbeat CPU 0 instructions: 85500424 cycles: 108856554 heartbeat IPC: 0.6814 cumulative IPC: 0.5331 (Simulation time: 00 hr 28 min 43 sec)
Heartbeat CPU 0 instructions: 86000430 cycles: 109872968 heartbeat IPC: 0.4919 cumulative IPC: 0.5324 (Simulation time: 00 hr 28 min 56 sec)
Heartbeat CPU 0 instructions: 86500432 cycles: 110918469 heartbeat IPC: 0.4782 cumulative IPC: 0.5316 (Simulation time: 00 hr 29 min 10 sec)
Heartbeat CPU 0 instructions: 87000438 cycles: 111964986 heartbeat IPC: 0.4778 cumulative IPC: 0.5308 (Simulation time: 00 hr 29 min 25 sec)
Heartbeat CPU 0 instructions: 87500440 cycles: 113017259 heartbeat IPC: 0.4752 cumulative IPC: 0.53 (Simulation time: 00 hr 29 min 39 sec)
Heartbeat CPU 0 instructions: 88000440 cycles: 114069702 heartbeat IPC: 0.4751 cumulative IPC: 0.5292 (Simulation time: 00 hr 29 min 53 sec)
Heartbeat CPU 0 instructions: 88500446 cycles: 115210906 heartbeat IPC: 0.4381 cumulative IPC: 0.5278 (Simulation time: 00 hr 30 min 09 sec)
Heartbeat CPU 0 instructions: 89000448 cycles: 116345488 heartbeat IPC: 0.4407 cumulative IPC: 0.5264 (Simulation time: 00 hr 30 min 25 sec)
Heartbeat CPU 0 instructions: 89500454 cycles: 117421829 heartbeat IPC: 0.4645 cumulative IPC: 0.5255 (Simulation time: 00 hr 30 min 39 sec)
Heartbeat CPU 0 instructions: 90000461 cycles: 118466419 heartbeat IPC: 0.4787 cumulative IPC: 0.5249 (Simulation time: 00 hr 30 min 54 sec)
Heartbeat CPU 0 instructions: 90500461 cycles: 119089241 heartbeat IPC: 0.8028 cumulative IPC: 0.5271 (Simulation time: 00 hr 31 min 03 sec)
Heartbeat CPU 0 instructions: 91000467 cycles: 120055916 heartbeat IPC: 0.5172 cumulative IPC: 0.527 (Simulation time: 00 hr 31 min 15 sec)
Heartbeat CPU 0 instructions: 91500471 cycles: 120805877 heartbeat IPC: 0.6667 cumulative IPC: 0.5284 (Simulation time: 00 hr 31 min 26 sec)
Heartbeat CPU 0 instructions: 92000473 cycles: 121816830 heartbeat IPC: 0.4946 cumulative IPC: 0.5279 (Simulation time: 00 hr 31 min 39 sec)
Heartbeat CPU 0 instructions: 92500473 cycles: 122870668 heartbeat IPC: 0.4745 cumulative IPC: 0.5272 (Simulation time: 00 hr 31 min 53 sec)
Heartbeat CPU 0 instructions: 93000476 cycles: 123926302 heartbeat IPC: 0.4737 cumulative IPC: 0.5265 (Simulation time: 00 hr 32 min 07 sec)
Heartbeat CPU 0 instructions: 93500477 cycles: 124933216 heartbeat IPC: 0.4966 cumulative IPC: 0.5262 (Simulation time: 00 hr 32 min 20 sec)
Heartbeat CPU 0 instructions: 94000477 cycles: 126071103 heartbeat IPC: 0.4394 cumulative IPC: 0.525 (Simulation time: 00 hr 32 min 36 sec)
Heartbeat CPU 0 instructions: 94500478 cycles: 127207084 heartbeat IPC: 0.4401 cumulative IPC: 0.5239 (Simulation time: 00 hr 32 min 52 sec)
Heartbeat CPU 0 instructions: 95000482 cycles: 128345067 heartbeat IPC: 0.4394 cumulative IPC: 0.5227 (Simulation time: 00 hr 33 min 07 sec)
Heartbeat CPU 0 instructions: 95500489 cycles: 129384714 heartbeat IPC: 0.4809 cumulative IPC: 0.5222 (Simulation time: 00 hr 33 min 22 sec)
Heartbeat CPU 0 instructions: 96000491 cycles: 130442981 heartbeat IPC: 0.4725 cumulative IPC: 0.5216 (Simulation time: 00 hr 33 min 36 sec)
Heartbeat CPU 0 instructions: 96500495 cycles: 131010631 heartbeat IPC: 0.8808 cumulative IPC: 0.5239 (Simulation time: 00 hr 33 min 44 sec)
Heartbeat CPU 0 instructions: 97000496 cycles: 131743875 heartbeat IPC: 0.6819 cumulative IPC: 0.5252 (Simulation time: 00 hr 33 min 55 sec)
Heartbeat CPU 0 instructions: 97500497 cycles: 132755085 heartbeat IPC: 0.4945 cumulative IPC: 0.5249 (Simulation time: 00 hr 34 min 08 sec)
Heartbeat CPU 0 instructions: 98000499 cycles: 133796140 heartbeat IPC: 0.4803 cumulative IPC: 0.5244 (Simulation time: 00 hr 34 min 22 sec)
Heartbeat CPU 0 instructions: 98500505 cycles: 134838040 heartbeat IPC: 0.4799 cumulative IPC: 0.5239 (Simulation time: 00 hr 34 min 36 sec)
Heartbeat CPU 0 instructions: 99000506 cycles: 135881623 heartbeat IPC: 0.4791 cumulative IPC: 0.5234 (Simulation time: 00 hr 34 min 51 sec)
Heartbeat CPU 0 instructions: 99500511 cycles: 136928708 heartbeat IPC: 0.4775 cumulative IPC: 0.5229 (Simulation time: 00 hr 35 min 05 sec)
Heartbeat CPU 0 instructions: 100000513 cycles: 138064855 heartbeat IPC: 0.4401 cumulative IPC: 0.5219 (Simulation time: 00 hr 35 min 21 sec)
Heartbeat CPU 0 instructions: 100500513 cycles: 139204625 heartbeat IPC: 0.4387 cumulative IPC: 0.5209 (Simulation time: 00 hr 35 min 37 sec)
Heartbeat CPU 0 instructions: 101000518 cycles: 140283968 heartbeat IPC: 0.4632 cumulative IPC: 0.5203 (Simulation time: 00 hr 35 min 51 sec)
Heartbeat CPU 0 instructions: 101500518 cycles: 141329504 heartbeat IPC: 0.4782 cumulative IPC: 0.5198 (Simulation time: 00 hr 36 min 05 sec)
Heartbeat CPU 0 instructions: 102000519 cycles: 141985827 heartbeat IPC: 0.7618 cumulative IPC: 0.5214 (Simulation time: 00 hr 36 min 15 sec)
Heartbeat CPU 0 instructions: 102500520 cycles: 142938915 heartbeat IPC: 0.5246 cumulative IPC: 0.5215 (Simulation time: 00 hr 36 min 27 sec)
Heartbeat CPU 0 instructions: 103000522 cycles: 143672474 heartbeat IPC: 0.6816 cumulative IPC: 0.5226 (Simulation time: 00 hr 36 min 37 sec)
Heartbeat CPU 0 instructions: 103500526 cycles: 144690386 heartbeat IPC: 0.4912 cumulative IPC: 0.5223 (Simulation time: 00 hr 36 min 50 sec)
Heartbeat CPU 0 instructions: 104000529 cycles: 145744675 heartbeat IPC: 0.4743 cumulative IPC: 0.5218 (Simulation time: 00 hr 37 min 03 sec)
Heartbeat CPU 0 instructions: 104500535 cycles: 146804203 heartbeat IPC: 0.4719 cumulative IPC: 0.5213 (Simulation time: 00 hr 37 min 17 sec)
Heartbeat CPU 0 instructions: 105000538 cycles: 147812235 heartbeat IPC: 0.496 cumulative IPC: 0.5211 (Simulation time: 00 hr 37 min 30 sec)
Heartbeat CPU 0 instructions: 105500540 cycles: 148948941 heartbeat IPC: 0.4399 cumulative IPC: 0.5202 (Simulation time: 00 hr 37 min 46 sec)
Heartbeat CPU 0 instructions: 106000544 cycles: 150087144 heartbeat IPC: 0.4393 cumulative IPC: 0.5194 (Simulation time: 00 hr 38 min 01 sec)
Heartbeat CPU 0 instructions: 106500547 cycles: 151226222 heartbeat IPC: 0.439 cumulative IPC: 0.5185 (Simulation time: 00 hr 38 min 17 sec)
Heartbeat CPU 0 instructions: 107000547 cycles: 152264968 heartbeat IPC: 0.4813 cumulative IPC: 0.5182 (Simulation time: 00 hr 38 min 31 sec)
Heartbeat CPU 0 instructions: 107500550 cycles: 153323172 heartbeat IPC: 0.4725 cumulative IPC: 0.5177 (Simulation time: 00 hr 38 min 45 sec)
Heartbeat CPU 0 instructions: 108000553 cycles: 153897122 heartbeat IPC: 0.8712 cumulative IPC: 0.5195 (Simulation time: 00 hr 38 min 53 sec)
Heartbeat CPU 0 instructions: 108500554 cycles: 154628750 heartbeat IPC: 0.6834 cumulative IPC: 0.5206 (Simulation time: 00 hr 39 min 02 sec)
Heartbeat CPU 0 instructions: 109000558 cycles: 155645203 heartbeat IPC: 0.4919 cumulative IPC: 0.5204 (Simulation time: 00 hr 39 min 15 sec)
Heartbeat CPU 0 instructions: 109500560 cycles: 156689565 heartbeat IPC: 0.4788 cumulative IPC: 0.52 (Simulation time: 00 hr 39 min 29 sec)
Heartbeat CPU 0 instructions: 110000560 cycles: 157734730 heartbeat IPC: 0.4784 cumulative IPC: 0.5196 (Simulation time: 00 hr 39 min 42 sec)
Heartbeat CPU 0 instructions: 110500563 cycles: 158778947 heartbeat IPC: 0.4788 cumulative IPC: 0.5192 (Simulation time: 00 hr 39 min 56 sec)
Heartbeat CPU 0 instructions: 111000563 cycles: 159813034 heartbeat IPC: 0.4835 cumulative IPC: 0.5189 (Simulation time: 00 hr 40 min 11 sec)
Heartbeat CPU 0 instructions: 111500566 cycles: 160951388 heartbeat IPC: 0.4392 cumulative IPC: 0.5182 (Simulation time: 00 hr 40 min 26 sec)
Heartbeat CPU 0 instructions: 112000572 cycles: 162088032 heartbeat IPC: 0.4399 cumulative IPC: 0.5174 (Simulation time: 00 hr 40 min 41 sec)
Heartbeat CPU 0 instructions: 112500573 cycles: 163171036 heartbeat IPC: 0.4617 cumulative IPC: 0.5169 (Simulation time: 00 hr 40 min 55 sec)
Heartbeat CPU 0 instructions: 113000573 cycles: 164212607 heartbeat IPC: 0.48 cumulative IPC: 0.5166 (Simulation time: 00 hr 41 min 09 sec)
Heartbeat CPU 0 instructions: 113500574 cycles: 164904809 heartbeat IPC: 0.7223 cumulative IPC: 0.5178 (Simulation time: 00 hr 41 min 18 sec)
Heartbeat CPU 0 instructions: 114000580 cycles: 165823934 heartbeat IPC: 0.544 cumulative IPC: 0.518 (Simulation time: 00 hr 41 min 30 sec)
Heartbeat CPU 0 instructions: 114500581 cycles: 166556543 heartbeat IPC: 0.6825 cumulative IPC: 0.5189 (Simulation time: 00 hr 41 min 40 sec)
Heartbeat CPU 0 instructions: 115000583 cycles: 167580613 heartbeat IPC: 0.4882 cumulative IPC: 0.5187 (Simulation time: 00 hr 41 min 52 sec)
Heartbeat CPU 0 instructions: 115500584 cycles: 168641282 heartbeat IPC: 0.4714 cumulative IPC: 0.5183 (Simulation time: 00 hr 42 min 05 sec)
Heartbeat CPU 0 instructions: 116000590 cycles: 169699134 heartbeat IPC: 0.4727 cumulative IPC: 0.5179 (Simulation time: 00 hr 42 min 18 sec)
Heartbeat CPU 0 instructions: 116500590 cycles: 170703958 heartbeat IPC: 0.4976 cumulative IPC: 0.5177 (Simulation time: 00 hr 42 min 31 sec)
Heartbeat CPU 0 instructions: 117000590 cycles: 171843039 heartbeat IPC: 0.439 cumulative IPC: 0.517 (Simulation time: 00 hr 42 min 46 sec)
Heartbeat CPU 0 instructions: 117500595 cycles: 172988166 heartbeat IPC: 0.4366 cumulative IPC: 0.5163 (Simulation time: 00 hr 43 min 00 sec)
Heartbeat CPU 0 instructions: 118000595 cycles: 174128478 heartbeat IPC: 0.4385 cumulative IPC: 0.5157 (Simulation time: 00 hr 43 min 15 sec)
Heartbeat CPU 0 instructions: 118500595 cycles: 175175091 heartbeat IPC: 0.4777 cumulative IPC: 0.5154 (Simulation time: 00 hr 43 min 28 sec)
Heartbeat CPU 0 instructions: 119000600 cycles: 176236277 heartbeat IPC: 0.4712 cumulative IPC: 0.515 (Simulation time: 00 hr 43 min 42 sec)
Heartbeat CPU 0 instructions: 119500604 cycles: 176811897 heartbeat IPC: 0.8686 cumulative IPC: 0.5165 (Simulation time: 00 hr 43 min 49 sec)
Heartbeat CPU 0 instructions: 120000605 cycles: 177549214 heartbeat IPC: 0.6781 cumulative IPC: 0.5174 (Simulation time: 00 hr 43 min 58 sec)
Heartbeat CPU 0 instructions: 120500605 cycles: 178582954 heartbeat IPC: 0.4837 cumulative IPC: 0.5172 (Simulation time: 00 hr 44 min 11 sec)
Heartbeat CPU 0 instructions: 121000611 cycles: 179648205 heartbeat IPC: 0.4694 cumulative IPC: 0.5168 (Simulation time: 00 hr 44 min 23 sec)
Heartbeat CPU 0 instructions: 121500613 cycles: 180715812 heartbeat IPC: 0.4683 cumulative IPC: 0.5164 (Simulation time: 00 hr 44 min 36 sec)
Heartbeat CPU 0 instructions: 122000614 cycles: 181781980 heartbeat IPC: 0.469 cumulative IPC: 0.516 (Simulation time: 00 hr 44 min 48 sec)
Heartbeat CPU 0 instructions: 122500614 cycles: 182833653 heartbeat IPC: 0.4754 cumulative IPC: 0.5157 (Simulation time: 00 hr 45 min 01 sec)
Heartbeat CPU 0 instructions: 123000616 cycles: 183979812 heartbeat IPC: 0.4362 cumulative IPC: 0.5151 (Simulation time: 00 hr 45 min 15 sec)
Heartbeat CPU 0 instructions: 123500617 cycles: 185129943 heartbeat IPC: 0.4347 cumulative IPC: 0.5145 (Simulation time: 00 hr 45 min 29 sec)
Heartbeat CPU 0 instructions: 124000624 cycles: 186227589 heartbeat IPC: 0.4555 cumulative IPC: 0.514 (Simulation time: 00 hr 45 min 42 sec)
Heartbeat CPU 0 instructions: 124500624 cycles: 187290292 heartbeat IPC: 0.4705 cumulative IPC: 0.5137 (Simulation time: 00 hr 45 min 55 sec)
Heartbeat CPU 0 instructions: 125000626 cycles: 188030328 heartbeat IPC: 0.6756 cumulative IPC: 0.5145 (Simulation time: 00 hr 46 min 04 sec)
Heartbeat CPU 0 instructions: 125500632 cycles: 188929526 heartbeat IPC: 0.5561 cumulative IPC: 0.5148 (Simulation time: 00 hr 46 min 14 sec)
Heartbeat CPU 0 instructions: 126000632 cycles: 189669707 heartbeat IPC: 0.6755 cumulative IPC: 0.5156 (Simulation time: 00 hr 46 min 23 sec)
Heartbeat CPU 0 instructions: 126500632 cycles: 190699994 heartbeat IPC: 0.4853 cumulative IPC: 0.5154 (Simulation time: 00 hr 46 min 36 sec)
Heartbeat CPU 0 instructions: 127000633 cycles: 191764318 heartbeat IPC: 0.4698 cumulative IPC: 0.515 (Simulation time: 00 hr 46 min 48 sec)
Heartbeat CPU 0 instructions: 127500633 cycles: 192822961 heartbeat IPC: 0.4723 cumulative IPC: 0.5147 (Simulation time: 00 hr 47 min 01 sec)
Heartbeat CPU 0 instructions: 128000640 cycles: 193866897 heartbeat IPC: 0.479 cumulative IPC: 0.5145 (Simulation time: 00 hr 47 min 13 sec)
Heartbeat CPU 0 instructions: 128500640 cycles: 194971618 heartbeat IPC: 0.4526 cumulative IPC: 0.514 (Simulation time: 00 hr 47 min 27 sec)
Heartbeat CPU 0 instructions: 129000646 cycles: 196114404 heartbeat IPC: 0.4375 cumulative IPC: 0.5135 (Simulation time: 00 hr 47 min 41 sec)
Heartbeat CPU 0 instructions: 129500648 cycles: 197256289 heartbeat IPC: 0.4379 cumulative IPC: 0.5129 (Simulation time: 00 hr 47 min 55 sec)
Heartbeat CPU 0 instructions: 130000648 cycles: 198310691 heartbeat IPC: 0.4742 cumulative IPC: 0.5127 (Simulation time: 00 hr 48 min 08 sec)
Heartbeat CPU 0 instructions: 130500655 cycles: 199370126 heartbeat IPC: 0.472 cumulative IPC: 0.5124 (Simulation time: 00 hr 48 min 21 sec)
Heartbeat CPU 0 instructions: 131000655 cycles: 199947083 heartbeat IPC: 0.8666 cumulative IPC: 0.5137 (Simulation time: 00 hr 48 min 28 sec)
Heartbeat CPU 0 instructions: 131500662 cycles: 200703186 heartbeat IPC: 0.6613 cumulative IPC: 0.5144 (Simulation time: 00 hr 48 min 37 sec)
Heartbeat CPU 0 instructions: 132000664 cycles: 201703816 heartbeat IPC: 0.4997 cumulative IPC: 0.5143 (Simulation time: 00 hr 48 min 49 sec)
Heartbeat CPU 0 instructions: 132500668 cycles: 202748049 heartbeat IPC: 0.4788 cumulative IPC: 0.5141 (Simulation time: 00 hr 49 min 02 sec)
Heartbeat CPU 0 instructions: 133000668 cycles: 203790568 heartbeat IPC: 0.4796 cumulative IPC: 0.5138 (Simulation time: 00 hr 49 min 14 sec)
Heartbeat CPU 0 instructions: 133500675 cycles: 204838178 heartbeat IPC: 0.4773 cumulative IPC: 0.5136 (Simulation time: 00 hr 49 min 27 sec)
Heartbeat CPU 0 instructions: 134000675 cycles: 205863236 heartbeat IPC: 0.4878 cumulative IPC: 0.5134 (Simulation time: 00 hr 49 min 39 sec)
Heartbeat CPU 0 instructions: 134500676 cycles: 206996040 heartbeat IPC: 0.4414 cumulative IPC: 0.5129 (Simulation time: 00 hr 49 min 53 sec)
Heartbeat CPU 0 instructions: 135000680 cycles: 208128378 heartbeat IPC: 0.4416 cumulative IPC: 0.5125 (Simulation time: 00 hr 50 min 06 sec)
Heartbeat CPU 0 instructions: 135500681 cycles: 209211935 heartbeat IPC: 0.4614 cumulative IPC: 0.5121 (Simulation time: 00 hr 50 min 20 sec)
Heartbeat CPU 0 instructions: 136000687 cycles: 210249571 heartbeat IPC: 0.4819 cumulative IPC: 0.5119 (Simulation time: 00 hr 50 min 32 sec)
Heartbeat CPU 0 instructions: 136500687 cycles: 211011143 heartbeat IPC: 0.6565 cumulative IPC: 0.5126 (Simulation time: 00 hr 50 min 42 sec)
Heartbeat CPU 0 instructions: 137000687 cycles: 211857661 heartbeat IPC: 0.5907 cumulative IPC: 0.513 (Simulation time: 00 hr 50 min 53 sec)
Heartbeat CPU 0 instructions: 137500689 cycles: 212584114 heartbeat IPC: 0.6883 cumulative IPC: 0.5137 (Simulation time: 00 hr 51 min 03 sec)
Heartbeat CPU 0 instructions: 138000691 cycles: 213586392 heartbeat IPC: 0.4989 cumulative IPC: 0.5136 (Simulation time: 00 hr 51 min 16 sec)
Heartbeat CPU 0 instructions: 138500696 cycles: 214629587 heartbeat IPC: 0.4793 cumulative IPC: 0.5134 (Simulation time: 00 hr 51 min 28 sec)
Heartbeat CPU 0 instructions: 139000696 cycles: 215674045 heartbeat IPC: 0.4787 cumulative IPC: 0.5132 (Simulation time: 00 hr 51 min 39 sec)
Heartbeat CPU 0 instructions: 139500700 cycles: 216721395 heartbeat IPC: 0.4774 cumulative IPC: 0.513 (Simulation time: 00 hr 51 min 50 sec)
Heartbeat CPU 0 instructions: 140000701 cycles: 217783591 heartbeat IPC: 0.4707 cumulative IPC: 0.5128 (Simulation time: 00 hr 52 min 02 sec)
Heartbeat CPU 0 instructions: 140500703 cycles: 218913252 heartbeat IPC: 0.4426 cumulative IPC: 0.5123 (Simulation time: 00 hr 52 min 15 sec)
Heartbeat CPU 0 instructions: 141000703 cycles: 220042225 heartbeat IPC: 0.4429 cumulative IPC: 0.5119 (Simulation time: 00 hr 52 min 31 sec)
Heartbeat CPU 0 instructions: 141500710 cycles: 221082887 heartbeat IPC: 0.4805 cumulative IPC: 0.5117 (Simulation time: 00 hr 52 min 46 sec)
Heartbeat CPU 0 instructions: 142000717 cycles: 222126036 heartbeat IPC: 0.4793 cumulative IPC: 0.5115 (Simulation time: 00 hr 53 min 01 sec)
Heartbeat CPU 0 instructions: 142500720 cycles: 222694309 heartbeat IPC: 0.8799 cumulative IPC: 0.5127 (Simulation time: 00 hr 53 min 09 sec)
Heartbeat CPU 0 instructions: 143000727 cycles: 223463491 heartbeat IPC: 0.6501 cumulative IPC: 0.5132 (Simulation time: 00 hr 53 min 19 sec)
Heartbeat CPU 0 instructions: 143500731 cycles: 224445409 heartbeat IPC: 0.5092 cumulative IPC: 0.5132 (Simulation time: 00 hr 53 min 32 sec)
Heartbeat CPU 0 instructions: 144000731 cycles: 225508175 heartbeat IPC: 0.4705 cumulative IPC: 0.513 (Simulation time: 00 hr 53 min 46 sec)
Heartbeat CPU 0 instructions: 144500733 cycles: 226571811 heartbeat IPC: 0.4701 cumulative IPC: 0.5127 (Simulation time: 00 hr 54 min 00 sec)
Heartbeat CPU 0 instructions: 145000734 cycles: 227639344 heartbeat IPC: 0.4684 cumulative IPC: 0.5125 (Simulation time: 00 hr 54 min 14 sec)
Heartbeat CPU 0 instructions: 145500740 cycles: 228677930 heartbeat IPC: 0.4814 cumulative IPC: 0.5123 (Simulation time: 00 hr 54 min 27 sec)
Heartbeat CPU 0 instructions: 146000742 cycles: 229824348 heartbeat IPC: 0.4361 cumulative IPC: 0.5118 (Simulation time: 00 hr 54 min 43 sec)
Heartbeat CPU 0 instructions: 146500746 cycles: 230969579 heartbeat IPC: 0.4366 cumulative IPC: 0.5114 (Simulation time: 00 hr 54 min 58 sec)
Heartbeat CPU 0 instructions: 147000748 cycles: 232070234 heartbeat IPC: 0.4543 cumulative IPC: 0.511 (Simulation time: 00 hr 55 min 12 sec)
Heartbeat CPU 0 instructions: 147500749 cycles: 233130513 heartbeat IPC: 0.4716 cumulative IPC: 0.5108 (Simulation time: 00 hr 55 min 26 sec)
Heartbeat CPU 0 instructions: 148000751 cycles: 233938581 heartbeat IPC: 0.6188 cumulative IPC: 0.5113 (Simulation time: 00 hr 55 min 37 sec)
Heartbeat CPU 0 instructions: 148500751 cycles: 234766873 heartbeat IPC: 0.6037 cumulative IPC: 0.5117 (Simulation time: 00 hr 55 min 48 sec)
Heartbeat CPU 0 instructions: 149000754 cycles: 235499721 heartbeat IPC: 0.6823 cumulative IPC: 0.5123 (Simulation time: 00 hr 55 min 58 sec)
Heartbeat CPU 0 instructions: 149500757 cycles: 236518902 heartbeat IPC: 0.4906 cumulative IPC: 0.5122 (Simulation time: 00 hr 56 min 11 sec)
Heartbeat CPU 0 instructions: 150000763 cycles: 237570812 heartbeat IPC: 0.4753 cumulative IPC: 0.512 (Simulation time: 00 hr 56 min 25 sec)
Heartbeat CPU 0 instructions: 150500765 cycles: 238622883 heartbeat IPC: 0.4753 cumulative IPC: 0.5118 (Simulation time: 00 hr 56 min 38 sec)
Heartbeat CPU 0 instructions: 151000765 cycles: 239680628 heartbeat IPC: 0.4727 cumulative IPC: 0.5116 (Simulation time: 00 hr 56 min 52 sec)
Heartbeat CPU 0 instructions: 151500765 cycles: 240752206 heartbeat IPC: 0.4666 cumulative IPC: 0.5114 (Simulation time: 00 hr 57 min 06 sec)
Heartbeat CPU 0 instructions: 152000772 cycles: 241900891 heartbeat IPC: 0.4353 cumulative IPC: 0.5109 (Simulation time: 00 hr 57 min 21 sec)
Heartbeat CPU 0 instructions: 152500772 cycles: 243045720 heartbeat IPC: 0.4367 cumulative IPC: 0.5105 (Simulation time: 00 hr 57 min 36 sec)
Heartbeat CPU 0 instructions: 153000773 cycles: 244102993 heartbeat IPC: 0.4729 cumulative IPC: 0.5103 (Simulation time: 00 hr 57 min 51 sec)
Heartbeat CPU 0 instructions: 153500775 cycles: 245161021 heartbeat IPC: 0.4726 cumulative IPC: 0.5101 (Simulation time: 00 hr 58 min 05 sec)
Heartbeat CPU 0 instructions: 154000775 cycles: 245738676 heartbeat IPC: 0.8656 cumulative IPC: 0.5111 (Simulation time: 00 hr 58 min 14 sec)
Heartbeat CPU 0 instructions: 154500782 cycles: 246564230 heartbeat IPC: 0.6057 cumulative IPC: 0.5115 (Simulation time: 00 hr 58 min 24 sec)
Heartbeat CPU 0 instructions: 155000785 cycles: 247522338 heartbeat IPC: 0.5219 cumulative IPC: 0.5115 (Simulation time: 00 hr 58 min 37 sec)
Heartbeat CPU 0 instructions: 155500786 cycles: 248565812 heartbeat IPC: 0.4792 cumulative IPC: 0.5114 (Simulation time: 00 hr 58 min 50 sec)
Heartbeat CPU 0 instructions: 156000786 cycles: 249630822 heartbeat IPC: 0.4695 cumulative IPC: 0.5112 (Simulation time: 00 hr 59 min 04 sec)
Heartbeat CPU 0 instructions: 156500789 cycles: 250695162 heartbeat IPC: 0.4698 cumulative IPC: 0.511 (Simulation time: 00 hr 59 min 18 sec)
Heartbeat CPU 0 instructions: 157000789 cycles: 251731854 heartbeat IPC: 0.4823 cumulative IPC: 0.5108 (Simulation time: 00 hr 59 min 31 sec)
Heartbeat CPU 0 instructions: 157500795 cycles: 252883398 heartbeat IPC: 0.4342 cumulative IPC: 0.5104 (Simulation time: 00 hr 59 min 47 sec)
Heartbeat CPU 0 instructions: 158000797 cycles: 254038424 heartbeat IPC: 0.4329 cumulative IPC: 0.51 (Simulation time: 01 hr 00 min 02 sec)
Heartbeat CPU 0 instructions: 158500799 cycles: 255155962 heartbeat IPC: 0.4474 cumulative IPC: 0.5096 (Simulation time: 01 hr 00 min 16 sec)
Heartbeat CPU 0 instructions: 159000801 cycles: 256217941 heartbeat IPC: 0.4708 cumulative IPC: 0.5094 (Simulation time: 01 hr 00 min 30 sec)
Heartbeat CPU 0 instructions: 159500803 cycles: 257059312 heartbeat IPC: 0.5943 cumulative IPC: 0.5098 (Simulation time: 01 hr 00 min 41 sec)
Heartbeat CPU 0 instructions: 160000805 cycles: 257853292 heartbeat IPC: 0.6297 cumulative IPC: 0.5102 (Simulation time: 01 hr 00 min 52 sec)
Heartbeat CPU 0 instructions: 160500805 cycles: 258594404 heartbeat IPC: 0.6747 cumulative IPC: 0.5108 (Simulation time: 01 hr 01 min 02 sec)
Heartbeat CPU 0 instructions: 161000807 cycles: 259620467 heartbeat IPC: 0.4873 cumulative IPC: 0.5107 (Simulation time: 01 hr 01 min 16 sec)
Heartbeat CPU 0 instructions: 161500814 cycles: 260682636 heartbeat IPC: 0.4707 cumulative IPC: 0.5105 (Simulation time: 01 hr 01 min 30 sec)
Heartbeat CPU 0 instructions: 162000818 cycles: 261744880 heartbeat IPC: 0.4707 cumulative IPC: 0.5103 (Simulation time: 01 hr 01 min 45 sec)
Heartbeat CPU 0 instructions: 162500818 cycles: 262808846 heartbeat IPC: 0.4699 cumulative IPC: 0.5101 (Simulation time: 01 hr 02 min 00 sec)
Heartbeat CPU 0 instructions: 163000818 cycles: 263707972 heartbeat IPC: 0.5561 cumulative IPC: 0.5103 (Simulation time: 01 hr 02 min 14 sec)
Heartbeat CPU 0 instructions: 163500821 cycles: 264594647 heartbeat IPC: 0.5639 cumulative IPC: 0.5105 (Simulation time: 01 hr 02 min 28 sec)
Heartbeat CPU 0 instructions: 164000823 cycles: 265478358 heartbeat IPC: 0.5658 cumulative IPC: 0.5107 (Simulation time: 01 hr 02 min 42 sec)
Heartbeat CPU 0 instructions: 164500828 cycles: 266311896 heartbeat IPC: 0.5999 cumulative IPC: 0.511 (Simulation time: 01 hr 02 min 55 sec)
Heartbeat CPU 0 instructions: 165000828 cycles: 267145315 heartbeat IPC: 0.5999 cumulative IPC: 0.5114 (Simulation time: 01 hr 03 min 08 sec)
Heartbeat CPU 0 instructions: 165500834 cycles: 267632627 heartbeat IPC: 1.026 cumulative IPC: 0.5125 (Simulation time: 01 hr 03 min 16 sec)
Heartbeat CPU 0 instructions: 166000837 cycles: 268334111 heartbeat IPC: 0.7128 cumulative IPC: 0.5131 (Simulation time: 01 hr 03 min 26 sec)
Heartbeat CPU 0 instructions: 166500841 cycles: 269078312 heartbeat IPC: 0.6719 cumulative IPC: 0.5136 (Simulation time: 01 hr 03 min 36 sec)
Heartbeat CPU 0 instructions: 167000842 cycles: 269896836 heartbeat IPC: 0.6109 cumulative IPC: 0.514 (Simulation time: 01 hr 03 min 47 sec)
Heartbeat CPU 0 instructions: 167500849 cycles: 270745716 heartbeat IPC: 0.589 cumulative IPC: 0.5143 (Simulation time: 01 hr 03 min 59 sec)
Heartbeat CPU 0 instructions: 168000852 cycles: 271588970 heartbeat IPC: 0.5929 cumulative IPC: 0.5145 (Simulation time: 01 hr 04 min 11 sec)
Heartbeat CPU 0 instructions: 168500852 cycles: 272404473 heartbeat IPC: 0.6131 cumulative IPC: 0.5149 (Simulation time: 01 hr 04 min 22 sec)
Heartbeat CPU 0 instructions: 169000852 cycles: 273297646 heartbeat IPC: 0.5598 cumulative IPC: 0.5151 (Simulation time: 01 hr 04 min 35 sec)
Heartbeat CPU 0 instructions: 169500852 cycles: 274187959 heartbeat IPC: 0.5616 cumulative IPC: 0.5152 (Simulation time: 01 hr 04 min 48 sec)
Heartbeat CPU 0 instructions: 170000854 cycles: 275050526 heartbeat IPC: 0.5797 cumulative IPC: 0.5155 (Simulation time: 01 hr 05 min 01 sec)
Heartbeat CPU 0 instructions: 170500858 cycles: 275881737 heartbeat IPC: 0.6015 cumulative IPC: 0.5158 (Simulation time: 01 hr 05 min 12 sec)
Heartbeat CPU 0 instructions: 171000858 cycles: 276586428 heartbeat IPC: 0.7095 cumulative IPC: 0.5164 (Simulation time: 01 hr 05 min 22 sec)
Heartbeat CPU 0 instructions: 171500858 cycles: 277199805 heartbeat IPC: 0.8152 cumulative IPC: 0.5172 (Simulation time: 01 hr 05 min 30 sec)
Heartbeat CPU 0 instructions: 172000858 cycles: 277814501 heartbeat IPC: 0.8134 cumulative IPC: 0.5179 (Simulation time: 01 hr 05 min 38 sec)
Heartbeat CPU 0 instructions: 172500860 cycles: 278620873 heartbeat IPC: 0.6201 cumulative IPC: 0.5183 (Simulation time: 01 hr 05 min 49 sec)
Heartbeat CPU 0 instructions: 173000861 cycles: 279462018 heartbeat IPC: 0.5944 cumulative IPC: 0.5185 (Simulation time: 01 hr 06 min 00 sec)
Heartbeat CPU 0 instructions: 173500867 cycles: 280294139 heartbeat IPC: 0.6009 cumulative IPC: 0.5188 (Simulation time: 01 hr 06 min 12 sec)
Heartbeat CPU 0 instructions: 174000873 cycles: 281126416 heartbeat IPC: 0.6008 cumulative IPC: 0.5191 (Simulation time: 01 hr 06 min 24 sec)
Heartbeat CPU 0 instructions: 174500875 cycles: 281960267 heartbeat IPC: 0.5996 cumulative IPC: 0.5194 (Simulation time: 01 hr 06 min 37 sec)
Heartbeat CPU 0 instructions: 175000875 cycles: 282847513 heartbeat IPC: 0.5635 cumulative IPC: 0.5196 (Simulation time: 01 hr 06 min 51 sec)
Heartbeat CPU 0 instructions: 175500882 cycles: 283732546 heartbeat IPC: 0.565 cumulative IPC: 0.5197 (Simulation time: 01 hr 07 min 05 sec)
Heartbeat CPU 0 instructions: 176000888 cycles: 284567337 heartbeat IPC: 0.599 cumulative IPC: 0.52 (Simulation time: 01 hr 07 min 18 sec)
Heartbeat CPU 0 instructions: 176500891 cycles: 285396659 heartbeat IPC: 0.6029 cumulative IPC: 0.5203 (Simulation time: 01 hr 07 min 30 sec)
Heartbeat CPU 0 instructions: 177000893 cycles: 285877769 heartbeat IPC: 1.039 cumulative IPC: 0.5213 (Simulation time: 01 hr 07 min 38 sec)
Heartbeat CPU 0 instructions: 177500893 cycles: 286607008 heartbeat IPC: 0.6856 cumulative IPC: 0.5218 (Simulation time: 01 hr 07 min 48 sec)
Heartbeat CPU 0 instructions: 178000900 cycles: 287316492 heartbeat IPC: 0.7047 cumulative IPC: 0.5223 (Simulation time: 01 hr 07 min 58 sec)
Heartbeat CPU 0 instructions: 178500900 cycles: 288124245 heartbeat IPC: 0.619 cumulative IPC: 0.5226 (Simulation time: 01 hr 08 min 09 sec)
Heartbeat CPU 0 instructions: 179000903 cycles: 288959541 heartbeat IPC: 0.5986 cumulative IPC: 0.5229 (Simulation time: 01 hr 08 min 21 sec)
Heartbeat CPU 0 instructions: 179500905 cycles: 289790971 heartbeat IPC: 0.6014 cumulative IPC: 0.5232 (Simulation time: 01 hr 08 min 33 sec)
Heartbeat CPU 0 instructions: 180000912 cycles: 290597153 heartbeat IPC: 0.6202 cumulative IPC: 0.5235 (Simulation time: 01 hr 08 min 45 sec)
Heartbeat CPU 0 instructions: 180500913 cycles: 291483455 heartbeat IPC: 0.5641 cumulative IPC: 0.5236 (Simulation time: 01 hr 08 min 59 sec)
Heartbeat CPU 0 instructions: 181000915 cycles: 292370024 heartbeat IPC: 0.564 cumulative IPC: 0.5238 (Simulation time: 01 hr 09 min 13 sec)
Heartbeat CPU 0 instructions: 181500922 cycles: 293247880 heartbeat IPC: 0.5696 cumulative IPC: 0.5239 (Simulation time: 01 hr 09 min 27 sec)
Heartbeat CPU 0 instructions: 182000924 cycles: 294059654 heartbeat IPC: 0.6159 cumulative IPC: 0.5242 (Simulation time: 01 hr 09 min 39 sec)
Heartbeat CPU 0 instructions: 182500928 cycles: 294791028 heartbeat IPC: 0.6837 cumulative IPC: 0.5247 (Simulation time: 01 hr 09 min 50 sec)
Heartbeat CPU 0 instructions: 183000933 cycles: 295373936 heartbeat IPC: 0.8578 cumulative IPC: 0.5255 (Simulation time: 01 hr 09 min 59 sec)
Heartbeat CPU 0 instructions: 183500937 cycles: 295983975 heartbeat IPC: 0.8196 cumulative IPC: 0.5262 (Simulation time: 01 hr 10 min 08 sec)
Heartbeat CPU 0 instructions: 184000940 cycles: 296797852 heartbeat IPC: 0.6143 cumulative IPC: 0.5264 (Simulation time: 01 hr 10 min 19 sec)
Heartbeat CPU 0 instructions: 184500946 cycles: 297649769 heartbeat IPC: 0.5869 cumulative IPC: 0.5266 (Simulation time: 01 hr 10 min 31 sec)
Heartbeat CPU 0 instructions: 185000948 cycles: 298492553 heartbeat IPC: 0.5933 cumulative IPC: 0.5269 (Simulation time: 01 hr 10 min 42 sec)
Heartbeat CPU 0 instructions: 185500948 cycles: 299336734 heartbeat IPC: 0.5923 cumulative IPC: 0.5271 (Simulation time: 01 hr 10 min 54 sec)
Heartbeat CPU 0 instructions: 186000950 cycles: 300176489 heartbeat IPC: 0.5954 cumulative IPC: 0.5273 (Simulation time: 01 hr 11 min 06 sec)
Heartbeat CPU 0 instructions: 186500956 cycles: 301068503 heartbeat IPC: 0.5605 cumulative IPC: 0.5274 (Simulation time: 01 hr 11 min 19 sec)
Heartbeat CPU 0 instructions: 187000956 cycles: 301954245 heartbeat IPC: 0.5645 cumulative IPC: 0.5275 (Simulation time: 01 hr 11 min 32 sec)
Heartbeat CPU 0 instructions: 187500956 cycles: 302789964 heartbeat IPC: 0.5983 cumulative IPC: 0.5278 (Simulation time: 01 hr 11 min 44 sec)
Heartbeat CPU 0 instructions: 188000956 cycles: 303625270 heartbeat IPC: 0.5986 cumulative IPC: 0.528 (Simulation time: 01 hr 11 min 56 sec)
Heartbeat CPU 0 instructions: 188500960 cycles: 304106342 heartbeat IPC: 1.039 cumulative IPC: 0.5289 (Simulation time: 01 hr 12 min 03 sec)
Heartbeat CPU 0 instructions: 189000967 cycles: 304869992 heartbeat IPC: 0.6548 cumulative IPC: 0.5293 (Simulation time: 01 hr 12 min 14 sec)
Heartbeat CPU 0 instructions: 189500969 cycles: 305548641 heartbeat IPC: 0.7368 cumulative IPC: 0.5298 (Simulation time: 01 hr 12 min 23 sec)
Heartbeat CPU 0 instructions: 190000971 cycles: 306353162 heartbeat IPC: 0.6215 cumulative IPC: 0.5301 (Simulation time: 01 hr 12 min 35 sec)
Heartbeat CPU 0 instructions: 190500977 cycles: 307187634 heartbeat IPC: 0.5992 cumulative IPC: 0.5303 (Simulation time: 01 hr 12 min 46 sec)
Heartbeat CPU 0 instructions: 191000978 cycles: 308019751 heartbeat IPC: 0.6009 cumulative IPC: 0.5306 (Simulation time: 01 hr 12 min 57 sec)
Heartbeat CPU 0 instructions: 191500985 cycles: 308823748 heartbeat IPC: 0.6219 cumulative IPC: 0.5308 (Simulation time: 01 hr 13 min 09 sec)
Heartbeat CPU 0 instructions: 192000985 cycles: 309718022 heartbeat IPC: 0.5591 cumulative IPC: 0.5309 (Simulation time: 01 hr 13 min 23 sec)
Heartbeat CPU 0 instructions: 192500992 cycles: 310613614 heartbeat IPC: 0.5583 cumulative IPC: 0.531 (Simulation time: 01 hr 13 min 37 sec)
Heartbeat CPU 0 instructions: 193000992 cycles: 311508203 heartbeat IPC: 0.5589 cumulative IPC: 0.5311 (Simulation time: 01 hr 13 min 51 sec)
Heartbeat CPU 0 instructions: 193500998 cycles: 312321431 heartbeat IPC: 0.6148 cumulative IPC: 0.5314 (Simulation time: 01 hr 14 min 03 sec)
Heartbeat CPU 0 instructions: 194000998 cycles: 313072089 heartbeat IPC: 0.6661 cumulative IPC: 0.5317 (Simulation time: 01 hr 14 min 14 sec)
Heartbeat CPU 0 instructions: 194501000 cycles: 313624810 heartbeat IPC: 0.9046 cumulative IPC: 0.5325 (Simulation time: 01 hr 14 min 22 sec)
Heartbeat CPU 0 instructions: 195001000 cycles: 314221337 heartbeat IPC: 0.8382 cumulative IPC: 0.5332 (Simulation time: 01 hr 14 min 30 sec)
Heartbeat CPU 0 instructions: 195501000 cycles: 314998041 heartbeat IPC: 0.6437 cumulative IPC: 0.5335 (Simulation time: 01 hr 14 min 41 sec)
Heartbeat CPU 0 instructions: 196001001 cycles: 315828422 heartbeat IPC: 0.6021 cumulative IPC: 0.5337 (Simulation time: 01 hr 14 min 53 sec)
Heartbeat CPU 0 instructions: 196501001 cycles: 316648942 heartbeat IPC: 0.6094 cumulative IPC: 0.5339 (Simulation time: 01 hr 15 min 04 sec)
Heartbeat CPU 0 instructions: 197001006 cycles: 317468145 heartbeat IPC: 0.6104 cumulative IPC: 0.5341 (Simulation time: 01 hr 15 min 16 sec)
Heartbeat CPU 0 instructions: 197501009 cycles: 318301760 heartbeat IPC: 0.5998 cumulative IPC: 0.5343 (Simulation time: 01 hr 15 min 28 sec)
Heartbeat CPU 0 instructions: 198001009 cycles: 319195251 heartbeat IPC: 0.5596 cumulative IPC: 0.5344 (Simulation time: 01 hr 15 min 41 sec)
Heartbeat CPU 0 instructions: 198501013 cycles: 320088315 heartbeat IPC: 0.5599 cumulative IPC: 0.5345 (Simulation time: 01 hr 15 min 54 sec)
Heartbeat CPU 0 instructions: 199001015 cycles: 320928669 heartbeat IPC: 0.595 cumulative IPC: 0.5347 (Simulation time: 01 hr 16 min 07 sec)
Heartbeat CPU 0 instructions: 199501021 cycles: 321758078 heartbeat IPC: 0.6028 cumulative IPC: 0.5349 (Simulation time: 01 hr 16 min 19 sec)
Heartbeat CPU 0 instructions: 200001021 cycles: 322234201 heartbeat IPC: 1.05 cumulative IPC: 0.5358 (Simulation time: 01 hr 16 min 26 sec)
Heartbeat CPU 0 instructions: 200501021 cycles: 323008478 heartbeat IPC: 0.6458 cumulative IPC: 0.5361 (Simulation time: 01 hr 16 min 37 sec)
Heartbeat CPU 0 instructions: 201001024 cycles: 323672569 heartbeat IPC: 0.7529 cumulative IPC: 0.5366 (Simulation time: 01 hr 16 min 46 sec)
Heartbeat CPU 0 instructions: 201501025 cycles: 324488053 heartbeat IPC: 0.6131 cumulative IPC: 0.5368 (Simulation time: 01 hr 16 min 58 sec)
Heartbeat CPU 0 instructions: 202001030 cycles: 325334743 heartbeat IPC: 0.5905 cumulative IPC: 0.537 (Simulation time: 01 hr 17 min 09 sec)
Heartbeat CPU 0 instructions: 202501031 cycles: 326180122 heartbeat IPC: 0.5915 cumulative IPC: 0.5371 (Simulation time: 01 hr 17 min 21 sec)
Heartbeat CPU 0 instructions: 203001038 cycles: 326991169 heartbeat IPC: 0.6165 cumulative IPC: 0.5374 (Simulation time: 01 hr 17 min 32 sec)
Heartbeat CPU 0 instructions: 203501044 cycles: 327876758 heartbeat IPC: 0.5646 cumulative IPC: 0.5374 (Simulation time: 01 hr 17 min 45 sec)
Heartbeat CPU 0 instructions: 204001045 cycles: 328763538 heartbeat IPC: 0.5638 cumulative IPC: 0.5375 (Simulation time: 01 hr 17 min 58 sec)
Heartbeat CPU 0 instructions: 204501045 cycles: 329648442 heartbeat IPC: 0.565 cumulative IPC: 0.5376 (Simulation time: 01 hr 18 min 12 sec)
Heartbeat CPU 0 instructions: 205001045 cycles: 330459843 heartbeat IPC: 0.6162 cumulative IPC: 0.5378 (Simulation time: 01 hr 18 min 23 sec)
Heartbeat CPU 0 instructions: 205501049 cycles: 331240108 heartbeat IPC: 0.6408 cumulative IPC: 0.5381 (Simulation time: 01 hr 18 min 34 sec)
Heartbeat CPU 0 instructions: 206001050 cycles: 331772146 heartbeat IPC: 0.9398 cumulative IPC: 0.5388 (Simulation time: 01 hr 18 min 41 sec)
Heartbeat CPU 0 instructions: 206501050 cycles: 332383822 heartbeat IPC: 0.8174 cumulative IPC: 0.5394 (Simulation time: 01 hr 18 min 50 sec)
Heartbeat CPU 0 instructions: 207001050 cycles: 333187533 heartbeat IPC: 0.6221 cumulative IPC: 0.5397 (Simulation time: 01 hr 19 min 01 sec)
Heartbeat CPU 0 instructions: 207501055 cycles: 334022459 heartbeat IPC: 0.5989 cumulative IPC: 0.5398 (Simulation time: 01 hr 19 min 13 sec)
Heartbeat CPU 0 instructions: 208001055 cycles: 334853121 heartbeat IPC: 0.6019 cumulative IPC: 0.54 (Simulation time: 01 hr 19 min 25 sec)
Heartbeat CPU 0 instructions: 208501057 cycles: 335679938 heartbeat IPC: 0.6047 cumulative IPC: 0.5402 (Simulation time: 01 hr 19 min 36 sec)
Heartbeat CPU 0 instructions: 209001058 cycles: 336488412 heartbeat IPC: 0.6185 cumulative IPC: 0.5404 (Simulation time: 01 hr 19 min 48 sec)
Heartbeat CPU 0 instructions: 209501063 cycles: 337349367 heartbeat IPC: 0.5808 cumulative IPC: 0.5405 (Simulation time: 01 hr 20 min 01 sec)
Heartbeat CPU 0 instructions: 210001063 cycles: 338210348 heartbeat IPC: 0.5807 cumulative IPC: 0.5406 (Simulation time: 01 hr 20 min 15 sec)
Heartbeat CPU 0 instructions: 210501068 cycles: 339017035 heartbeat IPC: 0.6198 cumulative IPC: 0.5408 (Simulation time: 01 hr 20 min 27 sec)
Heartbeat CPU 0 instructions: 211001072 cycles: 339806989 heartbeat IPC: 0.633 cumulative IPC: 0.5411 (Simulation time: 01 hr 20 min 38 sec)
Heartbeat CPU 0 instructions: 211501072 cycles: 340603989 heartbeat IPC: 0.6274 cumulative IPC: 0.5413 (Simulation time: 01 hr 20 min 49 sec)
Heartbeat CPU 0 instructions: 212001075 cycles: 341401177 heartbeat IPC: 0.6272 cumulative IPC: 0.5416 (Simulation time: 01 hr 21 min 01 sec)
Heartbeat CPU 0 instructions: 212501077 cycles: 342203842 heartbeat IPC: 0.6229 cumulative IPC: 0.5418 (Simulation time: 01 hr 21 min 12 sec)
Heartbeat CPU 0 instructions: 213001079 cycles: 343001609 heartbeat IPC: 0.6268 cumulative IPC: 0.542 (Simulation time: 01 hr 21 min 24 sec)
Heartbeat CPU 0 instructions: 213501081 cycles: 343800570 heartbeat IPC: 0.6258 cumulative IPC: 0.5422 (Simulation time: 01 hr 21 min 35 sec)
Heartbeat CPU 0 instructions: 214001082 cycles: 344598373 heartbeat IPC: 0.6267 cumulative IPC: 0.5424 (Simulation time: 01 hr 21 min 46 sec)
Heartbeat CPU 0 instructions: 214501082 cycles: 345422121 heartbeat IPC: 0.607 cumulative IPC: 0.5426 (Simulation time: 01 hr 21 min 58 sec)
Heartbeat CPU 0 instructions: 215001084 cycles: 346254221 heartbeat IPC: 0.6009 cumulative IPC: 0.5428 (Simulation time: 01 hr 22 min 10 sec)
Heartbeat CPU 0 instructions: 215501091 cycles: 347084205 heartbeat IPC: 0.6024 cumulative IPC: 0.5429 (Simulation time: 01 hr 22 min 23 sec)
Heartbeat CPU 0 instructions: 216001093 cycles: 347920755 heartbeat IPC: 0.5977 cumulative IPC: 0.5431 (Simulation time: 01 hr 22 min 35 sec)
Heartbeat CPU 0 instructions: 216501093 cycles: 348757194 heartbeat IPC: 0.5978 cumulative IPC: 0.5432 (Simulation time: 01 hr 22 min 47 sec)
Heartbeat CPU 0 instructions: 217001096 cycles: 349587546 heartbeat IPC: 0.6022 cumulative IPC: 0.5434 (Simulation time: 01 hr 23 min 00 sec)
Heartbeat CPU 0 instructions: 217501096 cycles: 350419886 heartbeat IPC: 0.6007 cumulative IPC: 0.5436 (Simulation time: 01 hr 23 min 12 sec)
Heartbeat CPU 0 instructions: 218001100 cycles: 351258167 heartbeat IPC: 0.5965 cumulative IPC: 0.5437 (Simulation time: 01 hr 23 min 24 sec)
Heartbeat CPU 0 instructions: 218501106 cycles: 352089041 heartbeat IPC: 0.6018 cumulative IPC: 0.5439 (Simulation time: 01 hr 23 min 37 sec)
Heartbeat CPU 0 instructions: 219001109 cycles: 352927303 heartbeat IPC: 0.5965 cumulative IPC: 0.544 (Simulation time: 01 hr 23 min 49 sec)
Heartbeat CPU 0 instructions: 219501115 cycles: 353761912 heartbeat IPC: 0.5991 cumulative IPC: 0.5441 (Simulation time: 01 hr 24 min 02 sec)
Heartbeat CPU 0 instructions: 220001116 cycles: 354596996 heartbeat IPC: 0.5987 cumulative IPC: 0.5443 (Simulation time: 01 hr 24 min 14 sec)
Heartbeat CPU 0 instructions: 220501116 cycles: 355433036 heartbeat IPC: 0.5981 cumulative IPC: 0.5444 (Simulation time: 01 hr 24 min 27 sec)
Heartbeat CPU 0 instructions: 221001116 cycles: 356262012 heartbeat IPC: 0.6032 cumulative IPC: 0.5446 (Simulation time: 01 hr 24 min 39 sec)
Heartbeat CPU 0 instructions: 221501119 cycles: 357097634 heartbeat IPC: 0.5984 cumulative IPC: 0.5447 (Simulation time: 01 hr 24 min 52 sec)
Heartbeat CPU 0 instructions: 222001123 cycles: 357933330 heartbeat IPC: 0.5983 cumulative IPC: 0.5449 (Simulation time: 01 hr 25 min 04 sec)
Heartbeat CPU 0 instructions: 222501129 cycles: 358766785 heartbeat IPC: 0.5999 cumulative IPC: 0.545 (Simulation time: 01 hr 25 min 16 sec)
Heartbeat CPU 0 instructions: 223001132 cycles: 359599253 heartbeat IPC: 0.6006 cumulative IPC: 0.5452 (Simulation time: 01 hr 25 min 29 sec)
Heartbeat CPU 0 instructions: 223501136 cycles: 360432338 heartbeat IPC: 0.6002 cumulative IPC: 0.5453 (Simulation time: 01 hr 25 min 41 sec)
Heartbeat CPU 0 instructions: 224001136 cycles: 361264560 heartbeat IPC: 0.6008 cumulative IPC: 0.5454 (Simulation time: 01 hr 25 min 53 sec)
Heartbeat CPU 0 instructions: 224501136 cycles: 362096743 heartbeat IPC: 0.6008 cumulative IPC: 0.5456 (Simulation time: 01 hr 26 min 06 sec)
Heartbeat CPU 0 instructions: 225001137 cycles: 362927156 heartbeat IPC: 0.6021 cumulative IPC: 0.5457 (Simulation time: 01 hr 26 min 18 sec)
Heartbeat CPU 0 instructions: 225501139 cycles: 363761334 heartbeat IPC: 0.5994 cumulative IPC: 0.5459 (Simulation time: 01 hr 26 min 30 sec)
Heartbeat CPU 0 instructions: 226001146 cycles: 364597707 heartbeat IPC: 0.5978 cumulative IPC: 0.546 (Simulation time: 01 hr 26 min 43 sec)
Heartbeat CPU 0 instructions: 226501151 cycles: 365434847 heartbeat IPC: 0.5973 cumulative IPC: 0.5461 (Simulation time: 01 hr 26 min 55 sec)
Heartbeat CPU 0 instructions: 227001154 cycles: 366266704 heartbeat IPC: 0.6011 cumulative IPC: 0.5463 (Simulation time: 01 hr 27 min 07 sec)
Heartbeat CPU 0 instructions: 227501159 cycles: 367098445 heartbeat IPC: 0.6012 cumulative IPC: 0.5464 (Simulation time: 01 hr 27 min 20 sec)
Heartbeat CPU 0 instructions: 228001161 cycles: 367931650 heartbeat IPC: 0.6001 cumulative IPC: 0.5466 (Simulation time: 01 hr 27 min 32 sec)
Heartbeat CPU 0 instructions: 228501162 cycles: 368765525 heartbeat IPC: 0.5996 cumulative IPC: 0.5467 (Simulation time: 01 hr 27 min 45 sec)
Heartbeat CPU 0 instructions: 229001165 cycles: 369988773 heartbeat IPC: 0.4088 cumulative IPC: 0.5462 (Simulation time: 01 hr 27 min 58 sec)
Heartbeat CPU 0 instructions: 229501167 cycles: 370345801 heartbeat IPC: 1.4 cumulative IPC: 0.5471 (Simulation time: 01 hr 28 min 03 sec)
Heartbeat CPU 0 instructions: 230001171 cycles: 370654512 heartbeat IPC: 1.62 cumulative IPC: 0.5481 (Simulation time: 01 hr 28 min 07 sec)
Heartbeat CPU 0 instructions: 230501173 cycles: 370951808 heartbeat IPC: 1.682 cumulative IPC: 0.5491 (Simulation time: 01 hr 28 min 11 sec)
Heartbeat CPU 0 instructions: 231001174 cycles: 371234596 heartbeat IPC: 1.768 cumulative IPC: 0.5502 (Simulation time: 01 hr 28 min 15 sec)
Heartbeat CPU 0 instructions: 231501174 cycles: 371706031 heartbeat IPC: 1.061 cumulative IPC: 0.5509 (Simulation time: 01 hr 28 min 20 sec)
Heartbeat CPU 0 instructions: 232001176 cycles: 372149017 heartbeat IPC: 1.129 cumulative IPC: 0.5517 (Simulation time: 01 hr 28 min 25 sec)
Heartbeat CPU 0 instructions: 232501181 cycles: 372390685 heartbeat IPC: 2.069 cumulative IPC: 0.5528 (Simulation time: 01 hr 28 min 28 sec)
Heartbeat CPU 0 instructions: 233001181 cycles: 372629875 heartbeat IPC: 2.09 cumulative IPC: 0.5539 (Simulation time: 01 hr 28 min 32 sec)
Heartbeat CPU 0 instructions: 233501185 cycles: 372862795 heartbeat IPC: 2.147 cumulative IPC: 0.555 (Simulation time: 01 hr 28 min 35 sec)
Heartbeat CPU 0 instructions: 234001185 cycles: 373311254 heartbeat IPC: 1.115 cumulative IPC: 0.5558 (Simulation time: 01 hr 28 min 40 sec)
Heartbeat CPU 0 instructions: 234501188 cycles: 373781219 heartbeat IPC: 1.064 cumulative IPC: 0.5565 (Simulation time: 01 hr 28 min 45 sec)
Heartbeat CPU 0 instructions: 235001191 cycles: 374882337 heartbeat IPC: 0.4541 cumulative IPC: 0.5562 (Simulation time: 01 hr 28 min 59 sec)
Heartbeat CPU 0 instructions: 235501195 cycles: 375945600 heartbeat IPC: 0.4703 cumulative IPC: 0.5559 (Simulation time: 01 hr 29 min 15 sec)
Heartbeat CPU 0 instructions: 236001195 cycles: 376448099 heartbeat IPC: 0.995 cumulative IPC: 0.5566 (Simulation time: 01 hr 29 min 22 sec)
Heartbeat CPU 0 instructions: 236501199 cycles: 377260448 heartbeat IPC: 0.6155 cumulative IPC: 0.5567 (Simulation time: 01 hr 29 min 34 sec)
Heartbeat CPU 0 instructions: 237001204 cycles: 377862153 heartbeat IPC: 0.831 cumulative IPC: 0.5572 (Simulation time: 01 hr 29 min 42 sec)
Heartbeat CPU 0 instructions: 237501206 cycles: 378643599 heartbeat IPC: 0.6398 cumulative IPC: 0.5574 (Simulation time: 01 hr 29 min 53 sec)
Heartbeat CPU 0 instructions: 238001207 cycles: 379449613 heartbeat IPC: 0.6203 cumulative IPC: 0.5576 (Simulation time: 01 hr 30 min 05 sec)
Heartbeat CPU 0 instructions: 238501208 cycles: 380255274 heartbeat IPC: 0.6206 cumulative IPC: 0.5577 (Simulation time: 01 hr 30 min 16 sec)
Heartbeat CPU 0 instructions: 239001213 cycles: 381047797 heartbeat IPC: 0.6309 cumulative IPC: 0.5579 (Simulation time: 01 hr 30 min 27 sec)
Heartbeat CPU 0 instructions: 239501219 cycles: 381921701 heartbeat IPC: 0.5722 cumulative IPC: 0.5579 (Simulation time: 01 hr 30 min 40 sec)
Heartbeat CPU 0 instructions: 240001219 cycles: 382796434 heartbeat IPC: 0.5716 cumulative IPC: 0.5579 (Simulation time: 01 hr 30 min 53 sec)
Heartbeat CPU 0 instructions: 240501220 cycles: 383668845 heartbeat IPC: 0.5731 cumulative IPC: 0.558 (Simulation time: 01 hr 31 min 06 sec)
Heartbeat CPU 0 instructions: 241001221 cycles: 384456727 heartbeat IPC: 0.6346 cumulative IPC: 0.5582 (Simulation time: 01 hr 31 min 17 sec)
Heartbeat CPU 0 instructions: 241501224 cycles: 385266148 heartbeat IPC: 0.6177 cumulative IPC: 0.5583 (Simulation time: 01 hr 31 min 29 sec)
Heartbeat CPU 0 instructions: 242001226 cycles: 385727511 heartbeat IPC: 1.084 cumulative IPC: 0.559 (Simulation time: 01 hr 31 min 36 sec)
Heartbeat CPU 0 instructions: 242501227 cycles: 386322560 heartbeat IPC: 0.8403 cumulative IPC: 0.5595 (Simulation time: 01 hr 31 min 44 sec)
Heartbeat CPU 0 instructions: 243001227 cycles: 387105599 heartbeat IPC: 0.6385 cumulative IPC: 0.5597 (Simulation time: 01 hr 31 min 55 sec)
Heartbeat CPU 0 instructions: 243501232 cycles: 387909054 heartbeat IPC: 0.6223 cumulative IPC: 0.5598 (Simulation time: 01 hr 32 min 06 sec)
Heartbeat CPU 0 instructions: 244001234 cycles: 388715211 heartbeat IPC: 0.6202 cumulative IPC: 0.56 (Simulation time: 01 hr 32 min 18 sec)
Heartbeat CPU 0 instructions: 244501236 cycles: 389515503 heartbeat IPC: 0.6248 cumulative IPC: 0.5601 (Simulation time: 01 hr 32 min 29 sec)
Heartbeat CPU 0 instructions: 245001241 cycles: 390339432 heartbeat IPC: 0.6069 cumulative IPC: 0.5602 (Simulation time: 01 hr 32 min 41 sec)
Heartbeat CPU 0 instructions: 245501247 cycles: 391216260 heartbeat IPC: 0.5702 cumulative IPC: 0.5602 (Simulation time: 01 hr 32 min 54 sec)
Heartbeat CPU 0 instructions: 246001250 cycles: 392096770 heartbeat IPC: 0.5679 cumulative IPC: 0.5603 (Simulation time: 01 hr 33 min 07 sec)
Heartbeat CPU 0 instructions: 246501250 cycles: 392933143 heartbeat IPC: 0.5978 cumulative IPC: 0.5604 (Simulation time: 01 hr 33 min 19 sec)
Heartbeat CPU 0 instructions: 247001257 cycles: 393739574 heartbeat IPC: 0.62 cumulative IPC: 0.5605 (Simulation time: 01 hr 33 min 30 sec)
Heartbeat CPU 0 instructions: 247501257 cycles: 394281604 heartbeat IPC: 0.9225 cumulative IPC: 0.561 (Simulation time: 01 hr 33 min 38 sec)
Heartbeat CPU 0 instructions: 248001264 cycles: 395015596 heartbeat IPC: 0.6812 cumulative IPC: 0.5613 (Simulation time: 01 hr 33 min 48 sec)
Heartbeat CPU 0 instructions: 248501267 cycles: 395596898 heartbeat IPC: 0.8601 cumulative IPC: 0.5618 (Simulation time: 01 hr 33 min 57 sec)
Heartbeat CPU 0 instructions: 249001269 cycles: 396374812 heartbeat IPC: 0.6427 cumulative IPC: 0.562 (Simulation time: 01 hr 34 min 07 sec)
Heartbeat CPU 0 instructions: 249501273 cycles: 397179549 heartbeat IPC: 0.6213 cumulative IPC: 0.5621 (Simulation time: 01 hr 34 min 19 sec)
Simulation finished CPU 0 instructions: 200000004 cycles: 355720051 cumulative IPC: 0.5622 (Simulation time: 01 hr 34 min 30 sec)
Simulation complete CPU 0 instructions: 200000004 cycles: 355720051 cumulative IPC: 0.5622 (Simulation time: 01 hr 34 min 30 sec)

ChampSim completed all CPUs

=== Simulation ===
CPU 0 runs /local-ssd/ben/dpc4-traces/ai-ml/biogpt.cpp-ggml-model-tocilizumab.2.champsimtrace.gz

Region of Interest Statistics

CPU 0 cumulative IPC: 0.5622 instructions: 200000004 cycles: 355720051
CPU 0 Branch Prediction Accuracy: 97.7% MPKI: 2.211 Average ROB Occupancy at Mispredict: 350.2
Branch type MPKI
BRANCH_DIRECT_JUMP: 0.002405
BRANCH_INDIRECT: 0.00785
BRANCH_CONDITIONAL: 2.182
BRANCH_DIRECT_CALL: 0.00288
BRANCH_INDIRECT_CALL: 0.002625
BRANCH_RETURN: 0.0132

cpu0->cpu0_STLB TOTAL        ACCESS:     451094 HIT:      35175 MISS:     415919 MSHR_MERGE:          0
cpu0->cpu0_STLB LOAD         ACCESS:     451094 HIT:      35175 MISS:     415919 MSHR_MERGE:          0
cpu0->cpu0_STLB RFO          ACCESS:          0 HIT:          0 MISS:          0 MSHR_MERGE:          0
cpu0->cpu0_STLB PREFETCH     ACCESS:          0 HIT:          0 MISS:          0 MSHR_MERGE:          0
cpu0->cpu0_STLB WRITE        ACCESS:          0 HIT:          0 MISS:          0 MSHR_MERGE:          0
cpu0->cpu0_STLB TRANSLATION  ACCESS:          0 HIT:          0 MISS:          0 MSHR_MERGE:          0
cpu0->cpu0_STLB PREFETCH REQUESTED:          0 ISSUED:          0 USEFUL:          0 USELESS:          0
cpu0->cpu0_STLB AVERAGE MISS LATENCY: 161.5 cycles
cpu0->cpu0_L2C TOTAL        ACCESS:   89172811 HIT:    7568702 MISS:   81604109 MSHR_MERGE:   54966410
cpu0->cpu0_L2C LOAD         ACCESS:   17429158 HIT:    3110278 MISS:   14318880 MSHR_MERGE:   11515783
cpu0->cpu0_L2C RFO          ACCESS:     231551 HIT:      46784 MISS:     184767 MSHR_MERGE:        682
cpu0->cpu0_L2C PREFETCH     ACCESS:   71107880 HIT:    4068966 MISS:   67038914 MSHR_MERGE:   43449945
cpu0->cpu0_L2C WRITE        ACCESS:     348852 HIT:     341769 MISS:       7083 MSHR_MERGE:          0
cpu0->cpu0_L2C TRANSLATION  ACCESS:      55370 HIT:        905 MISS:      54465 MSHR_MERGE:          0
cpu0->cpu0_L2C PREFETCH REQUESTED:   70554164 ISSUED:   60368106 USEFUL:   13595773 USELESS:    5483915
cpu0->cpu0_L2C AVERAGE MISS LATENCY: 145 cycles
cpu0->cpu0_L1I TOTAL        ACCESS:   30275506 HIT:   30271728 MISS:       3778 MSHR_MERGE:        784
cpu0->cpu0_L1I LOAD         ACCESS:   30275506 HIT:   30271728 MISS:       3778 MSHR_MERGE:        784
cpu0->cpu0_L1I RFO          ACCESS:          0 HIT:          0 MISS:          0 MSHR_MERGE:          0
cpu0->cpu0_L1I PREFETCH     ACCESS:          0 HIT:          0 MISS:          0 MSHR_MERGE:          0
cpu0->cpu0_L1I WRITE        ACCESS:          0 HIT:          0 MISS:          0 MSHR_MERGE:          0
cpu0->cpu0_L1I TRANSLATION  ACCESS:          0 HIT:          0 MISS:          0 MSHR_MERGE:          0
cpu0->cpu0_L1I PREFETCH REQUESTED:          0 ISSUED:          0 USEFUL:          0 USELESS:          0
cpu0->cpu0_L1I AVERAGE MISS LATENCY: 239.4 cycles
cpu0->cpu0_L1D TOTAL        ACCESS:  106833196 HIT:   53571588 MISS:   53261608 MSHR_MERGE:   24808681
cpu0->cpu0_L1D LOAD         ACCESS:   61956696 HIT:   32089924 MISS:   29866772 MSHR_MERGE:   12440605
cpu0->cpu0_L1D RFO          ACCESS:          0 HIT:          0 MISS:          0 MSHR_MERGE:          0
cpu0->cpu0_L1D PREFETCH     ACCESS:   36752896 HIT:   17613085 MISS:   19139811 MSHR_MERGE:    8400020
cpu0->cpu0_L1D WRITE        ACCESS:    7292997 HIT:    3094652 MISS:    4198345 MSHR_MERGE:    3966746
cpu0->cpu0_L1D TRANSLATION  ACCESS:     830607 HIT:     773927 MISS:      56680 MSHR_MERGE:       1310
cpu0->cpu0_L1D PREFETCH REQUESTED:  305995241 ISSUED:   36752891 USEFUL:   10350891 USELESS:     388888
cpu0->cpu0_L1D AVERAGE MISS LATENCY: 137.1 cycles
cpu0->cpu0_ITLB TOTAL        ACCESS:   20334203 HIT:   20333562 MISS:        641 MSHR_MERGE:        262
cpu0->cpu0_ITLB LOAD         ACCESS:   20334203 HIT:   20333562 MISS:        641 MSHR_MERGE:        262
cpu0->cpu0_ITLB RFO          ACCESS:          0 HIT:          0 MISS:          0 MSHR_MERGE:          0
cpu0->cpu0_ITLB PREFETCH     ACCESS:          0 HIT:          0 MISS:          0 MSHR_MERGE:          0
cpu0->cpu0_ITLB WRITE        ACCESS:          0 HIT:          0 MISS:          0 MSHR_MERGE:          0
cpu0->cpu0_ITLB TRANSLATION  ACCESS:          0 HIT:          0 MISS:          0 MSHR_MERGE:          0
cpu0->cpu0_ITLB PREFETCH REQUESTED:          0 ISSUED:          0 USEFUL:          0 USELESS:          0
cpu0->cpu0_ITLB AVERAGE MISS LATENCY: 160.6 cycles
cpu0->cpu0_DTLB TOTAL        ACCESS:   94979611 HIT:   90559049 MISS:    4420562 MSHR_MERGE:    3969847
cpu0->cpu0_DTLB LOAD         ACCESS:   94979611 HIT:   90559049 MISS:    4420562 MSHR_MERGE:    3969847
cpu0->cpu0_DTLB RFO          ACCESS:          0 HIT:          0 MISS:          0 MSHR_MERGE:          0
cpu0->cpu0_DTLB PREFETCH     ACCESS:          0 HIT:          0 MISS:          0 MSHR_MERGE:          0
cpu0->cpu0_DTLB WRITE        ACCESS:          0 HIT:          0 MISS:          0 MSHR_MERGE:          0
cpu0->cpu0_DTLB TRANSLATION  ACCESS:          0 HIT:          0 MISS:          0 MSHR_MERGE:          0
cpu0->cpu0_DTLB PREFETCH REQUESTED:          0 ISSUED:          0 USEFUL:          0 USELESS:          0
cpu0->cpu0_DTLB AVERAGE MISS LATENCY: 154.9 cycles
cpu0->LLC TOTAL        ACCESS:   33745324 HIT:     862999 MISS:   32882325 MSHR_MERGE:    6380029
cpu0->LLC LOAD         ACCESS:    2803094 HIT:     149953 MISS:    2653141 MSHR_MERGE:     465979
cpu0->LLC RFO          ACCESS:     184085 HIT:      79390 MISS:     104695 MSHR_MERGE:        102
cpu0->LLC PREFETCH     ACCESS:   30482448 HIT:     493047 MISS:   29989401 MSHR_MERGE:    5913948
cpu0->LLC WRITE        ACCESS:     221232 HIT:     140531 MISS:      80701 MSHR_MERGE:          0
cpu0->LLC TRANSLATION  ACCESS:      54465 HIT:         78 MISS:      54387 MSHR_MERGE:          0
cpu0->LLC PREFETCH REQUESTED:    6946225 ISSUED:    6893494 USEFUL:     835768 USELESS:    2044871
cpu0->LLC AVERAGE MISS LATENCY: 213.1 cycles

DRAM Statistics

Channel 0 RQ ROW_BUFFER_HIT:   12388571
  ROW_BUFFER_MISS:   14032514
  AVG DBUS CONGESTED CYCLE: 4.209
Channel 0 WQ ROW_BUFFER_HIT:       4194
  ROW_BUFFER_MISS:     103520
  FULL:       2071
Channel 0 REFRESHES ISSUED:      29641
