[VMEM] WARNING: physical memory size is smaller than virtual memory size.

*** ChampSim Multicore Out-of-Order Simulator ***
Warmup Instructions: 50000000
Simulation Instructions: 200000000
Number of CPUs: 1
Page size: 4096
Core 0: /local-ssd/ben/dpc4-traces/gtraces_v2/arizona_0002.champsim.gz
Off-chip DRAM Size: 64 GiB Channels: 1 Width: 64-bit Data Rate: 4807 MT/s
[BTB] WARNING: target of return is a lower address than the corresponding call. This is usually a problem with your trace.
[BTB] WARNING: target of return is a lower address than the corresponding call. This is usually a problem with your trace.
[BTB] WARNING: target of return is a lower address than the corresponding call. This is usually a problem with your trace.
[BTB] WARNING: target of return is a lower address than the corresponding call. This is usually a problem with your trace.
[BTB] WARNING: target of return is a lower address than the corresponding call. This is usually a problem with your trace.
[BTB] WARNING: target of return is a lower address than the corresponding call. This is usually a problem with your trace.
[BTB] WARNING: target of return is a lower address than the corresponding call. This is usually a problem with your trace.
[BTB] WARNING: target of return is a lower address than the corresponding call. This is usually a problem with your trace.
[BTB] WARNING: target of return is a lower address than the corresponding call. This is usually a problem with your trace.
[BTB] WARNING: target of return is a lower address than the corresponding call. This is usually a problem with your trace.
Heartbeat CPU 0 instructions: 500005 cycles: 283718 heartbeat IPC: 1.762 cumulative IPC: 1.762 (Simulation time: 00 hr 00 min 04 sec)
Heartbeat CPU 0 instructions: 1000010 cycles: 536579 heartbeat IPC: 1.977 cumulative IPC: 1.864 (Simulation time: 00 hr 00 min 07 sec)
Heartbeat CPU 0 instructions: 1500011 cycles: 722823 heartbeat IPC: 2.685 cumulative IPC: 2.075 (Simulation time: 00 hr 00 min 10 sec)
Heartbeat CPU 0 instructions: 2000016 cycles: 939346 heartbeat IPC: 2.309 cumulative IPC: 2.129 (Simulation time: 00 hr 00 min 13 sec)
Heartbeat CPU 0 instructions: 2500016 cycles: 1106480 heartbeat IPC: 2.992 cumulative IPC: 2.259 (Simulation time: 00 hr 00 min 16 sec)
Heartbeat CPU 0 instructions: 3000021 cycles: 1286340 heartbeat IPC: 2.78 cumulative IPC: 2.332 (Simulation time: 00 hr 00 min 20 sec)
Heartbeat CPU 0 instructions: 3500022 cycles: 1434521 heartbeat IPC: 3.374 cumulative IPC: 2.44 (Simulation time: 00 hr 00 min 22 sec)
Heartbeat CPU 0 instructions: 4000026 cycles: 1571884 heartbeat IPC: 3.64 cumulative IPC: 2.545 (Simulation time: 00 hr 00 min 25 sec)
Heartbeat CPU 0 instructions: 4500033 cycles: 1732158 heartbeat IPC: 3.12 cumulative IPC: 2.598 (Simulation time: 00 hr 00 min 28 sec)
Heartbeat CPU 0 instructions: 5000034 cycles: 1886501 heartbeat IPC: 3.24 cumulative IPC: 2.65 (Simulation time: 00 hr 00 min 31 sec)
Heartbeat CPU 0 instructions: 5500040 cycles: 2076122 heartbeat IPC: 2.637 cumulative IPC: 2.649 (Simulation time: 00 hr 00 min 35 sec)
Heartbeat CPU 0 instructions: 6000041 cycles: 2248762 heartbeat IPC: 2.896 cumulative IPC: 2.668 (Simulation time: 00 hr 00 min 39 sec)
Heartbeat CPU 0 instructions: 6500048 cycles: 2403269 heartbeat IPC: 3.236 cumulative IPC: 2.705 (Simulation time: 00 hr 00 min 43 sec)
Heartbeat CPU 0 instructions: 7000048 cycles: 2552159 heartbeat IPC: 3.358 cumulative IPC: 2.743 (Simulation time: 00 hr 00 min 46 sec)
Heartbeat CPU 0 instructions: 7500055 cycles: 2697961 heartbeat IPC: 3.429 cumulative IPC: 2.78 (Simulation time: 00 hr 00 min 50 sec)
Heartbeat CPU 0 instructions: 8000062 cycles: 2851637 heartbeat IPC: 3.254 cumulative IPC: 2.805 (Simulation time: 00 hr 00 min 53 sec)
Heartbeat CPU 0 instructions: 8500065 cycles: 3020448 heartbeat IPC: 2.962 cumulative IPC: 2.814 (Simulation time: 00 hr 00 min 56 sec)
Heartbeat CPU 0 instructions: 9000070 cycles: 3136159 heartbeat IPC: 4.321 cumulative IPC: 2.87 (Simulation time: 00 hr 00 min 59 sec)
Heartbeat CPU 0 instructions: 9500077 cycles: 3236810 heartbeat IPC: 4.968 cumulative IPC: 2.935 (Simulation time: 00 hr 01 min 01 sec)
Heartbeat CPU 0 instructions: 10000078 cycles: 3338674 heartbeat IPC: 4.909 cumulative IPC: 2.995 (Simulation time: 00 hr 01 min 03 sec)
Heartbeat CPU 0 instructions: 10500080 cycles: 3440069 heartbeat IPC: 4.931 cumulative IPC: 3.052 (Simulation time: 00 hr 01 min 05 sec)
Heartbeat CPU 0 instructions: 11000080 cycles: 3541063 heartbeat IPC: 4.951 cumulative IPC: 3.106 (Simulation time: 00 hr 01 min 07 sec)
Heartbeat CPU 0 instructions: 11500085 cycles: 3641150 heartbeat IPC: 4.996 cumulative IPC: 3.158 (Simulation time: 00 hr 01 min 10 sec)
Heartbeat CPU 0 instructions: 12000086 cycles: 3742170 heartbeat IPC: 4.95 cumulative IPC: 3.207 (Simulation time: 00 hr 01 min 12 sec)
Heartbeat CPU 0 instructions: 12500090 cycles: 3842921 heartbeat IPC: 4.963 cumulative IPC: 3.253 (Simulation time: 00 hr 01 min 14 sec)
Heartbeat CPU 0 instructions: 13000090 cycles: 3943384 heartbeat IPC: 4.977 cumulative IPC: 3.297 (Simulation time: 00 hr 01 min 16 sec)
Heartbeat CPU 0 instructions: 13500093 cycles: 4044127 heartbeat IPC: 4.963 cumulative IPC: 3.338 (Simulation time: 00 hr 01 min 18 sec)
Heartbeat CPU 0 instructions: 14000099 cycles: 4144513 heartbeat IPC: 4.981 cumulative IPC: 3.378 (Simulation time: 00 hr 01 min 20 sec)
Heartbeat CPU 0 instructions: 14500106 cycles: 4245461 heartbeat IPC: 4.953 cumulative IPC: 3.415 (Simulation time: 00 hr 01 min 22 sec)
Heartbeat CPU 0 instructions: 15000111 cycles: 4345514 heartbeat IPC: 4.997 cumulative IPC: 3.452 (Simulation time: 00 hr 01 min 24 sec)
Heartbeat CPU 0 instructions: 15500111 cycles: 4446387 heartbeat IPC: 4.957 cumulative IPC: 3.486 (Simulation time: 00 hr 01 min 27 sec)
Heartbeat CPU 0 instructions: 16000112 cycles: 4546644 heartbeat IPC: 4.987 cumulative IPC: 3.519 (Simulation time: 00 hr 01 min 29 sec)
Heartbeat CPU 0 instructions: 16500118 cycles: 4647510 heartbeat IPC: 4.957 cumulative IPC: 3.55 (Simulation time: 00 hr 01 min 31 sec)
Heartbeat CPU 0 instructions: 17000122 cycles: 4747609 heartbeat IPC: 4.995 cumulative IPC: 3.581 (Simulation time: 00 hr 01 min 33 sec)
Heartbeat CPU 0 instructions: 17500125 cycles: 4848862 heartbeat IPC: 4.938 cumulative IPC: 3.609 (Simulation time: 00 hr 01 min 35 sec)
Heartbeat CPU 0 instructions: 18000128 cycles: 4948954 heartbeat IPC: 4.995 cumulative IPC: 3.637 (Simulation time: 00 hr 01 min 37 sec)
Heartbeat CPU 0 instructions: 18500134 cycles: 5073098 heartbeat IPC: 4.028 cumulative IPC: 3.647 (Simulation time: 00 hr 01 min 39 sec)
Heartbeat CPU 0 instructions: 19000141 cycles: 5173388 heartbeat IPC: 4.986 cumulative IPC: 3.673 (Simulation time: 00 hr 01 min 41 sec)
Heartbeat CPU 0 instructions: 19500148 cycles: 5274567 heartbeat IPC: 4.942 cumulative IPC: 3.697 (Simulation time: 00 hr 01 min 43 sec)
Heartbeat CPU 0 instructions: 20000153 cycles: 5374758 heartbeat IPC: 4.991 cumulative IPC: 3.721 (Simulation time: 00 hr 01 min 44 sec)
Heartbeat CPU 0 instructions: 20500153 cycles: 5476157 heartbeat IPC: 4.931 cumulative IPC: 3.744 (Simulation time: 00 hr 01 min 46 sec)
Heartbeat CPU 0 instructions: 21000155 cycles: 5577200 heartbeat IPC: 4.948 cumulative IPC: 3.765 (Simulation time: 00 hr 01 min 47 sec)
Heartbeat CPU 0 instructions: 21500157 cycles: 5679299 heartbeat IPC: 4.897 cumulative IPC: 3.786 (Simulation time: 00 hr 01 min 49 sec)
Heartbeat CPU 0 instructions: 22000161 cycles: 5779568 heartbeat IPC: 4.987 cumulative IPC: 3.807 (Simulation time: 00 hr 01 min 50 sec)
Heartbeat CPU 0 instructions: 22500165 cycles: 5880480 heartbeat IPC: 4.955 cumulative IPC: 3.826 (Simulation time: 00 hr 01 min 52 sec)
Heartbeat CPU 0 instructions: 23000171 cycles: 5981617 heartbeat IPC: 4.944 cumulative IPC: 3.845 (Simulation time: 00 hr 01 min 54 sec)
Heartbeat CPU 0 instructions: 23500174 cycles: 6082112 heartbeat IPC: 4.975 cumulative IPC: 3.864 (Simulation time: 00 hr 01 min 55 sec)
Heartbeat CPU 0 instructions: 24000176 cycles: 6184186 heartbeat IPC: 4.898 cumulative IPC: 3.881 (Simulation time: 00 hr 01 min 57 sec)
Heartbeat CPU 0 instructions: 24500177 cycles: 6284888 heartbeat IPC: 4.965 cumulative IPC: 3.898 (Simulation time: 00 hr 01 min 58 sec)
Heartbeat CPU 0 instructions: 25000177 cycles: 6385734 heartbeat IPC: 4.958 cumulative IPC: 3.915 (Simulation time: 00 hr 02 min 00 sec)
Heartbeat CPU 0 instructions: 25500181 cycles: 6486059 heartbeat IPC: 4.984 cumulative IPC: 3.932 (Simulation time: 00 hr 02 min 02 sec)
Heartbeat CPU 0 instructions: 26000184 cycles: 6587182 heartbeat IPC: 4.945 cumulative IPC: 3.947 (Simulation time: 00 hr 02 min 03 sec)
Heartbeat CPU 0 instructions: 26500190 cycles: 6687471 heartbeat IPC: 4.986 cumulative IPC: 3.963 (Simulation time: 00 hr 02 min 05 sec)
Heartbeat CPU 0 instructions: 27000196 cycles: 6788344 heartbeat IPC: 4.957 cumulative IPC: 3.977 (Simulation time: 00 hr 02 min 06 sec)
Heartbeat CPU 0 instructions: 27500196 cycles: 6888434 heartbeat IPC: 4.996 cumulative IPC: 3.992 (Simulation time: 00 hr 02 min 08 sec)
Heartbeat CPU 0 instructions: 28000199 cycles: 6989382 heartbeat IPC: 4.953 cumulative IPC: 4.006 (Simulation time: 00 hr 02 min 10 sec)
Heartbeat CPU 0 instructions: 28500199 cycles: 7097244 heartbeat IPC: 4.636 cumulative IPC: 4.016 (Simulation time: 00 hr 02 min 11 sec)
Heartbeat CPU 0 instructions: 29000203 cycles: 7213808 heartbeat IPC: 4.29 cumulative IPC: 4.02 (Simulation time: 00 hr 02 min 14 sec)
Heartbeat CPU 0 instructions: 29500208 cycles: 7341902 heartbeat IPC: 3.903 cumulative IPC: 4.018 (Simulation time: 00 hr 02 min 17 sec)
Heartbeat CPU 0 instructions: 30000208 cycles: 7443316 heartbeat IPC: 4.93 cumulative IPC: 4.03 (Simulation time: 00 hr 02 min 19 sec)
Heartbeat CPU 0 instructions: 30500213 cycles: 7543420 heartbeat IPC: 4.995 cumulative IPC: 4.043 (Simulation time: 00 hr 02 min 21 sec)
Heartbeat CPU 0 instructions: 31000220 cycles: 7644385 heartbeat IPC: 4.952 cumulative IPC: 4.055 (Simulation time: 00 hr 02 min 23 sec)
Heartbeat CPU 0 instructions: 31500226 cycles: 7744474 heartbeat IPC: 4.996 cumulative IPC: 4.067 (Simulation time: 00 hr 02 min 25 sec)
Heartbeat CPU 0 instructions: 32000227 cycles: 7845323 heartbeat IPC: 4.958 cumulative IPC: 4.079 (Simulation time: 00 hr 02 min 28 sec)
Heartbeat CPU 0 instructions: 32500227 cycles: 7945410 heartbeat IPC: 4.996 cumulative IPC: 4.09 (Simulation time: 00 hr 02 min 30 sec)
Heartbeat CPU 0 instructions: 33000232 cycles: 8046267 heartbeat IPC: 4.958 cumulative IPC: 4.101 (Simulation time: 00 hr 02 min 32 sec)
Heartbeat CPU 0 instructions: 33500239 cycles: 8146983 heartbeat IPC: 4.965 cumulative IPC: 4.112 (Simulation time: 00 hr 02 min 34 sec)
Heartbeat CPU 0 instructions: 34000243 cycles: 8247400 heartbeat IPC: 4.979 cumulative IPC: 4.123 (Simulation time: 00 hr 02 min 36 sec)
Heartbeat CPU 0 instructions: 34500246 cycles: 8348207 heartbeat IPC: 4.96 cumulative IPC: 4.133 (Simulation time: 00 hr 02 min 38 sec)
Heartbeat CPU 0 instructions: 35000250 cycles: 8448404 heartbeat IPC: 4.99 cumulative IPC: 4.143 (Simulation time: 00 hr 02 min 40 sec)
Heartbeat CPU 0 instructions: 35500254 cycles: 8549221 heartbeat IPC: 4.96 cumulative IPC: 4.152 (Simulation time: 00 hr 02 min 42 sec)
Heartbeat CPU 0 instructions: 36000259 cycles: 8649492 heartbeat IPC: 4.987 cumulative IPC: 4.162 (Simulation time: 00 hr 02 min 45 sec)
Heartbeat CPU 0 instructions: 36500264 cycles: 8750425 heartbeat IPC: 4.954 cumulative IPC: 4.171 (Simulation time: 00 hr 02 min 47 sec)
Heartbeat CPU 0 instructions: 37000264 cycles: 8850518 heartbeat IPC: 4.995 cumulative IPC: 4.181 (Simulation time: 00 hr 02 min 49 sec)
Heartbeat CPU 0 instructions: 37500264 cycles: 8951583 heartbeat IPC: 4.947 cumulative IPC: 4.189 (Simulation time: 00 hr 02 min 51 sec)
Heartbeat CPU 0 instructions: 38000270 cycles: 9052943 heartbeat IPC: 4.933 cumulative IPC: 4.198 (Simulation time: 00 hr 02 min 53 sec)
Heartbeat CPU 0 instructions: 38500273 cycles: 9155239 heartbeat IPC: 4.888 cumulative IPC: 4.205 (Simulation time: 00 hr 02 min 55 sec)
Heartbeat CPU 0 instructions: 39000280 cycles: 9255309 heartbeat IPC: 4.997 cumulative IPC: 4.214 (Simulation time: 00 hr 02 min 57 sec)
Heartbeat CPU 0 instructions: 39500287 cycles: 9372593 heartbeat IPC: 4.263 cumulative IPC: 4.214 (Simulation time: 00 hr 03 min 00 sec)
Heartbeat CPU 0 instructions: 40000290 cycles: 9480595 heartbeat IPC: 4.63 cumulative IPC: 4.219 (Simulation time: 00 hr 03 min 02 sec)
Heartbeat CPU 0 instructions: 40500296 cycles: 9584165 heartbeat IPC: 4.828 cumulative IPC: 4.226 (Simulation time: 00 hr 03 min 04 sec)
Heartbeat CPU 0 instructions: 41000300 cycles: 9687806 heartbeat IPC: 4.824 cumulative IPC: 4.232 (Simulation time: 00 hr 03 min 06 sec)
Heartbeat CPU 0 instructions: 41500307 cycles: 9792731 heartbeat IPC: 4.765 cumulative IPC: 4.238 (Simulation time: 00 hr 03 min 08 sec)
Heartbeat CPU 0 instructions: 42000312 cycles: 9906645 heartbeat IPC: 4.389 cumulative IPC: 4.24 (Simulation time: 00 hr 03 min 10 sec)
Heartbeat CPU 0 instructions: 42500312 cycles: 10009323 heartbeat IPC: 4.87 cumulative IPC: 4.246 (Simulation time: 00 hr 03 min 11 sec)
Heartbeat CPU 0 instructions: 43000312 cycles: 10109802 heartbeat IPC: 4.976 cumulative IPC: 4.253 (Simulation time: 00 hr 03 min 13 sec)
Heartbeat CPU 0 instructions: 43500319 cycles: 10211583 heartbeat IPC: 4.913 cumulative IPC: 4.26 (Simulation time: 00 hr 03 min 15 sec)
Heartbeat CPU 0 instructions: 44000319 cycles: 10311886 heartbeat IPC: 4.985 cumulative IPC: 4.267 (Simulation time: 00 hr 03 min 16 sec)
Heartbeat CPU 0 instructions: 44500319 cycles: 10413279 heartbeat IPC: 4.931 cumulative IPC: 4.273 (Simulation time: 00 hr 03 min 18 sec)
Heartbeat CPU 0 instructions: 45000320 cycles: 10513356 heartbeat IPC: 4.996 cumulative IPC: 4.28 (Simulation time: 00 hr 03 min 19 sec)
Heartbeat CPU 0 instructions: 45500327 cycles: 10614411 heartbeat IPC: 4.948 cumulative IPC: 4.287 (Simulation time: 00 hr 03 min 21 sec)
Heartbeat CPU 0 instructions: 46000330 cycles: 10714489 heartbeat IPC: 4.996 cumulative IPC: 4.293 (Simulation time: 00 hr 03 min 22 sec)
Heartbeat CPU 0 instructions: 46500335 cycles: 10815699 heartbeat IPC: 4.94 cumulative IPC: 4.299 (Simulation time: 00 hr 03 min 24 sec)
Heartbeat CPU 0 instructions: 47000342 cycles: 10916853 heartbeat IPC: 4.943 cumulative IPC: 4.305 (Simulation time: 00 hr 03 min 26 sec)
Heartbeat CPU 0 instructions: 47500349 cycles: 11017216 heartbeat IPC: 4.982 cumulative IPC: 4.311 (Simulation time: 00 hr 03 min 27 sec)
Heartbeat CPU 0 instructions: 48000352 cycles: 11117927 heartbeat IPC: 4.965 cumulative IPC: 4.317 (Simulation time: 00 hr 03 min 29 sec)
Heartbeat CPU 0 instructions: 48500353 cycles: 11218486 heartbeat IPC: 4.972 cumulative IPC: 4.323 (Simulation time: 00 hr 03 min 30 sec)
Heartbeat CPU 0 instructions: 49000353 cycles: 11319501 heartbeat IPC: 4.95 cumulative IPC: 4.329 (Simulation time: 00 hr 03 min 32 sec)
Heartbeat CPU 0 instructions: 49500356 cycles: 11419699 heartbeat IPC: 4.99 cumulative IPC: 4.335 (Simulation time: 00 hr 03 min 34 sec)
Warmup halting CPU 0 at instruction 50000002 cycle 11520447 for remainder of phase
Warmup finished CPU 0 instructions: 50000002 cycles: 11520447 cumulative IPC: 4.34 (Simulation time: 00 hr 03 min 35 sec)
Warmup complete CPU 0 instructions: 50000002 cycles: 11520447 cumulative IPC: 4.34 (Simulation time: 00 hr 03 min 35 sec)
Heartbeat CPU 0 instructions: 50000360 cycles: 11520536 heartbeat IPC: 4.959 cumulative IPC: 4.022 (Simulation time: 00 hr 03 min 35 sec)
Heartbeat CPU 0 instructions: 50500360 cycles: 11639093 heartbeat IPC: 4.217 cumulative IPC: 4.217 (Simulation time: 00 hr 03 min 37 sec)
Heartbeat CPU 0 instructions: 51000363 cycles: 11768292 heartbeat IPC: 3.87 cumulative IPC: 4.036 (Simulation time: 00 hr 03 min 40 sec)
Heartbeat CPU 0 instructions: 51500364 cycles: 11884991 heartbeat IPC: 4.285 cumulative IPC: 4.116 (Simulation time: 00 hr 03 min 42 sec)
Heartbeat CPU 0 instructions: 52000367 cycles: 13474747 heartbeat IPC: 0.3145 cumulative IPC: 1.024 (Simulation time: 00 hr 03 min 58 sec)
Heartbeat CPU 0 instructions: 52500368 cycles: 14524534 heartbeat IPC: 0.4763 cumulative IPC: 0.8323 (Simulation time: 00 hr 04 min 08 sec)
Heartbeat CPU 0 instructions: 53000370 cycles: 14778594 heartbeat IPC: 1.968 cumulative IPC: 0.9209 (Simulation time: 00 hr 04 min 11 sec)
Heartbeat CPU 0 instructions: 53500373 cycles: 15025010 heartbeat IPC: 2.029 cumulative IPC: 0.9988 (Simulation time: 00 hr 04 min 14 sec)
Heartbeat CPU 0 instructions: 54000375 cycles: 15266873 heartbeat IPC: 2.067 cumulative IPC: 1.068 (Simulation time: 00 hr 04 min 17 sec)
Heartbeat CPU 0 instructions: 54500380 cycles: 15507590 heartbeat IPC: 2.077 cumulative IPC: 1.129 (Simulation time: 00 hr 04 min 21 sec)
Heartbeat CPU 0 instructions: 55000385 cycles: 15778107 heartbeat IPC: 1.848 cumulative IPC: 1.174 (Simulation time: 00 hr 04 min 24 sec)
Heartbeat CPU 0 instructions: 55500386 cycles: 16014802 heartbeat IPC: 2.112 cumulative IPC: 1.224 (Simulation time: 00 hr 04 min 27 sec)
Heartbeat CPU 0 instructions: 56000393 cycles: 16235618 heartbeat IPC: 2.264 cumulative IPC: 1.273 (Simulation time: 00 hr 04 min 30 sec)
Heartbeat CPU 0 instructions: 56500394 cycles: 16463753 heartbeat IPC: 2.192 cumulative IPC: 1.315 (Simulation time: 00 hr 04 min 34 sec)
Heartbeat CPU 0 instructions: 57000400 cycles: 16688829 heartbeat IPC: 2.221 cumulative IPC: 1.354 (Simulation time: 00 hr 04 min 37 sec)
Heartbeat CPU 0 instructions: 57500404 cycles: 16912617 heartbeat IPC: 2.234 cumulative IPC: 1.391 (Simulation time: 00 hr 04 min 40 sec)
Heartbeat CPU 0 instructions: 58000406 cycles: 17506051 heartbeat IPC: 0.8426 cumulative IPC: 1.337 (Simulation time: 00 hr 04 min 45 sec)
Heartbeat CPU 0 instructions: 58500410 cycles: 18004084 heartbeat IPC: 1.004 cumulative IPC: 1.311 (Simulation time: 00 hr 04 min 51 sec)
Heartbeat CPU 0 instructions: 59000416 cycles: 18129280 heartbeat IPC: 3.994 cumulative IPC: 1.362 (Simulation time: 00 hr 04 min 54 sec)
Heartbeat CPU 0 instructions: 59500417 cycles: 18263219 heartbeat IPC: 3.733 cumulative IPC: 1.409 (Simulation time: 00 hr 04 min 56 sec)
Heartbeat CPU 0 instructions: 60000419 cycles: 18388669 heartbeat IPC: 3.986 cumulative IPC: 1.456 (Simulation time: 00 hr 04 min 58 sec)
Heartbeat CPU 0 instructions: 60500421 cycles: 18521009 heartbeat IPC: 3.778 cumulative IPC: 1.5 (Simulation time: 00 hr 05 min 01 sec)
Heartbeat CPU 0 instructions: 61000422 cycles: 18639846 heartbeat IPC: 4.207 cumulative IPC: 1.545 (Simulation time: 00 hr 05 min 03 sec)
Heartbeat CPU 0 instructions: 61500422 cycles: 18769659 heartbeat IPC: 3.852 cumulative IPC: 1.586 (Simulation time: 00 hr 05 min 06 sec)
Heartbeat CPU 0 instructions: 62000426 cycles: 18888631 heartbeat IPC: 4.203 cumulative IPC: 1.629 (Simulation time: 00 hr 05 min 08 sec)
Heartbeat CPU 0 instructions: 62500430 cycles: 19024880 heartbeat IPC: 3.67 cumulative IPC: 1.666 (Simulation time: 00 hr 05 min 10 sec)
Heartbeat CPU 0 instructions: 63000431 cycles: 19158046 heartbeat IPC: 3.755 cumulative IPC: 1.702 (Simulation time: 00 hr 05 min 13 sec)
Heartbeat CPU 0 instructions: 63500436 cycles: 19307546 heartbeat IPC: 3.345 cumulative IPC: 1.734 (Simulation time: 00 hr 05 min 15 sec)
Heartbeat CPU 0 instructions: 64000440 cycles: 19460789 heartbeat IPC: 3.263 cumulative IPC: 1.763 (Simulation time: 00 hr 05 min 18 sec)
Heartbeat CPU 0 instructions: 64500442 cycles: 19583711 heartbeat IPC: 4.068 cumulative IPC: 1.798 (Simulation time: 00 hr 05 min 20 sec)
Heartbeat CPU 0 instructions: 65000443 cycles: 19713857 heartbeat IPC: 3.842 cumulative IPC: 1.831 (Simulation time: 00 hr 05 min 23 sec)
Heartbeat CPU 0 instructions: 65500446 cycles: 19835493 heartbeat IPC: 4.111 cumulative IPC: 1.864 (Simulation time: 00 hr 05 min 25 sec)
Heartbeat CPU 0 instructions: 66000447 cycles: 19965055 heartbeat IPC: 3.859 cumulative IPC: 1.895 (Simulation time: 00 hr 05 min 28 sec)
Heartbeat CPU 0 instructions: 66500449 cycles: 20084141 heartbeat IPC: 4.199 cumulative IPC: 1.927 (Simulation time: 00 hr 05 min 30 sec)
Heartbeat CPU 0 instructions: 67000451 cycles: 20211421 heartbeat IPC: 3.928 cumulative IPC: 1.956 (Simulation time: 00 hr 05 min 33 sec)
Heartbeat CPU 0 instructions: 67500454 cycles: 20331529 heartbeat IPC: 4.163 cumulative IPC: 1.986 (Simulation time: 00 hr 05 min 35 sec)
Heartbeat CPU 0 instructions: 68000455 cycles: 20460238 heartbeat IPC: 3.885 cumulative IPC: 2.014 (Simulation time: 00 hr 05 min 37 sec)
Heartbeat CPU 0 instructions: 68500456 cycles: 21066509 heartbeat IPC: 0.8247 cumulative IPC: 1.938 (Simulation time: 00 hr 05 min 44 sec)
Heartbeat CPU 0 instructions: 69000456 cycles: 21218191 heartbeat IPC: 3.296 cumulative IPC: 1.959 (Simulation time: 00 hr 05 min 47 sec)
Heartbeat CPU 0 instructions: 69500463 cycles: 21339332 heartbeat IPC: 4.127 cumulative IPC: 1.986 (Simulation time: 00 hr 05 min 49 sec)
Heartbeat CPU 0 instructions: 70000466 cycles: 21467255 heartbeat IPC: 3.909 cumulative IPC: 2.011 (Simulation time: 00 hr 05 min 52 sec)
Heartbeat CPU 0 instructions: 70500466 cycles: 21592417 heartbeat IPC: 3.995 cumulative IPC: 2.035 (Simulation time: 00 hr 05 min 54 sec)
Heartbeat CPU 0 instructions: 71000467 cycles: 21725173 heartbeat IPC: 3.766 cumulative IPC: 2.058 (Simulation time: 00 hr 05 min 56 sec)
Heartbeat CPU 0 instructions: 71500467 cycles: 21849655 heartbeat IPC: 4.017 cumulative IPC: 2.082 (Simulation time: 00 hr 05 min 59 sec)
Heartbeat CPU 0 instructions: 72000469 cycles: 21991810 heartbeat IPC: 3.517 cumulative IPC: 2.101 (Simulation time: 00 hr 06 min 01 sec)
Heartbeat CPU 0 instructions: 72500471 cycles: 22109184 heartbeat IPC: 4.26 cumulative IPC: 2.125 (Simulation time: 00 hr 06 min 04 sec)
Heartbeat CPU 0 instructions: 73000474 cycles: 22245797 heartbeat IPC: 3.66 cumulative IPC: 2.144 (Simulation time: 00 hr 06 min 06 sec)
Heartbeat CPU 0 instructions: 73500474 cycles: 22370675 heartbeat IPC: 4.004 cumulative IPC: 2.166 (Simulation time: 00 hr 06 min 09 sec)
Heartbeat CPU 0 instructions: 74000474 cycles: 22495307 heartbeat IPC: 4.012 cumulative IPC: 2.187 (Simulation time: 00 hr 06 min 11 sec)
Heartbeat CPU 0 instructions: 74500478 cycles: 22620834 heartbeat IPC: 3.983 cumulative IPC: 2.207 (Simulation time: 00 hr 06 min 14 sec)
Heartbeat CPU 0 instructions: 75000480 cycles: 22741715 heartbeat IPC: 4.136 cumulative IPC: 2.228 (Simulation time: 00 hr 06 min 16 sec)
Heartbeat CPU 0 instructions: 75500483 cycles: 22869115 heartbeat IPC: 3.925 cumulative IPC: 2.247 (Simulation time: 00 hr 06 min 18 sec)
Heartbeat CPU 0 instructions: 76000486 cycles: 22987628 heartbeat IPC: 4.219 cumulative IPC: 2.267 (Simulation time: 00 hr 06 min 21 sec)
Heartbeat CPU 0 instructions: 76500486 cycles: 23114196 heartbeat IPC: 3.95 cumulative IPC: 2.286 (Simulation time: 00 hr 06 min 23 sec)
Heartbeat CPU 0 instructions: 77000488 cycles: 23232227 heartbeat IPC: 4.236 cumulative IPC: 2.305 (Simulation time: 00 hr 06 min 25 sec)
Heartbeat CPU 0 instructions: 77500489 cycles: 23359195 heartbeat IPC: 3.938 cumulative IPC: 2.323 (Simulation time: 00 hr 06 min 28 sec)
Heartbeat CPU 0 instructions: 78000490 cycles: 23477526 heartbeat IPC: 4.225 cumulative IPC: 2.342 (Simulation time: 00 hr 06 min 30 sec)
Heartbeat CPU 0 instructions: 78500490 cycles: 23962270 heartbeat IPC: 1.031 cumulative IPC: 2.291 (Simulation time: 00 hr 06 min 35 sec)
Heartbeat CPU 0 instructions: 79000493 cycles: 24808107 heartbeat IPC: 0.5911 cumulative IPC: 2.183 (Simulation time: 00 hr 06 min 43 sec)
Heartbeat CPU 0 instructions: 79500496 cycles: 25330764 heartbeat IPC: 0.9567 cumulative IPC: 2.136 (Simulation time: 00 hr 06 min 49 sec)
Heartbeat CPU 0 instructions: 80000496 cycles: 25748442 heartbeat IPC: 1.197 cumulative IPC: 2.109 (Simulation time: 00 hr 06 min 54 sec)
Heartbeat CPU 0 instructions: 80500496 cycles: 25905299 heartbeat IPC: 3.188 cumulative IPC: 2.12 (Simulation time: 00 hr 06 min 57 sec)
Heartbeat CPU 0 instructions: 81000501 cycles: 26031826 heartbeat IPC: 3.952 cumulative IPC: 2.136 (Simulation time: 00 hr 06 min 59 sec)
Heartbeat CPU 0 instructions: 81500502 cycles: 26169423 heartbeat IPC: 3.634 cumulative IPC: 2.15 (Simulation time: 00 hr 07 min 02 sec)
Heartbeat CPU 0 instructions: 82000502 cycles: 26300284 heartbeat IPC: 3.821 cumulative IPC: 2.165 (Simulation time: 00 hr 07 min 04 sec)
Heartbeat CPU 0 instructions: 82500504 cycles: 26433319 heartbeat IPC: 3.758 cumulative IPC: 2.179 (Simulation time: 00 hr 07 min 07 sec)
Heartbeat CPU 0 instructions: 83000507 cycles: 26551299 heartbeat IPC: 4.238 cumulative IPC: 2.196 (Simulation time: 00 hr 07 min 09 sec)
Heartbeat CPU 0 instructions: 83500507 cycles: 26680903 heartbeat IPC: 3.858 cumulative IPC: 2.21 (Simulation time: 00 hr 07 min 11 sec)
Heartbeat CPU 0 instructions: 84000508 cycles: 26798535 heartbeat IPC: 4.251 cumulative IPC: 2.225 (Simulation time: 00 hr 07 min 14 sec)
Heartbeat CPU 0 instructions: 84500509 cycles: 26927401 heartbeat IPC: 3.88 cumulative IPC: 2.239 (Simulation time: 00 hr 07 min 16 sec)
Heartbeat CPU 0 instructions: 85000509 cycles: 27052931 heartbeat IPC: 3.983 cumulative IPC: 2.253 (Simulation time: 00 hr 07 min 19 sec)
Heartbeat CPU 0 instructions: 85500512 cycles: 27176569 heartbeat IPC: 4.044 cumulative IPC: 2.268 (Simulation time: 00 hr 07 min 21 sec)
Heartbeat CPU 0 instructions: 86000514 cycles: 27303185 heartbeat IPC: 3.949 cumulative IPC: 2.281 (Simulation time: 00 hr 07 min 24 sec)
Heartbeat CPU 0 instructions: 86500516 cycles: 27422330 heartbeat IPC: 4.197 cumulative IPC: 2.295 (Simulation time: 00 hr 07 min 26 sec)
Heartbeat CPU 0 instructions: 87000517 cycles: 27549278 heartbeat IPC: 3.939 cumulative IPC: 2.308 (Simulation time: 00 hr 07 min 28 sec)
Heartbeat CPU 0 instructions: 87500518 cycles: 27668492 heartbeat IPC: 4.194 cumulative IPC: 2.322 (Simulation time: 00 hr 07 min 31 sec)
Heartbeat CPU 0 instructions: 88000520 cycles: 27795279 heartbeat IPC: 3.944 cumulative IPC: 2.335 (Simulation time: 00 hr 07 min 33 sec)
Heartbeat CPU 0 instructions: 88500523 cycles: 27917936 heartbeat IPC: 4.076 cumulative IPC: 2.348 (Simulation time: 00 hr 07 min 35 sec)
Heartbeat CPU 0 instructions: 89000528 cycles: 28064012 heartbeat IPC: 3.423 cumulative IPC: 2.357 (Simulation time: 00 hr 07 min 38 sec)
Heartbeat CPU 0 instructions: 89500529 cycles: 28184743 heartbeat IPC: 4.141 cumulative IPC: 2.37 (Simulation time: 00 hr 07 min 40 sec)
Heartbeat CPU 0 instructions: 90000530 cycles: 29372450 heartbeat IPC: 0.421 cumulative IPC: 2.241 (Simulation time: 00 hr 07 min 52 sec)
Heartbeat CPU 0 instructions: 90500533 cycles: 29860600 heartbeat IPC: 1.024 cumulative IPC: 2.208 (Simulation time: 00 hr 07 min 58 sec)
Heartbeat CPU 0 instructions: 91000536 cycles: 29984262 heartbeat IPC: 4.043 cumulative IPC: 2.221 (Simulation time: 00 hr 08 min 01 sec)
Heartbeat CPU 0 instructions: 91500537 cycles: 30116170 heartbeat IPC: 3.791 cumulative IPC: 2.232 (Simulation time: 00 hr 08 min 03 sec)
Heartbeat CPU 0 instructions: 92000537 cycles: 30237378 heartbeat IPC: 4.125 cumulative IPC: 2.244 (Simulation time: 00 hr 08 min 06 sec)
Heartbeat CPU 0 instructions: 92500538 cycles: 30372454 heartbeat IPC: 3.702 cumulative IPC: 2.254 (Simulation time: 00 hr 08 min 08 sec)
Heartbeat CPU 0 instructions: 93000544 cycles: 30493658 heartbeat IPC: 4.125 cumulative IPC: 2.266 (Simulation time: 00 hr 08 min 10 sec)
Heartbeat CPU 0 instructions: 93500549 cycles: 30637585 heartbeat IPC: 3.474 cumulative IPC: 2.275 (Simulation time: 00 hr 08 min 13 sec)
Heartbeat CPU 0 instructions: 94000553 cycles: 30781948 heartbeat IPC: 3.464 cumulative IPC: 2.284 (Simulation time: 00 hr 08 min 16 sec)
Heartbeat CPU 0 instructions: 94500557 cycles: 30907046 heartbeat IPC: 3.997 cumulative IPC: 2.295 (Simulation time: 00 hr 08 min 18 sec)
Heartbeat CPU 0 instructions: 95000560 cycles: 31034652 heartbeat IPC: 3.918 cumulative IPC: 2.306 (Simulation time: 00 hr 08 min 20 sec)
Heartbeat CPU 0 instructions: 95500561 cycles: 31163691 heartbeat IPC: 3.875 cumulative IPC: 2.316 (Simulation time: 00 hr 08 min 23 sec)
Heartbeat CPU 0 instructions: 96000565 cycles: 31312604 heartbeat IPC: 3.358 cumulative IPC: 2.324 (Simulation time: 00 hr 08 min 25 sec)
Heartbeat CPU 0 instructions: 96500568 cycles: 31445147 heartbeat IPC: 3.772 cumulative IPC: 2.334 (Simulation time: 00 hr 08 min 28 sec)
Heartbeat CPU 0 instructions: 97000570 cycles: 31573447 heartbeat IPC: 3.897 cumulative IPC: 2.344 (Simulation time: 00 hr 08 min 30 sec)
Heartbeat CPU 0 instructions: 97500572 cycles: 31698307 heartbeat IPC: 4.005 cumulative IPC: 2.354 (Simulation time: 00 hr 08 min 33 sec)
Heartbeat CPU 0 instructions: 98000578 cycles: 31827676 heartbeat IPC: 3.865 cumulative IPC: 2.364 (Simulation time: 00 hr 08 min 35 sec)
Heartbeat CPU 0 instructions: 98500580 cycles: 31944538 heartbeat IPC: 4.279 cumulative IPC: 2.375 (Simulation time: 00 hr 08 min 37 sec)
Heartbeat CPU 0 instructions: 99000581 cycles: 32077096 heartbeat IPC: 3.772 cumulative IPC: 2.384 (Simulation time: 00 hr 08 min 40 sec)
Heartbeat CPU 0 instructions: 99500585 cycles: 32193673 heartbeat IPC: 4.289 cumulative IPC: 2.394 (Simulation time: 00 hr 08 min 42 sec)
Heartbeat CPU 0 instructions: 100000591 cycles: 32350202 heartbeat IPC: 3.194 cumulative IPC: 2.4 (Simulation time: 00 hr 08 min 45 sec)
Heartbeat CPU 0 instructions: 100500596 cycles: 32989778 heartbeat IPC: 0.7818 cumulative IPC: 2.352 (Simulation time: 00 hr 08 min 52 sec)
Heartbeat CPU 0 instructions: 101000599 cycles: 33147178 heartbeat IPC: 3.177 cumulative IPC: 2.358 (Simulation time: 00 hr 08 min 54 sec)
Heartbeat CPU 0 instructions: 101500603 cycles: 33271958 heartbeat IPC: 4.007 cumulative IPC: 2.368 (Simulation time: 00 hr 08 min 57 sec)
Heartbeat CPU 0 instructions: 102000604 cycles: 33400105 heartbeat IPC: 3.902 cumulative IPC: 2.377 (Simulation time: 00 hr 08 min 59 sec)
Heartbeat CPU 0 instructions: 102500611 cycles: 33522658 heartbeat IPC: 4.08 cumulative IPC: 2.386 (Simulation time: 00 hr 09 min 02 sec)
Heartbeat CPU 0 instructions: 103000613 cycles: 33650723 heartbeat IPC: 3.904 cumulative IPC: 2.395 (Simulation time: 00 hr 09 min 04 sec)
Heartbeat CPU 0 instructions: 103500616 cycles: 33771445 heartbeat IPC: 4.142 cumulative IPC: 2.404 (Simulation time: 00 hr 09 min 07 sec)
Heartbeat CPU 0 instructions: 104000619 cycles: 33900672 heartbeat IPC: 3.869 cumulative IPC: 2.413 (Simulation time: 00 hr 09 min 09 sec)
Heartbeat CPU 0 instructions: 104500621 cycles: 34018084 heartbeat IPC: 4.259 cumulative IPC: 2.423 (Simulation time: 00 hr 09 min 12 sec)
Heartbeat CPU 0 instructions: 105000623 cycles: 34147265 heartbeat IPC: 3.871 cumulative IPC: 2.431 (Simulation time: 00 hr 09 min 14 sec)
Heartbeat CPU 0 instructions: 105500623 cycles: 34264524 heartbeat IPC: 4.264 cumulative IPC: 2.44 (Simulation time: 00 hr 09 min 16 sec)
Heartbeat CPU 0 instructions: 106000623 cycles: 34402869 heartbeat IPC: 3.614 cumulative IPC: 2.447 (Simulation time: 00 hr 09 min 19 sec)
Heartbeat CPU 0 instructions: 106500623 cycles: 34540603 heartbeat IPC: 3.63 cumulative IPC: 2.454 (Simulation time: 00 hr 09 min 22 sec)
Heartbeat CPU 0 instructions: 107000625 cycles: 34684622 heartbeat IPC: 3.472 cumulative IPC: 2.461 (Simulation time: 00 hr 09 min 24 sec)
Heartbeat CPU 0 instructions: 107500628 cycles: 34830843 heartbeat IPC: 3.42 cumulative IPC: 2.467 (Simulation time: 00 hr 09 min 27 sec)
Heartbeat CPU 0 instructions: 108000630 cycles: 34972480 heartbeat IPC: 3.53 cumulative IPC: 2.473 (Simulation time: 00 hr 09 min 29 sec)
Heartbeat CPU 0 instructions: 108500630 cycles: 35108990 heartbeat IPC: 3.663 cumulative IPC: 2.48 (Simulation time: 00 hr 09 min 32 sec)
Heartbeat CPU 0 instructions: 109000630 cycles: 35228246 heartbeat IPC: 4.193 cumulative IPC: 2.489 (Simulation time: 00 hr 09 min 35 sec)
Heartbeat CPU 0 instructions: 109500630 cycles: 35358202 heartbeat IPC: 3.847 cumulative IPC: 2.496 (Simulation time: 00 hr 09 min 37 sec)
Heartbeat CPU 0 instructions: 110000630 cycles: 35476412 heartbeat IPC: 4.23 cumulative IPC: 2.505 (Simulation time: 00 hr 09 min 39 sec)
Heartbeat CPU 0 instructions: 110500632 cycles: 35730823 heartbeat IPC: 1.965 cumulative IPC: 2.499 (Simulation time: 00 hr 09 min 43 sec)
Heartbeat CPU 0 instructions: 111000634 cycles: 37837809 heartbeat IPC: 0.2373 cumulative IPC: 2.318 (Simulation time: 00 hr 10 min 03 sec)
Heartbeat CPU 0 instructions: 111500639 cycles: 38277168 heartbeat IPC: 1.138 cumulative IPC: 2.299 (Simulation time: 00 hr 10 min 09 sec)
Heartbeat CPU 0 instructions: 112000640 cycles: 38961531 heartbeat IPC: 0.7306 cumulative IPC: 2.259 (Simulation time: 00 hr 10 min 15 sec)
Heartbeat CPU 0 instructions: 112500640 cycles: 40603370 heartbeat IPC: 0.3045 cumulative IPC: 2.149 (Simulation time: 00 hr 10 min 28 sec)
Heartbeat CPU 0 instructions: 113000640 cycles: 41440068 heartbeat IPC: 0.5976 cumulative IPC: 2.106 (Simulation time: 00 hr 10 min 36 sec)
Heartbeat CPU 0 instructions: 113500643 cycles: 42823304 heartbeat IPC: 0.3615 cumulative IPC: 2.029 (Simulation time: 00 hr 10 min 49 sec)
Heartbeat CPU 0 instructions: 114000648 cycles: 43486605 heartbeat IPC: 0.7538 cumulative IPC: 2.002 (Simulation time: 00 hr 10 min 55 sec)
Heartbeat CPU 0 instructions: 114500648 cycles: 43765204 heartbeat IPC: 1.795 cumulative IPC: 2 (Simulation time: 00 hr 10 min 58 sec)
Heartbeat CPU 0 instructions: 115000653 cycles: 44013910 heartbeat IPC: 2.01 cumulative IPC: 2 (Simulation time: 00 hr 11 min 02 sec)
Heartbeat CPU 0 instructions: 115500656 cycles: 44269535 heartbeat IPC: 1.956 cumulative IPC: 2 (Simulation time: 00 hr 11 min 05 sec)
Heartbeat CPU 0 instructions: 116000658 cycles: 44508319 heartbeat IPC: 2.094 cumulative IPC: 2.001 (Simulation time: 00 hr 11 min 08 sec)
Heartbeat CPU 0 instructions: 116500659 cycles: 45096759 heartbeat IPC: 0.8497 cumulative IPC: 1.981 (Simulation time: 00 hr 11 min 14 sec)
Heartbeat CPU 0 instructions: 117000659 cycles: 45414388 heartbeat IPC: 1.574 cumulative IPC: 1.977 (Simulation time: 00 hr 11 min 18 sec)
Heartbeat CPU 0 instructions: 117500666 cycles: 45648852 heartbeat IPC: 2.133 cumulative IPC: 1.978 (Simulation time: 00 hr 11 min 21 sec)
Heartbeat CPU 0 instructions: 118000672 cycles: 45876676 heartbeat IPC: 2.195 cumulative IPC: 1.979 (Simulation time: 00 hr 11 min 24 sec)
Heartbeat CPU 0 instructions: 118500673 cycles: 46095507 heartbeat IPC: 2.285 cumulative IPC: 1.981 (Simulation time: 00 hr 11 min 27 sec)
Heartbeat CPU 0 instructions: 119000673 cycles: 46344093 heartbeat IPC: 2.011 cumulative IPC: 1.981 (Simulation time: 00 hr 11 min 30 sec)
Heartbeat CPU 0 instructions: 119500680 cycles: 46575125 heartbeat IPC: 2.164 cumulative IPC: 1.983 (Simulation time: 00 hr 11 min 33 sec)
Heartbeat CPU 0 instructions: 120000684 cycles: 46797660 heartbeat IPC: 2.247 cumulative IPC: 1.984 (Simulation time: 00 hr 11 min 37 sec)
Heartbeat CPU 0 instructions: 120500686 cycles: 47027308 heartbeat IPC: 2.177 cumulative IPC: 1.986 (Simulation time: 00 hr 11 min 40 sec)
Heartbeat CPU 0 instructions: 121000686 cycles: 47242957 heartbeat IPC: 2.319 cumulative IPC: 1.988 (Simulation time: 00 hr 11 min 43 sec)
Heartbeat CPU 0 instructions: 121500690 cycles: 47890558 heartbeat IPC: 0.7721 cumulative IPC: 1.966 (Simulation time: 00 hr 11 min 48 sec)
Heartbeat CPU 0 instructions: 122000690 cycles: 48555291 heartbeat IPC: 0.7522 cumulative IPC: 1.944 (Simulation time: 00 hr 11 min 55 sec)
Heartbeat CPU 0 instructions: 122500695 cycles: 49248038 heartbeat IPC: 0.7218 cumulative IPC: 1.922 (Simulation time: 00 hr 12 min 01 sec)
Heartbeat CPU 0 instructions: 123000695 cycles: 49965582 heartbeat IPC: 0.6968 cumulative IPC: 1.899 (Simulation time: 00 hr 12 min 09 sec)
Heartbeat CPU 0 instructions: 123500702 cycles: 51682083 heartbeat IPC: 0.2913 cumulative IPC: 1.83 (Simulation time: 00 hr 12 min 22 sec)
Heartbeat CPU 0 instructions: 124000702 cycles: 52534231 heartbeat IPC: 0.5868 cumulative IPC: 1.804 (Simulation time: 00 hr 12 min 30 sec)
Heartbeat CPU 0 instructions: 124500709 cycles: 53935814 heartbeat IPC: 0.3567 cumulative IPC: 1.756 (Simulation time: 00 hr 12 min 41 sec)
Heartbeat CPU 0 instructions: 125000709 cycles: 54461756 heartbeat IPC: 0.9507 cumulative IPC: 1.747 (Simulation time: 00 hr 12 min 46 sec)
Heartbeat CPU 0 instructions: 125500714 cycles: 55341946 heartbeat IPC: 0.5681 cumulative IPC: 1.723 (Simulation time: 00 hr 12 min 54 sec)
Heartbeat CPU 0 instructions: 126000716 cycles: 55954765 heartbeat IPC: 0.8159 cumulative IPC: 1.71 (Simulation time: 00 hr 13 min 00 sec)
Heartbeat CPU 0 instructions: 126500719 cycles: 56078137 heartbeat IPC: 4.053 cumulative IPC: 1.717 (Simulation time: 00 hr 13 min 03 sec)
Heartbeat CPU 0 instructions: 127000720 cycles: 56224504 heartbeat IPC: 3.416 cumulative IPC: 1.722 (Simulation time: 00 hr 13 min 05 sec)
Heartbeat CPU 0 instructions: 127500720 cycles: 56345706 heartbeat IPC: 4.125 cumulative IPC: 1.729 (Simulation time: 00 hr 13 min 08 sec)
Heartbeat CPU 0 instructions: 128000721 cycles: 56481975 heartbeat IPC: 3.669 cumulative IPC: 1.735 (Simulation time: 00 hr 13 min 10 sec)
Heartbeat CPU 0 instructions: 128500726 cycles: 56601187 heartbeat IPC: 4.194 cumulative IPC: 1.741 (Simulation time: 00 hr 13 min 13 sec)
Heartbeat CPU 0 instructions: 129000729 cycles: 56731089 heartbeat IPC: 3.849 cumulative IPC: 1.747 (Simulation time: 00 hr 13 min 15 sec)
Heartbeat CPU 0 instructions: 129500735 cycles: 56865608 heartbeat IPC: 3.717 cumulative IPC: 1.753 (Simulation time: 00 hr 13 min 18 sec)
Heartbeat CPU 0 instructions: 130000736 cycles: 56986771 heartbeat IPC: 4.127 cumulative IPC: 1.76 (Simulation time: 00 hr 13 min 20 sec)
Heartbeat CPU 0 instructions: 130500743 cycles: 57114132 heartbeat IPC: 3.926 cumulative IPC: 1.766 (Simulation time: 00 hr 13 min 22 sec)
Heartbeat CPU 0 instructions: 131000747 cycles: 57237179 heartbeat IPC: 4.064 cumulative IPC: 1.772 (Simulation time: 00 hr 13 min 25 sec)
Heartbeat CPU 0 instructions: 131500753 cycles: 57364614 heartbeat IPC: 3.924 cumulative IPC: 1.778 (Simulation time: 00 hr 13 min 27 sec)
Heartbeat CPU 0 instructions: 132000755 cycles: 57485208 heartbeat IPC: 4.146 cumulative IPC: 1.784 (Simulation time: 00 hr 13 min 30 sec)
Heartbeat CPU 0 instructions: 132500756 cycles: 57613711 heartbeat IPC: 3.891 cumulative IPC: 1.79 (Simulation time: 00 hr 13 min 32 sec)
Heartbeat CPU 0 instructions: 133000758 cycles: 57732856 heartbeat IPC: 4.197 cumulative IPC: 1.796 (Simulation time: 00 hr 13 min 34 sec)
Heartbeat CPU 0 instructions: 133500763 cycles: 57863692 heartbeat IPC: 3.822 cumulative IPC: 1.802 (Simulation time: 00 hr 13 min 37 sec)
Heartbeat CPU 0 instructions: 134000764 cycles: 57981151 heartbeat IPC: 4.257 cumulative IPC: 1.808 (Simulation time: 00 hr 13 min 39 sec)
Heartbeat CPU 0 instructions: 134500764 cycles: 58608824 heartbeat IPC: 0.7966 cumulative IPC: 1.795 (Simulation time: 00 hr 13 min 45 sec)
Heartbeat CPU 0 instructions: 135000766 cycles: 59304816 heartbeat IPC: 0.7184 cumulative IPC: 1.779 (Simulation time: 00 hr 13 min 52 sec)
Heartbeat CPU 0 instructions: 135500766 cycles: 59501274 heartbeat IPC: 2.545 cumulative IPC: 1.782 (Simulation time: 00 hr 13 min 55 sec)
Heartbeat CPU 0 instructions: 136000770 cycles: 59631595 heartbeat IPC: 3.837 cumulative IPC: 1.788 (Simulation time: 00 hr 13 min 57 sec)
Heartbeat CPU 0 instructions: 136500770 cycles: 59754642 heartbeat IPC: 4.063 cumulative IPC: 1.793 (Simulation time: 00 hr 14 min 00 sec)
Heartbeat CPU 0 instructions: 137000774 cycles: 59883578 heartbeat IPC: 3.878 cumulative IPC: 1.799 (Simulation time: 00 hr 14 min 02 sec)
Heartbeat CPU 0 instructions: 137500777 cycles: 60004009 heartbeat IPC: 4.152 cumulative IPC: 1.805 (Simulation time: 00 hr 14 min 04 sec)
Heartbeat CPU 0 instructions: 138000781 cycles: 60133817 heartbeat IPC: 3.852 cumulative IPC: 1.81 (Simulation time: 00 hr 14 min 07 sec)
Heartbeat CPU 0 instructions: 138500787 cycles: 60253024 heartbeat IPC: 4.194 cumulative IPC: 1.816 (Simulation time: 00 hr 14 min 09 sec)
Heartbeat CPU 0 instructions: 139000791 cycles: 60380533 heartbeat IPC: 3.921 cumulative IPC: 1.822 (Simulation time: 00 hr 14 min 11 sec)
Heartbeat CPU 0 instructions: 139500795 cycles: 60500878 heartbeat IPC: 4.155 cumulative IPC: 1.827 (Simulation time: 00 hr 14 min 14 sec)
Heartbeat CPU 0 instructions: 140000797 cycles: 60631790 heartbeat IPC: 3.819 cumulative IPC: 1.833 (Simulation time: 00 hr 14 min 16 sec)
Heartbeat CPU 0 instructions: 140500798 cycles: 60761780 heartbeat IPC: 3.846 cumulative IPC: 1.838 (Simulation time: 00 hr 14 min 18 sec)
Heartbeat CPU 0 instructions: 141000800 cycles: 60899391 heartbeat IPC: 3.633 cumulative IPC: 1.843 (Simulation time: 00 hr 14 min 21 sec)
Heartbeat CPU 0 instructions: 141500802 cycles: 61026338 heartbeat IPC: 3.939 cumulative IPC: 1.848 (Simulation time: 00 hr 14 min 23 sec)
Heartbeat CPU 0 instructions: 142000804 cycles: 61172813 heartbeat IPC: 3.414 cumulative IPC: 1.853 (Simulation time: 00 hr 14 min 26 sec)
Heartbeat CPU 0 instructions: 142500806 cycles: 61291752 heartbeat IPC: 4.204 cumulative IPC: 1.859 (Simulation time: 00 hr 14 min 28 sec)
Heartbeat CPU 0 instructions: 143000810 cycles: 61423322 heartbeat IPC: 3.8 cumulative IPC: 1.864 (Simulation time: 00 hr 14 min 30 sec)
Heartbeat CPU 0 instructions: 143500813 cycles: 61551876 heartbeat IPC: 3.889 cumulative IPC: 1.869 (Simulation time: 00 hr 14 min 33 sec)
Heartbeat CPU 0 instructions: 144000817 cycles: 61671291 heartbeat IPC: 4.187 cumulative IPC: 1.874 (Simulation time: 00 hr 14 min 35 sec)
Heartbeat CPU 0 instructions: 144500819 cycles: 61796732 heartbeat IPC: 3.986 cumulative IPC: 1.88 (Simulation time: 00 hr 14 min 38 sec)
Heartbeat CPU 0 instructions: 145000819 cycles: 61915380 heartbeat IPC: 4.214 cumulative IPC: 1.885 (Simulation time: 00 hr 14 min 40 sec)
Heartbeat CPU 0 instructions: 145500821 cycles: 63226303 heartbeat IPC: 0.3814 cumulative IPC: 1.847 (Simulation time: 00 hr 14 min 53 sec)
Heartbeat CPU 0 instructions: 146000824 cycles: 63368028 heartbeat IPC: 3.528 cumulative IPC: 1.852 (Simulation time: 00 hr 14 min 55 sec)
Heartbeat CPU 0 instructions: 146500827 cycles: 63487429 heartbeat IPC: 4.188 cumulative IPC: 1.857 (Simulation time: 00 hr 14 min 58 sec)
Heartbeat CPU 0 instructions: 147000830 cycles: 63623807 heartbeat IPC: 3.666 cumulative IPC: 1.862 (Simulation time: 00 hr 15 min 00 sec)
Heartbeat CPU 0 instructions: 147500831 cycles: 63741802 heartbeat IPC: 4.237 cumulative IPC: 1.867 (Simulation time: 00 hr 15 min 02 sec)
Heartbeat CPU 0 instructions: 148000831 cycles: 63879952 heartbeat IPC: 3.619 cumulative IPC: 1.872 (Simulation time: 00 hr 15 min 05 sec)
Heartbeat CPU 0 instructions: 148500834 cycles: 63998789 heartbeat IPC: 4.207 cumulative IPC: 1.877 (Simulation time: 00 hr 15 min 07 sec)
Heartbeat CPU 0 instructions: 149000837 cycles: 64128168 heartbeat IPC: 3.865 cumulative IPC: 1.882 (Simulation time: 00 hr 15 min 10 sec)
Heartbeat CPU 0 instructions: 149500838 cycles: 64255523 heartbeat IPC: 3.926 cumulative IPC: 1.887 (Simulation time: 00 hr 15 min 12 sec)
Heartbeat CPU 0 instructions: 150000839 cycles: 64376619 heartbeat IPC: 4.129 cumulative IPC: 1.892 (Simulation time: 00 hr 15 min 14 sec)
Heartbeat CPU 0 instructions: 150500841 cycles: 64504322 heartbeat IPC: 3.915 cumulative IPC: 1.897 (Simulation time: 00 hr 15 min 17 sec)
Heartbeat CPU 0 instructions: 151000842 cycles: 64624182 heartbeat IPC: 4.172 cumulative IPC: 1.902 (Simulation time: 00 hr 15 min 19 sec)
Heartbeat CPU 0 instructions: 151500843 cycles: 64750378 heartbeat IPC: 3.962 cumulative IPC: 1.907 (Simulation time: 00 hr 15 min 22 sec)
Heartbeat CPU 0 instructions: 152000849 cycles: 64877498 heartbeat IPC: 3.933 cumulative IPC: 1.912 (Simulation time: 00 hr 15 min 24 sec)
Heartbeat CPU 0 instructions: 152500851 cycles: 65014228 heartbeat IPC: 3.657 cumulative IPC: 1.916 (Simulation time: 00 hr 15 min 26 sec)
Heartbeat CPU 0 instructions: 153000852 cycles: 65131555 heartbeat IPC: 4.262 cumulative IPC: 1.921 (Simulation time: 00 hr 15 min 29 sec)
Heartbeat CPU 0 instructions: 153500854 cycles: 65262671 heartbeat IPC: 3.813 cumulative IPC: 1.926 (Simulation time: 00 hr 15 min 31 sec)
Heartbeat CPU 0 instructions: 154000854 cycles: 65382185 heartbeat IPC: 4.184 cumulative IPC: 1.931 (Simulation time: 00 hr 15 min 34 sec)
Heartbeat CPU 0 instructions: 154500855 cycles: 65510473 heartbeat IPC: 3.897 cumulative IPC: 1.936 (Simulation time: 00 hr 15 min 36 sec)
Heartbeat CPU 0 instructions: 155000859 cycles: 65627363 heartbeat IPC: 4.278 cumulative IPC: 1.941 (Simulation time: 00 hr 15 min 38 sec)
Heartbeat CPU 0 instructions: 155500860 cycles: 66021640 heartbeat IPC: 1.268 cumulative IPC: 1.936 (Simulation time: 00 hr 15 min 43 sec)
Heartbeat CPU 0 instructions: 156000862 cycles: 66553116 heartbeat IPC: 0.9408 cumulative IPC: 1.926 (Simulation time: 00 hr 15 min 49 sec)
Heartbeat CPU 0 instructions: 156500866 cycles: 66699986 heartbeat IPC: 3.404 cumulative IPC: 1.93 (Simulation time: 00 hr 15 min 52 sec)
Heartbeat CPU 0 instructions: 157000871 cycles: 66830907 heartbeat IPC: 3.819 cumulative IPC: 1.935 (Simulation time: 00 hr 15 min 55 sec)
Heartbeat CPU 0 instructions: 157500871 cycles: 66985135 heartbeat IPC: 3.242 cumulative IPC: 1.938 (Simulation time: 00 hr 15 min 59 sec)
Heartbeat CPU 0 instructions: 158000871 cycles: 67107761 heartbeat IPC: 4.077 cumulative IPC: 1.943 (Simulation time: 00 hr 16 min 02 sec)
Heartbeat CPU 0 instructions: 158500873 cycles: 67241490 heartbeat IPC: 3.739 cumulative IPC: 1.947 (Simulation time: 00 hr 16 min 05 sec)
Heartbeat CPU 0 instructions: 159000875 cycles: 67364458 heartbeat IPC: 4.066 cumulative IPC: 1.952 (Simulation time: 00 hr 16 min 08 sec)
Heartbeat CPU 0 instructions: 159500876 cycles: 67494584 heartbeat IPC: 3.842 cumulative IPC: 1.956 (Simulation time: 00 hr 16 min 11 sec)
Heartbeat CPU 0 instructions: 160000877 cycles: 67612093 heartbeat IPC: 4.255 cumulative IPC: 1.961 (Simulation time: 00 hr 16 min 14 sec)
Heartbeat CPU 0 instructions: 160500877 cycles: 67740294 heartbeat IPC: 3.9 cumulative IPC: 1.966 (Simulation time: 00 hr 16 min 17 sec)
Heartbeat CPU 0 instructions: 161000881 cycles: 67857695 heartbeat IPC: 4.259 cumulative IPC: 1.97 (Simulation time: 00 hr 16 min 20 sec)
Heartbeat CPU 0 instructions: 161500881 cycles: 67986141 heartbeat IPC: 3.893 cumulative IPC: 1.975 (Simulation time: 00 hr 16 min 23 sec)
Heartbeat CPU 0 instructions: 162000885 cycles: 68103139 heartbeat IPC: 4.274 cumulative IPC: 1.979 (Simulation time: 00 hr 16 min 25 sec)
Heartbeat CPU 0 instructions: 162500886 cycles: 68233955 heartbeat IPC: 3.822 cumulative IPC: 1.984 (Simulation time: 00 hr 16 min 28 sec)
Heartbeat CPU 0 instructions: 163000888 cycles: 68361915 heartbeat IPC: 3.907 cumulative IPC: 1.988 (Simulation time: 00 hr 16 min 32 sec)
Heartbeat CPU 0 instructions: 163500893 cycles: 68482460 heartbeat IPC: 4.148 cumulative IPC: 1.993 (Simulation time: 00 hr 16 min 34 sec)
Heartbeat CPU 0 instructions: 164000896 cycles: 68608474 heartbeat IPC: 3.968 cumulative IPC: 1.997 (Simulation time: 00 hr 16 min 37 sec)
Heartbeat CPU 0 instructions: 164500896 cycles: 68727502 heartbeat IPC: 4.201 cumulative IPC: 2.002 (Simulation time: 00 hr 16 min 40 sec)
Heartbeat CPU 0 instructions: 165000901 cycles: 68854044 heartbeat IPC: 3.951 cumulative IPC: 2.006 (Simulation time: 00 hr 16 min 43 sec)
Heartbeat CPU 0 instructions: 165500904 cycles: 68972693 heartbeat IPC: 4.214 cumulative IPC: 2.01 (Simulation time: 00 hr 16 min 46 sec)
Heartbeat CPU 0 instructions: 166000905 cycles: 69640635 heartbeat IPC: 0.7486 cumulative IPC: 1.996 (Simulation time: 00 hr 16 min 53 sec)
Heartbeat CPU 0 instructions: 166500907 cycles: 69762746 heartbeat IPC: 4.095 cumulative IPC: 2 (Simulation time: 00 hr 16 min 56 sec)
Heartbeat CPU 0 instructions: 167000911 cycles: 69890664 heartbeat IPC: 3.909 cumulative IPC: 2.004 (Simulation time: 00 hr 16 min 59 sec)
Heartbeat CPU 0 instructions: 167500912 cycles: 70025583 heartbeat IPC: 3.706 cumulative IPC: 2.008 (Simulation time: 00 hr 17 min 02 sec)
Heartbeat CPU 0 instructions: 168000916 cycles: 70155400 heartbeat IPC: 3.852 cumulative IPC: 2.012 (Simulation time: 00 hr 17 min 05 sec)
Heartbeat CPU 0 instructions: 168500917 cycles: 70280660 heartbeat IPC: 3.992 cumulative IPC: 2.017 (Simulation time: 00 hr 17 min 08 sec)
Heartbeat CPU 0 instructions: 169000919 cycles: 70415863 heartbeat IPC: 3.698 cumulative IPC: 2.021 (Simulation time: 00 hr 17 min 11 sec)
Heartbeat CPU 0 instructions: 169500919 cycles: 70536001 heartbeat IPC: 4.162 cumulative IPC: 2.025 (Simulation time: 00 hr 17 min 14 sec)
Heartbeat CPU 0 instructions: 170000921 cycles: 70667917 heartbeat IPC: 3.79 cumulative IPC: 2.029 (Simulation time: 00 hr 17 min 17 sec)
Heartbeat CPU 0 instructions: 170500924 cycles: 70797050 heartbeat IPC: 3.872 cumulative IPC: 2.033 (Simulation time: 00 hr 17 min 20 sec)
Heartbeat CPU 0 instructions: 171000926 cycles: 70929653 heartbeat IPC: 3.771 cumulative IPC: 2.037 (Simulation time: 00 hr 17 min 23 sec)
Heartbeat CPU 0 instructions: 171500927 cycles: 71047129 heartbeat IPC: 4.256 cumulative IPC: 2.041 (Simulation time: 00 hr 17 min 26 sec)
Heartbeat CPU 0 instructions: 172000928 cycles: 71186113 heartbeat IPC: 3.598 cumulative IPC: 2.045 (Simulation time: 00 hr 17 min 29 sec)
Heartbeat CPU 0 instructions: 172500929 cycles: 71318372 heartbeat IPC: 3.78 cumulative IPC: 2.049 (Simulation time: 00 hr 17 min 32 sec)
Heartbeat CPU 0 instructions: 173000929 cycles: 71455117 heartbeat IPC: 3.656 cumulative IPC: 2.052 (Simulation time: 00 hr 17 min 35 sec)
Heartbeat CPU 0 instructions: 173500929 cycles: 71583304 heartbeat IPC: 3.901 cumulative IPC: 2.056 (Simulation time: 00 hr 17 min 38 sec)
Heartbeat CPU 0 instructions: 174000931 cycles: 71705296 heartbeat IPC: 4.099 cumulative IPC: 2.06 (Simulation time: 00 hr 17 min 41 sec)
Heartbeat CPU 0 instructions: 174500938 cycles: 71834768 heartbeat IPC: 3.862 cumulative IPC: 2.064 (Simulation time: 00 hr 17 min 44 sec)
Heartbeat CPU 0 instructions: 175000939 cycles: 71953846 heartbeat IPC: 4.199 cumulative IPC: 2.068 (Simulation time: 00 hr 17 min 47 sec)
Heartbeat CPU 0 instructions: 175500941 cycles: 72080450 heartbeat IPC: 3.949 cumulative IPC: 2.072 (Simulation time: 00 hr 17 min 50 sec)
Heartbeat CPU 0 instructions: 176000943 cycles: 72617014 heartbeat IPC: 0.9319 cumulative IPC: 2.062 (Simulation time: 00 hr 17 min 56 sec)
Heartbeat CPU 0 instructions: 176500946 cycles: 73287373 heartbeat IPC: 0.7459 cumulative IPC: 2.048 (Simulation time: 00 hr 18 min 03 sec)
Heartbeat CPU 0 instructions: 177000953 cycles: 73685511 heartbeat IPC: 1.256 cumulative IPC: 2.043 (Simulation time: 00 hr 18 min 08 sec)
Heartbeat CPU 0 instructions: 177500958 cycles: 73810424 heartbeat IPC: 4.003 cumulative IPC: 2.047 (Simulation time: 00 hr 18 min 10 sec)
Heartbeat CPU 0 instructions: 178000958 cycles: 73939515 heartbeat IPC: 3.873 cumulative IPC: 2.051 (Simulation time: 00 hr 18 min 13 sec)
Heartbeat CPU 0 instructions: 178500961 cycles: 74062507 heartbeat IPC: 4.065 cumulative IPC: 2.055 (Simulation time: 00 hr 18 min 15 sec)
Heartbeat CPU 0 instructions: 179000963 cycles: 74190154 heartbeat IPC: 3.917 cumulative IPC: 2.058 (Simulation time: 00 hr 18 min 17 sec)
Heartbeat CPU 0 instructions: 179500967 cycles: 74309347 heartbeat IPC: 4.195 cumulative IPC: 2.062 (Simulation time: 00 hr 18 min 20 sec)
Heartbeat CPU 0 instructions: 180000967 cycles: 74438205 heartbeat IPC: 3.88 cumulative IPC: 2.066 (Simulation time: 00 hr 18 min 22 sec)
Heartbeat CPU 0 instructions: 180500970 cycles: 74556519 heartbeat IPC: 4.226 cumulative IPC: 2.07 (Simulation time: 00 hr 18 min 25 sec)
Heartbeat CPU 0 instructions: 181000973 cycles: 74685900 heartbeat IPC: 3.865 cumulative IPC: 2.074 (Simulation time: 00 hr 18 min 27 sec)
Heartbeat CPU 0 instructions: 181500975 cycles: 74803034 heartbeat IPC: 4.269 cumulative IPC: 2.078 (Simulation time: 00 hr 18 min 29 sec)
Heartbeat CPU 0 instructions: 182000977 cycles: 74931408 heartbeat IPC: 3.895 cumulative IPC: 2.082 (Simulation time: 00 hr 18 min 32 sec)
Heartbeat CPU 0 instructions: 182500981 cycles: 75048677 heartbeat IPC: 4.264 cumulative IPC: 2.086 (Simulation time: 00 hr 18 min 34 sec)
Heartbeat CPU 0 instructions: 183000982 cycles: 75176668 heartbeat IPC: 3.907 cumulative IPC: 2.089 (Simulation time: 00 hr 18 min 36 sec)
Heartbeat CPU 0 instructions: 183500982 cycles: 75293480 heartbeat IPC: 4.28 cumulative IPC: 2.093 (Simulation time: 00 hr 18 min 39 sec)
Heartbeat CPU 0 instructions: 184000985 cycles: 75427110 heartbeat IPC: 3.742 cumulative IPC: 2.097 (Simulation time: 00 hr 18 min 41 sec)
Heartbeat CPU 0 instructions: 184500991 cycles: 75564383 heartbeat IPC: 3.642 cumulative IPC: 2.1 (Simulation time: 00 hr 18 min 44 sec)
Heartbeat CPU 0 instructions: 185000993 cycles: 75698780 heartbeat IPC: 3.72 cumulative IPC: 2.104 (Simulation time: 00 hr 18 min 46 sec)
Heartbeat CPU 0 instructions: 185500995 cycles: 75842947 heartbeat IPC: 3.468 cumulative IPC: 2.107 (Simulation time: 00 hr 18 min 49 sec)
Heartbeat CPU 0 instructions: 186000998 cycles: 75970335 heartbeat IPC: 3.925 cumulative IPC: 2.11 (Simulation time: 00 hr 18 min 51 sec)
Heartbeat CPU 0 instructions: 186501003 cycles: 76108749 heartbeat IPC: 3.612 cumulative IPC: 2.113 (Simulation time: 00 hr 18 min 54 sec)
Heartbeat CPU 0 instructions: 187001005 cycles: 76548007 heartbeat IPC: 1.138 cumulative IPC: 2.107 (Simulation time: 00 hr 18 min 59 sec)
Heartbeat CPU 0 instructions: 187501006 cycles: 76694423 heartbeat IPC: 3.415 cumulative IPC: 2.11 (Simulation time: 00 hr 19 min 01 sec)
Heartbeat CPU 0 instructions: 188001007 cycles: 76830139 heartbeat IPC: 3.684 cumulative IPC: 2.113 (Simulation time: 00 hr 19 min 04 sec)
Heartbeat CPU 0 instructions: 188501008 cycles: 76976239 heartbeat IPC: 3.422 cumulative IPC: 2.116 (Simulation time: 00 hr 19 min 06 sec)
Heartbeat CPU 0 instructions: 189001013 cycles: 77099893 heartbeat IPC: 4.044 cumulative IPC: 2.12 (Simulation time: 00 hr 19 min 09 sec)
Heartbeat CPU 0 instructions: 189501017 cycles: 77232783 heartbeat IPC: 3.763 cumulative IPC: 2.123 (Simulation time: 00 hr 19 min 11 sec)
Heartbeat CPU 0 instructions: 190001017 cycles: 77353811 heartbeat IPC: 4.131 cumulative IPC: 2.127 (Simulation time: 00 hr 19 min 14 sec)
Heartbeat CPU 0 instructions: 190501017 cycles: 77483593 heartbeat IPC: 3.853 cumulative IPC: 2.13 (Simulation time: 00 hr 19 min 16 sec)
Heartbeat CPU 0 instructions: 191001017 cycles: 77602416 heartbeat IPC: 4.208 cumulative IPC: 2.134 (Simulation time: 00 hr 19 min 19 sec)
Heartbeat CPU 0 instructions: 191501018 cycles: 77732955 heartbeat IPC: 3.83 cumulative IPC: 2.137 (Simulation time: 00 hr 19 min 21 sec)
Heartbeat CPU 0 instructions: 192001020 cycles: 77849971 heartbeat IPC: 4.273 cumulative IPC: 2.141 (Simulation time: 00 hr 19 min 23 sec)
Heartbeat CPU 0 instructions: 192501021 cycles: 77977825 heartbeat IPC: 3.911 cumulative IPC: 2.144 (Simulation time: 00 hr 19 min 26 sec)
Heartbeat CPU 0 instructions: 193001025 cycles: 78094912 heartbeat IPC: 4.27 cumulative IPC: 2.148 (Simulation time: 00 hr 19 min 28 sec)
Heartbeat CPU 0 instructions: 193501026 cycles: 78224140 heartbeat IPC: 3.869 cumulative IPC: 2.151 (Simulation time: 00 hr 19 min 31 sec)
Heartbeat CPU 0 instructions: 194001030 cycles: 78341128 heartbeat IPC: 4.274 cumulative IPC: 2.155 (Simulation time: 00 hr 19 min 33 sec)
Heartbeat CPU 0 instructions: 194501034 cycles: 78468714 heartbeat IPC: 3.919 cumulative IPC: 2.158 (Simulation time: 00 hr 19 min 35 sec)
Heartbeat CPU 0 instructions: 195001037 cycles: 78593459 heartbeat IPC: 4.008 cumulative IPC: 2.162 (Simulation time: 00 hr 19 min 38 sec)
Heartbeat CPU 0 instructions: 195501040 cycles: 78714466 heartbeat IPC: 4.132 cumulative IPC: 2.165 (Simulation time: 00 hr 19 min 40 sec)
Heartbeat CPU 0 instructions: 196001040 cycles: 78840309 heartbeat IPC: 3.973 cumulative IPC: 2.169 (Simulation time: 00 hr 19 min 43 sec)
Heartbeat CPU 0 instructions: 196501043 cycles: 78958777 heartbeat IPC: 4.221 cumulative IPC: 2.172 (Simulation time: 00 hr 19 min 45 sec)
Heartbeat CPU 0 instructions: 197001043 cycles: 79508546 heartbeat IPC: 0.9095 cumulative IPC: 2.162 (Simulation time: 00 hr 19 min 50 sec)
Heartbeat CPU 0 instructions: 197501044 cycles: 80002224 heartbeat IPC: 1.013 cumulative IPC: 2.154 (Simulation time: 00 hr 19 min 56 sec)
Heartbeat CPU 0 instructions: 198001049 cycles: 80820082 heartbeat IPC: 0.6114 cumulative IPC: 2.136 (Simulation time: 00 hr 20 min 04 sec)
Heartbeat CPU 0 instructions: 198501050 cycles: 81730574 heartbeat IPC: 0.5492 cumulative IPC: 2.115 (Simulation time: 00 hr 20 min 14 sec)
Heartbeat CPU 0 instructions: 199001050 cycles: 81858865 heartbeat IPC: 3.897 cumulative IPC: 2.118 (Simulation time: 00 hr 20 min 16 sec)
Heartbeat CPU 0 instructions: 199501052 cycles: 81997388 heartbeat IPC: 3.61 cumulative IPC: 2.121 (Simulation time: 00 hr 20 min 18 sec)
Heartbeat CPU 0 instructions: 200001057 cycles: 82137695 heartbeat IPC: 3.564 cumulative IPC: 2.124 (Simulation time: 00 hr 20 min 21 sec)
Heartbeat CPU 0 instructions: 200501061 cycles: 82276386 heartbeat IPC: 3.605 cumulative IPC: 2.127 (Simulation time: 00 hr 20 min 24 sec)
Heartbeat CPU 0 instructions: 201001063 cycles: 82397552 heartbeat IPC: 4.127 cumulative IPC: 2.13 (Simulation time: 00 hr 20 min 26 sec)
Heartbeat CPU 0 instructions: 201501069 cycles: 82531534 heartbeat IPC: 3.732 cumulative IPC: 2.133 (Simulation time: 00 hr 20 min 28 sec)
Heartbeat CPU 0 instructions: 202001071 cycles: 82654151 heartbeat IPC: 4.078 cumulative IPC: 2.137 (Simulation time: 00 hr 20 min 31 sec)
Heartbeat CPU 0 instructions: 202501073 cycles: 82786795 heartbeat IPC: 3.77 cumulative IPC: 2.14 (Simulation time: 00 hr 20 min 33 sec)
Heartbeat CPU 0 instructions: 203001076 cycles: 82904406 heartbeat IPC: 4.251 cumulative IPC: 2.143 (Simulation time: 00 hr 20 min 36 sec)
Heartbeat CPU 0 instructions: 203501081 cycles: 83040562 heartbeat IPC: 3.672 cumulative IPC: 2.146 (Simulation time: 00 hr 20 min 38 sec)
Heartbeat CPU 0 instructions: 204001083 cycles: 83167026 heartbeat IPC: 3.954 cumulative IPC: 2.149 (Simulation time: 00 hr 20 min 40 sec)
Heartbeat CPU 0 instructions: 204501084 cycles: 83303846 heartbeat IPC: 3.654 cumulative IPC: 2.152 (Simulation time: 00 hr 20 min 43 sec)
Heartbeat CPU 0 instructions: 205001087 cycles: 83432754 heartbeat IPC: 3.879 cumulative IPC: 2.155 (Simulation time: 00 hr 20 min 45 sec)
Heartbeat CPU 0 instructions: 205501094 cycles: 83575957 heartbeat IPC: 3.492 cumulative IPC: 2.158 (Simulation time: 00 hr 20 min 48 sec)
Heartbeat CPU 0 instructions: 206001098 cycles: 83708152 heartbeat IPC: 3.782 cumulative IPC: 2.161 (Simulation time: 00 hr 20 min 50 sec)
Heartbeat CPU 0 instructions: 206501099 cycles: 83831605 heartbeat IPC: 4.05 cumulative IPC: 2.164 (Simulation time: 00 hr 20 min 53 sec)
Heartbeat CPU 0 instructions: 207001102 cycles: 83973507 heartbeat IPC: 3.524 cumulative IPC: 2.167 (Simulation time: 00 hr 20 min 55 sec)
Heartbeat CPU 0 instructions: 207501103 cycles: 84099326 heartbeat IPC: 3.974 cumulative IPC: 2.17 (Simulation time: 00 hr 20 min 58 sec)
Heartbeat CPU 0 instructions: 208001107 cycles: 84229373 heartbeat IPC: 3.845 cumulative IPC: 2.173 (Simulation time: 00 hr 21 min 00 sec)
Heartbeat CPU 0 instructions: 208501108 cycles: 84816813 heartbeat IPC: 0.8512 cumulative IPC: 2.162 (Simulation time: 00 hr 21 min 06 sec)
Heartbeat CPU 0 instructions: 209001112 cycles: 85724530 heartbeat IPC: 0.5508 cumulative IPC: 2.143 (Simulation time: 00 hr 21 min 14 sec)
Heartbeat CPU 0 instructions: 209501112 cycles: 86000152 heartbeat IPC: 1.814 cumulative IPC: 2.142 (Simulation time: 00 hr 21 min 19 sec)
Heartbeat CPU 0 instructions: 210001112 cycles: 86135513 heartbeat IPC: 3.694 cumulative IPC: 2.144 (Simulation time: 00 hr 21 min 22 sec)
Heartbeat CPU 0 instructions: 210501115 cycles: 86271673 heartbeat IPC: 3.672 cumulative IPC: 2.147 (Simulation time: 00 hr 21 min 25 sec)
Heartbeat CPU 0 instructions: 211001116 cycles: 86397050 heartbeat IPC: 3.988 cumulative IPC: 2.15 (Simulation time: 00 hr 21 min 28 sec)
Heartbeat CPU 0 instructions: 211501116 cycles: 86527229 heartbeat IPC: 3.841 cumulative IPC: 2.153 (Simulation time: 00 hr 21 min 31 sec)
Heartbeat CPU 0 instructions: 212001119 cycles: 86651212 heartbeat IPC: 4.033 cumulative IPC: 2.156 (Simulation time: 00 hr 21 min 34 sec)
Heartbeat CPU 0 instructions: 212501120 cycles: 86781134 heartbeat IPC: 3.848 cumulative IPC: 2.159 (Simulation time: 00 hr 21 min 37 sec)
Heartbeat CPU 0 instructions: 213001124 cycles: 86904276 heartbeat IPC: 4.06 cumulative IPC: 2.162 (Simulation time: 00 hr 21 min 40 sec)
Heartbeat CPU 0 instructions: 213501127 cycles: 87034391 heartbeat IPC: 3.843 cumulative IPC: 2.165 (Simulation time: 00 hr 21 min 43 sec)
Heartbeat CPU 0 instructions: 214001129 cycles: 87152182 heartbeat IPC: 4.245 cumulative IPC: 2.168 (Simulation time: 00 hr 21 min 46 sec)
Heartbeat CPU 0 instructions: 214501132 cycles: 87281221 heartbeat IPC: 3.875 cumulative IPC: 2.171 (Simulation time: 00 hr 21 min 49 sec)
Heartbeat CPU 0 instructions: 215001136 cycles: 87398592 heartbeat IPC: 4.26 cumulative IPC: 2.175 (Simulation time: 00 hr 21 min 52 sec)
Heartbeat CPU 0 instructions: 215501137 cycles: 87531877 heartbeat IPC: 3.751 cumulative IPC: 2.177 (Simulation time: 00 hr 21 min 55 sec)
Heartbeat CPU 0 instructions: 216001140 cycles: 87658230 heartbeat IPC: 3.957 cumulative IPC: 2.18 (Simulation time: 00 hr 21 min 58 sec)
Heartbeat CPU 0 instructions: 216501144 cycles: 87793729 heartbeat IPC: 3.69 cumulative IPC: 2.183 (Simulation time: 00 hr 22 min 01 sec)
Heartbeat CPU 0 instructions: 217001144 cycles: 87938196 heartbeat IPC: 3.461 cumulative IPC: 2.185 (Simulation time: 00 hr 22 min 04 sec)
Heartbeat CPU 0 instructions: 217501144 cycles: 88067112 heartbeat IPC: 3.878 cumulative IPC: 2.188 (Simulation time: 00 hr 22 min 07 sec)
Heartbeat CPU 0 instructions: 218001144 cycles: 88202163 heartbeat IPC: 3.702 cumulative IPC: 2.191 (Simulation time: 00 hr 22 min 10 sec)
Heartbeat CPU 0 instructions: 218501145 cycles: 88337055 heartbeat IPC: 3.707 cumulative IPC: 2.194 (Simulation time: 00 hr 22 min 13 sec)
Heartbeat CPU 0 instructions: 219001148 cycles: 88476258 heartbeat IPC: 3.592 cumulative IPC: 2.196 (Simulation time: 00 hr 22 min 16 sec)
Heartbeat CPU 0 instructions: 219501153 cycles: 89299439 heartbeat IPC: 0.6074 cumulative IPC: 2.179 (Simulation time: 00 hr 22 min 24 sec)
Heartbeat CPU 0 instructions: 220001154 cycles: 89672263 heartbeat IPC: 1.341 cumulative IPC: 2.175 (Simulation time: 00 hr 22 min 28 sec)
Heartbeat CPU 0 instructions: 220501154 cycles: 89816590 heartbeat IPC: 3.464 cumulative IPC: 2.178 (Simulation time: 00 hr 22 min 32 sec)
Heartbeat CPU 0 instructions: 221001156 cycles: 89948507 heartbeat IPC: 3.79 cumulative IPC: 2.18 (Simulation time: 00 hr 22 min 35 sec)
Heartbeat CPU 0 instructions: 221501160 cycles: 90432820 heartbeat IPC: 1.032 cumulative IPC: 2.173 (Simulation time: 00 hr 22 min 40 sec)
Heartbeat CPU 0 instructions: 222001161 cycles: 90982438 heartbeat IPC: 0.9097 cumulative IPC: 2.165 (Simulation time: 00 hr 22 min 46 sec)
Heartbeat CPU 0 instructions: 222501165 cycles: 92624694 heartbeat IPC: 0.3045 cumulative IPC: 2.127 (Simulation time: 00 hr 22 min 59 sec)
Heartbeat CPU 0 instructions: 223001169 cycles: 93861066 heartbeat IPC: 0.4044 cumulative IPC: 2.101 (Simulation time: 00 hr 23 min 09 sec)
Heartbeat CPU 0 instructions: 223501176 cycles: 95174873 heartbeat IPC: 0.3806 cumulative IPC: 2.074 (Simulation time: 00 hr 23 min 21 sec)
Heartbeat CPU 0 instructions: 224001179 cycles: 96323971 heartbeat IPC: 0.4351 cumulative IPC: 2.052 (Simulation time: 00 hr 23 min 31 sec)
Heartbeat CPU 0 instructions: 224501181 cycles: 97094305 heartbeat IPC: 0.6491 cumulative IPC: 2.039 (Simulation time: 00 hr 23 min 38 sec)
Heartbeat CPU 0 instructions: 225001181 cycles: 97922351 heartbeat IPC: 0.6038 cumulative IPC: 2.025 (Simulation time: 00 hr 23 min 46 sec)
Heartbeat CPU 0 instructions: 225501185 cycles: 98684078 heartbeat IPC: 0.6564 cumulative IPC: 2.013 (Simulation time: 00 hr 23 min 53 sec)
Heartbeat CPU 0 instructions: 226001191 cycles: 99583836 heartbeat IPC: 0.5557 cumulative IPC: 1.999 (Simulation time: 00 hr 24 min 02 sec)
Heartbeat CPU 0 instructions: 226501192 cycles: 100257037 heartbeat IPC: 0.7427 cumulative IPC: 1.989 (Simulation time: 00 hr 24 min 09 sec)
Heartbeat CPU 0 instructions: 227001193 cycles: 100838311 heartbeat IPC: 0.8602 cumulative IPC: 1.982 (Simulation time: 00 hr 24 min 17 sec)
Heartbeat CPU 0 instructions: 227501193 cycles: 101544238 heartbeat IPC: 0.7083 cumulative IPC: 1.972 (Simulation time: 00 hr 24 min 24 sec)
Heartbeat CPU 0 instructions: 228001196 cycles: 102453624 heartbeat IPC: 0.5498 cumulative IPC: 1.957 (Simulation time: 00 hr 24 min 34 sec)
Heartbeat CPU 0 instructions: 228501200 cycles: 103345975 heartbeat IPC: 0.5603 cumulative IPC: 1.944 (Simulation time: 00 hr 24 min 42 sec)
Heartbeat CPU 0 instructions: 229001207 cycles: 104182219 heartbeat IPC: 0.5979 cumulative IPC: 1.932 (Simulation time: 00 hr 24 min 50 sec)
Heartbeat CPU 0 instructions: 229501210 cycles: 104998504 heartbeat IPC: 0.6125 cumulative IPC: 1.92 (Simulation time: 00 hr 24 min 58 sec)
Heartbeat CPU 0 instructions: 230001212 cycles: 105753839 heartbeat IPC: 0.662 cumulative IPC: 1.91 (Simulation time: 00 hr 25 min 05 sec)
Heartbeat CPU 0 instructions: 230501212 cycles: 106684607 heartbeat IPC: 0.5372 cumulative IPC: 1.897 (Simulation time: 00 hr 25 min 16 sec)
Heartbeat CPU 0 instructions: 231001216 cycles: 107571601 heartbeat IPC: 0.5637 cumulative IPC: 1.884 (Simulation time: 00 hr 25 min 23 sec)
Heartbeat CPU 0 instructions: 231501221 cycles: 107754863 heartbeat IPC: 2.728 cumulative IPC: 1.886 (Simulation time: 00 hr 25 min 26 sec)
Heartbeat CPU 0 instructions: 232001221 cycles: 107924218 heartbeat IPC: 2.952 cumulative IPC: 1.888 (Simulation time: 00 hr 25 min 29 sec)
Heartbeat CPU 0 instructions: 232501225 cycles: 108091322 heartbeat IPC: 2.992 cumulative IPC: 1.89 (Simulation time: 00 hr 25 min 32 sec)
Heartbeat CPU 0 instructions: 233001230 cycles: 108262096 heartbeat IPC: 2.928 cumulative IPC: 1.892 (Simulation time: 00 hr 25 min 34 sec)
Heartbeat CPU 0 instructions: 233501235 cycles: 108417349 heartbeat IPC: 3.221 cumulative IPC: 1.894 (Simulation time: 00 hr 25 min 37 sec)
Heartbeat CPU 0 instructions: 234001239 cycles: 108611840 heartbeat IPC: 2.571 cumulative IPC: 1.895 (Simulation time: 00 hr 25 min 40 sec)
Heartbeat CPU 0 instructions: 234501240 cycles: 108774839 heartbeat IPC: 3.068 cumulative IPC: 1.897 (Simulation time: 00 hr 25 min 43 sec)
Heartbeat CPU 0 instructions: 235001240 cycles: 108945313 heartbeat IPC: 2.933 cumulative IPC: 1.899 (Simulation time: 00 hr 25 min 45 sec)
Heartbeat CPU 0 instructions: 235501240 cycles: 109102870 heartbeat IPC: 3.173 cumulative IPC: 1.901 (Simulation time: 00 hr 25 min 48 sec)
Heartbeat CPU 0 instructions: 236001247 cycles: 109266242 heartbeat IPC: 3.061 cumulative IPC: 1.903 (Simulation time: 00 hr 25 min 51 sec)
Heartbeat CPU 0 instructions: 236501253 cycles: 109436874 heartbeat IPC: 2.93 cumulative IPC: 1.905 (Simulation time: 00 hr 25 min 53 sec)
Heartbeat CPU 0 instructions: 237001255 cycles: 109620258 heartbeat IPC: 2.727 cumulative IPC: 1.906 (Simulation time: 00 hr 25 min 56 sec)
Heartbeat CPU 0 instructions: 237501256 cycles: 109810872 heartbeat IPC: 2.623 cumulative IPC: 1.908 (Simulation time: 00 hr 25 min 59 sec)
Heartbeat CPU 0 instructions: 238001262 cycles: 109986738 heartbeat IPC: 2.843 cumulative IPC: 1.909 (Simulation time: 00 hr 26 min 02 sec)
Heartbeat CPU 0 instructions: 238501269 cycles: 110976713 heartbeat IPC: 0.5051 cumulative IPC: 1.895 (Simulation time: 00 hr 26 min 12 sec)
Heartbeat CPU 0 instructions: 239001269 cycles: 111478630 heartbeat IPC: 0.9962 cumulative IPC: 1.891 (Simulation time: 00 hr 26 min 18 sec)
Heartbeat CPU 0 instructions: 239501274 cycles: 111649011 heartbeat IPC: 2.935 cumulative IPC: 1.893 (Simulation time: 00 hr 26 min 20 sec)
Heartbeat CPU 0 instructions: 240001277 cycles: 111809098 heartbeat IPC: 3.123 cumulative IPC: 1.895 (Simulation time: 00 hr 26 min 23 sec)
Heartbeat CPU 0 instructions: 240501278 cycles: 111976648 heartbeat IPC: 2.984 cumulative IPC: 1.896 (Simulation time: 00 hr 26 min 26 sec)
Heartbeat CPU 0 instructions: 241001280 cycles: 112179618 heartbeat IPC: 2.463 cumulative IPC: 1.898 (Simulation time: 00 hr 26 min 29 sec)
Heartbeat CPU 0 instructions: 241501280 cycles: 112404931 heartbeat IPC: 2.219 cumulative IPC: 1.898 (Simulation time: 00 hr 26 min 33 sec)
Heartbeat CPU 0 instructions: 242001285 cycles: 112564477 heartbeat IPC: 3.134 cumulative IPC: 1.9 (Simulation time: 00 hr 26 min 35 sec)
Heartbeat CPU 0 instructions: 242501287 cycles: 112750545 heartbeat IPC: 2.687 cumulative IPC: 1.902 (Simulation time: 00 hr 26 min 38 sec)
Heartbeat CPU 0 instructions: 243001287 cycles: 112909661 heartbeat IPC: 3.142 cumulative IPC: 1.904 (Simulation time: 00 hr 26 min 41 sec)
Heartbeat CPU 0 instructions: 243501289 cycles: 113079529 heartbeat IPC: 2.943 cumulative IPC: 1.905 (Simulation time: 00 hr 26 min 44 sec)
Heartbeat CPU 0 instructions: 244001289 cycles: 113247006 heartbeat IPC: 2.985 cumulative IPC: 1.907 (Simulation time: 00 hr 26 min 47 sec)
Heartbeat CPU 0 instructions: 244501292 cycles: 113446776 heartbeat IPC: 2.503 cumulative IPC: 1.908 (Simulation time: 00 hr 26 min 50 sec)
Heartbeat CPU 0 instructions: 245001299 cycles: 113608692 heartbeat IPC: 3.088 cumulative IPC: 1.91 (Simulation time: 00 hr 26 min 53 sec)
Heartbeat CPU 0 instructions: 245501300 cycles: 113776987 heartbeat IPC: 2.971 cumulative IPC: 1.912 (Simulation time: 00 hr 26 min 56 sec)
Heartbeat CPU 0 instructions: 246001303 cycles: 113937163 heartbeat IPC: 3.122 cumulative IPC: 1.914 (Simulation time: 00 hr 26 min 59 sec)
Heartbeat CPU 0 instructions: 246501303 cycles: 114109272 heartbeat IPC: 2.905 cumulative IPC: 1.915 (Simulation time: 00 hr 27 min 01 sec)
Heartbeat CPU 0 instructions: 247001307 cycles: 114266012 heartbeat IPC: 3.19 cumulative IPC: 1.917 (Simulation time: 00 hr 27 min 04 sec)
Heartbeat CPU 0 instructions: 247501309 cycles: 114462714 heartbeat IPC: 2.542 cumulative IPC: 1.919 (Simulation time: 00 hr 27 min 07 sec)
Heartbeat CPU 0 instructions: 248001310 cycles: 114645734 heartbeat IPC: 2.732 cumulative IPC: 1.92 (Simulation time: 00 hr 27 min 11 sec)
Heartbeat CPU 0 instructions: 248501316 cycles: 114811291 heartbeat IPC: 3.02 cumulative IPC: 1.922 (Simulation time: 00 hr 27 min 13 sec)
Heartbeat CPU 0 instructions: 249001317 cycles: 115273560 heartbeat IPC: 1.082 cumulative IPC: 1.918 (Simulation time: 00 hr 27 min 19 sec)
Heartbeat CPU 0 instructions: 249501317 cycles: 115433241 heartbeat IPC: 3.131 cumulative IPC: 1.92 (Simulation time: 00 hr 27 min 22 sec)
Simulation finished CPU 0 instructions: 200000007 cycles: 104082649 cumulative IPC: 1.922 (Simulation time: 00 hr 27 min 25 sec)
Simulation complete CPU 0 instructions: 200000007 cycles: 104082649 cumulative IPC: 1.922 (Simulation time: 00 hr 27 min 25 sec)

ChampSim completed all CPUs

=== Simulation ===
CPU 0 runs /local-ssd/ben/dpc4-traces/gtraces_v2/arizona_0002.champsim.gz

Region of Interest Statistics

CPU 0 cumulative IPC: 1.922 instructions: 200000007 cycles: 104082649
CPU 0 Branch Prediction Accuracy: 93.98% MPKI: 2.853 Average ROB Occupancy at Mispredict: 40.47
Branch type MPKI
BRANCH_DIRECT_JUMP: 0.06592
BRANCH_INDIRECT: 0.01835
BRANCH_CONDITIONAL: 2.632
BRANCH_DIRECT_CALL: 0.04312
BRANCH_INDIRECT_CALL: 0.01607
BRANCH_RETURN: 0.07738

cpu0->cpu0_STLB TOTAL        ACCESS:     498330 HIT:     380956 MISS:     117374 MSHR_MERGE:          0
cpu0->cpu0_STLB LOAD         ACCESS:     498330 HIT:     380956 MISS:     117374 MSHR_MERGE:          0
cpu0->cpu0_STLB RFO          ACCESS:          0 HIT:          0 MISS:          0 MSHR_MERGE:          0
cpu0->cpu0_STLB PREFETCH     ACCESS:          0 HIT:          0 MISS:          0 MSHR_MERGE:          0
cpu0->cpu0_STLB WRITE        ACCESS:          0 HIT:          0 MISS:          0 MSHR_MERGE:          0
cpu0->cpu0_STLB TRANSLATION  ACCESS:          0 HIT:          0 MISS:          0 MSHR_MERGE:          0
cpu0->cpu0_STLB PREFETCH REQUESTED:          0 ISSUED:          0 USEFUL:          0 USELESS:          0
cpu0->cpu0_STLB AVERAGE MISS LATENCY: 199.4 cycles
cpu0->cpu0_L2C TOTAL        ACCESS:    6082911 HIT:    4112983 MISS:    1969928 MSHR_MERGE:     712337
cpu0->cpu0_L2C LOAD         ACCESS:     664884 HIT:     374745 MISS:     290139 MSHR_MERGE:      13842
cpu0->cpu0_L2C RFO          ACCESS:     366551 HIT:     240996 MISS:     125555 MSHR_MERGE:        714
cpu0->cpu0_L2C PREFETCH     ACCESS:    4391891 HIT:    2896490 MISS:    1495401 MSHR_MERGE:     697781
cpu0->cpu0_L2C WRITE        ACCESS:     536745 HIT:     536733 MISS:         12 MSHR_MERGE:          0
cpu0->cpu0_L2C TRANSLATION  ACCESS:     122840 HIT:      64019 MISS:      58821 MSHR_MERGE:          0
cpu0->cpu0_L2C PREFETCH REQUESTED:    3932395 ISSUED:    3593747 USEFUL:     363073 USELESS:     281728
cpu0->cpu0_L2C AVERAGE MISS LATENCY: 223.1 cycles
cpu0->cpu0_L1I TOTAL        ACCESS:   26925943 HIT:   26711124 MISS:     214819 MSHR_MERGE:      48816
cpu0->cpu0_L1I LOAD         ACCESS:   26925943 HIT:   26711124 MISS:     214819 MSHR_MERGE:      48816
cpu0->cpu0_L1I RFO          ACCESS:          0 HIT:          0 MISS:          0 MSHR_MERGE:          0
cpu0->cpu0_L1I PREFETCH     ACCESS:          0 HIT:          0 MISS:          0 MSHR_MERGE:          0
cpu0->cpu0_L1I WRITE        ACCESS:          0 HIT:          0 MISS:          0 MSHR_MERGE:          0
cpu0->cpu0_L1I TRANSLATION  ACCESS:          0 HIT:          0 MISS:          0 MSHR_MERGE:          0
cpu0->cpu0_L1I PREFETCH REQUESTED:          0 ISSUED:          0 USEFUL:          0 USELESS:          0
cpu0->cpu0_L1I AVERAGE MISS LATENCY: 106.5 cycles
cpu0->cpu0_L1D TOTAL        ACCESS:   50746005 HIT:   47387327 MISS:    3358678 MSHR_MERGE:    1572234
cpu0->cpu0_L1D LOAD         ACCESS:   23803342 HIT:   23087809 MISS:     715533 MSHR_MERGE:     216636
cpu0->cpu0_L1D RFO          ACCESS:          0 HIT:          0 MISS:          0 MSHR_MERGE:          0
cpu0->cpu0_L1D PREFETCH     ACCESS:   16488571 HIT:   15146310 MISS:    1342261 MSHR_MERGE:     544115
cpu0->cpu0_L1D WRITE        ACCESS:   10168701 HIT:    8993438 MISS:    1175263 MSHR_MERGE:     808702
cpu0->cpu0_L1D TRANSLATION  ACCESS:     285391 HIT:     159770 MISS:     125621 MSHR_MERGE:       2781
cpu0->cpu0_L1D PREFETCH REQUESTED:   18440156 ISSUED:   16488566 USEFUL:     571693 USELESS:     226445
cpu0->cpu0_L1D AVERAGE MISS LATENCY: 101.8 cycles
cpu0->cpu0_ITLB TOTAL        ACCESS:   22524885 HIT:   22480055 MISS:      44830 MSHR_MERGE:      21865
cpu0->cpu0_ITLB LOAD         ACCESS:   22524885 HIT:   22480055 MISS:      44830 MSHR_MERGE:      21865
cpu0->cpu0_ITLB RFO          ACCESS:          0 HIT:          0 MISS:          0 MSHR_MERGE:          0
cpu0->cpu0_ITLB PREFETCH     ACCESS:          0 HIT:          0 MISS:          0 MSHR_MERGE:          0
cpu0->cpu0_ITLB WRITE        ACCESS:          0 HIT:          0 MISS:          0 MSHR_MERGE:          0
cpu0->cpu0_ITLB TRANSLATION  ACCESS:          0 HIT:          0 MISS:          0 MSHR_MERGE:          0
cpu0->cpu0_ITLB PREFETCH REQUESTED:          0 ISSUED:          0 USEFUL:          0 USELESS:          0
cpu0->cpu0_ITLB AVERAGE MISS LATENCY: 47.92 cycles
cpu0->cpu0_DTLB TOTAL        ACCESS:   45192123 HIT:   44434822 MISS:     757301 MSHR_MERGE:     281936
cpu0->cpu0_DTLB LOAD         ACCESS:   45192123 HIT:   44434822 MISS:     757301 MSHR_MERGE:     281936
cpu0->cpu0_DTLB RFO          ACCESS:          0 HIT:          0 MISS:          0 MSHR_MERGE:          0
cpu0->cpu0_DTLB PREFETCH     ACCESS:          0 HIT:          0 MISS:          0 MSHR_MERGE:          0
cpu0->cpu0_DTLB WRITE        ACCESS:          0 HIT:          0 MISS:          0 MSHR_MERGE:          0
cpu0->cpu0_DTLB TRANSLATION  ACCESS:          0 HIT:          0 MISS:          0 MSHR_MERGE:          0
cpu0->cpu0_DTLB PREFETCH REQUESTED:          0 ISSUED:          0 USEFUL:          0 USELESS:          0
cpu0->cpu0_DTLB AVERAGE MISS LATENCY: 52.41 cycles
cpu0->LLC TOTAL        ACCESS:    1943878 HIT:     432144 MISS:    1511734 MSHR_MERGE:      57982
cpu0->LLC LOAD         ACCESS:     276297 HIT:      86429 MISS:     189868 MSHR_MERGE:       3921
cpu0->LLC RFO          ACCESS:     124841 HIT:      11327 MISS:     113514 MSHR_MERGE:        101
cpu0->LLC PREFETCH     ACCESS:    1076959 HIT:     192346 MISS:     884613 MSHR_MERGE:      53960
cpu0->LLC WRITE        ACCESS:     406960 HIT:     135371 MISS:     271589 MSHR_MERGE:          0
cpu0->LLC TRANSLATION  ACCESS:      58821 HIT:       6671 MISS:      52150 MSHR_MERGE:          0
cpu0->LLC PREFETCH REQUESTED:     284723 ISSUED:     279340 USEFUL:      40728 USELESS:     123975
cpu0->LLC AVERAGE MISS LATENCY: 155.5 cycles

DRAM Statistics

Channel 0 RQ ROW_BUFFER_HIT:      94833
  ROW_BUFFER_MISS:    1087222
  AVG DBUS CONGESTED CYCLE: 18.76
Channel 0 WQ ROW_BUFFER_HIT:      65069
  ROW_BUFFER_MISS:     306951
  FULL:       2137
Channel 0 REFRESHES ISSUED:       8673
