[VMEM] WARNING: physical memory size is smaller than virtual memory size.

*** ChampSim Multicore Out-of-Order Simulator ***
Warmup Instructions: 50000000
Simulation Instructions: 200000000
Number of CPUs: 1
Page size: 4096
Core 0: /local-ssd/ben/dpc4-traces/gtraces_v2/tahoe_0003.champsim.gz
Off-chip DRAM Size: 64 GiB Channels: 1 Width: 64-bit Data Rate: 4807 MT/s
Heartbeat CPU 0 instructions: 500003 cycles: 274584 heartbeat IPC: 1.821 cumulative IPC: 1.821 (Simulation time: 00 hr 00 min 04 sec)
[BTB] WARNING: target of return is a lower address than the corresponding call. This is usually a problem with your trace.
Heartbeat CPU 0 instructions: 1000005 cycles: 473159 heartbeat IPC: 2.518 cumulative IPC: 2.113 (Simulation time: 00 hr 00 min 07 sec)
[BTB] WARNING: target of return is a lower address than the corresponding call. This is usually a problem with your trace.
[BTB] WARNING: target of return is a lower address than the corresponding call. This is usually a problem with your trace.
[BTB] WARNING: target of return is a lower address than the corresponding call. This is usually a problem with your trace.
[BTB] WARNING: target of return is a lower address than the corresponding call. This is usually a problem with your trace.
[BTB] WARNING: target of return is a lower address than the corresponding call. This is usually a problem with your trace.
[BTB] WARNING: target of return is a lower address than the corresponding call. This is usually a problem with your trace.
[BTB] WARNING: target of return is a lower address than the corresponding call. This is usually a problem with your trace.
[BTB] WARNING: target of return is a lower address than the corresponding call. This is usually a problem with your trace.
Heartbeat CPU 0 instructions: 1500007 cycles: 654509 heartbeat IPC: 2.757 cumulative IPC: 2.292 (Simulation time: 00 hr 00 min 10 sec)
[BTB] WARNING: target of return is a lower address than the corresponding call. This is usually a problem with your trace.
Heartbeat CPU 0 instructions: 2000010 cycles: 868195 heartbeat IPC: 2.34 cumulative IPC: 2.304 (Simulation time: 00 hr 00 min 13 sec)
Heartbeat CPU 0 instructions: 2500016 cycles: 1110664 heartbeat IPC: 2.062 cumulative IPC: 2.251 (Simulation time: 00 hr 00 min 17 sec)
Heartbeat CPU 0 instructions: 3000017 cycles: 1264867 heartbeat IPC: 3.242 cumulative IPC: 2.372 (Simulation time: 00 hr 00 min 20 sec)
Heartbeat CPU 0 instructions: 3500024 cycles: 1416876 heartbeat IPC: 3.289 cumulative IPC: 2.47 (Simulation time: 00 hr 00 min 22 sec)
Heartbeat CPU 0 instructions: 4000024 cycles: 1546234 heartbeat IPC: 3.865 cumulative IPC: 2.587 (Simulation time: 00 hr 00 min 25 sec)
Heartbeat CPU 0 instructions: 4500027 cycles: 1784125 heartbeat IPC: 2.102 cumulative IPC: 2.522 (Simulation time: 00 hr 00 min 29 sec)
Heartbeat CPU 0 instructions: 5000031 cycles: 1933603 heartbeat IPC: 3.345 cumulative IPC: 2.586 (Simulation time: 00 hr 00 min 32 sec)
Heartbeat CPU 0 instructions: 5500034 cycles: 2107856 heartbeat IPC: 2.869 cumulative IPC: 2.609 (Simulation time: 00 hr 00 min 35 sec)
Heartbeat CPU 0 instructions: 6000038 cycles: 2250568 heartbeat IPC: 3.504 cumulative IPC: 2.666 (Simulation time: 00 hr 00 min 38 sec)
Heartbeat CPU 0 instructions: 6500044 cycles: 2422290 heartbeat IPC: 2.912 cumulative IPC: 2.683 (Simulation time: 00 hr 00 min 41 sec)
Heartbeat CPU 0 instructions: 7000050 cycles: 2605618 heartbeat IPC: 2.727 cumulative IPC: 2.687 (Simulation time: 00 hr 00 min 45 sec)
Heartbeat CPU 0 instructions: 7500050 cycles: 2792404 heartbeat IPC: 2.677 cumulative IPC: 2.686 (Simulation time: 00 hr 00 min 48 sec)
Heartbeat CPU 0 instructions: 8000051 cycles: 2947275 heartbeat IPC: 3.228 cumulative IPC: 2.714 (Simulation time: 00 hr 00 min 51 sec)
Heartbeat CPU 0 instructions: 8500056 cycles: 3106034 heartbeat IPC: 3.149 cumulative IPC: 2.737 (Simulation time: 00 hr 00 min 54 sec)
Heartbeat CPU 0 instructions: 9000062 cycles: 3262301 heartbeat IPC: 3.2 cumulative IPC: 2.759 (Simulation time: 00 hr 00 min 57 sec)
Heartbeat CPU 0 instructions: 9500069 cycles: 3430450 heartbeat IPC: 2.974 cumulative IPC: 2.769 (Simulation time: 00 hr 01 min 00 sec)
Heartbeat CPU 0 instructions: 10000074 cycles: 3587748 heartbeat IPC: 3.179 cumulative IPC: 2.787 (Simulation time: 00 hr 01 min 03 sec)
Heartbeat CPU 0 instructions: 10500074 cycles: 3734122 heartbeat IPC: 3.416 cumulative IPC: 2.812 (Simulation time: 00 hr 01 min 06 sec)
Heartbeat CPU 0 instructions: 11000079 cycles: 3884440 heartbeat IPC: 3.326 cumulative IPC: 2.832 (Simulation time: 00 hr 01 min 09 sec)
Heartbeat CPU 0 instructions: 11500080 cycles: 4046444 heartbeat IPC: 3.086 cumulative IPC: 2.842 (Simulation time: 00 hr 01 min 12 sec)
Heartbeat CPU 0 instructions: 12000081 cycles: 4203568 heartbeat IPC: 3.182 cumulative IPC: 2.855 (Simulation time: 00 hr 01 min 15 sec)
Heartbeat CPU 0 instructions: 12500085 cycles: 4330467 heartbeat IPC: 3.94 cumulative IPC: 2.887 (Simulation time: 00 hr 01 min 18 sec)
Heartbeat CPU 0 instructions: 13000090 cycles: 4478014 heartbeat IPC: 3.389 cumulative IPC: 2.903 (Simulation time: 00 hr 01 min 21 sec)
Heartbeat CPU 0 instructions: 13500092 cycles: 4648625 heartbeat IPC: 2.931 cumulative IPC: 2.904 (Simulation time: 00 hr 01 min 24 sec)
Heartbeat CPU 0 instructions: 14000096 cycles: 4811426 heartbeat IPC: 3.071 cumulative IPC: 2.91 (Simulation time: 00 hr 01 min 27 sec)
Heartbeat CPU 0 instructions: 14500098 cycles: 4940876 heartbeat IPC: 3.863 cumulative IPC: 2.935 (Simulation time: 00 hr 01 min 30 sec)
Heartbeat CPU 0 instructions: 15000103 cycles: 5071251 heartbeat IPC: 3.835 cumulative IPC: 2.958 (Simulation time: 00 hr 01 min 32 sec)
Heartbeat CPU 0 instructions: 15500106 cycles: 5253662 heartbeat IPC: 2.741 cumulative IPC: 2.95 (Simulation time: 00 hr 01 min 36 sec)
Heartbeat CPU 0 instructions: 16000106 cycles: 5368751 heartbeat IPC: 4.344 cumulative IPC: 2.98 (Simulation time: 00 hr 01 min 38 sec)
Heartbeat CPU 0 instructions: 16500108 cycles: 5551460 heartbeat IPC: 2.737 cumulative IPC: 2.972 (Simulation time: 00 hr 01 min 41 sec)
Heartbeat CPU 0 instructions: 17000109 cycles: 5675333 heartbeat IPC: 4.036 cumulative IPC: 2.995 (Simulation time: 00 hr 01 min 44 sec)
Heartbeat CPU 0 instructions: 17500113 cycles: 5782649 heartbeat IPC: 4.659 cumulative IPC: 3.026 (Simulation time: 00 hr 01 min 46 sec)
Heartbeat CPU 0 instructions: 18000114 cycles: 5936553 heartbeat IPC: 3.249 cumulative IPC: 3.032 (Simulation time: 00 hr 01 min 49 sec)
Heartbeat CPU 0 instructions: 18500118 cycles: 6058404 heartbeat IPC: 4.103 cumulative IPC: 3.054 (Simulation time: 00 hr 01 min 52 sec)
Heartbeat CPU 0 instructions: 19000124 cycles: 6159349 heartbeat IPC: 4.953 cumulative IPC: 3.085 (Simulation time: 00 hr 01 min 54 sec)
Heartbeat CPU 0 instructions: 19500124 cycles: 6285232 heartbeat IPC: 3.972 cumulative IPC: 3.103 (Simulation time: 00 hr 01 min 56 sec)
Heartbeat CPU 0 instructions: 20000129 cycles: 6430293 heartbeat IPC: 3.447 cumulative IPC: 3.11 (Simulation time: 00 hr 01 min 59 sec)
Heartbeat CPU 0 instructions: 20500136 cycles: 6580756 heartbeat IPC: 3.323 cumulative IPC: 3.115 (Simulation time: 00 hr 02 min 02 sec)
Heartbeat CPU 0 instructions: 21000138 cycles: 6752509 heartbeat IPC: 2.911 cumulative IPC: 3.11 (Simulation time: 00 hr 02 min 05 sec)
Heartbeat CPU 0 instructions: 21500140 cycles: 6902834 heartbeat IPC: 3.326 cumulative IPC: 3.115 (Simulation time: 00 hr 02 min 09 sec)
Heartbeat CPU 0 instructions: 22000146 cycles: 7039274 heartbeat IPC: 3.665 cumulative IPC: 3.125 (Simulation time: 00 hr 02 min 11 sec)
Heartbeat CPU 0 instructions: 22500152 cycles: 7188305 heartbeat IPC: 3.355 cumulative IPC: 3.13 (Simulation time: 00 hr 02 min 14 sec)
Heartbeat CPU 0 instructions: 23000158 cycles: 7304759 heartbeat IPC: 4.294 cumulative IPC: 3.149 (Simulation time: 00 hr 02 min 16 sec)
Heartbeat CPU 0 instructions: 23500162 cycles: 7425559 heartbeat IPC: 4.139 cumulative IPC: 3.165 (Simulation time: 00 hr 02 min 19 sec)
Heartbeat CPU 0 instructions: 24000164 cycles: 7543612 heartbeat IPC: 4.235 cumulative IPC: 3.182 (Simulation time: 00 hr 02 min 21 sec)
Heartbeat CPU 0 instructions: 24500166 cycles: 7658474 heartbeat IPC: 4.353 cumulative IPC: 3.199 (Simulation time: 00 hr 02 min 24 sec)
Heartbeat CPU 0 instructions: 25000169 cycles: 7773382 heartbeat IPC: 4.351 cumulative IPC: 3.216 (Simulation time: 00 hr 02 min 26 sec)
Heartbeat CPU 0 instructions: 25500169 cycles: 7907680 heartbeat IPC: 3.723 cumulative IPC: 3.225 (Simulation time: 00 hr 02 min 29 sec)
Heartbeat CPU 0 instructions: 26000175 cycles: 8059882 heartbeat IPC: 3.285 cumulative IPC: 3.226 (Simulation time: 00 hr 02 min 32 sec)
Heartbeat CPU 0 instructions: 26500179 cycles: 8192824 heartbeat IPC: 3.761 cumulative IPC: 3.235 (Simulation time: 00 hr 02 min 34 sec)
Heartbeat CPU 0 instructions: 27000182 cycles: 8353124 heartbeat IPC: 3.119 cumulative IPC: 3.232 (Simulation time: 00 hr 02 min 38 sec)
Heartbeat CPU 0 instructions: 27500189 cycles: 8497153 heartbeat IPC: 3.472 cumulative IPC: 3.236 (Simulation time: 00 hr 02 min 41 sec)
Heartbeat CPU 0 instructions: 28000192 cycles: 8635282 heartbeat IPC: 3.62 cumulative IPC: 3.243 (Simulation time: 00 hr 02 min 43 sec)
Heartbeat CPU 0 instructions: 28500197 cycles: 8783267 heartbeat IPC: 3.379 cumulative IPC: 3.245 (Simulation time: 00 hr 02 min 46 sec)
Heartbeat CPU 0 instructions: 29000203 cycles: 8931867 heartbeat IPC: 3.365 cumulative IPC: 3.247 (Simulation time: 00 hr 02 min 49 sec)
Heartbeat CPU 0 instructions: 29500209 cycles: 9078234 heartbeat IPC: 3.416 cumulative IPC: 3.25 (Simulation time: 00 hr 02 min 52 sec)
Heartbeat CPU 0 instructions: 30000211 cycles: 9228655 heartbeat IPC: 3.324 cumulative IPC: 3.251 (Simulation time: 00 hr 02 min 55 sec)
Heartbeat CPU 0 instructions: 30500216 cycles: 9375207 heartbeat IPC: 3.412 cumulative IPC: 3.253 (Simulation time: 00 hr 02 min 58 sec)
Heartbeat CPU 0 instructions: 31000217 cycles: 9520179 heartbeat IPC: 3.449 cumulative IPC: 3.256 (Simulation time: 00 hr 03 min 01 sec)
Heartbeat CPU 0 instructions: 31500224 cycles: 9662155 heartbeat IPC: 3.522 cumulative IPC: 3.26 (Simulation time: 00 hr 03 min 04 sec)
Heartbeat CPU 0 instructions: 32000228 cycles: 9813244 heartbeat IPC: 3.309 cumulative IPC: 3.261 (Simulation time: 00 hr 03 min 07 sec)
Heartbeat CPU 0 instructions: 32500235 cycles: 9934836 heartbeat IPC: 4.112 cumulative IPC: 3.271 (Simulation time: 00 hr 03 min 10 sec)
Heartbeat CPU 0 instructions: 33000238 cycles: 10072271 heartbeat IPC: 3.638 cumulative IPC: 3.276 (Simulation time: 00 hr 03 min 13 sec)
Heartbeat CPU 0 instructions: 33500245 cycles: 10264297 heartbeat IPC: 2.604 cumulative IPC: 3.264 (Simulation time: 00 hr 03 min 16 sec)
Heartbeat CPU 0 instructions: 34000245 cycles: 10405453 heartbeat IPC: 3.542 cumulative IPC: 3.268 (Simulation time: 00 hr 03 min 20 sec)
Heartbeat CPU 0 instructions: 34500247 cycles: 10550513 heartbeat IPC: 3.447 cumulative IPC: 3.27 (Simulation time: 00 hr 03 min 23 sec)
Heartbeat CPU 0 instructions: 35000248 cycles: 10696319 heartbeat IPC: 3.429 cumulative IPC: 3.272 (Simulation time: 00 hr 03 min 25 sec)
Heartbeat CPU 0 instructions: 35500250 cycles: 10827439 heartbeat IPC: 3.813 cumulative IPC: 3.279 (Simulation time: 00 hr 03 min 28 sec)
Heartbeat CPU 0 instructions: 36000252 cycles: 10961937 heartbeat IPC: 3.718 cumulative IPC: 3.284 (Simulation time: 00 hr 03 min 31 sec)
Heartbeat CPU 0 instructions: 36500255 cycles: 11103434 heartbeat IPC: 3.534 cumulative IPC: 3.287 (Simulation time: 00 hr 03 min 34 sec)
Heartbeat CPU 0 instructions: 37000256 cycles: 11231633 heartbeat IPC: 3.9 cumulative IPC: 3.294 (Simulation time: 00 hr 03 min 36 sec)
Heartbeat CPU 0 instructions: 37500256 cycles: 11355483 heartbeat IPC: 4.037 cumulative IPC: 3.302 (Simulation time: 00 hr 03 min 38 sec)
Heartbeat CPU 0 instructions: 38000261 cycles: 11513070 heartbeat IPC: 3.173 cumulative IPC: 3.301 (Simulation time: 00 hr 03 min 42 sec)
Heartbeat CPU 0 instructions: 38500264 cycles: 11677952 heartbeat IPC: 3.032 cumulative IPC: 3.297 (Simulation time: 00 hr 03 min 45 sec)
Heartbeat CPU 0 instructions: 39000268 cycles: 11811757 heartbeat IPC: 3.737 cumulative IPC: 3.302 (Simulation time: 00 hr 03 min 48 sec)
Heartbeat CPU 0 instructions: 39500275 cycles: 11954556 heartbeat IPC: 3.501 cumulative IPC: 3.304 (Simulation time: 00 hr 03 min 51 sec)
Heartbeat CPU 0 instructions: 40000278 cycles: 12092900 heartbeat IPC: 3.614 cumulative IPC: 3.308 (Simulation time: 00 hr 03 min 54 sec)
Heartbeat CPU 0 instructions: 40500282 cycles: 12215750 heartbeat IPC: 4.07 cumulative IPC: 3.315 (Simulation time: 00 hr 03 min 56 sec)
Heartbeat CPU 0 instructions: 41000285 cycles: 12316335 heartbeat IPC: 4.971 cumulative IPC: 3.329 (Simulation time: 00 hr 03 min 58 sec)
Heartbeat CPU 0 instructions: 41500292 cycles: 12416752 heartbeat IPC: 4.979 cumulative IPC: 3.342 (Simulation time: 00 hr 03 min 59 sec)
Heartbeat CPU 0 instructions: 42000292 cycles: 12517159 heartbeat IPC: 4.98 cumulative IPC: 3.355 (Simulation time: 00 hr 04 min 01 sec)
Heartbeat CPU 0 instructions: 42500294 cycles: 12650613 heartbeat IPC: 3.747 cumulative IPC: 3.36 (Simulation time: 00 hr 04 min 03 sec)
Heartbeat CPU 0 instructions: 43000295 cycles: 12751122 heartbeat IPC: 4.975 cumulative IPC: 3.372 (Simulation time: 00 hr 04 min 05 sec)
Heartbeat CPU 0 instructions: 43500295 cycles: 12851422 heartbeat IPC: 4.985 cumulative IPC: 3.385 (Simulation time: 00 hr 04 min 07 sec)
Heartbeat CPU 0 instructions: 44000298 cycles: 12951732 heartbeat IPC: 4.985 cumulative IPC: 3.397 (Simulation time: 00 hr 04 min 08 sec)
Heartbeat CPU 0 instructions: 44500303 cycles: 13100872 heartbeat IPC: 3.353 cumulative IPC: 3.397 (Simulation time: 00 hr 04 min 11 sec)
Heartbeat CPU 0 instructions: 45000306 cycles: 13233094 heartbeat IPC: 3.782 cumulative IPC: 3.401 (Simulation time: 00 hr 04 min 14 sec)
Heartbeat CPU 0 instructions: 45500313 cycles: 13374554 heartbeat IPC: 3.535 cumulative IPC: 3.402 (Simulation time: 00 hr 04 min 17 sec)
Heartbeat CPU 0 instructions: 46000318 cycles: 13495019 heartbeat IPC: 4.151 cumulative IPC: 3.409 (Simulation time: 00 hr 04 min 19 sec)
Heartbeat CPU 0 instructions: 46500318 cycles: 13640939 heartbeat IPC: 3.427 cumulative IPC: 3.409 (Simulation time: 00 hr 04 min 22 sec)
Heartbeat CPU 0 instructions: 47000318 cycles: 13784394 heartbeat IPC: 3.485 cumulative IPC: 3.41 (Simulation time: 00 hr 04 min 25 sec)
Heartbeat CPU 0 instructions: 47500320 cycles: 13970480 heartbeat IPC: 2.687 cumulative IPC: 3.4 (Simulation time: 00 hr 04 min 28 sec)
Heartbeat CPU 0 instructions: 48000321 cycles: 14188010 heartbeat IPC: 2.299 cumulative IPC: 3.383 (Simulation time: 00 hr 04 min 32 sec)
Heartbeat CPU 0 instructions: 48500324 cycles: 14336305 heartbeat IPC: 3.372 cumulative IPC: 3.383 (Simulation time: 00 hr 04 min 35 sec)
Heartbeat CPU 0 instructions: 49000326 cycles: 14440758 heartbeat IPC: 4.787 cumulative IPC: 3.393 (Simulation time: 00 hr 04 min 37 sec)
Heartbeat CPU 0 instructions: 49500328 cycles: 14569741 heartbeat IPC: 3.876 cumulative IPC: 3.397 (Simulation time: 00 hr 04 min 40 sec)
Warmup halting CPU 0 at instruction 50000004 cycle 14710051 for remainder of phase
Warmup finished CPU 0 instructions: 50000004 cycles: 14710051 cumulative IPC: 3.399 (Simulation time: 00 hr 04 min 43 sec)
Warmup complete CPU 0 instructions: 50000004 cycles: 14710051 cumulative IPC: 3.399 (Simulation time: 00 hr 04 min 43 sec)
Heartbeat CPU 0 instructions: 50000334 cycles: 14710182 heartbeat IPC: 3.56 cumulative IPC: 2.519 (Simulation time: 00 hr 04 min 43 sec)
Heartbeat CPU 0 instructions: 50500335 cycles: 15513962 heartbeat IPC: 0.6221 cumulative IPC: 0.6224 (Simulation time: 00 hr 04 min 50 sec)
Heartbeat CPU 0 instructions: 51000335 cycles: 16385777 heartbeat IPC: 0.5735 cumulative IPC: 0.597 (Simulation time: 00 hr 04 min 58 sec)
Heartbeat CPU 0 instructions: 51500335 cycles: 18290908 heartbeat IPC: 0.2624 cumulative IPC: 0.419 (Simulation time: 00 hr 05 min 13 sec)
Heartbeat CPU 0 instructions: 52000340 cycles: 19535830 heartbeat IPC: 0.4016 cumulative IPC: 0.4145 (Simulation time: 00 hr 05 min 23 sec)
Heartbeat CPU 0 instructions: 52500341 cycles: 20958095 heartbeat IPC: 0.3516 cumulative IPC: 0.4002 (Simulation time: 00 hr 05 min 35 sec)
Heartbeat CPU 0 instructions: 53000344 cycles: 22407474 heartbeat IPC: 0.345 cumulative IPC: 0.3898 (Simulation time: 00 hr 05 min 47 sec)
Heartbeat CPU 0 instructions: 53500344 cycles: 23642675 heartbeat IPC: 0.4048 cumulative IPC: 0.3919 (Simulation time: 00 hr 05 min 57 sec)
Heartbeat CPU 0 instructions: 54000344 cycles: 25011967 heartbeat IPC: 0.3652 cumulative IPC: 0.3883 (Simulation time: 00 hr 06 min 07 sec)
Heartbeat CPU 0 instructions: 54500344 cycles: 25657628 heartbeat IPC: 0.7744 cumulative IPC: 0.4111 (Simulation time: 00 hr 06 min 13 sec)
Heartbeat CPU 0 instructions: 55000346 cycles: 26359661 heartbeat IPC: 0.7122 cumulative IPC: 0.4292 (Simulation time: 00 hr 06 min 19 sec)
Heartbeat CPU 0 instructions: 55500347 cycles: 26660307 heartbeat IPC: 1.663 cumulative IPC: 0.4603 (Simulation time: 00 hr 06 min 23 sec)
Heartbeat CPU 0 instructions: 56000349 cycles: 29681622 heartbeat IPC: 0.1655 cumulative IPC: 0.4008 (Simulation time: 00 hr 06 min 44 sec)
Heartbeat CPU 0 instructions: 56500355 cycles: 31082898 heartbeat IPC: 0.3568 cumulative IPC: 0.397 (Simulation time: 00 hr 06 min 55 sec)
Heartbeat CPU 0 instructions: 57000360 cycles: 32516937 heartbeat IPC: 0.3487 cumulative IPC: 0.3931 (Simulation time: 00 hr 07 min 06 sec)
Heartbeat CPU 0 instructions: 57500364 cycles: 33398963 heartbeat IPC: 0.5669 cumulative IPC: 0.4013 (Simulation time: 00 hr 07 min 14 sec)
Heartbeat CPU 0 instructions: 58000364 cycles: 34609806 heartbeat IPC: 0.4129 cumulative IPC: 0.402 (Simulation time: 00 hr 07 min 24 sec)
Heartbeat CPU 0 instructions: 58500371 cycles: 36946984 heartbeat IPC: 0.2139 cumulative IPC: 0.3823 (Simulation time: 00 hr 07 min 40 sec)
Heartbeat CPU 0 instructions: 59000371 cycles: 38437830 heartbeat IPC: 0.3354 cumulative IPC: 0.3793 (Simulation time: 00 hr 07 min 51 sec)
Heartbeat CPU 0 instructions: 59500371 cycles: 40427902 heartbeat IPC: 0.2512 cumulative IPC: 0.3694 (Simulation time: 00 hr 08 min 06 sec)
Heartbeat CPU 0 instructions: 60000371 cycles: 43321152 heartbeat IPC: 0.1728 cumulative IPC: 0.3495 (Simulation time: 00 hr 08 min 26 sec)
Heartbeat CPU 0 instructions: 60500372 cycles: 45488062 heartbeat IPC: 0.2307 cumulative IPC: 0.3412 (Simulation time: 00 hr 08 min 42 sec)
Heartbeat CPU 0 instructions: 61000377 cycles: 46698164 heartbeat IPC: 0.4132 cumulative IPC: 0.3439 (Simulation time: 00 hr 08 min 52 sec)
Heartbeat CPU 0 instructions: 61500380 cycles: 47836760 heartbeat IPC: 0.4391 cumulative IPC: 0.3472 (Simulation time: 00 hr 09 min 01 sec)
Heartbeat CPU 0 instructions: 62000381 cycles: 48264863 heartbeat IPC: 1.168 cumulative IPC: 0.3576 (Simulation time: 00 hr 09 min 06 sec)
Heartbeat CPU 0 instructions: 62500381 cycles: 50071858 heartbeat IPC: 0.2767 cumulative IPC: 0.3535 (Simulation time: 00 hr 09 min 19 sec)
Heartbeat CPU 0 instructions: 63000381 cycles: 52614251 heartbeat IPC: 0.1967 cumulative IPC: 0.343 (Simulation time: 00 hr 09 min 38 sec)
Heartbeat CPU 0 instructions: 63500385 cycles: 53080537 heartbeat IPC: 1.072 cumulative IPC: 0.3518 (Simulation time: 00 hr 09 min 43 sec)
Heartbeat CPU 0 instructions: 64000385 cycles: 53465150 heartbeat IPC: 1.3 cumulative IPC: 0.3613 (Simulation time: 00 hr 09 min 47 sec)
Heartbeat CPU 0 instructions: 64500385 cycles: 54177748 heartbeat IPC: 0.7017 cumulative IPC: 0.3674 (Simulation time: 00 hr 09 min 54 sec)
Heartbeat CPU 0 instructions: 65000390 cycles: 55264688 heartbeat IPC: 0.46 cumulative IPC: 0.3699 (Simulation time: 00 hr 10 min 03 sec)
Heartbeat CPU 0 instructions: 65500390 cycles: 55476744 heartbeat IPC: 2.358 cumulative IPC: 0.3802 (Simulation time: 00 hr 10 min 07 sec)
Heartbeat CPU 0 instructions: 66000393 cycles: 55664424 heartbeat IPC: 2.664 cumulative IPC: 0.3907 (Simulation time: 00 hr 10 min 10 sec)
Heartbeat CPU 0 instructions: 66500400 cycles: 56261198 heartbeat IPC: 0.8378 cumulative IPC: 0.3971 (Simulation time: 00 hr 10 min 16 sec)
Heartbeat CPU 0 instructions: 67000400 cycles: 56634312 heartbeat IPC: 1.34 cumulative IPC: 0.4055 (Simulation time: 00 hr 10 min 21 sec)
Heartbeat CPU 0 instructions: 67500403 cycles: 56879557 heartbeat IPC: 2.039 cumulative IPC: 0.415 (Simulation time: 00 hr 10 min 24 sec)
Heartbeat CPU 0 instructions: 68000404 cycles: 57067972 heartbeat IPC: 2.654 cumulative IPC: 0.425 (Simulation time: 00 hr 10 min 27 sec)
Heartbeat CPU 0 instructions: 68500405 cycles: 57256933 heartbeat IPC: 2.646 cumulative IPC: 0.4348 (Simulation time: 00 hr 10 min 31 sec)
Heartbeat CPU 0 instructions: 69000405 cycles: 57605422 heartbeat IPC: 1.435 cumulative IPC: 0.4429 (Simulation time: 00 hr 10 min 35 sec)
Heartbeat CPU 0 instructions: 69500411 cycles: 57868667 heartbeat IPC: 1.899 cumulative IPC: 0.4518 (Simulation time: 00 hr 10 min 39 sec)
Heartbeat CPU 0 instructions: 70000413 cycles: 58055123 heartbeat IPC: 2.682 cumulative IPC: 0.4614 (Simulation time: 00 hr 10 min 43 sec)
Heartbeat CPU 0 instructions: 70500420 cycles: 58415566 heartbeat IPC: 1.387 cumulative IPC: 0.4691 (Simulation time: 00 hr 10 min 47 sec)
Heartbeat CPU 0 instructions: 71000423 cycles: 58647057 heartbeat IPC: 2.16 cumulative IPC: 0.478 (Simulation time: 00 hr 10 min 51 sec)
Heartbeat CPU 0 instructions: 71500424 cycles: 59430705 heartbeat IPC: 0.638 cumulative IPC: 0.4808 (Simulation time: 00 hr 10 min 59 sec)
Heartbeat CPU 0 instructions: 72000427 cycles: 61094232 heartbeat IPC: 0.3006 cumulative IPC: 0.4743 (Simulation time: 00 hr 11 min 14 sec)
Heartbeat CPU 0 instructions: 72500427 cycles: 63183037 heartbeat IPC: 0.2394 cumulative IPC: 0.4642 (Simulation time: 00 hr 11 min 30 sec)
Heartbeat CPU 0 instructions: 73000427 cycles: 63375083 heartbeat IPC: 2.604 cumulative IPC: 0.4726 (Simulation time: 00 hr 11 min 32 sec)
Heartbeat CPU 0 instructions: 73500431 cycles: 63644224 heartbeat IPC: 1.858 cumulative IPC: 0.4802 (Simulation time: 00 hr 11 min 35 sec)
Heartbeat CPU 0 instructions: 74000435 cycles: 63846082 heartbeat IPC: 2.477 cumulative IPC: 0.4884 (Simulation time: 00 hr 11 min 38 sec)
Heartbeat CPU 0 instructions: 74500435 cycles: 64279447 heartbeat IPC: 1.154 cumulative IPC: 0.4943 (Simulation time: 00 hr 11 min 42 sec)
Heartbeat CPU 0 instructions: 75000435 cycles: 66426610 heartbeat IPC: 0.2329 cumulative IPC: 0.4834 (Simulation time: 00 hr 11 min 58 sec)
Heartbeat CPU 0 instructions: 75500441 cycles: 67683158 heartbeat IPC: 0.3979 cumulative IPC: 0.4814 (Simulation time: 00 hr 12 min 08 sec)
Heartbeat CPU 0 instructions: 76000441 cycles: 69470048 heartbeat IPC: 0.2798 cumulative IPC: 0.4748 (Simulation time: 00 hr 12 min 21 sec)
Heartbeat CPU 0 instructions: 76500443 cycles: 70489689 heartbeat IPC: 0.4904 cumulative IPC: 0.4751 (Simulation time: 00 hr 12 min 30 sec)
Heartbeat CPU 0 instructions: 77000444 cycles: 71121213 heartbeat IPC: 0.7917 cumulative IPC: 0.4786 (Simulation time: 00 hr 12 min 35 sec)
Heartbeat CPU 0 instructions: 77500444 cycles: 71777998 heartbeat IPC: 0.7613 cumulative IPC: 0.4819 (Simulation time: 00 hr 12 min 41 sec)
Heartbeat CPU 0 instructions: 78000448 cycles: 72233898 heartbeat IPC: 1.097 cumulative IPC: 0.4868 (Simulation time: 00 hr 12 min 46 sec)
Heartbeat CPU 0 instructions: 78500450 cycles: 72789638 heartbeat IPC: 0.8997 cumulative IPC: 0.4907 (Simulation time: 00 hr 12 min 51 sec)
Heartbeat CPU 0 instructions: 79000450 cycles: 73403033 heartbeat IPC: 0.8151 cumulative IPC: 0.4941 (Simulation time: 00 hr 12 min 56 sec)
Heartbeat CPU 0 instructions: 79500451 cycles: 73911961 heartbeat IPC: 0.9825 cumulative IPC: 0.4983 (Simulation time: 00 hr 13 min 01 sec)
Heartbeat CPU 0 instructions: 80000452 cycles: 74442686 heartbeat IPC: 0.9421 cumulative IPC: 0.5022 (Simulation time: 00 hr 13 min 06 sec)
Heartbeat CPU 0 instructions: 80500454 cycles: 75046370 heartbeat IPC: 0.8283 cumulative IPC: 0.5055 (Simulation time: 00 hr 13 min 12 sec)
Heartbeat CPU 0 instructions: 81000454 cycles: 75812410 heartbeat IPC: 0.6527 cumulative IPC: 0.5074 (Simulation time: 00 hr 13 min 18 sec)
Heartbeat CPU 0 instructions: 81500454 cycles: 78186207 heartbeat IPC: 0.2106 cumulative IPC: 0.4963 (Simulation time: 00 hr 13 min 36 sec)
Heartbeat CPU 0 instructions: 82000454 cycles: 79727922 heartbeat IPC: 0.3243 cumulative IPC: 0.4922 (Simulation time: 00 hr 13 min 49 sec)
Heartbeat CPU 0 instructions: 82500454 cycles: 81717040 heartbeat IPC: 0.2514 cumulative IPC: 0.485 (Simulation time: 00 hr 14 min 03 sec)
Heartbeat CPU 0 instructions: 83000454 cycles: 83381215 heartbeat IPC: 0.3004 cumulative IPC: 0.4806 (Simulation time: 00 hr 14 min 16 sec)
Heartbeat CPU 0 instructions: 83500456 cycles: 85196511 heartbeat IPC: 0.2754 cumulative IPC: 0.4753 (Simulation time: 00 hr 14 min 29 sec)
Heartbeat CPU 0 instructions: 84000457 cycles: 86386856 heartbeat IPC: 0.42 cumulative IPC: 0.4744 (Simulation time: 00 hr 14 min 39 sec)
Heartbeat CPU 0 instructions: 84500458 cycles: 87149950 heartbeat IPC: 0.6552 cumulative IPC: 0.4763 (Simulation time: 00 hr 14 min 48 sec)
Heartbeat CPU 0 instructions: 85000461 cycles: 87687036 heartbeat IPC: 0.931 cumulative IPC: 0.4796 (Simulation time: 00 hr 14 min 55 sec)
Heartbeat CPU 0 instructions: 85500464 cycles: 89883515 heartbeat IPC: 0.2276 cumulative IPC: 0.4722 (Simulation time: 00 hr 15 min 12 sec)
Heartbeat CPU 0 instructions: 86000467 cycles: 90233256 heartbeat IPC: 1.43 cumulative IPC: 0.4767 (Simulation time: 00 hr 15 min 16 sec)
Heartbeat CPU 0 instructions: 86500468 cycles: 91919794 heartbeat IPC: 0.2965 cumulative IPC: 0.4727 (Simulation time: 00 hr 15 min 29 sec)
Heartbeat CPU 0 instructions: 87000468 cycles: 93089881 heartbeat IPC: 0.4273 cumulative IPC: 0.4721 (Simulation time: 00 hr 15 min 39 sec)
Heartbeat CPU 0 instructions: 87500468 cycles: 93883943 heartbeat IPC: 0.6297 cumulative IPC: 0.4736 (Simulation time: 00 hr 15 min 46 sec)
Heartbeat CPU 0 instructions: 88000470 cycles: 94559658 heartbeat IPC: 0.74 cumulative IPC: 0.4759 (Simulation time: 00 hr 15 min 51 sec)
Heartbeat CPU 0 instructions: 88500475 cycles: 95208991 heartbeat IPC: 0.77 cumulative IPC: 0.4783 (Simulation time: 00 hr 15 min 57 sec)
Heartbeat CPU 0 instructions: 89000477 cycles: 95696633 heartbeat IPC: 1.025 cumulative IPC: 0.4816 (Simulation time: 00 hr 16 min 02 sec)
Heartbeat CPU 0 instructions: 89500478 cycles: 96325542 heartbeat IPC: 0.795 cumulative IPC: 0.484 (Simulation time: 00 hr 16 min 07 sec)
Heartbeat CPU 0 instructions: 90000482 cycles: 96854272 heartbeat IPC: 0.9457 cumulative IPC: 0.487 (Simulation time: 00 hr 16 min 12 sec)
Heartbeat CPU 0 instructions: 90500483 cycles: 97400211 heartbeat IPC: 0.9159 cumulative IPC: 0.4898 (Simulation time: 00 hr 16 min 17 sec)
Heartbeat CPU 0 instructions: 91000483 cycles: 97887517 heartbeat IPC: 1.026 cumulative IPC: 0.4929 (Simulation time: 00 hr 16 min 22 sec)
Heartbeat CPU 0 instructions: 91500483 cycles: 99307279 heartbeat IPC: 0.3522 cumulative IPC: 0.4906 (Simulation time: 00 hr 16 min 34 sec)
Heartbeat CPU 0 instructions: 92000485 cycles: 101497667 heartbeat IPC: 0.2283 cumulative IPC: 0.4839 (Simulation time: 00 hr 16 min 52 sec)
Heartbeat CPU 0 instructions: 92500487 cycles: 102305535 heartbeat IPC: 0.6189 cumulative IPC: 0.4852 (Simulation time: 00 hr 16 min 59 sec)
Heartbeat CPU 0 instructions: 93000487 cycles: 103112942 heartbeat IPC: 0.6193 cumulative IPC: 0.4864 (Simulation time: 00 hr 17 min 05 sec)
Heartbeat CPU 0 instructions: 93500494 cycles: 103969148 heartbeat IPC: 0.584 cumulative IPC: 0.4874 (Simulation time: 00 hr 17 min 13 sec)
Heartbeat CPU 0 instructions: 94000494 cycles: 104798094 heartbeat IPC: 0.6032 cumulative IPC: 0.4884 (Simulation time: 00 hr 17 min 20 sec)
Heartbeat CPU 0 instructions: 94500496 cycles: 106859096 heartbeat IPC: 0.2426 cumulative IPC: 0.4829 (Simulation time: 00 hr 17 min 36 sec)
Heartbeat CPU 0 instructions: 95000496 cycles: 107439009 heartbeat IPC: 0.8622 cumulative IPC: 0.4853 (Simulation time: 00 hr 17 min 42 sec)
Heartbeat CPU 0 instructions: 95500502 cycles: 107848216 heartbeat IPC: 1.222 cumulative IPC: 0.4885 (Simulation time: 00 hr 17 min 47 sec)
Heartbeat CPU 0 instructions: 96000504 cycles: 108251134 heartbeat IPC: 1.241 cumulative IPC: 0.4918 (Simulation time: 00 hr 17 min 52 sec)
Heartbeat CPU 0 instructions: 96500505 cycles: 108648525 heartbeat IPC: 1.258 cumulative IPC: 0.495 (Simulation time: 00 hr 17 min 57 sec)
Heartbeat CPU 0 instructions: 97000505 cycles: 109071115 heartbeat IPC: 1.183 cumulative IPC: 0.4981 (Simulation time: 00 hr 18 min 02 sec)
Heartbeat CPU 0 instructions: 97500505 cycles: 109499872 heartbeat IPC: 1.166 cumulative IPC: 0.5011 (Simulation time: 00 hr 18 min 08 sec)
Heartbeat CPU 0 instructions: 98000508 cycles: 109922606 heartbeat IPC: 1.183 cumulative IPC: 0.5041 (Simulation time: 00 hr 18 min 13 sec)
Heartbeat CPU 0 instructions: 98500510 cycles: 111735482 heartbeat IPC: 0.2758 cumulative IPC: 0.4999 (Simulation time: 00 hr 18 min 28 sec)
Heartbeat CPU 0 instructions: 99000513 cycles: 113043966 heartbeat IPC: 0.3821 cumulative IPC: 0.4983 (Simulation time: 00 hr 18 min 40 sec)
Heartbeat CPU 0 instructions: 99500516 cycles: 113789607 heartbeat IPC: 0.6706 cumulative IPC: 0.4996 (Simulation time: 00 hr 18 min 48 sec)
Heartbeat CPU 0 instructions: 100000523 cycles: 115479851 heartbeat IPC: 0.2958 cumulative IPC: 0.4962 (Simulation time: 00 hr 19 min 01 sec)
Heartbeat CPU 0 instructions: 100500530 cycles: 116289220 heartbeat IPC: 0.6178 cumulative IPC: 0.4972 (Simulation time: 00 hr 19 min 11 sec)
Heartbeat CPU 0 instructions: 101000532 cycles: 116810876 heartbeat IPC: 0.9585 cumulative IPC: 0.4995 (Simulation time: 00 hr 19 min 18 sec)
Heartbeat CPU 0 instructions: 101500535 cycles: 117343916 heartbeat IPC: 0.938 cumulative IPC: 0.5018 (Simulation time: 00 hr 19 min 25 sec)
Heartbeat CPU 0 instructions: 102000537 cycles: 118987397 heartbeat IPC: 0.3042 cumulative IPC: 0.4987 (Simulation time: 00 hr 19 min 41 sec)
Heartbeat CPU 0 instructions: 102500538 cycles: 121105657 heartbeat IPC: 0.236 cumulative IPC: 0.4934 (Simulation time: 00 hr 19 min 59 sec)
Heartbeat CPU 0 instructions: 103000541 cycles: 122704939 heartbeat IPC: 0.3126 cumulative IPC: 0.4908 (Simulation time: 00 hr 20 min 12 sec)
Heartbeat CPU 0 instructions: 103500541 cycles: 123376136 heartbeat IPC: 0.7449 cumulative IPC: 0.4923 (Simulation time: 00 hr 20 min 20 sec)
Heartbeat CPU 0 instructions: 104000543 cycles: 124740122 heartbeat IPC: 0.3666 cumulative IPC: 0.4908 (Simulation time: 00 hr 20 min 32 sec)
Heartbeat CPU 0 instructions: 104500548 cycles: 126481299 heartbeat IPC: 0.2872 cumulative IPC: 0.4876 (Simulation time: 00 hr 20 min 45 sec)
Heartbeat CPU 0 instructions: 105000553 cycles: 127930841 heartbeat IPC: 0.3449 cumulative IPC: 0.4858 (Simulation time: 00 hr 20 min 56 sec)
Heartbeat CPU 0 instructions: 105500558 cycles: 129488258 heartbeat IPC: 0.321 cumulative IPC: 0.4835 (Simulation time: 00 hr 21 min 08 sec)
Heartbeat CPU 0 instructions: 106000558 cycles: 131187160 heartbeat IPC: 0.2943 cumulative IPC: 0.4808 (Simulation time: 00 hr 21 min 27 sec)
Heartbeat CPU 0 instructions: 106500558 cycles: 131960333 heartbeat IPC: 0.6467 cumulative IPC: 0.4819 (Simulation time: 00 hr 21 min 37 sec)
Heartbeat CPU 0 instructions: 107000558 cycles: 133971783 heartbeat IPC: 0.2486 cumulative IPC: 0.4779 (Simulation time: 00 hr 21 min 58 sec)
Heartbeat CPU 0 instructions: 107500560 cycles: 134814151 heartbeat IPC: 0.5936 cumulative IPC: 0.4788 (Simulation time: 00 hr 22 min 08 sec)
Heartbeat CPU 0 instructions: 108000561 cycles: 135724125 heartbeat IPC: 0.5495 cumulative IPC: 0.4793 (Simulation time: 00 hr 22 min 17 sec)
Heartbeat CPU 0 instructions: 108500561 cycles: 136064802 heartbeat IPC: 1.468 cumulative IPC: 0.4821 (Simulation time: 00 hr 22 min 20 sec)
Heartbeat CPU 0 instructions: 109000567 cycles: 136406773 heartbeat IPC: 1.462 cumulative IPC: 0.4848 (Simulation time: 00 hr 22 min 24 sec)
Heartbeat CPU 0 instructions: 109500574 cycles: 136716445 heartbeat IPC: 1.615 cumulative IPC: 0.4877 (Simulation time: 00 hr 22 min 27 sec)
Heartbeat CPU 0 instructions: 110000574 cycles: 137237592 heartbeat IPC: 0.9594 cumulative IPC: 0.4897 (Simulation time: 00 hr 22 min 32 sec)
Heartbeat CPU 0 instructions: 110500575 cycles: 137846637 heartbeat IPC: 0.821 cumulative IPC: 0.4913 (Simulation time: 00 hr 22 min 38 sec)
Heartbeat CPU 0 instructions: 111000577 cycles: 138009959 heartbeat IPC: 3.061 cumulative IPC: 0.4947 (Simulation time: 00 hr 22 min 41 sec)
Heartbeat CPU 0 instructions: 111500581 cycles: 139740890 heartbeat IPC: 0.2889 cumulative IPC: 0.4919 (Simulation time: 00 hr 22 min 55 sec)
Heartbeat CPU 0 instructions: 112000584 cycles: 141428674 heartbeat IPC: 0.2962 cumulative IPC: 0.4893 (Simulation time: 00 hr 23 min 08 sec)
Heartbeat CPU 0 instructions: 112500589 cycles: 143567529 heartbeat IPC: 0.2338 cumulative IPC: 0.485 (Simulation time: 00 hr 23 min 23 sec)
Heartbeat CPU 0 instructions: 113000589 cycles: 145019202 heartbeat IPC: 0.3444 cumulative IPC: 0.4835 (Simulation time: 00 hr 23 min 35 sec)
Heartbeat CPU 0 instructions: 113500589 cycles: 145707715 heartbeat IPC: 0.7262 cumulative IPC: 0.4847 (Simulation time: 00 hr 23 min 42 sec)
Heartbeat CPU 0 instructions: 114000589 cycles: 146385906 heartbeat IPC: 0.7373 cumulative IPC: 0.486 (Simulation time: 00 hr 23 min 49 sec)
Heartbeat CPU 0 instructions: 114500589 cycles: 148255850 heartbeat IPC: 0.2674 cumulative IPC: 0.483 (Simulation time: 00 hr 24 min 03 sec)
Heartbeat CPU 0 instructions: 115000589 cycles: 149829227 heartbeat IPC: 0.3178 cumulative IPC: 0.4811 (Simulation time: 00 hr 24 min 15 sec)
Heartbeat CPU 0 instructions: 115500592 cycles: 150939703 heartbeat IPC: 0.4503 cumulative IPC: 0.4808 (Simulation time: 00 hr 24 min 24 sec)
Heartbeat CPU 0 instructions: 116000594 cycles: 152864215 heartbeat IPC: 0.2598 cumulative IPC: 0.4777 (Simulation time: 00 hr 24 min 38 sec)
Heartbeat CPU 0 instructions: 116500594 cycles: 154236634 heartbeat IPC: 0.3643 cumulative IPC: 0.4766 (Simulation time: 00 hr 24 min 49 sec)
Heartbeat CPU 0 instructions: 117000596 cycles: 156025109 heartbeat IPC: 0.2796 cumulative IPC: 0.4741 (Simulation time: 00 hr 25 min 05 sec)
Heartbeat CPU 0 instructions: 117500602 cycles: 156397418 heartbeat IPC: 1.343 cumulative IPC: 0.4764 (Simulation time: 00 hr 25 min 10 sec)
Heartbeat CPU 0 instructions: 118000602 cycles: 157940242 heartbeat IPC: 0.3241 cumulative IPC: 0.4748 (Simulation time: 00 hr 25 min 21 sec)
Heartbeat CPU 0 instructions: 118500609 cycles: 159315851 heartbeat IPC: 0.3635 cumulative IPC: 0.4737 (Simulation time: 00 hr 25 min 33 sec)
Heartbeat CPU 0 instructions: 119000610 cycles: 159889568 heartbeat IPC: 0.8715 cumulative IPC: 0.4753 (Simulation time: 00 hr 25 min 39 sec)
Heartbeat CPU 0 instructions: 119500617 cycles: 160471450 heartbeat IPC: 0.8593 cumulative IPC: 0.4768 (Simulation time: 00 hr 25 min 46 sec)
Heartbeat CPU 0 instructions: 120000620 cycles: 161665517 heartbeat IPC: 0.4187 cumulative IPC: 0.4763 (Simulation time: 00 hr 25 min 55 sec)
Heartbeat CPU 0 instructions: 120500621 cycles: 162420327 heartbeat IPC: 0.6624 cumulative IPC: 0.4773 (Simulation time: 00 hr 26 min 01 sec)
Heartbeat CPU 0 instructions: 121000622 cycles: 163514407 heartbeat IPC: 0.457 cumulative IPC: 0.4771 (Simulation time: 00 hr 26 min 10 sec)
Heartbeat CPU 0 instructions: 121500622 cycles: 164832673 heartbeat IPC: 0.3793 cumulative IPC: 0.4763 (Simulation time: 00 hr 26 min 20 sec)
Heartbeat CPU 0 instructions: 122000625 cycles: 167013559 heartbeat IPC: 0.2293 cumulative IPC: 0.4727 (Simulation time: 00 hr 26 min 37 sec)
Heartbeat CPU 0 instructions: 122500632 cycles: 168259055 heartbeat IPC: 0.4015 cumulative IPC: 0.4722 (Simulation time: 00 hr 26 min 48 sec)
Heartbeat CPU 0 instructions: 123000633 cycles: 169836487 heartbeat IPC: 0.317 cumulative IPC: 0.4706 (Simulation time: 00 hr 27 min 01 sec)
Heartbeat CPU 0 instructions: 123500634 cycles: 171176721 heartbeat IPC: 0.3731 cumulative IPC: 0.4698 (Simulation time: 00 hr 27 min 11 sec)
Heartbeat CPU 0 instructions: 124000635 cycles: 172305841 heartbeat IPC: 0.4428 cumulative IPC: 0.4696 (Simulation time: 00 hr 27 min 20 sec)
Heartbeat CPU 0 instructions: 124500637 cycles: 174111434 heartbeat IPC: 0.2769 cumulative IPC: 0.4674 (Simulation time: 00 hr 27 min 33 sec)
Heartbeat CPU 0 instructions: 125000637 cycles: 176475503 heartbeat IPC: 0.2115 cumulative IPC: 0.4636 (Simulation time: 00 hr 27 min 49 sec)
Heartbeat CPU 0 instructions: 125500644 cycles: 178123355 heartbeat IPC: 0.3034 cumulative IPC: 0.462 (Simulation time: 00 hr 28 min 02 sec)
Heartbeat CPU 0 instructions: 126000649 cycles: 179557557 heartbeat IPC: 0.3486 cumulative IPC: 0.461 (Simulation time: 00 hr 28 min 12 sec)
Heartbeat CPU 0 instructions: 126500649 cycles: 180857671 heartbeat IPC: 0.3846 cumulative IPC: 0.4604 (Simulation time: 00 hr 28 min 23 sec)
Heartbeat CPU 0 instructions: 127000649 cycles: 181702838 heartbeat IPC: 0.5916 cumulative IPC: 0.4611 (Simulation time: 00 hr 28 min 30 sec)
Heartbeat CPU 0 instructions: 127500649 cycles: 182291451 heartbeat IPC: 0.8495 cumulative IPC: 0.4625 (Simulation time: 00 hr 28 min 36 sec)
Heartbeat CPU 0 instructions: 128000651 cycles: 184144727 heartbeat IPC: 0.2698 cumulative IPC: 0.4604 (Simulation time: 00 hr 28 min 50 sec)
Heartbeat CPU 0 instructions: 128500653 cycles: 185959474 heartbeat IPC: 0.2755 cumulative IPC: 0.4584 (Simulation time: 00 hr 29 min 03 sec)
Heartbeat CPU 0 instructions: 129000656 cycles: 186705307 heartbeat IPC: 0.6704 cumulative IPC: 0.4593 (Simulation time: 00 hr 29 min 10 sec)
Heartbeat CPU 0 instructions: 129500660 cycles: 187482412 heartbeat IPC: 0.6434 cumulative IPC: 0.4601 (Simulation time: 00 hr 29 min 17 sec)
Heartbeat CPU 0 instructions: 130000665 cycles: 187830601 heartbeat IPC: 1.436 cumulative IPC: 0.4621 (Simulation time: 00 hr 29 min 21 sec)
Heartbeat CPU 0 instructions: 130500670 cycles: 189121744 heartbeat IPC: 0.3873 cumulative IPC: 0.4616 (Simulation time: 00 hr 29 min 32 sec)
Heartbeat CPU 0 instructions: 131000671 cycles: 189449477 heartbeat IPC: 1.526 cumulative IPC: 0.4636 (Simulation time: 00 hr 29 min 36 sec)
Heartbeat CPU 0 instructions: 131500672 cycles: 189874314 heartbeat IPC: 1.177 cumulative IPC: 0.4653 (Simulation time: 00 hr 29 min 41 sec)
Heartbeat CPU 0 instructions: 132000672 cycles: 190385470 heartbeat IPC: 0.9782 cumulative IPC: 0.4668 (Simulation time: 00 hr 29 min 46 sec)
Heartbeat CPU 0 instructions: 132500678 cycles: 190947217 heartbeat IPC: 0.8901 cumulative IPC: 0.4681 (Simulation time: 00 hr 29 min 52 sec)
Heartbeat CPU 0 instructions: 133000678 cycles: 192115157 heartbeat IPC: 0.4281 cumulative IPC: 0.4679 (Simulation time: 00 hr 30 min 02 sec)
Heartbeat CPU 0 instructions: 133500679 cycles: 194648851 heartbeat IPC: 0.1973 cumulative IPC: 0.4641 (Simulation time: 00 hr 30 min 20 sec)
Heartbeat CPU 0 instructions: 134000680 cycles: 195304629 heartbeat IPC: 0.7625 cumulative IPC: 0.4651 (Simulation time: 00 hr 30 min 26 sec)
Heartbeat CPU 0 instructions: 134500681 cycles: 196065984 heartbeat IPC: 0.6567 cumulative IPC: 0.4659 (Simulation time: 00 hr 30 min 33 sec)
Heartbeat CPU 0 instructions: 135000681 cycles: 196397515 heartbeat IPC: 1.508 cumulative IPC: 0.4678 (Simulation time: 00 hr 30 min 37 sec)
Heartbeat CPU 0 instructions: 135500682 cycles: 196717278 heartbeat IPC: 1.564 cumulative IPC: 0.4698 (Simulation time: 00 hr 30 min 41 sec)
Heartbeat CPU 0 instructions: 136000686 cycles: 197424695 heartbeat IPC: 0.7068 cumulative IPC: 0.4707 (Simulation time: 00 hr 30 min 48 sec)
Heartbeat CPU 0 instructions: 136500686 cycles: 199605221 heartbeat IPC: 0.2293 cumulative IPC: 0.4678 (Simulation time: 00 hr 31 min 03 sec)
Heartbeat CPU 0 instructions: 137000692 cycles: 201622815 heartbeat IPC: 0.2478 cumulative IPC: 0.4655 (Simulation time: 00 hr 31 min 18 sec)
Heartbeat CPU 0 instructions: 137500692 cycles: 202679156 heartbeat IPC: 0.4733 cumulative IPC: 0.4655 (Simulation time: 00 hr 31 min 27 sec)
Heartbeat CPU 0 instructions: 138000695 cycles: 205447165 heartbeat IPC: 0.1806 cumulative IPC: 0.4614 (Simulation time: 00 hr 31 min 47 sec)
Heartbeat CPU 0 instructions: 138500698 cycles: 208137394 heartbeat IPC: 0.1859 cumulative IPC: 0.4575 (Simulation time: 00 hr 32 min 06 sec)
Heartbeat CPU 0 instructions: 139000700 cycles: 209240198 heartbeat IPC: 0.4534 cumulative IPC: 0.4575 (Simulation time: 00 hr 32 min 17 sec)
Heartbeat CPU 0 instructions: 139500701 cycles: 210723989 heartbeat IPC: 0.337 cumulative IPC: 0.4566 (Simulation time: 00 hr 32 min 28 sec)
Heartbeat CPU 0 instructions: 140000704 cycles: 212241258 heartbeat IPC: 0.3295 cumulative IPC: 0.4556 (Simulation time: 00 hr 32 min 40 sec)
Heartbeat CPU 0 instructions: 140500707 cycles: 214341410 heartbeat IPC: 0.2381 cumulative IPC: 0.4533 (Simulation time: 00 hr 32 min 55 sec)
Heartbeat CPU 0 instructions: 141000708 cycles: 216300789 heartbeat IPC: 0.2552 cumulative IPC: 0.4514 (Simulation time: 00 hr 33 min 09 sec)
Heartbeat CPU 0 instructions: 141500715 cycles: 216956106 heartbeat IPC: 0.763 cumulative IPC: 0.4524 (Simulation time: 00 hr 33 min 16 sec)
Heartbeat CPU 0 instructions: 142000719 cycles: 217804402 heartbeat IPC: 0.5894 cumulative IPC: 0.453 (Simulation time: 00 hr 33 min 24 sec)
Heartbeat CPU 0 instructions: 142500723 cycles: 218100393 heartbeat IPC: 1.689 cumulative IPC: 0.4548 (Simulation time: 00 hr 33 min 27 sec)
Heartbeat CPU 0 instructions: 143000723 cycles: 219904077 heartbeat IPC: 0.2772 cumulative IPC: 0.4532 (Simulation time: 00 hr 33 min 40 sec)
Heartbeat CPU 0 instructions: 143500723 cycles: 220680077 heartbeat IPC: 0.6443 cumulative IPC: 0.454 (Simulation time: 00 hr 33 min 47 sec)
Heartbeat CPU 0 instructions: 144000724 cycles: 222675830 heartbeat IPC: 0.2505 cumulative IPC: 0.452 (Simulation time: 00 hr 34 min 01 sec)
Heartbeat CPU 0 instructions: 144500724 cycles: 224422081 heartbeat IPC: 0.2863 cumulative IPC: 0.4506 (Simulation time: 00 hr 34 min 15 sec)
Heartbeat CPU 0 instructions: 145000727 cycles: 227159834 heartbeat IPC: 0.1826 cumulative IPC: 0.4472 (Simulation time: 00 hr 34 min 34 sec)
Heartbeat CPU 0 instructions: 145500727 cycles: 229637778 heartbeat IPC: 0.2018 cumulative IPC: 0.4443 (Simulation time: 00 hr 34 min 51 sec)
Heartbeat CPU 0 instructions: 146000731 cycles: 230962568 heartbeat IPC: 0.3774 cumulative IPC: 0.4439 (Simulation time: 00 hr 35 min 01 sec)
Heartbeat CPU 0 instructions: 146500733 cycles: 231340414 heartbeat IPC: 1.323 cumulative IPC: 0.4455 (Simulation time: 00 hr 35 min 05 sec)
Heartbeat CPU 0 instructions: 147000740 cycles: 232061013 heartbeat IPC: 0.6939 cumulative IPC: 0.4463 (Simulation time: 00 hr 35 min 11 sec)
Heartbeat CPU 0 instructions: 147500742 cycles: 232617103 heartbeat IPC: 0.8991 cumulative IPC: 0.4474 (Simulation time: 00 hr 35 min 16 sec)
Heartbeat CPU 0 instructions: 148000742 cycles: 233200536 heartbeat IPC: 0.857 cumulative IPC: 0.4485 (Simulation time: 00 hr 35 min 22 sec)
Heartbeat CPU 0 instructions: 148500743 cycles: 233818088 heartbeat IPC: 0.8097 cumulative IPC: 0.4496 (Simulation time: 00 hr 35 min 27 sec)
Heartbeat CPU 0 instructions: 149000744 cycles: 235137056 heartbeat IPC: 0.3791 cumulative IPC: 0.4491 (Simulation time: 00 hr 35 min 38 sec)
Heartbeat CPU 0 instructions: 149500745 cycles: 236708861 heartbeat IPC: 0.3181 cumulative IPC: 0.4482 (Simulation time: 00 hr 35 min 50 sec)
Heartbeat CPU 0 instructions: 150000747 cycles: 238273581 heartbeat IPC: 0.3195 cumulative IPC: 0.4473 (Simulation time: 00 hr 36 min 02 sec)
Heartbeat CPU 0 instructions: 150500749 cycles: 239384641 heartbeat IPC: 0.45 cumulative IPC: 0.4473 (Simulation time: 00 hr 36 min 11 sec)
Heartbeat CPU 0 instructions: 151000749 cycles: 240671414 heartbeat IPC: 0.3886 cumulative IPC: 0.447 (Simulation time: 00 hr 36 min 21 sec)
Heartbeat CPU 0 instructions: 151500749 cycles: 241361033 heartbeat IPC: 0.725 cumulative IPC: 0.4478 (Simulation time: 00 hr 36 min 28 sec)
Heartbeat CPU 0 instructions: 152000751 cycles: 242282602 heartbeat IPC: 0.5426 cumulative IPC: 0.4482 (Simulation time: 00 hr 36 min 35 sec)
Heartbeat CPU 0 instructions: 152500755 cycles: 244084862 heartbeat IPC: 0.2774 cumulative IPC: 0.4469 (Simulation time: 00 hr 36 min 48 sec)
Heartbeat CPU 0 instructions: 153000757 cycles: 245359357 heartbeat IPC: 0.3923 cumulative IPC: 0.4466 (Simulation time: 00 hr 36 min 58 sec)
Heartbeat CPU 0 instructions: 153500757 cycles: 245770063 heartbeat IPC: 1.217 cumulative IPC: 0.4479 (Simulation time: 00 hr 37 min 02 sec)
Heartbeat CPU 0 instructions: 154000759 cycles: 246476134 heartbeat IPC: 0.7081 cumulative IPC: 0.4487 (Simulation time: 00 hr 37 min 08 sec)
Heartbeat CPU 0 instructions: 154500760 cycles: 247041428 heartbeat IPC: 0.8845 cumulative IPC: 0.4498 (Simulation time: 00 hr 37 min 13 sec)
Heartbeat CPU 0 instructions: 155000762 cycles: 247639283 heartbeat IPC: 0.8363 cumulative IPC: 0.4508 (Simulation time: 00 hr 37 min 18 sec)
Heartbeat CPU 0 instructions: 155500763 cycles: 248138667 heartbeat IPC: 1.001 cumulative IPC: 0.452 (Simulation time: 00 hr 37 min 23 sec)
Heartbeat CPU 0 instructions: 156000768 cycles: 248589823 heartbeat IPC: 1.108 cumulative IPC: 0.4532 (Simulation time: 00 hr 37 min 27 sec)
Heartbeat CPU 0 instructions: 156500769 cycles: 249237993 heartbeat IPC: 0.7714 cumulative IPC: 0.4541 (Simulation time: 00 hr 37 min 33 sec)
Heartbeat CPU 0 instructions: 157000769 cycles: 250887743 heartbeat IPC: 0.3031 cumulative IPC: 0.4531 (Simulation time: 00 hr 37 min 45 sec)
Heartbeat CPU 0 instructions: 157500771 cycles: 253852883 heartbeat IPC: 0.1686 cumulative IPC: 0.4495 (Simulation time: 00 hr 38 min 06 sec)
Heartbeat CPU 0 instructions: 158000772 cycles: 255719078 heartbeat IPC: 0.2679 cumulative IPC: 0.4481 (Simulation time: 00 hr 38 min 19 sec)
Heartbeat CPU 0 instructions: 158500772 cycles: 257079075 heartbeat IPC: 0.3676 cumulative IPC: 0.4477 (Simulation time: 00 hr 38 min 30 sec)
Heartbeat CPU 0 instructions: 159000772 cycles: 259644503 heartbeat IPC: 0.1949 cumulative IPC: 0.445 (Simulation time: 00 hr 38 min 47 sec)
Heartbeat CPU 0 instructions: 159500772 cycles: 260743045 heartbeat IPC: 0.4551 cumulative IPC: 0.4451 (Simulation time: 00 hr 38 min 56 sec)
Heartbeat CPU 0 instructions: 160000773 cycles: 262340183 heartbeat IPC: 0.3131 cumulative IPC: 0.4442 (Simulation time: 00 hr 39 min 08 sec)
Heartbeat CPU 0 instructions: 160500773 cycles: 262595837 heartbeat IPC: 1.956 cumulative IPC: 0.4458 (Simulation time: 00 hr 39 min 11 sec)
Heartbeat CPU 0 instructions: 161000776 cycles: 262792697 heartbeat IPC: 2.54 cumulative IPC: 0.4474 (Simulation time: 00 hr 39 min 14 sec)
Heartbeat CPU 0 instructions: 161500777 cycles: 263176671 heartbeat IPC: 1.302 cumulative IPC: 0.4488 (Simulation time: 00 hr 39 min 18 sec)
Heartbeat CPU 0 instructions: 162000777 cycles: 265475551 heartbeat IPC: 0.2175 cumulative IPC: 0.4466 (Simulation time: 00 hr 39 min 34 sec)
Heartbeat CPU 0 instructions: 162500782 cycles: 266717100 heartbeat IPC: 0.4027 cumulative IPC: 0.4464 (Simulation time: 00 hr 39 min 44 sec)
Heartbeat CPU 0 instructions: 163000782 cycles: 267805582 heartbeat IPC: 0.4594 cumulative IPC: 0.4465 (Simulation time: 00 hr 39 min 52 sec)
Heartbeat CPU 0 instructions: 163500782 cycles: 268460707 heartbeat IPC: 0.7632 cumulative IPC: 0.4473 (Simulation time: 00 hr 39 min 58 sec)
Heartbeat CPU 0 instructions: 164000787 cycles: 269754580 heartbeat IPC: 0.3864 cumulative IPC: 0.447 (Simulation time: 00 hr 40 min 08 sec)
Heartbeat CPU 0 instructions: 164500794 cycles: 271211502 heartbeat IPC: 0.3432 cumulative IPC: 0.4464 (Simulation time: 00 hr 40 min 18 sec)
Heartbeat CPU 0 instructions: 165000794 cycles: 272553291 heartbeat IPC: 0.3726 cumulative IPC: 0.446 (Simulation time: 00 hr 40 min 28 sec)
Heartbeat CPU 0 instructions: 165500794 cycles: 273628943 heartbeat IPC: 0.4648 cumulative IPC: 0.4461 (Simulation time: 00 hr 40 min 37 sec)
Heartbeat CPU 0 instructions: 166000798 cycles: 275738827 heartbeat IPC: 0.237 cumulative IPC: 0.4444 (Simulation time: 00 hr 40 min 51 sec)
Heartbeat CPU 0 instructions: 166500799 cycles: 276586918 heartbeat IPC: 0.5896 cumulative IPC: 0.4449 (Simulation time: 00 hr 40 min 59 sec)
Heartbeat CPU 0 instructions: 167000799 cycles: 277645906 heartbeat IPC: 0.4721 cumulative IPC: 0.445 (Simulation time: 00 hr 41 min 06 sec)
Heartbeat CPU 0 instructions: 167500799 cycles: 278812667 heartbeat IPC: 0.4285 cumulative IPC: 0.4449 (Simulation time: 00 hr 41 min 16 sec)
Heartbeat CPU 0 instructions: 168000799 cycles: 279869668 heartbeat IPC: 0.473 cumulative IPC: 0.445 (Simulation time: 00 hr 41 min 25 sec)
Heartbeat CPU 0 instructions: 168500800 cycles: 280388639 heartbeat IPC: 0.9634 cumulative IPC: 0.446 (Simulation time: 00 hr 41 min 30 sec)
Heartbeat CPU 0 instructions: 169000804 cycles: 280541890 heartbeat IPC: 3.263 cumulative IPC: 0.4477 (Simulation time: 00 hr 41 min 33 sec)
Heartbeat CPU 0 instructions: 169500807 cycles: 280695437 heartbeat IPC: 3.256 cumulative IPC: 0.4493 (Simulation time: 00 hr 41 min 35 sec)
Heartbeat CPU 0 instructions: 170000807 cycles: 280851997 heartbeat IPC: 3.194 cumulative IPC: 0.4509 (Simulation time: 00 hr 41 min 38 sec)
Heartbeat CPU 0 instructions: 170500808 cycles: 281010384 heartbeat IPC: 3.157 cumulative IPC: 0.4525 (Simulation time: 00 hr 41 min 41 sec)
Heartbeat CPU 0 instructions: 171000808 cycles: 281174588 heartbeat IPC: 3.045 cumulative IPC: 0.4541 (Simulation time: 00 hr 41 min 43 sec)
Heartbeat CPU 0 instructions: 171500810 cycles: 281342448 heartbeat IPC: 2.979 cumulative IPC: 0.4557 (Simulation time: 00 hr 41 min 46 sec)
Heartbeat CPU 0 instructions: 172000811 cycles: 283442785 heartbeat IPC: 0.2381 cumulative IPC: 0.454 (Simulation time: 00 hr 42 min 01 sec)
Heartbeat CPU 0 instructions: 172500812 cycles: 283972145 heartbeat IPC: 0.9445 cumulative IPC: 0.455 (Simulation time: 00 hr 42 min 07 sec)
Heartbeat CPU 0 instructions: 173000816 cycles: 285131989 heartbeat IPC: 0.4311 cumulative IPC: 0.4548 (Simulation time: 00 hr 42 min 16 sec)
Heartbeat CPU 0 instructions: 173500817 cycles: 286441832 heartbeat IPC: 0.3817 cumulative IPC: 0.4545 (Simulation time: 00 hr 42 min 25 sec)
Heartbeat CPU 0 instructions: 174000818 cycles: 287167914 heartbeat IPC: 0.6886 cumulative IPC: 0.4551 (Simulation time: 00 hr 42 min 31 sec)
Heartbeat CPU 0 instructions: 174500818 cycles: 287516452 heartbeat IPC: 1.435 cumulative IPC: 0.4564 (Simulation time: 00 hr 42 min 35 sec)
Heartbeat CPU 0 instructions: 175000818 cycles: 289350711 heartbeat IPC: 0.2726 cumulative IPC: 0.4551 (Simulation time: 00 hr 42 min 48 sec)
Heartbeat CPU 0 instructions: 175500822 cycles: 290930693 heartbeat IPC: 0.3165 cumulative IPC: 0.4543 (Simulation time: 00 hr 43 min 00 sec)
Heartbeat CPU 0 instructions: 176000822 cycles: 291604554 heartbeat IPC: 0.742 cumulative IPC: 0.455 (Simulation time: 00 hr 43 min 06 sec)
Heartbeat CPU 0 instructions: 176500825 cycles: 292032922 heartbeat IPC: 1.167 cumulative IPC: 0.4561 (Simulation time: 00 hr 43 min 10 sec)
Heartbeat CPU 0 instructions: 177000825 cycles: 293965745 heartbeat IPC: 0.2587 cumulative IPC: 0.4548 (Simulation time: 00 hr 43 min 23 sec)
Heartbeat CPU 0 instructions: 177500825 cycles: 297233510 heartbeat IPC: 0.153 cumulative IPC: 0.4513 (Simulation time: 00 hr 43 min 44 sec)
Heartbeat CPU 0 instructions: 178000826 cycles: 299471984 heartbeat IPC: 0.2234 cumulative IPC: 0.4495 (Simulation time: 00 hr 43 min 59 sec)
Heartbeat CPU 0 instructions: 178500828 cycles: 300629510 heartbeat IPC: 0.432 cumulative IPC: 0.4494 (Simulation time: 00 hr 44 min 07 sec)
Heartbeat CPU 0 instructions: 179000828 cycles: 301220947 heartbeat IPC: 0.8454 cumulative IPC: 0.4502 (Simulation time: 00 hr 44 min 12 sec)
Heartbeat CPU 0 instructions: 179500835 cycles: 301876443 heartbeat IPC: 0.7628 cumulative IPC: 0.451 (Simulation time: 00 hr 44 min 18 sec)
Heartbeat CPU 0 instructions: 180000835 cycles: 302319343 heartbeat IPC: 1.129 cumulative IPC: 0.452 (Simulation time: 00 hr 44 min 22 sec)
Heartbeat CPU 0 instructions: 180500837 cycles: 302877570 heartbeat IPC: 0.8957 cumulative IPC: 0.4529 (Simulation time: 00 hr 44 min 26 sec)
Heartbeat CPU 0 instructions: 181000838 cycles: 303469867 heartbeat IPC: 0.8442 cumulative IPC: 0.4537 (Simulation time: 00 hr 44 min 31 sec)
Heartbeat CPU 0 instructions: 181500838 cycles: 303967818 heartbeat IPC: 1.004 cumulative IPC: 0.4546 (Simulation time: 00 hr 44 min 36 sec)
Heartbeat CPU 0 instructions: 182000843 cycles: 304472050 heartbeat IPC: 0.9916 cumulative IPC: 0.4555 (Simulation time: 00 hr 44 min 40 sec)
Heartbeat CPU 0 instructions: 182500843 cycles: 305076356 heartbeat IPC: 0.8274 cumulative IPC: 0.4563 (Simulation time: 00 hr 44 min 45 sec)
Heartbeat CPU 0 instructions: 183000843 cycles: 306633025 heartbeat IPC: 0.3212 cumulative IPC: 0.4556 (Simulation time: 00 hr 44 min 56 sec)
Heartbeat CPU 0 instructions: 183500843 cycles: 308659584 heartbeat IPC: 0.2467 cumulative IPC: 0.4542 (Simulation time: 00 hr 45 min 09 sec)
Heartbeat CPU 0 instructions: 184000848 cycles: 310131900 heartbeat IPC: 0.3396 cumulative IPC: 0.4536 (Simulation time: 00 hr 45 min 19 sec)
Heartbeat CPU 0 instructions: 184500850 cycles: 311573015 heartbeat IPC: 0.347 cumulative IPC: 0.4531 (Simulation time: 00 hr 45 min 29 sec)
Heartbeat CPU 0 instructions: 185000853 cycles: 312951559 heartbeat IPC: 0.3627 cumulative IPC: 0.4527 (Simulation time: 00 hr 45 min 39 sec)
Heartbeat CPU 0 instructions: 185500853 cycles: 314045603 heartbeat IPC: 0.457 cumulative IPC: 0.4527 (Simulation time: 00 hr 45 min 48 sec)
Heartbeat CPU 0 instructions: 186000853 cycles: 314895403 heartbeat IPC: 0.5884 cumulative IPC: 0.4531 (Simulation time: 00 hr 45 min 55 sec)
Heartbeat CPU 0 instructions: 186500854 cycles: 315883227 heartbeat IPC: 0.5062 cumulative IPC: 0.4532 (Simulation time: 00 hr 46 min 03 sec)
Heartbeat CPU 0 instructions: 187000857 cycles: 316408971 heartbeat IPC: 0.951 cumulative IPC: 0.4541 (Simulation time: 00 hr 46 min 08 sec)
Heartbeat CPU 0 instructions: 187500860 cycles: 316737124 heartbeat IPC: 1.524 cumulative IPC: 0.4553 (Simulation time: 00 hr 46 min 12 sec)
Heartbeat CPU 0 instructions: 188000861 cycles: 317447948 heartbeat IPC: 0.7034 cumulative IPC: 0.4558 (Simulation time: 00 hr 46 min 17 sec)
Heartbeat CPU 0 instructions: 188500861 cycles: 319366611 heartbeat IPC: 0.2606 cumulative IPC: 0.4546 (Simulation time: 00 hr 46 min 30 sec)
Heartbeat CPU 0 instructions: 189000861 cycles: 320932669 heartbeat IPC: 0.3193 cumulative IPC: 0.4539 (Simulation time: 00 hr 46 min 42 sec)
Heartbeat CPU 0 instructions: 189500863 cycles: 322845754 heartbeat IPC: 0.2614 cumulative IPC: 0.4527 (Simulation time: 00 hr 46 min 54 sec)
Heartbeat CPU 0 instructions: 190000870 cycles: 323716783 heartbeat IPC: 0.574 cumulative IPC: 0.4531 (Simulation time: 00 hr 47 min 01 sec)
Heartbeat CPU 0 instructions: 190500871 cycles: 324183146 heartbeat IPC: 1.072 cumulative IPC: 0.454 (Simulation time: 00 hr 47 min 06 sec)
Heartbeat CPU 0 instructions: 191000874 cycles: 325483388 heartbeat IPC: 0.3845 cumulative IPC: 0.4537 (Simulation time: 00 hr 47 min 15 sec)
Heartbeat CPU 0 instructions: 191500875 cycles: 326963448 heartbeat IPC: 0.3378 cumulative IPC: 0.4532 (Simulation time: 00 hr 47 min 25 sec)
Heartbeat CPU 0 instructions: 192000876 cycles: 328829826 heartbeat IPC: 0.2679 cumulative IPC: 0.4521 (Simulation time: 00 hr 47 min 38 sec)
Heartbeat CPU 0 instructions: 192500876 cycles: 330380285 heartbeat IPC: 0.3225 cumulative IPC: 0.4514 (Simulation time: 00 hr 47 min 49 sec)
Heartbeat CPU 0 instructions: 193000876 cycles: 331767728 heartbeat IPC: 0.3604 cumulative IPC: 0.451 (Simulation time: 00 hr 48 min 00 sec)
Heartbeat CPU 0 instructions: 193500876 cycles: 332994358 heartbeat IPC: 0.4076 cumulative IPC: 0.4509 (Simulation time: 00 hr 48 min 09 sec)
Heartbeat CPU 0 instructions: 194000876 cycles: 334506114 heartbeat IPC: 0.3307 cumulative IPC: 0.4503 (Simulation time: 00 hr 48 min 19 sec)
Heartbeat CPU 0 instructions: 194500876 cycles: 335730296 heartbeat IPC: 0.4084 cumulative IPC: 0.4501 (Simulation time: 00 hr 48 min 28 sec)
Heartbeat CPU 0 instructions: 195000877 cycles: 336668182 heartbeat IPC: 0.5331 cumulative IPC: 0.4504 (Simulation time: 00 hr 48 min 35 sec)
Heartbeat CPU 0 instructions: 195500880 cycles: 338066080 heartbeat IPC: 0.3577 cumulative IPC: 0.45 (Simulation time: 00 hr 48 min 45 sec)
Heartbeat CPU 0 instructions: 196000880 cycles: 339014138 heartbeat IPC: 0.5274 cumulative IPC: 0.4502 (Simulation time: 00 hr 48 min 52 sec)
Heartbeat CPU 0 instructions: 196500884 cycles: 340565433 heartbeat IPC: 0.3223 cumulative IPC: 0.4496 (Simulation time: 00 hr 49 min 03 sec)
Heartbeat CPU 0 instructions: 197000884 cycles: 342149304 heartbeat IPC: 0.3157 cumulative IPC: 0.4489 (Simulation time: 00 hr 49 min 14 sec)
Heartbeat CPU 0 instructions: 197500886 cycles: 343770471 heartbeat IPC: 0.3084 cumulative IPC: 0.4482 (Simulation time: 00 hr 49 min 25 sec)
Heartbeat CPU 0 instructions: 198000886 cycles: 345169289 heartbeat IPC: 0.3574 cumulative IPC: 0.4479 (Simulation time: 00 hr 49 min 35 sec)
Heartbeat CPU 0 instructions: 198500887 cycles: 347082504 heartbeat IPC: 0.2613 cumulative IPC: 0.4468 (Simulation time: 00 hr 49 min 48 sec)
Heartbeat CPU 0 instructions: 199000894 cycles: 348753069 heartbeat IPC: 0.2993 cumulative IPC: 0.4461 (Simulation time: 00 hr 49 min 59 sec)
Heartbeat CPU 0 instructions: 199500895 cycles: 350179904 heartbeat IPC: 0.3504 cumulative IPC: 0.4456 (Simulation time: 00 hr 50 min 10 sec)
Heartbeat CPU 0 instructions: 200000895 cycles: 351314449 heartbeat IPC: 0.4407 cumulative IPC: 0.4456 (Simulation time: 00 hr 50 min 18 sec)
Heartbeat CPU 0 instructions: 200500899 cycles: 352255476 heartbeat IPC: 0.5313 cumulative IPC: 0.4459 (Simulation time: 00 hr 50 min 25 sec)
Heartbeat CPU 0 instructions: 201000901 cycles: 353903918 heartbeat IPC: 0.3033 cumulative IPC: 0.4452 (Simulation time: 00 hr 50 min 36 sec)
Heartbeat CPU 0 instructions: 201500903 cycles: 354504052 heartbeat IPC: 0.8332 cumulative IPC: 0.4459 (Simulation time: 00 hr 50 min 42 sec)
Heartbeat CPU 0 instructions: 202000903 cycles: 355210584 heartbeat IPC: 0.7077 cumulative IPC: 0.4464 (Simulation time: 00 hr 50 min 48 sec)
Heartbeat CPU 0 instructions: 202500905 cycles: 356441407 heartbeat IPC: 0.4062 cumulative IPC: 0.4463 (Simulation time: 00 hr 50 min 58 sec)
Heartbeat CPU 0 instructions: 203000907 cycles: 357842003 heartbeat IPC: 0.357 cumulative IPC: 0.4459 (Simulation time: 00 hr 51 min 09 sec)
Heartbeat CPU 0 instructions: 203500912 cycles: 359149010 heartbeat IPC: 0.3826 cumulative IPC: 0.4457 (Simulation time: 00 hr 51 min 20 sec)
Heartbeat CPU 0 instructions: 204000917 cycles: 359748582 heartbeat IPC: 0.8339 cumulative IPC: 0.4463 (Simulation time: 00 hr 51 min 25 sec)
Heartbeat CPU 0 instructions: 204500922 cycles: 360124881 heartbeat IPC: 1.329 cumulative IPC: 0.4473 (Simulation time: 00 hr 51 min 29 sec)
Heartbeat CPU 0 instructions: 205000924 cycles: 360497245 heartbeat IPC: 1.343 cumulative IPC: 0.4483 (Simulation time: 00 hr 51 min 33 sec)
Heartbeat CPU 0 instructions: 205500924 cycles: 360921473 heartbeat IPC: 1.179 cumulative IPC: 0.4492 (Simulation time: 00 hr 51 min 37 sec)
Heartbeat CPU 0 instructions: 206000924 cycles: 363595015 heartbeat IPC: 0.187 cumulative IPC: 0.4471 (Simulation time: 00 hr 51 min 51 sec)
Heartbeat CPU 0 instructions: 206500924 cycles: 365129942 heartbeat IPC: 0.3257 cumulative IPC: 0.4466 (Simulation time: 00 hr 52 min 00 sec)
Heartbeat CPU 0 instructions: 207000929 cycles: 365986865 heartbeat IPC: 0.5835 cumulative IPC: 0.4469 (Simulation time: 00 hr 52 min 06 sec)
Heartbeat CPU 0 instructions: 207500929 cycles: 366955266 heartbeat IPC: 0.5163 cumulative IPC: 0.4471 (Simulation time: 00 hr 52 min 14 sec)
Heartbeat CPU 0 instructions: 208000932 cycles: 368524682 heartbeat IPC: 0.3186 cumulative IPC: 0.4466 (Simulation time: 00 hr 52 min 25 sec)
Heartbeat CPU 0 instructions: 208500936 cycles: 369857542 heartbeat IPC: 0.3751 cumulative IPC: 0.4463 (Simulation time: 00 hr 52 min 35 sec)
Heartbeat CPU 0 instructions: 209000938 cycles: 370918067 heartbeat IPC: 0.4715 cumulative IPC: 0.4464 (Simulation time: 00 hr 52 min 43 sec)
Heartbeat CPU 0 instructions: 209500940 cycles: 371468220 heartbeat IPC: 0.9088 cumulative IPC: 0.4471 (Simulation time: 00 hr 52 min 49 sec)
Heartbeat CPU 0 instructions: 210000943 cycles: 372518511 heartbeat IPC: 0.4761 cumulative IPC: 0.4472 (Simulation time: 00 hr 52 min 57 sec)
Heartbeat CPU 0 instructions: 210500944 cycles: 373985720 heartbeat IPC: 0.3408 cumulative IPC: 0.4467 (Simulation time: 00 hr 53 min 08 sec)
Heartbeat CPU 0 instructions: 211000944 cycles: 374819768 heartbeat IPC: 0.5995 cumulative IPC: 0.4471 (Simulation time: 00 hr 53 min 15 sec)
Heartbeat CPU 0 instructions: 211500944 cycles: 375492274 heartbeat IPC: 0.7435 cumulative IPC: 0.4476 (Simulation time: 00 hr 53 min 21 sec)
Heartbeat CPU 0 instructions: 212000947 cycles: 376151645 heartbeat IPC: 0.7583 cumulative IPC: 0.4482 (Simulation time: 00 hr 53 min 27 sec)
Heartbeat CPU 0 instructions: 212500951 cycles: 376616046 heartbeat IPC: 1.077 cumulative IPC: 0.449 (Simulation time: 00 hr 53 min 31 sec)
Heartbeat CPU 0 instructions: 213000955 cycles: 377230574 heartbeat IPC: 0.8136 cumulative IPC: 0.4496 (Simulation time: 00 hr 53 min 37 sec)
Heartbeat CPU 0 instructions: 213500957 cycles: 377735955 heartbeat IPC: 0.9894 cumulative IPC: 0.4504 (Simulation time: 00 hr 53 min 41 sec)
Heartbeat CPU 0 instructions: 214000963 cycles: 378269454 heartbeat IPC: 0.9372 cumulative IPC: 0.4511 (Simulation time: 00 hr 53 min 46 sec)
Heartbeat CPU 0 instructions: 214500965 cycles: 378753493 heartbeat IPC: 1.033 cumulative IPC: 0.4519 (Simulation time: 00 hr 53 min 51 sec)
Heartbeat CPU 0 instructions: 215000967 cycles: 379943922 heartbeat IPC: 0.42 cumulative IPC: 0.4518 (Simulation time: 00 hr 54 min 01 sec)
Heartbeat CPU 0 instructions: 215500967 cycles: 381656372 heartbeat IPC: 0.292 cumulative IPC: 0.451 (Simulation time: 00 hr 54 min 14 sec)
Heartbeat CPU 0 instructions: 216000968 cycles: 383157331 heartbeat IPC: 0.3331 cumulative IPC: 0.4505 (Simulation time: 00 hr 54 min 26 sec)
Heartbeat CPU 0 instructions: 216500968 cycles: 383936766 heartbeat IPC: 0.6415 cumulative IPC: 0.4509 (Simulation time: 00 hr 54 min 33 sec)
Heartbeat CPU 0 instructions: 217000973 cycles: 385203036 heartbeat IPC: 0.3949 cumulative IPC: 0.4508 (Simulation time: 00 hr 54 min 43 sec)
Heartbeat CPU 0 instructions: 217500973 cycles: 386455149 heartbeat IPC: 0.3993 cumulative IPC: 0.4506 (Simulation time: 00 hr 54 min 53 sec)
Heartbeat CPU 0 instructions: 218000973 cycles: 387844380 heartbeat IPC: 0.3599 cumulative IPC: 0.4502 (Simulation time: 00 hr 55 min 04 sec)
Heartbeat CPU 0 instructions: 218500973 cycles: 389850681 heartbeat IPC: 0.2492 cumulative IPC: 0.4492 (Simulation time: 00 hr 55 min 19 sec)
Heartbeat CPU 0 instructions: 219000975 cycles: 391681234 heartbeat IPC: 0.2731 cumulative IPC: 0.4483 (Simulation time: 00 hr 55 min 33 sec)
Heartbeat CPU 0 instructions: 219500982 cycles: 392355413 heartbeat IPC: 0.7417 cumulative IPC: 0.4488 (Simulation time: 00 hr 55 min 40 sec)
Heartbeat CPU 0 instructions: 220000983 cycles: 392889454 heartbeat IPC: 0.9363 cumulative IPC: 0.4495 (Simulation time: 00 hr 55 min 47 sec)
Heartbeat CPU 0 instructions: 220500983 cycles: 394840279 heartbeat IPC: 0.2563 cumulative IPC: 0.4485 (Simulation time: 00 hr 56 min 02 sec)
Heartbeat CPU 0 instructions: 221000987 cycles: 396168556 heartbeat IPC: 0.3764 cumulative IPC: 0.4483 (Simulation time: 00 hr 56 min 13 sec)
Heartbeat CPU 0 instructions: 221500990 cycles: 397638026 heartbeat IPC: 0.3403 cumulative IPC: 0.4479 (Simulation time: 00 hr 56 min 24 sec)
Heartbeat CPU 0 instructions: 222000994 cycles: 398188380 heartbeat IPC: 0.9085 cumulative IPC: 0.4485 (Simulation time: 00 hr 56 min 29 sec)
Heartbeat CPU 0 instructions: 222500998 cycles: 398781412 heartbeat IPC: 0.8431 cumulative IPC: 0.4491 (Simulation time: 00 hr 56 min 34 sec)
Heartbeat CPU 0 instructions: 223000998 cycles: 399358218 heartbeat IPC: 0.8668 cumulative IPC: 0.4498 (Simulation time: 00 hr 56 min 39 sec)
Heartbeat CPU 0 instructions: 223501001 cycles: 399852488 heartbeat IPC: 1.012 cumulative IPC: 0.4505 (Simulation time: 00 hr 56 min 44 sec)
Heartbeat CPU 0 instructions: 224001003 cycles: 400456111 heartbeat IPC: 0.8283 cumulative IPC: 0.4511 (Simulation time: 00 hr 56 min 49 sec)
Heartbeat CPU 0 instructions: 224501009 cycles: 400960172 heartbeat IPC: 0.992 cumulative IPC: 0.4518 (Simulation time: 00 hr 56 min 54 sec)
Heartbeat CPU 0 instructions: 225001012 cycles: 401473047 heartbeat IPC: 0.9749 cumulative IPC: 0.4525 (Simulation time: 00 hr 56 min 59 sec)
Heartbeat CPU 0 instructions: 225501012 cycles: 402023723 heartbeat IPC: 0.908 cumulative IPC: 0.4531 (Simulation time: 00 hr 57 min 04 sec)
Heartbeat CPU 0 instructions: 226001012 cycles: 403691618 heartbeat IPC: 0.2998 cumulative IPC: 0.4525 (Simulation time: 00 hr 57 min 17 sec)
Heartbeat CPU 0 instructions: 226501014 cycles: 405307203 heartbeat IPC: 0.3095 cumulative IPC: 0.4519 (Simulation time: 00 hr 57 min 30 sec)
Heartbeat CPU 0 instructions: 227001018 cycles: 406152911 heartbeat IPC: 0.5912 cumulative IPC: 0.4522 (Simulation time: 00 hr 57 min 37 sec)
Heartbeat CPU 0 instructions: 227501019 cycles: 408295351 heartbeat IPC: 0.2334 cumulative IPC: 0.451 (Simulation time: 00 hr 57 min 53 sec)
Heartbeat CPU 0 instructions: 228001019 cycles: 409421990 heartbeat IPC: 0.4438 cumulative IPC: 0.451 (Simulation time: 00 hr 58 min 03 sec)
Heartbeat CPU 0 instructions: 228501026 cycles: 410544977 heartbeat IPC: 0.4452 cumulative IPC: 0.4509 (Simulation time: 00 hr 58 min 12 sec)
Heartbeat CPU 0 instructions: 229001030 cycles: 411644321 heartbeat IPC: 0.4548 cumulative IPC: 0.451 (Simulation time: 00 hr 58 min 20 sec)
Heartbeat CPU 0 instructions: 229501030 cycles: 413346948 heartbeat IPC: 0.2937 cumulative IPC: 0.4503 (Simulation time: 00 hr 58 min 33 sec)
Heartbeat CPU 0 instructions: 230001034 cycles: 414544554 heartbeat IPC: 0.4175 cumulative IPC: 0.4502 (Simulation time: 00 hr 58 min 43 sec)
Heartbeat CPU 0 instructions: 230501036 cycles: 416374929 heartbeat IPC: 0.2732 cumulative IPC: 0.4494 (Simulation time: 00 hr 58 min 57 sec)
Heartbeat CPU 0 instructions: 231001038 cycles: 417845820 heartbeat IPC: 0.3399 cumulative IPC: 0.449 (Simulation time: 00 hr 59 min 08 sec)
Heartbeat CPU 0 instructions: 231501045 cycles: 419611076 heartbeat IPC: 0.2832 cumulative IPC: 0.4483 (Simulation time: 00 hr 59 min 22 sec)
Heartbeat CPU 0 instructions: 232001052 cycles: 420725464 heartbeat IPC: 0.4487 cumulative IPC: 0.4483 (Simulation time: 00 hr 59 min 31 sec)
Heartbeat CPU 0 instructions: 232501053 cycles: 422234169 heartbeat IPC: 0.3314 cumulative IPC: 0.4478 (Simulation time: 00 hr 59 min 43 sec)
Heartbeat CPU 0 instructions: 233001053 cycles: 423027683 heartbeat IPC: 0.6301 cumulative IPC: 0.4482 (Simulation time: 00 hr 59 min 50 sec)
Heartbeat CPU 0 instructions: 233501058 cycles: 423778003 heartbeat IPC: 0.6664 cumulative IPC: 0.4486 (Simulation time: 00 hr 59 min 57 sec)
Heartbeat CPU 0 instructions: 234001058 cycles: 423942272 heartbeat IPC: 3.044 cumulative IPC: 0.4496 (Simulation time: 00 hr 59 min 59 sec)
Heartbeat CPU 0 instructions: 234501059 cycles: 424099276 heartbeat IPC: 3.185 cumulative IPC: 0.4507 (Simulation time: 01 hr 00 min 02 sec)
Heartbeat CPU 0 instructions: 235001061 cycles: 424249729 heartbeat IPC: 3.323 cumulative IPC: 0.4517 (Simulation time: 01 hr 00 min 05 sec)
Heartbeat CPU 0 instructions: 235501061 cycles: 424420692 heartbeat IPC: 2.925 cumulative IPC: 0.4528 (Simulation time: 01 hr 00 min 08 sec)
Heartbeat CPU 0 instructions: 236001066 cycles: 424626893 heartbeat IPC: 2.425 cumulative IPC: 0.4538 (Simulation time: 01 hr 00 min 11 sec)
Heartbeat CPU 0 instructions: 236501068 cycles: 425323382 heartbeat IPC: 0.7179 cumulative IPC: 0.4542 (Simulation time: 01 hr 00 min 17 sec)
Heartbeat CPU 0 instructions: 237001073 cycles: 425892120 heartbeat IPC: 0.8791 cumulative IPC: 0.4548 (Simulation time: 01 hr 00 min 22 sec)
Heartbeat CPU 0 instructions: 237501073 cycles: 427563745 heartbeat IPC: 0.2991 cumulative IPC: 0.4542 (Simulation time: 01 hr 00 min 35 sec)
Heartbeat CPU 0 instructions: 238001073 cycles: 429330432 heartbeat IPC: 0.283 cumulative IPC: 0.4534 (Simulation time: 01 hr 00 min 48 sec)
Heartbeat CPU 0 instructions: 238501073 cycles: 430234824 heartbeat IPC: 0.5529 cumulative IPC: 0.4536 (Simulation time: 01 hr 00 min 56 sec)
Heartbeat CPU 0 instructions: 239001076 cycles: 430894405 heartbeat IPC: 0.7581 cumulative IPC: 0.4541 (Simulation time: 01 hr 01 min 03 sec)
Heartbeat CPU 0 instructions: 239501076 cycles: 431642074 heartbeat IPC: 0.6687 cumulative IPC: 0.4545 (Simulation time: 01 hr 01 min 10 sec)
Heartbeat CPU 0 instructions: 240001081 cycles: 432510474 heartbeat IPC: 0.5758 cumulative IPC: 0.4548 (Simulation time: 01 hr 01 min 18 sec)
Heartbeat CPU 0 instructions: 240501081 cycles: 434759250 heartbeat IPC: 0.2223 cumulative IPC: 0.4535 (Simulation time: 01 hr 01 min 35 sec)
Heartbeat CPU 0 instructions: 241001081 cycles: 436340915 heartbeat IPC: 0.3161 cumulative IPC: 0.453 (Simulation time: 01 hr 01 min 47 sec)
Heartbeat CPU 0 instructions: 241501084 cycles: 437337257 heartbeat IPC: 0.5018 cumulative IPC: 0.4531 (Simulation time: 01 hr 01 min 56 sec)
Heartbeat CPU 0 instructions: 242001085 cycles: 438297901 heartbeat IPC: 0.5205 cumulative IPC: 0.4533 (Simulation time: 01 hr 02 min 04 sec)
Heartbeat CPU 0 instructions: 242501087 cycles: 439947396 heartbeat IPC: 0.3031 cumulative IPC: 0.4527 (Simulation time: 01 hr 02 min 17 sec)
Heartbeat CPU 0 instructions: 243001087 cycles: 441068225 heartbeat IPC: 0.4461 cumulative IPC: 0.4527 (Simulation time: 01 hr 02 min 26 sec)
Heartbeat CPU 0 instructions: 243501094 cycles: 442506689 heartbeat IPC: 0.3476 cumulative IPC: 0.4523 (Simulation time: 01 hr 02 min 38 sec)
Heartbeat CPU 0 instructions: 244001096 cycles: 444278746 heartbeat IPC: 0.2822 cumulative IPC: 0.4516 (Simulation time: 01 hr 02 min 51 sec)
Heartbeat CPU 0 instructions: 244501096 cycles: 445550325 heartbeat IPC: 0.3932 cumulative IPC: 0.4514 (Simulation time: 01 hr 03 min 02 sec)
Heartbeat CPU 0 instructions: 245001100 cycles: 447332654 heartbeat IPC: 0.2805 cumulative IPC: 0.4507 (Simulation time: 01 hr 03 min 15 sec)
Heartbeat CPU 0 instructions: 245501102 cycles: 448430512 heartbeat IPC: 0.4554 cumulative IPC: 0.4508 (Simulation time: 01 hr 03 min 24 sec)
Heartbeat CPU 0 instructions: 246001103 cycles: 449701141 heartbeat IPC: 0.3935 cumulative IPC: 0.4506 (Simulation time: 01 hr 03 min 34 sec)
Heartbeat CPU 0 instructions: 246501105 cycles: 450651273 heartbeat IPC: 0.5262 cumulative IPC: 0.4508 (Simulation time: 01 hr 03 min 44 sec)
Heartbeat CPU 0 instructions: 247001107 cycles: 452020833 heartbeat IPC: 0.3651 cumulative IPC: 0.4505 (Simulation time: 01 hr 03 min 56 sec)
Heartbeat CPU 0 instructions: 247501109 cycles: 453263291 heartbeat IPC: 0.4024 cumulative IPC: 0.4503 (Simulation time: 01 hr 04 min 06 sec)
Heartbeat CPU 0 instructions: 248001109 cycles: 454876236 heartbeat IPC: 0.31 cumulative IPC: 0.4498 (Simulation time: 01 hr 04 min 18 sec)
Heartbeat CPU 0 instructions: 248501115 cycles: 455988488 heartbeat IPC: 0.4495 cumulative IPC: 0.4498 (Simulation time: 01 hr 04 min 28 sec)
Heartbeat CPU 0 instructions: 249001115 cycles: 457491908 heartbeat IPC: 0.3326 cumulative IPC: 0.4494 (Simulation time: 01 hr 04 min 40 sec)
Heartbeat CPU 0 instructions: 249501118 cycles: 458702566 heartbeat IPC: 0.413 cumulative IPC: 0.4493 (Simulation time: 01 hr 04 min 49 sec)
Simulation finished CPU 0 instructions: 200000006 cycles: 444802608 cumulative IPC: 0.4496 (Simulation time: 01 hr 04 min 57 sec)
Simulation complete CPU 0 instructions: 200000006 cycles: 444802608 cumulative IPC: 0.4496 (Simulation time: 01 hr 04 min 57 sec)

ChampSim completed all CPUs

=== Simulation ===
CPU 0 runs /local-ssd/ben/dpc4-traces/gtraces_v2/tahoe_0003.champsim.gz

Region of Interest Statistics

CPU 0 cumulative IPC: 0.4496 instructions: 200000006 cycles: 444802608
CPU 0 Branch Prediction Accuracy: 89.18% MPKI: 20.62 Average ROB Occupancy at Mispredict: 21.48
Branch type MPKI
BRANCH_DIRECT_JUMP: 0.8222
BRANCH_INDIRECT: 0.405
BRANCH_CONDITIONAL: 16.94
BRANCH_DIRECT_CALL: 0.9834
BRANCH_INDIRECT_CALL: 0.5151
BRANCH_RETURN: 0.9529

cpu0->cpu0_STLB TOTAL        ACCESS:    2276839 HIT:    1590947 MISS:     685892 MSHR_MERGE:          0
cpu0->cpu0_STLB LOAD         ACCESS:    2276839 HIT:    1590947 MISS:     685892 MSHR_MERGE:          0
cpu0->cpu0_STLB RFO          ACCESS:          0 HIT:          0 MISS:          0 MSHR_MERGE:          0
cpu0->cpu0_STLB PREFETCH     ACCESS:          0 HIT:          0 MISS:          0 MSHR_MERGE:          0
cpu0->cpu0_STLB WRITE        ACCESS:          0 HIT:          0 MISS:          0 MSHR_MERGE:          0
cpu0->cpu0_STLB TRANSLATION  ACCESS:          0 HIT:          0 MISS:          0 MSHR_MERGE:          0
cpu0->cpu0_STLB PREFETCH REQUESTED:          0 ISSUED:          0 USEFUL:          0 USELESS:          0
cpu0->cpu0_STLB AVERAGE MISS LATENCY: 153.8 cycles
cpu0->cpu0_L2C TOTAL        ACCESS:   15162866 HIT:    9017577 MISS:    6145289 MSHR_MERGE:    1187772
cpu0->cpu0_L2C LOAD         ACCESS:    3974433 HIT:    2195175 MISS:    1779258 MSHR_MERGE:      62096
cpu0->cpu0_L2C RFO          ACCESS:     706498 HIT:     215809 MISS:     490689 MSHR_MERGE:       3332
cpu0->cpu0_L2C PREFETCH     ACCESS:    8551811 HIT:    5007495 MISS:    3544316 MSHR_MERGE:    1122344
cpu0->cpu0_L2C WRITE        ACCESS:    1173178 HIT:    1173147 MISS:         31 MSHR_MERGE:          0
cpu0->cpu0_L2C TRANSLATION  ACCESS:     756946 HIT:     425951 MISS:     330995 MSHR_MERGE:          0
cpu0->cpu0_L2C PREFETCH REQUESTED:    7336070 ISSUED:    6959507 USEFUL:     569758 USELESS:    1204578
cpu0->cpu0_L2C AVERAGE MISS LATENCY: 210.9 cycles
cpu0->cpu0_L1I TOTAL        ACCESS:   15734371 HIT:   13032640 MISS:    2701731 MSHR_MERGE:     499593
cpu0->cpu0_L1I LOAD         ACCESS:   15734371 HIT:   13032640 MISS:    2701731 MSHR_MERGE:     499593
cpu0->cpu0_L1I RFO          ACCESS:          0 HIT:          0 MISS:          0 MSHR_MERGE:          0
cpu0->cpu0_L1I PREFETCH     ACCESS:          0 HIT:          0 MISS:          0 MSHR_MERGE:          0
cpu0->cpu0_L1I WRITE        ACCESS:          0 HIT:          0 MISS:          0 MSHR_MERGE:          0
cpu0->cpu0_L1I TRANSLATION  ACCESS:          0 HIT:          0 MISS:          0 MSHR_MERGE:          0
cpu0->cpu0_L1I PREFETCH REQUESTED:          0 ISSUED:          0 USEFUL:          0 USELESS:          0
cpu0->cpu0_L1I AVERAGE MISS LATENCY: 110.2 cycles
cpu0->cpu0_L1D TOTAL        ACCESS:   79533487 HIT:   71691406 MISS:    7842081 MSHR_MERGE:    3013983
cpu0->cpu0_L1D LOAD         ACCESS:   34249241 HIT:   31884928 MISS:    2364313 MSHR_MERGE:     592000
cpu0->cpu0_L1D RFO          ACCESS:          0 HIT:          0 MISS:          0 MSHR_MERGE:          0
cpu0->cpu0_L1D PREFETCH     ACCESS:   19270213 HIT:   17012592 MISS:    2257621 MSHR_MERGE:     665313
cpu0->cpu0_L1D WRITE        ACCESS:   24248925 HIT:   21790828 MISS:    2458097 MSHR_MERGE:    1751566
cpu0->cpu0_L1D TRANSLATION  ACCESS:    1765108 HIT:    1003058 MISS:     762050 MSHR_MERGE:       5104
cpu0->cpu0_L1D PREFETCH REQUESTED:   21847418 ISSUED:   19270207 USEFUL:     501741 USELESS:    1090435
cpu0->cpu0_L1D AVERAGE MISS LATENCY: 108.3 cycles
cpu0->cpu0_ITLB TOTAL        ACCESS:   13162311 HIT:   12728074 MISS:     434237 MSHR_MERGE:     186562
cpu0->cpu0_ITLB LOAD         ACCESS:   13162311 HIT:   12728074 MISS:     434237 MSHR_MERGE:     186562
cpu0->cpu0_ITLB RFO          ACCESS:          0 HIT:          0 MISS:          0 MSHR_MERGE:          0
cpu0->cpu0_ITLB PREFETCH     ACCESS:          0 HIT:          0 MISS:          0 MSHR_MERGE:          0
cpu0->cpu0_ITLB WRITE        ACCESS:          0 HIT:          0 MISS:          0 MSHR_MERGE:          0
cpu0->cpu0_ITLB TRANSLATION  ACCESS:          0 HIT:          0 MISS:          0 MSHR_MERGE:          0
cpu0->cpu0_ITLB PREFETCH REQUESTED:          0 ISSUED:          0 USEFUL:          0 USELESS:          0
cpu0->cpu0_ITLB AVERAGE MISS LATENCY: 39.85 cycles
cpu0->cpu0_DTLB TOTAL        ACCESS:   71632048 HIT:   68413418 MISS:    3218630 MSHR_MERGE:    1189466
cpu0->cpu0_DTLB LOAD         ACCESS:   71632048 HIT:   68413418 MISS:    3218630 MSHR_MERGE:    1189466
cpu0->cpu0_DTLB RFO          ACCESS:          0 HIT:          0 MISS:          0 MSHR_MERGE:          0
cpu0->cpu0_DTLB PREFETCH     ACCESS:          0 HIT:          0 MISS:          0 MSHR_MERGE:          0
cpu0->cpu0_DTLB WRITE        ACCESS:          0 HIT:          0 MISS:          0 MSHR_MERGE:          0
cpu0->cpu0_DTLB TRANSLATION  ACCESS:          0 HIT:          0 MISS:          0 MSHR_MERGE:          0
cpu0->cpu0_DTLB PREFETCH REQUESTED:          0 ISSUED:          0 USEFUL:          0 USELESS:          0
cpu0->cpu0_DTLB AVERAGE MISS LATENCY: 53.07 cycles
cpu0->LLC TOTAL        ACCESS:    6471635 HIT:     996775 MISS:    5474860 MSHR_MERGE:      92992
cpu0->LLC LOAD         ACCESS:    1717162 HIT:     334781 MISS:    1382381 MSHR_MERGE:       1214
cpu0->LLC RFO          ACCESS:     487357 HIT:      16882 MISS:     470475 MSHR_MERGE:        151
cpu0->LLC PREFETCH     ACCESS:    3164340 HIT:     399338 MISS:    2765002 MSHR_MERGE:      91627
cpu0->LLC WRITE        ACCESS:     771781 HIT:     192970 MISS:     578811 MSHR_MERGE:          0
cpu0->LLC TRANSLATION  ACCESS:     330995 HIT:      52804 MISS:     278191 MSHR_MERGE:          0
cpu0->LLC PREFETCH REQUESTED:     742397 ISSUED:     742368 USEFUL:      74242 USELESS:     487114
cpu0->LLC AVERAGE MISS LATENCY: 180.7 cycles

DRAM Statistics

Channel 0 RQ ROW_BUFFER_HIT:     138175
  ROW_BUFFER_MISS:    4664807
  AVG DBUS CONGESTED CYCLE: 21.46
Channel 0 WQ ROW_BUFFER_HIT:     193064
  ROW_BUFFER_MISS:     534891
  FULL:          0
Channel 0 REFRESHES ISSUED:      37065
