[VMEM] WARNING: physical memory size is smaller than virtual memory size.

*** ChampSim Multicore Out-of-Order Simulator ***
Warmup Instructions: 50000000
Simulation Instructions: 200000000
Number of CPUs: 1
Page size: 4096
Core 0: /local-ssd/ben/dpc4-traces/gtraces_v2/yankee_0001.champsim.gz
Off-chip DRAM Size: 64 GiB Channels: 1 Width: 64-bit Data Rate: 4807 MT/s
[BTB] WARNING: target of return is a lower address than the corresponding call. This is usually a problem with your trace.
[BTB] WARNING: target of return is a lower address than the corresponding call. This is usually a problem with your trace.
[BTB] WARNING: target of return is a lower address than the corresponding call. This is usually a problem with your trace.
[BTB] WARNING: target of return is a lower address than the corresponding call. This is usually a problem with your trace.
[BTB] WARNING: target of return is a lower address than the corresponding call. This is usually a problem with your trace.
[BTB] WARNING: target of return is a lower address than the corresponding call. This is usually a problem with your trace.
[BTB] WARNING: target of return is a lower address than the corresponding call. This is usually a problem with your trace.
[BTB] WARNING: target of return is a lower address than the corresponding call. This is usually a problem with your trace.
Heartbeat CPU 0 instructions: 500007 cycles: 279955 heartbeat IPC: 1.786 cumulative IPC: 1.786 (Simulation time: 00 hr 00 min 04 sec)
[BTB] WARNING: target of return is a lower address than the corresponding call. This is usually a problem with your trace.
[BTB] WARNING: target of return is a lower address than the corresponding call. This is usually a problem with your trace.
Heartbeat CPU 0 instructions: 1000007 cycles: 514389 heartbeat IPC: 2.133 cumulative IPC: 1.944 (Simulation time: 00 hr 00 min 08 sec)
Heartbeat CPU 0 instructions: 1500012 cycles: 690961 heartbeat IPC: 2.832 cumulative IPC: 2.171 (Simulation time: 00 hr 00 min 11 sec)
Heartbeat CPU 0 instructions: 2000014 cycles: 833453 heartbeat IPC: 3.509 cumulative IPC: 2.4 (Simulation time: 00 hr 00 min 13 sec)
Heartbeat CPU 0 instructions: 2500020 cycles: 951628 heartbeat IPC: 4.231 cumulative IPC: 2.627 (Simulation time: 00 hr 00 min 16 sec)
Heartbeat CPU 0 instructions: 3000023 cycles: 1083671 heartbeat IPC: 3.787 cumulative IPC: 2.768 (Simulation time: 00 hr 00 min 18 sec)
Heartbeat CPU 0 instructions: 3500026 cycles: 1241209 heartbeat IPC: 3.174 cumulative IPC: 2.82 (Simulation time: 00 hr 00 min 21 sec)
Heartbeat CPU 0 instructions: 4000033 cycles: 1356198 heartbeat IPC: 4.348 cumulative IPC: 2.949 (Simulation time: 00 hr 00 min 24 sec)
Heartbeat CPU 0 instructions: 4500040 cycles: 1488927 heartbeat IPC: 3.767 cumulative IPC: 3.022 (Simulation time: 00 hr 00 min 27 sec)
Heartbeat CPU 0 instructions: 5000045 cycles: 1643165 heartbeat IPC: 3.242 cumulative IPC: 3.043 (Simulation time: 00 hr 00 min 29 sec)
Heartbeat CPU 0 instructions: 5500045 cycles: 1788651 heartbeat IPC: 3.437 cumulative IPC: 3.075 (Simulation time: 00 hr 00 min 32 sec)
Heartbeat CPU 0 instructions: 6000048 cycles: 1926823 heartbeat IPC: 3.619 cumulative IPC: 3.114 (Simulation time: 00 hr 00 min 35 sec)
Heartbeat CPU 0 instructions: 6500051 cycles: 2044319 heartbeat IPC: 4.255 cumulative IPC: 3.18 (Simulation time: 00 hr 00 min 38 sec)
Heartbeat CPU 0 instructions: 7000051 cycles: 2198938 heartbeat IPC: 3.234 cumulative IPC: 3.183 (Simulation time: 00 hr 00 min 41 sec)
Heartbeat CPU 0 instructions: 7500058 cycles: 2345548 heartbeat IPC: 3.41 cumulative IPC: 3.198 (Simulation time: 00 hr 00 min 44 sec)
Heartbeat CPU 0 instructions: 8000058 cycles: 2477548 heartbeat IPC: 3.788 cumulative IPC: 3.229 (Simulation time: 00 hr 00 min 46 sec)
Heartbeat CPU 0 instructions: 8500064 cycles: 2601937 heartbeat IPC: 4.02 cumulative IPC: 3.267 (Simulation time: 00 hr 00 min 49 sec)
Heartbeat CPU 0 instructions: 9000064 cycles: 2782311 heartbeat IPC: 2.772 cumulative IPC: 3.235 (Simulation time: 00 hr 00 min 52 sec)
Heartbeat CPU 0 instructions: 9500065 cycles: 2916735 heartbeat IPC: 3.72 cumulative IPC: 3.257 (Simulation time: 00 hr 00 min 55 sec)
Heartbeat CPU 0 instructions: 10000068 cycles: 3108043 heartbeat IPC: 2.614 cumulative IPC: 3.217 (Simulation time: 00 hr 00 min 59 sec)
Heartbeat CPU 0 instructions: 10500074 cycles: 3255527 heartbeat IPC: 3.39 cumulative IPC: 3.225 (Simulation time: 00 hr 01 min 01 sec)
Heartbeat CPU 0 instructions: 11000077 cycles: 3386262 heartbeat IPC: 3.825 cumulative IPC: 3.248 (Simulation time: 00 hr 01 min 04 sec)
Heartbeat CPU 0 instructions: 11500084 cycles: 3512582 heartbeat IPC: 3.958 cumulative IPC: 3.274 (Simulation time: 00 hr 01 min 06 sec)
Heartbeat CPU 0 instructions: 12000090 cycles: 3639022 heartbeat IPC: 3.954 cumulative IPC: 3.298 (Simulation time: 00 hr 01 min 09 sec)
Heartbeat CPU 0 instructions: 12500097 cycles: 3758893 heartbeat IPC: 4.171 cumulative IPC: 3.325 (Simulation time: 00 hr 01 min 12 sec)
Heartbeat CPU 0 instructions: 13000097 cycles: 3874037 heartbeat IPC: 4.342 cumulative IPC: 3.356 (Simulation time: 00 hr 01 min 14 sec)
Heartbeat CPU 0 instructions: 13500098 cycles: 4000569 heartbeat IPC: 3.952 cumulative IPC: 3.375 (Simulation time: 00 hr 01 min 17 sec)
Heartbeat CPU 0 instructions: 14000098 cycles: 4144616 heartbeat IPC: 3.471 cumulative IPC: 3.378 (Simulation time: 00 hr 01 min 20 sec)
Heartbeat CPU 0 instructions: 14500100 cycles: 4276982 heartbeat IPC: 3.777 cumulative IPC: 3.39 (Simulation time: 00 hr 01 min 22 sec)
Heartbeat CPU 0 instructions: 15000104 cycles: 4418912 heartbeat IPC: 3.523 cumulative IPC: 3.395 (Simulation time: 00 hr 01 min 25 sec)
Heartbeat CPU 0 instructions: 15500110 cycles: 4534962 heartbeat IPC: 4.309 cumulative IPC: 3.418 (Simulation time: 00 hr 01 min 27 sec)
Heartbeat CPU 0 instructions: 16000111 cycles: 4651542 heartbeat IPC: 4.289 cumulative IPC: 3.44 (Simulation time: 00 hr 01 min 29 sec)
Heartbeat CPU 0 instructions: 16500115 cycles: 4769777 heartbeat IPC: 4.229 cumulative IPC: 3.459 (Simulation time: 00 hr 01 min 32 sec)
Heartbeat CPU 0 instructions: 17000116 cycles: 4905792 heartbeat IPC: 3.676 cumulative IPC: 3.465 (Simulation time: 00 hr 01 min 35 sec)
Heartbeat CPU 0 instructions: 17500122 cycles: 5027949 heartbeat IPC: 4.093 cumulative IPC: 3.481 (Simulation time: 00 hr 01 min 37 sec)
Heartbeat CPU 0 instructions: 18000123 cycles: 5152282 heartbeat IPC: 4.021 cumulative IPC: 3.494 (Simulation time: 00 hr 01 min 40 sec)
Heartbeat CPU 0 instructions: 18500129 cycles: 5268864 heartbeat IPC: 4.289 cumulative IPC: 3.511 (Simulation time: 00 hr 01 min 42 sec)
Heartbeat CPU 0 instructions: 19000135 cycles: 5385778 heartbeat IPC: 4.277 cumulative IPC: 3.528 (Simulation time: 00 hr 01 min 44 sec)
Heartbeat CPU 0 instructions: 19500137 cycles: 5497375 heartbeat IPC: 4.48 cumulative IPC: 3.547 (Simulation time: 00 hr 01 min 47 sec)
Heartbeat CPU 0 instructions: 20000144 cycles: 5655703 heartbeat IPC: 3.158 cumulative IPC: 3.536 (Simulation time: 00 hr 01 min 50 sec)
Heartbeat CPU 0 instructions: 20500144 cycles: 5807670 heartbeat IPC: 3.29 cumulative IPC: 3.53 (Simulation time: 00 hr 01 min 53 sec)
Heartbeat CPU 0 instructions: 21000150 cycles: 5936889 heartbeat IPC: 3.869 cumulative IPC: 3.537 (Simulation time: 00 hr 01 min 55 sec)
Heartbeat CPU 0 instructions: 21500157 cycles: 6061496 heartbeat IPC: 4.013 cumulative IPC: 3.547 (Simulation time: 00 hr 01 min 58 sec)
Heartbeat CPU 0 instructions: 22000157 cycles: 6186572 heartbeat IPC: 3.998 cumulative IPC: 3.556 (Simulation time: 00 hr 02 min 01 sec)
Heartbeat CPU 0 instructions: 22500162 cycles: 6335677 heartbeat IPC: 3.353 cumulative IPC: 3.551 (Simulation time: 00 hr 02 min 04 sec)
Heartbeat CPU 0 instructions: 23000168 cycles: 6459494 heartbeat IPC: 4.038 cumulative IPC: 3.561 (Simulation time: 00 hr 02 min 06 sec)
Heartbeat CPU 0 instructions: 23500174 cycles: 6591794 heartbeat IPC: 3.779 cumulative IPC: 3.565 (Simulation time: 00 hr 02 min 09 sec)
Heartbeat CPU 0 instructions: 24000177 cycles: 6712284 heartbeat IPC: 4.15 cumulative IPC: 3.576 (Simulation time: 00 hr 02 min 11 sec)
Heartbeat CPU 0 instructions: 24500179 cycles: 6835906 heartbeat IPC: 4.045 cumulative IPC: 3.584 (Simulation time: 00 hr 02 min 14 sec)
Heartbeat CPU 0 instructions: 25000181 cycles: 6985220 heartbeat IPC: 3.349 cumulative IPC: 3.579 (Simulation time: 00 hr 02 min 17 sec)
Heartbeat CPU 0 instructions: 25500187 cycles: 7141055 heartbeat IPC: 3.209 cumulative IPC: 3.571 (Simulation time: 00 hr 02 min 20 sec)
Heartbeat CPU 0 instructions: 26000191 cycles: 7286707 heartbeat IPC: 3.433 cumulative IPC: 3.568 (Simulation time: 00 hr 02 min 23 sec)
Heartbeat CPU 0 instructions: 26500196 cycles: 7407569 heartbeat IPC: 4.137 cumulative IPC: 3.577 (Simulation time: 00 hr 02 min 25 sec)
Heartbeat CPU 0 instructions: 27000197 cycles: 7553334 heartbeat IPC: 3.43 cumulative IPC: 3.575 (Simulation time: 00 hr 02 min 28 sec)
Heartbeat CPU 0 instructions: 27500197 cycles: 7670553 heartbeat IPC: 4.266 cumulative IPC: 3.585 (Simulation time: 00 hr 02 min 31 sec)
Heartbeat CPU 0 instructions: 28000198 cycles: 7789760 heartbeat IPC: 4.194 cumulative IPC: 3.594 (Simulation time: 00 hr 02 min 33 sec)
Heartbeat CPU 0 instructions: 28500200 cycles: 7916353 heartbeat IPC: 3.95 cumulative IPC: 3.6 (Simulation time: 00 hr 02 min 36 sec)
Heartbeat CPU 0 instructions: 29000200 cycles: 8030981 heartbeat IPC: 4.362 cumulative IPC: 3.611 (Simulation time: 00 hr 02 min 38 sec)
Heartbeat CPU 0 instructions: 29500201 cycles: 8178631 heartbeat IPC: 3.386 cumulative IPC: 3.607 (Simulation time: 00 hr 02 min 42 sec)
Heartbeat CPU 0 instructions: 30000208 cycles: 8324418 heartbeat IPC: 3.43 cumulative IPC: 3.604 (Simulation time: 00 hr 02 min 45 sec)
Heartbeat CPU 0 instructions: 30500209 cycles: 8465456 heartbeat IPC: 3.545 cumulative IPC: 3.603 (Simulation time: 00 hr 02 min 48 sec)
Heartbeat CPU 0 instructions: 31000214 cycles: 8590951 heartbeat IPC: 3.984 cumulative IPC: 3.608 (Simulation time: 00 hr 02 min 50 sec)
Heartbeat CPU 0 instructions: 31500217 cycles: 8740298 heartbeat IPC: 3.348 cumulative IPC: 3.604 (Simulation time: 00 hr 02 min 53 sec)
Heartbeat CPU 0 instructions: 32000217 cycles: 8865861 heartbeat IPC: 3.982 cumulative IPC: 3.609 (Simulation time: 00 hr 02 min 55 sec)
Heartbeat CPU 0 instructions: 32500221 cycles: 8982437 heartbeat IPC: 4.289 cumulative IPC: 3.618 (Simulation time: 00 hr 02 min 58 sec)
Heartbeat CPU 0 instructions: 33000222 cycles: 9098237 heartbeat IPC: 4.318 cumulative IPC: 3.627 (Simulation time: 00 hr 03 min 00 sec)
Heartbeat CPU 0 instructions: 33500223 cycles: 9218027 heartbeat IPC: 4.174 cumulative IPC: 3.634 (Simulation time: 00 hr 03 min 03 sec)
Heartbeat CPU 0 instructions: 34000227 cycles: 9337570 heartbeat IPC: 4.183 cumulative IPC: 3.641 (Simulation time: 00 hr 03 min 05 sec)
Heartbeat CPU 0 instructions: 34500229 cycles: 9460430 heartbeat IPC: 4.07 cumulative IPC: 3.647 (Simulation time: 00 hr 03 min 08 sec)
Heartbeat CPU 0 instructions: 35000230 cycles: 9592393 heartbeat IPC: 3.789 cumulative IPC: 3.649 (Simulation time: 00 hr 03 min 11 sec)
Heartbeat CPU 0 instructions: 35500231 cycles: 9738767 heartbeat IPC: 3.416 cumulative IPC: 3.645 (Simulation time: 00 hr 03 min 13 sec)
Heartbeat CPU 0 instructions: 36000234 cycles: 9879732 heartbeat IPC: 3.547 cumulative IPC: 3.644 (Simulation time: 00 hr 03 min 16 sec)
Heartbeat CPU 0 instructions: 36500238 cycles: 10051281 heartbeat IPC: 2.915 cumulative IPC: 3.631 (Simulation time: 00 hr 03 min 20 sec)
Heartbeat CPU 0 instructions: 37000243 cycles: 10200228 heartbeat IPC: 3.357 cumulative IPC: 3.627 (Simulation time: 00 hr 03 min 23 sec)
Heartbeat CPU 0 instructions: 37500243 cycles: 10334972 heartbeat IPC: 3.711 cumulative IPC: 3.628 (Simulation time: 00 hr 03 min 26 sec)
Heartbeat CPU 0 instructions: 38000243 cycles: 10487874 heartbeat IPC: 3.27 cumulative IPC: 3.623 (Simulation time: 00 hr 03 min 29 sec)
Heartbeat CPU 0 instructions: 38500248 cycles: 10623278 heartbeat IPC: 3.693 cumulative IPC: 3.624 (Simulation time: 00 hr 03 min 32 sec)
Heartbeat CPU 0 instructions: 39000251 cycles: 10751025 heartbeat IPC: 3.914 cumulative IPC: 3.628 (Simulation time: 00 hr 03 min 35 sec)
Heartbeat CPU 0 instructions: 39500256 cycles: 10886816 heartbeat IPC: 3.682 cumulative IPC: 3.628 (Simulation time: 00 hr 03 min 38 sec)
Heartbeat CPU 0 instructions: 40000261 cycles: 11021163 heartbeat IPC: 3.722 cumulative IPC: 3.629 (Simulation time: 00 hr 03 min 40 sec)
Heartbeat CPU 0 instructions: 40500263 cycles: 11157368 heartbeat IPC: 3.671 cumulative IPC: 3.63 (Simulation time: 00 hr 03 min 43 sec)
Heartbeat CPU 0 instructions: 41000267 cycles: 11267011 heartbeat IPC: 4.56 cumulative IPC: 3.639 (Simulation time: 00 hr 03 min 45 sec)
Heartbeat CPU 0 instructions: 41500269 cycles: 11386299 heartbeat IPC: 4.192 cumulative IPC: 3.645 (Simulation time: 00 hr 03 min 48 sec)
Heartbeat CPU 0 instructions: 42000273 cycles: 11502668 heartbeat IPC: 4.297 cumulative IPC: 3.651 (Simulation time: 00 hr 03 min 50 sec)
Heartbeat CPU 0 instructions: 42500277 cycles: 11656596 heartbeat IPC: 3.248 cumulative IPC: 3.646 (Simulation time: 00 hr 03 min 53 sec)
Heartbeat CPU 0 instructions: 43000283 cycles: 11786330 heartbeat IPC: 3.854 cumulative IPC: 3.648 (Simulation time: 00 hr 03 min 56 sec)
Heartbeat CPU 0 instructions: 43500285 cycles: 11932989 heartbeat IPC: 3.409 cumulative IPC: 3.645 (Simulation time: 00 hr 03 min 59 sec)
Heartbeat CPU 0 instructions: 44000289 cycles: 12055507 heartbeat IPC: 4.081 cumulative IPC: 3.65 (Simulation time: 00 hr 04 min 01 sec)
Heartbeat CPU 0 instructions: 44500294 cycles: 12174401 heartbeat IPC: 4.205 cumulative IPC: 3.655 (Simulation time: 00 hr 04 min 04 sec)
Heartbeat CPU 0 instructions: 45000298 cycles: 12277112 heartbeat IPC: 4.868 cumulative IPC: 3.665 (Simulation time: 00 hr 04 min 06 sec)
Heartbeat CPU 0 instructions: 45500304 cycles: 12378868 heartbeat IPC: 4.914 cumulative IPC: 3.676 (Simulation time: 00 hr 04 min 08 sec)
Heartbeat CPU 0 instructions: 46000308 cycles: 12479999 heartbeat IPC: 4.944 cumulative IPC: 3.686 (Simulation time: 00 hr 04 min 11 sec)
Heartbeat CPU 0 instructions: 46500312 cycles: 12599059 heartbeat IPC: 4.2 cumulative IPC: 3.691 (Simulation time: 00 hr 04 min 13 sec)
Heartbeat CPU 0 instructions: 47000319 cycles: 12711289 heartbeat IPC: 4.455 cumulative IPC: 3.698 (Simulation time: 00 hr 04 min 15 sec)
Heartbeat CPU 0 instructions: 47500321 cycles: 12825322 heartbeat IPC: 4.385 cumulative IPC: 3.704 (Simulation time: 00 hr 04 min 18 sec)
Heartbeat CPU 0 instructions: 48000323 cycles: 12951935 heartbeat IPC: 3.949 cumulative IPC: 3.706 (Simulation time: 00 hr 04 min 21 sec)
Heartbeat CPU 0 instructions: 48500326 cycles: 13105052 heartbeat IPC: 3.265 cumulative IPC: 3.701 (Simulation time: 00 hr 04 min 23 sec)
Heartbeat CPU 0 instructions: 49000328 cycles: 13242492 heartbeat IPC: 3.638 cumulative IPC: 3.7 (Simulation time: 00 hr 04 min 26 sec)
Heartbeat CPU 0 instructions: 49500328 cycles: 13371576 heartbeat IPC: 3.873 cumulative IPC: 3.702 (Simulation time: 00 hr 04 min 29 sec)
Warmup halting CPU 0 at instruction 50000007 cycle 13517312 for remainder of phase
Warmup finished CPU 0 instructions: 50000007 cycles: 13517312 cumulative IPC: 3.699 (Simulation time: 00 hr 04 min 32 sec)
Warmup complete CPU 0 instructions: 50000007 cycles: 13517312 cumulative IPC: 3.699 (Simulation time: 00 hr 04 min 32 sec)
Heartbeat CPU 0 instructions: 50000328 cycles: 13517427 heartbeat IPC: 3.428 cumulative IPC: 2.791 (Simulation time: 00 hr 04 min 32 sec)
Heartbeat CPU 0 instructions: 50500329 cycles: 14510599 heartbeat IPC: 0.5034 cumulative IPC: 0.5037 (Simulation time: 00 hr 04 min 40 sec)
Heartbeat CPU 0 instructions: 51000329 cycles: 15479647 heartbeat IPC: 0.516 cumulative IPC: 0.5098 (Simulation time: 00 hr 04 min 48 sec)
Heartbeat CPU 0 instructions: 51500329 cycles: 17191152 heartbeat IPC: 0.2921 cumulative IPC: 0.4084 (Simulation time: 00 hr 05 min 02 sec)
Heartbeat CPU 0 instructions: 52000329 cycles: 18056677 heartbeat IPC: 0.5777 cumulative IPC: 0.4407 (Simulation time: 00 hr 05 min 09 sec)
Heartbeat CPU 0 instructions: 52500332 cycles: 18786065 heartbeat IPC: 0.6855 cumulative IPC: 0.4746 (Simulation time: 00 hr 05 min 16 sec)
Heartbeat CPU 0 instructions: 53000334 cycles: 19867115 heartbeat IPC: 0.4625 cumulative IPC: 0.4725 (Simulation time: 00 hr 05 min 26 sec)
Heartbeat CPU 0 instructions: 53500334 cycles: 21694778 heartbeat IPC: 0.2736 cumulative IPC: 0.428 (Simulation time: 00 hr 05 min 41 sec)
Heartbeat CPU 0 instructions: 54000334 cycles: 22874038 heartbeat IPC: 0.424 cumulative IPC: 0.4275 (Simulation time: 00 hr 05 min 50 sec)
Heartbeat CPU 0 instructions: 54500334 cycles: 24235499 heartbeat IPC: 0.3673 cumulative IPC: 0.4199 (Simulation time: 00 hr 06 min 01 sec)
Heartbeat CPU 0 instructions: 55000334 cycles: 25350294 heartbeat IPC: 0.4485 cumulative IPC: 0.4226 (Simulation time: 00 hr 06 min 11 sec)
Heartbeat CPU 0 instructions: 55500334 cycles: 26014595 heartbeat IPC: 0.7527 cumulative IPC: 0.4401 (Simulation time: 00 hr 06 min 17 sec)
Heartbeat CPU 0 instructions: 56000338 cycles: 26939636 heartbeat IPC: 0.5405 cumulative IPC: 0.447 (Simulation time: 00 hr 06 min 25 sec)
Heartbeat CPU 0 instructions: 56500343 cycles: 27576256 heartbeat IPC: 0.7854 cumulative IPC: 0.4624 (Simulation time: 00 hr 06 min 31 sec)
Heartbeat CPU 0 instructions: 57000345 cycles: 28545028 heartbeat IPC: 0.5161 cumulative IPC: 0.4658 (Simulation time: 00 hr 06 min 39 sec)
Heartbeat CPU 0 instructions: 57500345 cycles: 29383222 heartbeat IPC: 0.5965 cumulative IPC: 0.4727 (Simulation time: 00 hr 06 min 46 sec)
Heartbeat CPU 0 instructions: 58000345 cycles: 30090706 heartbeat IPC: 0.7067 cumulative IPC: 0.4827 (Simulation time: 00 hr 06 min 52 sec)
Heartbeat CPU 0 instructions: 58500350 cycles: 30829613 heartbeat IPC: 0.6767 cumulative IPC: 0.491 (Simulation time: 00 hr 06 min 59 sec)
Heartbeat CPU 0 instructions: 59000353 cycles: 32970687 heartbeat IPC: 0.2335 cumulative IPC: 0.4627 (Simulation time: 00 hr 07 min 15 sec)
Heartbeat CPU 0 instructions: 59500355 cycles: 33622146 heartbeat IPC: 0.7675 cumulative IPC: 0.4725 (Simulation time: 00 hr 07 min 21 sec)
Heartbeat CPU 0 instructions: 60000358 cycles: 34790272 heartbeat IPC: 0.428 cumulative IPC: 0.4701 (Simulation time: 00 hr 07 min 31 sec)
Heartbeat CPU 0 instructions: 60500361 cycles: 37075413 heartbeat IPC: 0.2188 cumulative IPC: 0.4457 (Simulation time: 00 hr 07 min 49 sec)
Heartbeat CPU 0 instructions: 61000361 cycles: 38280844 heartbeat IPC: 0.4148 cumulative IPC: 0.4442 (Simulation time: 00 hr 07 min 58 sec)
Heartbeat CPU 0 instructions: 61500361 cycles: 38919635 heartbeat IPC: 0.7827 cumulative IPC: 0.4527 (Simulation time: 00 hr 08 min 04 sec)
Heartbeat CPU 0 instructions: 62000362 cycles: 39594216 heartbeat IPC: 0.7412 cumulative IPC: 0.4602 (Simulation time: 00 hr 08 min 10 sec)
Heartbeat CPU 0 instructions: 62500365 cycles: 40353558 heartbeat IPC: 0.6585 cumulative IPC: 0.4658 (Simulation time: 00 hr 08 min 17 sec)
Heartbeat CPU 0 instructions: 63000365 cycles: 41720223 heartbeat IPC: 0.3659 cumulative IPC: 0.461 (Simulation time: 00 hr 08 min 27 sec)
Heartbeat CPU 0 instructions: 63500365 cycles: 42708464 heartbeat IPC: 0.5059 cumulative IPC: 0.4625 (Simulation time: 00 hr 08 min 35 sec)
Heartbeat CPU 0 instructions: 64000367 cycles: 43401958 heartbeat IPC: 0.721 cumulative IPC: 0.4685 (Simulation time: 00 hr 08 min 41 sec)
Heartbeat CPU 0 instructions: 64500370 cycles: 44015030 heartbeat IPC: 0.8156 cumulative IPC: 0.4755 (Simulation time: 00 hr 08 min 47 sec)
Heartbeat CPU 0 instructions: 65000370 cycles: 45740287 heartbeat IPC: 0.2898 cumulative IPC: 0.4655 (Simulation time: 00 hr 09 min 00 sec)
Heartbeat CPU 0 instructions: 65500373 cycles: 46900248 heartbeat IPC: 0.4311 cumulative IPC: 0.4643 (Simulation time: 00 hr 09 min 10 sec)
Heartbeat CPU 0 instructions: 66000374 cycles: 47588189 heartbeat IPC: 0.7268 cumulative IPC: 0.4696 (Simulation time: 00 hr 09 min 16 sec)
Heartbeat CPU 0 instructions: 66500374 cycles: 48439100 heartbeat IPC: 0.5876 cumulative IPC: 0.4725 (Simulation time: 00 hr 09 min 23 sec)
Heartbeat CPU 0 instructions: 67000376 cycles: 50064437 heartbeat IPC: 0.3076 cumulative IPC: 0.4652 (Simulation time: 00 hr 09 min 35 sec)
Heartbeat CPU 0 instructions: 67500376 cycles: 51564808 heartbeat IPC: 0.3333 cumulative IPC: 0.46 (Simulation time: 00 hr 09 min 47 sec)
Heartbeat CPU 0 instructions: 68000379 cycles: 52724610 heartbeat IPC: 0.4311 cumulative IPC: 0.4591 (Simulation time: 00 hr 09 min 56 sec)
Heartbeat CPU 0 instructions: 68500381 cycles: 53968368 heartbeat IPC: 0.402 cumulative IPC: 0.4574 (Simulation time: 00 hr 10 min 06 sec)
Heartbeat CPU 0 instructions: 69000383 cycles: 55133053 heartbeat IPC: 0.4293 cumulative IPC: 0.4566 (Simulation time: 00 hr 10 min 15 sec)
Heartbeat CPU 0 instructions: 69500384 cycles: 55713307 heartbeat IPC: 0.8617 cumulative IPC: 0.4621 (Simulation time: 00 hr 10 min 20 sec)
Heartbeat CPU 0 instructions: 70000386 cycles: 56434823 heartbeat IPC: 0.693 cumulative IPC: 0.466 (Simulation time: 00 hr 10 min 26 sec)
Heartbeat CPU 0 instructions: 70500388 cycles: 57391221 heartbeat IPC: 0.5228 cumulative IPC: 0.4673 (Simulation time: 00 hr 10 min 34 sec)
Heartbeat CPU 0 instructions: 71000390 cycles: 58502969 heartbeat IPC: 0.4497 cumulative IPC: 0.4668 (Simulation time: 00 hr 10 min 43 sec)
Heartbeat CPU 0 instructions: 71500390 cycles: 59325973 heartbeat IPC: 0.6075 cumulative IPC: 0.4694 (Simulation time: 00 hr 10 min 50 sec)
Heartbeat CPU 0 instructions: 72000392 cycles: 61357277 heartbeat IPC: 0.2461 cumulative IPC: 0.4599 (Simulation time: 00 hr 11 min 06 sec)
Heartbeat CPU 0 instructions: 72500393 cycles: 63027382 heartbeat IPC: 0.2994 cumulative IPC: 0.4545 (Simulation time: 00 hr 11 min 18 sec)
Heartbeat CPU 0 instructions: 73000393 cycles: 64125727 heartbeat IPC: 0.4552 cumulative IPC: 0.4545 (Simulation time: 00 hr 11 min 27 sec)
Heartbeat CPU 0 instructions: 73500396 cycles: 65440334 heartbeat IPC: 0.3803 cumulative IPC: 0.4526 (Simulation time: 00 hr 11 min 37 sec)
Heartbeat CPU 0 instructions: 74000396 cycles: 66477000 heartbeat IPC: 0.4823 cumulative IPC: 0.4532 (Simulation time: 00 hr 11 min 46 sec)
Heartbeat CPU 0 instructions: 74500397 cycles: 67195878 heartbeat IPC: 0.6955 cumulative IPC: 0.4564 (Simulation time: 00 hr 11 min 52 sec)
Heartbeat CPU 0 instructions: 75000403 cycles: 68072597 heartbeat IPC: 0.5703 cumulative IPC: 0.4583 (Simulation time: 00 hr 11 min 59 sec)
Heartbeat CPU 0 instructions: 75500406 cycles: 69146389 heartbeat IPC: 0.4656 cumulative IPC: 0.4584 (Simulation time: 00 hr 12 min 09 sec)
Heartbeat CPU 0 instructions: 76000407 cycles: 71319278 heartbeat IPC: 0.2301 cumulative IPC: 0.4498 (Simulation time: 00 hr 12 min 26 sec)
Heartbeat CPU 0 instructions: 76500409 cycles: 72413938 heartbeat IPC: 0.4568 cumulative IPC: 0.4499 (Simulation time: 00 hr 12 min 35 sec)
Heartbeat CPU 0 instructions: 77000411 cycles: 73234583 heartbeat IPC: 0.6093 cumulative IPC: 0.4521 (Simulation time: 00 hr 12 min 42 sec)
Heartbeat CPU 0 instructions: 77500411 cycles: 74355989 heartbeat IPC: 0.4459 cumulative IPC: 0.452 (Simulation time: 00 hr 12 min 51 sec)
Heartbeat CPU 0 instructions: 78000414 cycles: 75880727 heartbeat IPC: 0.3279 cumulative IPC: 0.449 (Simulation time: 00 hr 13 min 03 sec)
Heartbeat CPU 0 instructions: 78500416 cycles: 76461524 heartbeat IPC: 0.8609 cumulative IPC: 0.4528 (Simulation time: 00 hr 13 min 08 sec)
Heartbeat CPU 0 instructions: 79000416 cycles: 76814392 heartbeat IPC: 1.417 cumulative IPC: 0.4582 (Simulation time: 00 hr 13 min 12 sec)
Heartbeat CPU 0 instructions: 79500420 cycles: 77510699 heartbeat IPC: 0.7181 cumulative IPC: 0.461 (Simulation time: 00 hr 13 min 18 sec)
Heartbeat CPU 0 instructions: 80000420 cycles: 78172220 heartbeat IPC: 0.7558 cumulative IPC: 0.464 (Simulation time: 00 hr 13 min 24 sec)
Heartbeat CPU 0 instructions: 80500420 cycles: 79152359 heartbeat IPC: 0.5101 cumulative IPC: 0.4647 (Simulation time: 00 hr 13 min 33 sec)
Heartbeat CPU 0 instructions: 81000420 cycles: 79814419 heartbeat IPC: 0.7552 cumulative IPC: 0.4676 (Simulation time: 00 hr 13 min 39 sec)
Heartbeat CPU 0 instructions: 81500421 cycles: 80383799 heartbeat IPC: 0.8781 cumulative IPC: 0.4711 (Simulation time: 00 hr 13 min 44 sec)
Heartbeat CPU 0 instructions: 82000421 cycles: 81748911 heartbeat IPC: 0.3663 cumulative IPC: 0.469 (Simulation time: 00 hr 13 min 55 sec)
Heartbeat CPU 0 instructions: 82500426 cycles: 84193877 heartbeat IPC: 0.2045 cumulative IPC: 0.4598 (Simulation time: 00 hr 14 min 14 sec)
Heartbeat CPU 0 instructions: 83000426 cycles: 86111575 heartbeat IPC: 0.2607 cumulative IPC: 0.4546 (Simulation time: 00 hr 14 min 28 sec)
Heartbeat CPU 0 instructions: 83500427 cycles: 87436154 heartbeat IPC: 0.3775 cumulative IPC: 0.4532 (Simulation time: 00 hr 14 min 38 sec)
Heartbeat CPU 0 instructions: 84000434 cycles: 88427403 heartbeat IPC: 0.5044 cumulative IPC: 0.4539 (Simulation time: 00 hr 14 min 47 sec)
Heartbeat CPU 0 instructions: 84500435 cycles: 89099534 heartbeat IPC: 0.7439 cumulative IPC: 0.4565 (Simulation time: 00 hr 14 min 53 sec)
Heartbeat CPU 0 instructions: 85000435 cycles: 90590574 heartbeat IPC: 0.3353 cumulative IPC: 0.4541 (Simulation time: 00 hr 15 min 04 sec)
Heartbeat CPU 0 instructions: 85500437 cycles: 92416142 heartbeat IPC: 0.2739 cumulative IPC: 0.4499 (Simulation time: 00 hr 15 min 17 sec)
Heartbeat CPU 0 instructions: 86000439 cycles: 93558279 heartbeat IPC: 0.4378 cumulative IPC: 0.4498 (Simulation time: 00 hr 15 min 26 sec)
Heartbeat CPU 0 instructions: 86500444 cycles: 94896293 heartbeat IPC: 0.3737 cumulative IPC: 0.4485 (Simulation time: 00 hr 15 min 37 sec)
Heartbeat CPU 0 instructions: 87000444 cycles: 96512980 heartbeat IPC: 0.3093 cumulative IPC: 0.4458 (Simulation time: 00 hr 15 min 49 sec)
Heartbeat CPU 0 instructions: 87500445 cycles: 97381987 heartbeat IPC: 0.5754 cumulative IPC: 0.4472 (Simulation time: 00 hr 15 min 56 sec)
Heartbeat CPU 0 instructions: 88000446 cycles: 97960698 heartbeat IPC: 0.864 cumulative IPC: 0.45 (Simulation time: 00 hr 16 min 02 sec)
Heartbeat CPU 0 instructions: 88500447 cycles: 99387435 heartbeat IPC: 0.3505 cumulative IPC: 0.4484 (Simulation time: 00 hr 16 min 13 sec)
Heartbeat CPU 0 instructions: 89000447 cycles: 101305416 heartbeat IPC: 0.2607 cumulative IPC: 0.4443 (Simulation time: 00 hr 16 min 27 sec)
Heartbeat CPU 0 instructions: 89500451 cycles: 102863305 heartbeat IPC: 0.3209 cumulative IPC: 0.4421 (Simulation time: 00 hr 16 min 39 sec)
Heartbeat CPU 0 instructions: 90000451 cycles: 104015583 heartbeat IPC: 0.4339 cumulative IPC: 0.442 (Simulation time: 00 hr 16 min 48 sec)
Heartbeat CPU 0 instructions: 90500455 cycles: 105010468 heartbeat IPC: 0.5026 cumulative IPC: 0.4427 (Simulation time: 00 hr 16 min 56 sec)
Heartbeat CPU 0 instructions: 91000455 cycles: 105807531 heartbeat IPC: 0.6273 cumulative IPC: 0.4443 (Simulation time: 00 hr 17 min 03 sec)
Heartbeat CPU 0 instructions: 91500456 cycles: 106375448 heartbeat IPC: 0.8804 cumulative IPC: 0.4469 (Simulation time: 00 hr 17 min 08 sec)
Heartbeat CPU 0 instructions: 92000458 cycles: 106618607 heartbeat IPC: 2.056 cumulative IPC: 0.4511 (Simulation time: 00 hr 17 min 12 sec)
Heartbeat CPU 0 instructions: 92500460 cycles: 106922439 heartbeat IPC: 1.646 cumulative IPC: 0.455 (Simulation time: 00 hr 17 min 16 sec)
Heartbeat CPU 0 instructions: 93000465 cycles: 107600258 heartbeat IPC: 0.7377 cumulative IPC: 0.457 (Simulation time: 00 hr 17 min 22 sec)
Heartbeat CPU 0 instructions: 93500467 cycles: 109512959 heartbeat IPC: 0.2614 cumulative IPC: 0.4532 (Simulation time: 00 hr 17 min 37 sec)
Heartbeat CPU 0 instructions: 94000468 cycles: 110983109 heartbeat IPC: 0.3401 cumulative IPC: 0.4514 (Simulation time: 00 hr 17 min 49 sec)
Heartbeat CPU 0 instructions: 94500470 cycles: 111943563 heartbeat IPC: 0.5206 cumulative IPC: 0.4521 (Simulation time: 00 hr 17 min 57 sec)
Heartbeat CPU 0 instructions: 95000471 cycles: 112577894 heartbeat IPC: 0.7882 cumulative IPC: 0.4543 (Simulation time: 00 hr 18 min 03 sec)
Heartbeat CPU 0 instructions: 95500472 cycles: 113080185 heartbeat IPC: 0.9954 cumulative IPC: 0.457 (Simulation time: 00 hr 18 min 08 sec)
Heartbeat CPU 0 instructions: 96000473 cycles: 113686980 heartbeat IPC: 0.824 cumulative IPC: 0.4592 (Simulation time: 00 hr 18 min 13 sec)
Heartbeat CPU 0 instructions: 96500479 cycles: 114105456 heartbeat IPC: 1.195 cumulative IPC: 0.4623 (Simulation time: 00 hr 18 min 17 sec)
Heartbeat CPU 0 instructions: 97000482 cycles: 114395026 heartbeat IPC: 1.727 cumulative IPC: 0.4659 (Simulation time: 00 hr 18 min 20 sec)
Heartbeat CPU 0 instructions: 97500482 cycles: 114647495 heartbeat IPC: 1.98 cumulative IPC: 0.4697 (Simulation time: 00 hr 18 min 23 sec)
Heartbeat CPU 0 instructions: 98000484 cycles: 115431729 heartbeat IPC: 0.6376 cumulative IPC: 0.471 (Simulation time: 00 hr 18 min 30 sec)
Heartbeat CPU 0 instructions: 98500485 cycles: 115815619 heartbeat IPC: 1.302 cumulative IPC: 0.4741 (Simulation time: 00 hr 18 min 35 sec)
Heartbeat CPU 0 instructions: 99000490 cycles: 116039894 heartbeat IPC: 2.229 cumulative IPC: 0.4779 (Simulation time: 00 hr 18 min 38 sec)
Heartbeat CPU 0 instructions: 99500490 cycles: 116675490 heartbeat IPC: 0.7867 cumulative IPC: 0.4799 (Simulation time: 00 hr 18 min 44 sec)
Heartbeat CPU 0 instructions: 100000490 cycles: 118104003 heartbeat IPC: 0.35 cumulative IPC: 0.4781 (Simulation time: 00 hr 18 min 55 sec)
Heartbeat CPU 0 instructions: 100500490 cycles: 119431798 heartbeat IPC: 0.3766 cumulative IPC: 0.4768 (Simulation time: 00 hr 19 min 06 sec)
Heartbeat CPU 0 instructions: 101000490 cycles: 120191379 heartbeat IPC: 0.6583 cumulative IPC: 0.4781 (Simulation time: 00 hr 19 min 12 sec)
Heartbeat CPU 0 instructions: 101500492 cycles: 120860508 heartbeat IPC: 0.7472 cumulative IPC: 0.4798 (Simulation time: 00 hr 19 min 18 sec)
Heartbeat CPU 0 instructions: 102000493 cycles: 121464625 heartbeat IPC: 0.8277 cumulative IPC: 0.4817 (Simulation time: 00 hr 19 min 23 sec)
Heartbeat CPU 0 instructions: 102500500 cycles: 121930137 heartbeat IPC: 1.074 cumulative IPC: 0.4843 (Simulation time: 00 hr 19 min 28 sec)
Heartbeat CPU 0 instructions: 103000503 cycles: 122362905 heartbeat IPC: 1.155 cumulative IPC: 0.4869 (Simulation time: 00 hr 19 min 33 sec)
Heartbeat CPU 0 instructions: 103500504 cycles: 123907836 heartbeat IPC: 0.3236 cumulative IPC: 0.4846 (Simulation time: 00 hr 19 min 45 sec)
Heartbeat CPU 0 instructions: 104000504 cycles: 125037770 heartbeat IPC: 0.4425 cumulative IPC: 0.4842 (Simulation time: 00 hr 19 min 55 sec)
Heartbeat CPU 0 instructions: 104500506 cycles: 125758612 heartbeat IPC: 0.6936 cumulative IPC: 0.4856 (Simulation time: 00 hr 20 min 01 sec)
Heartbeat CPU 0 instructions: 105000506 cycles: 126330390 heartbeat IPC: 0.8745 cumulative IPC: 0.4875 (Simulation time: 00 hr 20 min 06 sec)
Heartbeat CPU 0 instructions: 105500508 cycles: 126739801 heartbeat IPC: 1.221 cumulative IPC: 0.4902 (Simulation time: 00 hr 20 min 11 sec)
Heartbeat CPU 0 instructions: 106000508 cycles: 127252520 heartbeat IPC: 0.9752 cumulative IPC: 0.4924 (Simulation time: 00 hr 20 min 16 sec)
Heartbeat CPU 0 instructions: 106500509 cycles: 128354000 heartbeat IPC: 0.4539 cumulative IPC: 0.492 (Simulation time: 00 hr 20 min 25 sec)
Heartbeat CPU 0 instructions: 107000511 cycles: 130346476 heartbeat IPC: 0.2509 cumulative IPC: 0.4879 (Simulation time: 00 hr 20 min 40 sec)
Heartbeat CPU 0 instructions: 107500513 cycles: 131451357 heartbeat IPC: 0.4525 cumulative IPC: 0.4876 (Simulation time: 00 hr 20 min 49 sec)
Heartbeat CPU 0 instructions: 108000516 cycles: 131866825 heartbeat IPC: 1.203 cumulative IPC: 0.4901 (Simulation time: 00 hr 20 min 53 sec)
Heartbeat CPU 0 instructions: 108500523 cycles: 132458911 heartbeat IPC: 0.8445 cumulative IPC: 0.4918 (Simulation time: 00 hr 20 min 59 sec)
Heartbeat CPU 0 instructions: 109000529 cycles: 133341934 heartbeat IPC: 0.5662 cumulative IPC: 0.4924 (Simulation time: 00 hr 21 min 06 sec)
Heartbeat CPU 0 instructions: 109500533 cycles: 134357064 heartbeat IPC: 0.4926 cumulative IPC: 0.4924 (Simulation time: 00 hr 21 min 15 sec)
Heartbeat CPU 0 instructions: 110000536 cycles: 135638821 heartbeat IPC: 0.3901 cumulative IPC: 0.4913 (Simulation time: 00 hr 21 min 24 sec)
Heartbeat CPU 0 instructions: 110500536 cycles: 137380178 heartbeat IPC: 0.2871 cumulative IPC: 0.4884 (Simulation time: 00 hr 21 min 38 sec)
Heartbeat CPU 0 instructions: 111000536 cycles: 138449285 heartbeat IPC: 0.4677 cumulative IPC: 0.4883 (Simulation time: 00 hr 21 min 47 sec)
Heartbeat CPU 0 instructions: 111500537 cycles: 139252167 heartbeat IPC: 0.6228 cumulative IPC: 0.4891 (Simulation time: 00 hr 21 min 54 sec)
Heartbeat CPU 0 instructions: 112000539 cycles: 140026476 heartbeat IPC: 0.6457 cumulative IPC: 0.4901 (Simulation time: 00 hr 22 min 01 sec)
Heartbeat CPU 0 instructions: 112500539 cycles: 141296767 heartbeat IPC: 0.3936 cumulative IPC: 0.4891 (Simulation time: 00 hr 22 min 10 sec)
Heartbeat CPU 0 instructions: 113000540 cycles: 142401535 heartbeat IPC: 0.4526 cumulative IPC: 0.4888 (Simulation time: 00 hr 22 min 20 sec)
Heartbeat CPU 0 instructions: 113500541 cycles: 143138069 heartbeat IPC: 0.6789 cumulative IPC: 0.4899 (Simulation time: 00 hr 22 min 26 sec)
Heartbeat CPU 0 instructions: 114000541 cycles: 143720120 heartbeat IPC: 0.859 cumulative IPC: 0.4915 (Simulation time: 00 hr 22 min 31 sec)
Heartbeat CPU 0 instructions: 114500541 cycles: 144288798 heartbeat IPC: 0.8792 cumulative IPC: 0.4932 (Simulation time: 00 hr 22 min 37 sec)
Heartbeat CPU 0 instructions: 115000543 cycles: 145740439 heartbeat IPC: 0.3444 cumulative IPC: 0.4916 (Simulation time: 00 hr 22 min 48 sec)
Heartbeat CPU 0 instructions: 115500543 cycles: 147680837 heartbeat IPC: 0.2577 cumulative IPC: 0.4882 (Simulation time: 00 hr 23 min 02 sec)
Heartbeat CPU 0 instructions: 116000547 cycles: 148520444 heartbeat IPC: 0.5955 cumulative IPC: 0.4889 (Simulation time: 00 hr 23 min 10 sec)
Heartbeat CPU 0 instructions: 116500551 cycles: 150088614 heartbeat IPC: 0.3188 cumulative IPC: 0.4869 (Simulation time: 00 hr 23 min 23 sec)
Heartbeat CPU 0 instructions: 117000554 cycles: 151152745 heartbeat IPC: 0.4699 cumulative IPC: 0.4868 (Simulation time: 00 hr 23 min 32 sec)
Heartbeat CPU 0 instructions: 117500555 cycles: 151906364 heartbeat IPC: 0.6635 cumulative IPC: 0.4878 (Simulation time: 00 hr 23 min 38 sec)
Heartbeat CPU 0 instructions: 118000555 cycles: 152666759 heartbeat IPC: 0.6576 cumulative IPC: 0.4887 (Simulation time: 00 hr 23 min 45 sec)
Heartbeat CPU 0 instructions: 118500557 cycles: 153063515 heartbeat IPC: 1.26 cumulative IPC: 0.4909 (Simulation time: 00 hr 23 min 49 sec)
Heartbeat CPU 0 instructions: 119000558 cycles: 153636231 heartbeat IPC: 0.873 cumulative IPC: 0.4924 (Simulation time: 00 hr 23 min 55 sec)
Heartbeat CPU 0 instructions: 119500560 cycles: 155192282 heartbeat IPC: 0.3213 cumulative IPC: 0.4906 (Simulation time: 00 hr 24 min 07 sec)
Heartbeat CPU 0 instructions: 120000562 cycles: 156851465 heartbeat IPC: 0.3014 cumulative IPC: 0.4884 (Simulation time: 00 hr 24 min 20 sec)
Heartbeat CPU 0 instructions: 120500567 cycles: 158180086 heartbeat IPC: 0.3763 cumulative IPC: 0.4873 (Simulation time: 00 hr 24 min 30 sec)
Heartbeat CPU 0 instructions: 121000567 cycles: 159401118 heartbeat IPC: 0.4095 cumulative IPC: 0.4867 (Simulation time: 00 hr 24 min 40 sec)
Heartbeat CPU 0 instructions: 121500567 cycles: 160452130 heartbeat IPC: 0.4757 cumulative IPC: 0.4866 (Simulation time: 00 hr 24 min 49 sec)
Heartbeat CPU 0 instructions: 122000569 cycles: 161435717 heartbeat IPC: 0.5083 cumulative IPC: 0.4868 (Simulation time: 00 hr 24 min 57 sec)
Heartbeat CPU 0 instructions: 122500569 cycles: 162500393 heartbeat IPC: 0.4696 cumulative IPC: 0.4866 (Simulation time: 00 hr 25 min 06 sec)
Heartbeat CPU 0 instructions: 123000570 cycles: 163996078 heartbeat IPC: 0.3343 cumulative IPC: 0.4851 (Simulation time: 00 hr 25 min 18 sec)
Heartbeat CPU 0 instructions: 123500573 cycles: 165063679 heartbeat IPC: 0.4683 cumulative IPC: 0.485 (Simulation time: 00 hr 25 min 26 sec)
Heartbeat CPU 0 instructions: 124000574 cycles: 165746927 heartbeat IPC: 0.7318 cumulative IPC: 0.4861 (Simulation time: 00 hr 25 min 32 sec)
Heartbeat CPU 0 instructions: 124500575 cycles: 166286888 heartbeat IPC: 0.926 cumulative IPC: 0.4877 (Simulation time: 00 hr 25 min 38 sec)
Heartbeat CPU 0 instructions: 125000575 cycles: 167828102 heartbeat IPC: 0.3244 cumulative IPC: 0.486 (Simulation time: 00 hr 25 min 50 sec)
Heartbeat CPU 0 instructions: 125500582 cycles: 169066782 heartbeat IPC: 0.4037 cumulative IPC: 0.4854 (Simulation time: 00 hr 26 min 00 sec)
Heartbeat CPU 0 instructions: 126000584 cycles: 169816325 heartbeat IPC: 0.6671 cumulative IPC: 0.4863 (Simulation time: 00 hr 26 min 06 sec)
Heartbeat CPU 0 instructions: 126500585 cycles: 170774683 heartbeat IPC: 0.5217 cumulative IPC: 0.4865 (Simulation time: 00 hr 26 min 17 sec)
Heartbeat CPU 0 instructions: 127000586 cycles: 172347489 heartbeat IPC: 0.3179 cumulative IPC: 0.4848 (Simulation time: 00 hr 26 min 31 sec)
Heartbeat CPU 0 instructions: 127500592 cycles: 173405885 heartbeat IPC: 0.4724 cumulative IPC: 0.4847 (Simulation time: 00 hr 26 min 39 sec)
Heartbeat CPU 0 instructions: 128000594 cycles: 174441357 heartbeat IPC: 0.4829 cumulative IPC: 0.4847 (Simulation time: 00 hr 26 min 47 sec)
Heartbeat CPU 0 instructions: 128500601 cycles: 175305421 heartbeat IPC: 0.5787 cumulative IPC: 0.4852 (Simulation time: 00 hr 26 min 55 sec)
Heartbeat CPU 0 instructions: 129000602 cycles: 176351001 heartbeat IPC: 0.4782 cumulative IPC: 0.4852 (Simulation time: 00 hr 27 min 03 sec)
Heartbeat CPU 0 instructions: 129500608 cycles: 177887379 heartbeat IPC: 0.3254 cumulative IPC: 0.4837 (Simulation time: 00 hr 27 min 18 sec)
Heartbeat CPU 0 instructions: 130000610 cycles: 179184903 heartbeat IPC: 0.3854 cumulative IPC: 0.4829 (Simulation time: 00 hr 27 min 28 sec)
Heartbeat CPU 0 instructions: 130500617 cycles: 179940752 heartbeat IPC: 0.6615 cumulative IPC: 0.4837 (Simulation time: 00 hr 27 min 35 sec)
Heartbeat CPU 0 instructions: 131000621 cycles: 180708537 heartbeat IPC: 0.6512 cumulative IPC: 0.4845 (Simulation time: 00 hr 27 min 41 sec)
Heartbeat CPU 0 instructions: 131500621 cycles: 181184604 heartbeat IPC: 1.05 cumulative IPC: 0.4861 (Simulation time: 00 hr 27 min 46 sec)
Heartbeat CPU 0 instructions: 132000623 cycles: 182785953 heartbeat IPC: 0.3122 cumulative IPC: 0.4844 (Simulation time: 00 hr 27 min 58 sec)
Heartbeat CPU 0 instructions: 132500628 cycles: 183981744 heartbeat IPC: 0.4181 cumulative IPC: 0.484 (Simulation time: 00 hr 28 min 08 sec)
Heartbeat CPU 0 instructions: 133000628 cycles: 184894373 heartbeat IPC: 0.5479 cumulative IPC: 0.4843 (Simulation time: 00 hr 28 min 15 sec)
Heartbeat CPU 0 instructions: 133500633 cycles: 186033930 heartbeat IPC: 0.4388 cumulative IPC: 0.484 (Simulation time: 00 hr 28 min 24 sec)
Heartbeat CPU 0 instructions: 134000636 cycles: 187438689 heartbeat IPC: 0.3559 cumulative IPC: 0.483 (Simulation time: 00 hr 28 min 35 sec)
Heartbeat CPU 0 instructions: 134500637 cycles: 188559197 heartbeat IPC: 0.4462 cumulative IPC: 0.4827 (Simulation time: 00 hr 28 min 44 sec)
Heartbeat CPU 0 instructions: 135000637 cycles: 189463803 heartbeat IPC: 0.5527 cumulative IPC: 0.4831 (Simulation time: 00 hr 28 min 52 sec)
Heartbeat CPU 0 instructions: 135500642 cycles: 190831681 heartbeat IPC: 0.3655 cumulative IPC: 0.4822 (Simulation time: 00 hr 29 min 03 sec)
Heartbeat CPU 0 instructions: 136000642 cycles: 192199302 heartbeat IPC: 0.3656 cumulative IPC: 0.4813 (Simulation time: 00 hr 29 min 14 sec)
Heartbeat CPU 0 instructions: 136500643 cycles: 192749184 heartbeat IPC: 0.9093 cumulative IPC: 0.4826 (Simulation time: 00 hr 29 min 19 sec)
Heartbeat CPU 0 instructions: 137000646 cycles: 193316560 heartbeat IPC: 0.8813 cumulative IPC: 0.4839 (Simulation time: 00 hr 29 min 25 sec)
Heartbeat CPU 0 instructions: 137500651 cycles: 194306153 heartbeat IPC: 0.5053 cumulative IPC: 0.484 (Simulation time: 00 hr 29 min 33 sec)
Heartbeat CPU 0 instructions: 138000651 cycles: 195542428 heartbeat IPC: 0.4044 cumulative IPC: 0.4835 (Simulation time: 00 hr 29 min 43 sec)
Heartbeat CPU 0 instructions: 138500652 cycles: 196617350 heartbeat IPC: 0.4652 cumulative IPC: 0.4833 (Simulation time: 00 hr 29 min 52 sec)
Heartbeat CPU 0 instructions: 139000652 cycles: 197141160 heartbeat IPC: 0.9545 cumulative IPC: 0.4847 (Simulation time: 00 hr 29 min 57 sec)
Heartbeat CPU 0 instructions: 139500652 cycles: 197896520 heartbeat IPC: 0.6619 cumulative IPC: 0.4854 (Simulation time: 00 hr 30 min 03 sec)
Heartbeat CPU 0 instructions: 140000653 cycles: 199003449 heartbeat IPC: 0.4517 cumulative IPC: 0.4852 (Simulation time: 00 hr 30 min 12 sec)
Heartbeat CPU 0 instructions: 140500660 cycles: 200752142 heartbeat IPC: 0.2859 cumulative IPC: 0.4834 (Simulation time: 00 hr 30 min 25 sec)
Heartbeat CPU 0 instructions: 141000660 cycles: 202719940 heartbeat IPC: 0.2541 cumulative IPC: 0.481 (Simulation time: 00 hr 30 min 40 sec)
Heartbeat CPU 0 instructions: 141500665 cycles: 204134454 heartbeat IPC: 0.3535 cumulative IPC: 0.48 (Simulation time: 00 hr 30 min 51 sec)
Heartbeat CPU 0 instructions: 142000665 cycles: 205302413 heartbeat IPC: 0.4281 cumulative IPC: 0.4797 (Simulation time: 00 hr 31 min 01 sec)
Heartbeat CPU 0 instructions: 142500665 cycles: 206155489 heartbeat IPC: 0.5861 cumulative IPC: 0.4802 (Simulation time: 00 hr 31 min 08 sec)
Heartbeat CPU 0 instructions: 143000666 cycles: 207886152 heartbeat IPC: 0.2889 cumulative IPC: 0.4785 (Simulation time: 00 hr 31 min 22 sec)
Heartbeat CPU 0 instructions: 143500666 cycles: 209229494 heartbeat IPC: 0.3722 cumulative IPC: 0.4777 (Simulation time: 00 hr 31 min 33 sec)
Heartbeat CPU 0 instructions: 144000668 cycles: 209990317 heartbeat IPC: 0.6572 cumulative IPC: 0.4784 (Simulation time: 00 hr 31 min 40 sec)
Heartbeat CPU 0 instructions: 144500674 cycles: 210564927 heartbeat IPC: 0.8702 cumulative IPC: 0.4796 (Simulation time: 00 hr 31 min 45 sec)
Heartbeat CPU 0 instructions: 145000679 cycles: 211361719 heartbeat IPC: 0.6275 cumulative IPC: 0.4802 (Simulation time: 00 hr 31 min 52 sec)
Heartbeat CPU 0 instructions: 145500679 cycles: 213194440 heartbeat IPC: 0.2728 cumulative IPC: 0.4783 (Simulation time: 00 hr 32 min 05 sec)
Heartbeat CPU 0 instructions: 146000679 cycles: 213733811 heartbeat IPC: 0.927 cumulative IPC: 0.4795 (Simulation time: 00 hr 32 min 10 sec)
Heartbeat CPU 0 instructions: 146500684 cycles: 214604086 heartbeat IPC: 0.5745 cumulative IPC: 0.4799 (Simulation time: 00 hr 32 min 18 sec)
Heartbeat CPU 0 instructions: 147000688 cycles: 215458350 heartbeat IPC: 0.5853 cumulative IPC: 0.4803 (Simulation time: 00 hr 32 min 25 sec)
Heartbeat CPU 0 instructions: 147500692 cycles: 216199800 heartbeat IPC: 0.6744 cumulative IPC: 0.4811 (Simulation time: 00 hr 32 min 32 sec)
Heartbeat CPU 0 instructions: 148000695 cycles: 216529465 heartbeat IPC: 1.517 cumulative IPC: 0.4827 (Simulation time: 00 hr 32 min 36 sec)
Heartbeat CPU 0 instructions: 148500696 cycles: 216860717 heartbeat IPC: 1.509 cumulative IPC: 0.4844 (Simulation time: 00 hr 32 min 40 sec)
Heartbeat CPU 0 instructions: 149000699 cycles: 217155984 heartbeat IPC: 1.693 cumulative IPC: 0.4862 (Simulation time: 00 hr 32 min 43 sec)
Heartbeat CPU 0 instructions: 149500699 cycles: 217621764 heartbeat IPC: 1.073 cumulative IPC: 0.4875 (Simulation time: 00 hr 32 min 48 sec)
Heartbeat CPU 0 instructions: 150000699 cycles: 218131154 heartbeat IPC: 0.9816 cumulative IPC: 0.4887 (Simulation time: 00 hr 32 min 53 sec)
Heartbeat CPU 0 instructions: 150500699 cycles: 218521033 heartbeat IPC: 1.282 cumulative IPC: 0.4902 (Simulation time: 00 hr 32 min 57 sec)
Heartbeat CPU 0 instructions: 151000702 cycles: 218882354 heartbeat IPC: 1.384 cumulative IPC: 0.4918 (Simulation time: 00 hr 33 min 01 sec)
Heartbeat CPU 0 instructions: 151500702 cycles: 219217734 heartbeat IPC: 1.491 cumulative IPC: 0.4934 (Simulation time: 00 hr 33 min 05 sec)
Heartbeat CPU 0 instructions: 152000702 cycles: 219824279 heartbeat IPC: 0.8243 cumulative IPC: 0.4944 (Simulation time: 00 hr 33 min 11 sec)
Heartbeat CPU 0 instructions: 152500702 cycles: 221137569 heartbeat IPC: 0.3807 cumulative IPC: 0.4937 (Simulation time: 00 hr 33 min 21 sec)
Heartbeat CPU 0 instructions: 153000704 cycles: 222036427 heartbeat IPC: 0.5563 cumulative IPC: 0.494 (Simulation time: 00 hr 33 min 28 sec)
Heartbeat CPU 0 instructions: 153500705 cycles: 223249883 heartbeat IPC: 0.412 cumulative IPC: 0.4935 (Simulation time: 00 hr 33 min 38 sec)
Heartbeat CPU 0 instructions: 154000705 cycles: 224820212 heartbeat IPC: 0.3184 cumulative IPC: 0.4922 (Simulation time: 00 hr 33 min 51 sec)
Heartbeat CPU 0 instructions: 154500705 cycles: 226484216 heartbeat IPC: 0.3005 cumulative IPC: 0.4907 (Simulation time: 00 hr 34 min 04 sec)
Heartbeat CPU 0 instructions: 155000706 cycles: 227247825 heartbeat IPC: 0.6548 cumulative IPC: 0.4913 (Simulation time: 00 hr 34 min 10 sec)
Heartbeat CPU 0 instructions: 155500707 cycles: 227911512 heartbeat IPC: 0.7534 cumulative IPC: 0.4921 (Simulation time: 00 hr 34 min 16 sec)
Heartbeat CPU 0 instructions: 156000710 cycles: 228897466 heartbeat IPC: 0.5071 cumulative IPC: 0.4922 (Simulation time: 00 hr 34 min 24 sec)
Heartbeat CPU 0 instructions: 156500711 cycles: 231043265 heartbeat IPC: 0.233 cumulative IPC: 0.4896 (Simulation time: 00 hr 34 min 41 sec)
Heartbeat CPU 0 instructions: 157000718 cycles: 232268120 heartbeat IPC: 0.4082 cumulative IPC: 0.4891 (Simulation time: 00 hr 34 min 50 sec)
Heartbeat CPU 0 instructions: 157500720 cycles: 233076805 heartbeat IPC: 0.6183 cumulative IPC: 0.4896 (Simulation time: 00 hr 34 min 57 sec)
Heartbeat CPU 0 instructions: 158000720 cycles: 233950277 heartbeat IPC: 0.5724 cumulative IPC: 0.4899 (Simulation time: 00 hr 35 min 04 sec)
Heartbeat CPU 0 instructions: 158500727 cycles: 235615173 heartbeat IPC: 0.3003 cumulative IPC: 0.4885 (Simulation time: 00 hr 35 min 17 sec)
Heartbeat CPU 0 instructions: 159000727 cycles: 237266448 heartbeat IPC: 0.3028 cumulative IPC: 0.4872 (Simulation time: 00 hr 35 min 29 sec)
Heartbeat CPU 0 instructions: 159500731 cycles: 239181293 heartbeat IPC: 0.2611 cumulative IPC: 0.4852 (Simulation time: 00 hr 35 min 44 sec)
Heartbeat CPU 0 instructions: 160000737 cycles: 240139766 heartbeat IPC: 0.5217 cumulative IPC: 0.4854 (Simulation time: 00 hr 35 min 52 sec)
Heartbeat CPU 0 instructions: 160500737 cycles: 241568316 heartbeat IPC: 0.35 cumulative IPC: 0.4845 (Simulation time: 00 hr 36 min 03 sec)
Heartbeat CPU 0 instructions: 161000739 cycles: 242850158 heartbeat IPC: 0.3901 cumulative IPC: 0.484 (Simulation time: 00 hr 36 min 14 sec)
Heartbeat CPU 0 instructions: 161500740 cycles: 244122306 heartbeat IPC: 0.393 cumulative IPC: 0.4835 (Simulation time: 00 hr 36 min 25 sec)
Heartbeat CPU 0 instructions: 162000741 cycles: 245319366 heartbeat IPC: 0.4177 cumulative IPC: 0.4832 (Simulation time: 00 hr 36 min 34 sec)
Heartbeat CPU 0 instructions: 162500741 cycles: 246737748 heartbeat IPC: 0.3525 cumulative IPC: 0.4824 (Simulation time: 00 hr 36 min 44 sec)
Heartbeat CPU 0 instructions: 163000742 cycles: 248617102 heartbeat IPC: 0.266 cumulative IPC: 0.4807 (Simulation time: 00 hr 36 min 58 sec)
Heartbeat CPU 0 instructions: 163500742 cycles: 249543395 heartbeat IPC: 0.5398 cumulative IPC: 0.4809 (Simulation time: 00 hr 37 min 06 sec)
Heartbeat CPU 0 instructions: 164000744 cycles: 250975797 heartbeat IPC: 0.3491 cumulative IPC: 0.4801 (Simulation time: 00 hr 37 min 16 sec)
Heartbeat CPU 0 instructions: 164500746 cycles: 253378444 heartbeat IPC: 0.2081 cumulative IPC: 0.4774 (Simulation time: 00 hr 37 min 34 sec)
Heartbeat CPU 0 instructions: 165000753 cycles: 254662099 heartbeat IPC: 0.3895 cumulative IPC: 0.4769 (Simulation time: 00 hr 37 min 44 sec)
Heartbeat CPU 0 instructions: 165500756 cycles: 255186471 heartbeat IPC: 0.9535 cumulative IPC: 0.4779 (Simulation time: 00 hr 37 min 49 sec)
Heartbeat CPU 0 instructions: 166000757 cycles: 255724338 heartbeat IPC: 0.9296 cumulative IPC: 0.4789 (Simulation time: 00 hr 37 min 54 sec)
Heartbeat CPU 0 instructions: 166500757 cycles: 257421843 heartbeat IPC: 0.2945 cumulative IPC: 0.4776 (Simulation time: 00 hr 38 min 07 sec)
Heartbeat CPU 0 instructions: 167000760 cycles: 258817574 heartbeat IPC: 0.3582 cumulative IPC: 0.477 (Simulation time: 00 hr 38 min 18 sec)
Heartbeat CPU 0 instructions: 167500764 cycles: 259240904 heartbeat IPC: 1.181 cumulative IPC: 0.4782 (Simulation time: 00 hr 38 min 22 sec)
Heartbeat CPU 0 instructions: 168000764 cycles: 259754747 heartbeat IPC: 0.9731 cumulative IPC: 0.4792 (Simulation time: 00 hr 38 min 27 sec)
Heartbeat CPU 0 instructions: 168500767 cycles: 260684977 heartbeat IPC: 0.5375 cumulative IPC: 0.4794 (Simulation time: 00 hr 38 min 34 sec)
Heartbeat CPU 0 instructions: 169000770 cycles: 261517005 heartbeat IPC: 0.6009 cumulative IPC: 0.4798 (Simulation time: 00 hr 38 min 41 sec)
Heartbeat CPU 0 instructions: 169500773 cycles: 262935616 heartbeat IPC: 0.3525 cumulative IPC: 0.4791 (Simulation time: 00 hr 38 min 51 sec)
Heartbeat CPU 0 instructions: 170000773 cycles: 264255891 heartbeat IPC: 0.3787 cumulative IPC: 0.4786 (Simulation time: 00 hr 39 min 01 sec)
Heartbeat CPU 0 instructions: 170500780 cycles: 265446827 heartbeat IPC: 0.4198 cumulative IPC: 0.4783 (Simulation time: 00 hr 39 min 11 sec)
Heartbeat CPU 0 instructions: 171000780 cycles: 267638633 heartbeat IPC: 0.2281 cumulative IPC: 0.4762 (Simulation time: 00 hr 39 min 27 sec)
Heartbeat CPU 0 instructions: 171500780 cycles: 268911311 heartbeat IPC: 0.3929 cumulative IPC: 0.4757 (Simulation time: 00 hr 39 min 37 sec)
Heartbeat CPU 0 instructions: 172000780 cycles: 270325761 heartbeat IPC: 0.3535 cumulative IPC: 0.4751 (Simulation time: 00 hr 39 min 47 sec)
Heartbeat CPU 0 instructions: 172500782 cycles: 271449368 heartbeat IPC: 0.445 cumulative IPC: 0.4749 (Simulation time: 00 hr 39 min 56 sec)
Heartbeat CPU 0 instructions: 173000782 cycles: 272115459 heartbeat IPC: 0.7506 cumulative IPC: 0.4756 (Simulation time: 00 hr 40 min 02 sec)
Heartbeat CPU 0 instructions: 173500784 cycles: 273016737 heartbeat IPC: 0.5548 cumulative IPC: 0.4759 (Simulation time: 00 hr 40 min 09 sec)
Heartbeat CPU 0 instructions: 174000784 cycles: 274281828 heartbeat IPC: 0.3952 cumulative IPC: 0.4755 (Simulation time: 00 hr 40 min 19 sec)
Heartbeat CPU 0 instructions: 174500785 cycles: 275321761 heartbeat IPC: 0.4808 cumulative IPC: 0.4755 (Simulation time: 00 hr 40 min 28 sec)
Heartbeat CPU 0 instructions: 175000788 cycles: 276938252 heartbeat IPC: 0.3093 cumulative IPC: 0.4745 (Simulation time: 00 hr 40 min 39 sec)
Heartbeat CPU 0 instructions: 175500790 cycles: 278616055 heartbeat IPC: 0.298 cumulative IPC: 0.4734 (Simulation time: 00 hr 40 min 51 sec)
Heartbeat CPU 0 instructions: 176000793 cycles: 280341340 heartbeat IPC: 0.2898 cumulative IPC: 0.4722 (Simulation time: 00 hr 41 min 05 sec)
Heartbeat CPU 0 instructions: 176500796 cycles: 282074160 heartbeat IPC: 0.2885 cumulative IPC: 0.471 (Simulation time: 00 hr 41 min 17 sec)
Heartbeat CPU 0 instructions: 177000801 cycles: 283095524 heartbeat IPC: 0.4895 cumulative IPC: 0.4711 (Simulation time: 00 hr 41 min 25 sec)
Heartbeat CPU 0 instructions: 177500801 cycles: 283581938 heartbeat IPC: 1.028 cumulative IPC: 0.4721 (Simulation time: 00 hr 41 min 30 sec)
Heartbeat CPU 0 instructions: 178000804 cycles: 284480332 heartbeat IPC: 0.5566 cumulative IPC: 0.4724 (Simulation time: 00 hr 41 min 37 sec)
Heartbeat CPU 0 instructions: 178500804 cycles: 285554955 heartbeat IPC: 0.4653 cumulative IPC: 0.4724 (Simulation time: 00 hr 41 min 46 sec)
Heartbeat CPU 0 instructions: 179000805 cycles: 286469750 heartbeat IPC: 0.5466 cumulative IPC: 0.4726 (Simulation time: 00 hr 41 min 53 sec)
Heartbeat CPU 0 instructions: 179500807 cycles: 287160947 heartbeat IPC: 0.7234 cumulative IPC: 0.4732 (Simulation time: 00 hr 41 min 59 sec)
Heartbeat CPU 0 instructions: 180000807 cycles: 287778841 heartbeat IPC: 0.8092 cumulative IPC: 0.474 (Simulation time: 00 hr 42 min 04 sec)
Heartbeat CPU 0 instructions: 180500807 cycles: 288369320 heartbeat IPC: 0.8468 cumulative IPC: 0.4748 (Simulation time: 00 hr 42 min 09 sec)
Heartbeat CPU 0 instructions: 181000814 cycles: 288896513 heartbeat IPC: 0.9484 cumulative IPC: 0.4757 (Simulation time: 00 hr 42 min 14 sec)
Heartbeat CPU 0 instructions: 181500814 cycles: 291000547 heartbeat IPC: 0.2376 cumulative IPC: 0.4739 (Simulation time: 00 hr 42 min 29 sec)
Heartbeat CPU 0 instructions: 182000821 cycles: 292850298 heartbeat IPC: 0.2703 cumulative IPC: 0.4726 (Simulation time: 00 hr 42 min 43 sec)
Heartbeat CPU 0 instructions: 182500827 cycles: 294008423 heartbeat IPC: 0.4317 cumulative IPC: 0.4724 (Simulation time: 00 hr 42 min 51 sec)
Heartbeat CPU 0 instructions: 183000828 cycles: 295386091 heartbeat IPC: 0.3629 cumulative IPC: 0.4719 (Simulation time: 00 hr 43 min 01 sec)
Heartbeat CPU 0 instructions: 183500828 cycles: 297115280 heartbeat IPC: 0.2892 cumulative IPC: 0.4707 (Simulation time: 00 hr 43 min 14 sec)
Heartbeat CPU 0 instructions: 184000832 cycles: 298084112 heartbeat IPC: 0.5161 cumulative IPC: 0.4709 (Simulation time: 00 hr 43 min 22 sec)
Heartbeat CPU 0 instructions: 184500836 cycles: 298821941 heartbeat IPC: 0.6777 cumulative IPC: 0.4714 (Simulation time: 00 hr 43 min 27 sec)
Heartbeat CPU 0 instructions: 185000836 cycles: 300419848 heartbeat IPC: 0.3129 cumulative IPC: 0.4705 (Simulation time: 00 hr 43 min 39 sec)
Heartbeat CPU 0 instructions: 185500836 cycles: 301463632 heartbeat IPC: 0.479 cumulative IPC: 0.4706 (Simulation time: 00 hr 43 min 47 sec)
Heartbeat CPU 0 instructions: 186000837 cycles: 302709677 heartbeat IPC: 0.4013 cumulative IPC: 0.4703 (Simulation time: 00 hr 43 min 57 sec)
Heartbeat CPU 0 instructions: 186500837 cycles: 304077308 heartbeat IPC: 0.3656 cumulative IPC: 0.4698 (Simulation time: 00 hr 44 min 06 sec)
Heartbeat CPU 0 instructions: 187000837 cycles: 306412511 heartbeat IPC: 0.2141 cumulative IPC: 0.4677 (Simulation time: 00 hr 44 min 23 sec)
Heartbeat CPU 0 instructions: 187500844 cycles: 307554487 heartbeat IPC: 0.4378 cumulative IPC: 0.4676 (Simulation time: 00 hr 44 min 31 sec)
Heartbeat CPU 0 instructions: 188000851 cycles: 308380752 heartbeat IPC: 0.6051 cumulative IPC: 0.468 (Simulation time: 00 hr 44 min 38 sec)
Heartbeat CPU 0 instructions: 188500856 cycles: 309395936 heartbeat IPC: 0.4925 cumulative IPC: 0.4681 (Simulation time: 00 hr 44 min 45 sec)
Heartbeat CPU 0 instructions: 189000856 cycles: 311046022 heartbeat IPC: 0.303 cumulative IPC: 0.4672 (Simulation time: 00 hr 44 min 57 sec)
Heartbeat CPU 0 instructions: 189500857 cycles: 312514934 heartbeat IPC: 0.3404 cumulative IPC: 0.4666 (Simulation time: 00 hr 45 min 08 sec)
Heartbeat CPU 0 instructions: 190000857 cycles: 313499261 heartbeat IPC: 0.508 cumulative IPC: 0.4667 (Simulation time: 00 hr 45 min 15 sec)
Heartbeat CPU 0 instructions: 190500857 cycles: 314292524 heartbeat IPC: 0.6303 cumulative IPC: 0.4671 (Simulation time: 00 hr 45 min 21 sec)
Heartbeat CPU 0 instructions: 191000862 cycles: 316027670 heartbeat IPC: 0.2882 cumulative IPC: 0.4661 (Simulation time: 00 hr 45 min 33 sec)
Heartbeat CPU 0 instructions: 191500866 cycles: 317234097 heartbeat IPC: 0.4145 cumulative IPC: 0.4659 (Simulation time: 00 hr 45 min 42 sec)
Heartbeat CPU 0 instructions: 192000867 cycles: 318709593 heartbeat IPC: 0.3389 cumulative IPC: 0.4653 (Simulation time: 00 hr 45 min 53 sec)
Heartbeat CPU 0 instructions: 192500872 cycles: 320230213 heartbeat IPC: 0.3288 cumulative IPC: 0.4646 (Simulation time: 00 hr 46 min 05 sec)
Heartbeat CPU 0 instructions: 193000873 cycles: 321559895 heartbeat IPC: 0.376 cumulative IPC: 0.4642 (Simulation time: 00 hr 46 min 15 sec)
Heartbeat CPU 0 instructions: 193500874 cycles: 323341386 heartbeat IPC: 0.2807 cumulative IPC: 0.4632 (Simulation time: 00 hr 46 min 28 sec)
Heartbeat CPU 0 instructions: 194000876 cycles: 324624547 heartbeat IPC: 0.3897 cumulative IPC: 0.4629 (Simulation time: 00 hr 46 min 37 sec)
Heartbeat CPU 0 instructions: 194500878 cycles: 325711305 heartbeat IPC: 0.4601 cumulative IPC: 0.4629 (Simulation time: 00 hr 46 min 45 sec)
Heartbeat CPU 0 instructions: 195000879 cycles: 326858628 heartbeat IPC: 0.4358 cumulative IPC: 0.4628 (Simulation time: 00 hr 46 min 54 sec)
Heartbeat CPU 0 instructions: 195500879 cycles: 327775875 heartbeat IPC: 0.5451 cumulative IPC: 0.463 (Simulation time: 00 hr 47 min 01 sec)
Heartbeat CPU 0 instructions: 196000879 cycles: 329456016 heartbeat IPC: 0.2976 cumulative IPC: 0.4621 (Simulation time: 00 hr 47 min 13 sec)
Heartbeat CPU 0 instructions: 196500879 cycles: 331615368 heartbeat IPC: 0.2316 cumulative IPC: 0.4606 (Simulation time: 00 hr 47 min 28 sec)
Heartbeat CPU 0 instructions: 197000885 cycles: 332948727 heartbeat IPC: 0.375 cumulative IPC: 0.4602 (Simulation time: 00 hr 47 min 37 sec)
Heartbeat CPU 0 instructions: 197500886 cycles: 334518577 heartbeat IPC: 0.3185 cumulative IPC: 0.4595 (Simulation time: 00 hr 47 min 48 sec)
Heartbeat CPU 0 instructions: 198000889 cycles: 336069177 heartbeat IPC: 0.3225 cumulative IPC: 0.4588 (Simulation time: 00 hr 47 min 59 sec)
Heartbeat CPU 0 instructions: 198500890 cycles: 336564051 heartbeat IPC: 1.01 cumulative IPC: 0.4597 (Simulation time: 00 hr 48 min 04 sec)
Heartbeat CPU 0 instructions: 199000892 cycles: 337835861 heartbeat IPC: 0.3931 cumulative IPC: 0.4594 (Simulation time: 00 hr 48 min 13 sec)
Heartbeat CPU 0 instructions: 199500899 cycles: 339044655 heartbeat IPC: 0.4136 cumulative IPC: 0.4593 (Simulation time: 00 hr 48 min 22 sec)
Heartbeat CPU 0 instructions: 200000906 cycles: 339538895 heartbeat IPC: 1.012 cumulative IPC: 0.4601 (Simulation time: 00 hr 48 min 27 sec)
Heartbeat CPU 0 instructions: 200500906 cycles: 341126790 heartbeat IPC: 0.3149 cumulative IPC: 0.4594 (Simulation time: 00 hr 48 min 38 sec)
Heartbeat CPU 0 instructions: 201000911 cycles: 342277302 heartbeat IPC: 0.4346 cumulative IPC: 0.4593 (Simulation time: 00 hr 48 min 47 sec)
Heartbeat CPU 0 instructions: 201500911 cycles: 343323872 heartbeat IPC: 0.4778 cumulative IPC: 0.4594 (Simulation time: 00 hr 48 min 55 sec)
Heartbeat CPU 0 instructions: 202000911 cycles: 343923171 heartbeat IPC: 0.8343 cumulative IPC: 0.46 (Simulation time: 00 hr 49 min 00 sec)
Heartbeat CPU 0 instructions: 202500914 cycles: 344595967 heartbeat IPC: 0.7432 cumulative IPC: 0.4606 (Simulation time: 00 hr 49 min 05 sec)
Heartbeat CPU 0 instructions: 203000914 cycles: 345101707 heartbeat IPC: 0.9887 cumulative IPC: 0.4614 (Simulation time: 00 hr 49 min 09 sec)
Heartbeat CPU 0 instructions: 203500914 cycles: 346667906 heartbeat IPC: 0.3192 cumulative IPC: 0.4608 (Simulation time: 00 hr 49 min 20 sec)
Heartbeat CPU 0 instructions: 204000914 cycles: 347744906 heartbeat IPC: 0.4643 cumulative IPC: 0.4608 (Simulation time: 00 hr 49 min 28 sec)
Heartbeat CPU 0 instructions: 204500921 cycles: 349020554 heartbeat IPC: 0.392 cumulative IPC: 0.4605 (Simulation time: 00 hr 49 min 37 sec)
Heartbeat CPU 0 instructions: 205000924 cycles: 349774535 heartbeat IPC: 0.6632 cumulative IPC: 0.461 (Simulation time: 00 hr 49 min 43 sec)
Heartbeat CPU 0 instructions: 205500925 cycles: 350158666 heartbeat IPC: 1.302 cumulative IPC: 0.4619 (Simulation time: 00 hr 49 min 46 sec)
Heartbeat CPU 0 instructions: 206000925 cycles: 350672662 heartbeat IPC: 0.9728 cumulative IPC: 0.4627 (Simulation time: 00 hr 49 min 50 sec)
Heartbeat CPU 0 instructions: 206500928 cycles: 351996503 heartbeat IPC: 0.3777 cumulative IPC: 0.4624 (Simulation time: 00 hr 50 min 00 sec)
Heartbeat CPU 0 instructions: 207000931 cycles: 352642246 heartbeat IPC: 0.7743 cumulative IPC: 0.463 (Simulation time: 00 hr 50 min 05 sec)
Heartbeat CPU 0 instructions: 207500934 cycles: 353179419 heartbeat IPC: 0.9308 cumulative IPC: 0.4637 (Simulation time: 00 hr 50 min 09 sec)
Heartbeat CPU 0 instructions: 208000939 cycles: 353789490 heartbeat IPC: 0.8196 cumulative IPC: 0.4643 (Simulation time: 00 hr 50 min 14 sec)
Heartbeat CPU 0 instructions: 208500940 cycles: 355129972 heartbeat IPC: 0.373 cumulative IPC: 0.464 (Simulation time: 00 hr 50 min 24 sec)
Heartbeat CPU 0 instructions: 209000940 cycles: 356905467 heartbeat IPC: 0.2816 cumulative IPC: 0.463 (Simulation time: 00 hr 50 min 36 sec)
Heartbeat CPU 0 instructions: 209500944 cycles: 357826248 heartbeat IPC: 0.543 cumulative IPC: 0.4632 (Simulation time: 00 hr 50 min 44 sec)
Heartbeat CPU 0 instructions: 210000946 cycles: 358729747 heartbeat IPC: 0.5534 cumulative IPC: 0.4635 (Simulation time: 00 hr 50 min 51 sec)
Heartbeat CPU 0 instructions: 210500949 cycles: 360587212 heartbeat IPC: 0.2692 cumulative IPC: 0.4624 (Simulation time: 00 hr 51 min 05 sec)
Heartbeat CPU 0 instructions: 211000949 cycles: 362361127 heartbeat IPC: 0.2819 cumulative IPC: 0.4615 (Simulation time: 00 hr 51 min 18 sec)
Heartbeat CPU 0 instructions: 211500954 cycles: 363481482 heartbeat IPC: 0.4463 cumulative IPC: 0.4615 (Simulation time: 00 hr 51 min 25 sec)
Heartbeat CPU 0 instructions: 212000956 cycles: 365118771 heartbeat IPC: 0.3054 cumulative IPC: 0.4608 (Simulation time: 00 hr 51 min 35 sec)
Heartbeat CPU 0 instructions: 212500958 cycles: 366383552 heartbeat IPC: 0.3953 cumulative IPC: 0.4605 (Simulation time: 00 hr 51 min 43 sec)
Heartbeat CPU 0 instructions: 213000958 cycles: 367217749 heartbeat IPC: 0.5994 cumulative IPC: 0.4608 (Simulation time: 00 hr 51 min 48 sec)
Heartbeat CPU 0 instructions: 213500960 cycles: 368287768 heartbeat IPC: 0.4673 cumulative IPC: 0.4609 (Simulation time: 00 hr 51 min 54 sec)
Heartbeat CPU 0 instructions: 214000960 cycles: 369548083 heartbeat IPC: 0.3967 cumulative IPC: 0.4606 (Simulation time: 00 hr 52 min 02 sec)
Heartbeat CPU 0 instructions: 214500960 cycles: 370960803 heartbeat IPC: 0.3539 cumulative IPC: 0.4602 (Simulation time: 00 hr 52 min 11 sec)
Heartbeat CPU 0 instructions: 215000960 cycles: 372844084 heartbeat IPC: 0.2655 cumulative IPC: 0.4592 (Simulation time: 00 hr 52 min 25 sec)
Heartbeat CPU 0 instructions: 215500960 cycles: 373901228 heartbeat IPC: 0.473 cumulative IPC: 0.4592 (Simulation time: 00 hr 52 min 34 sec)
Heartbeat CPU 0 instructions: 216000962 cycles: 375395942 heartbeat IPC: 0.3345 cumulative IPC: 0.4587 (Simulation time: 00 hr 52 min 45 sec)
Heartbeat CPU 0 instructions: 216500964 cycles: 377603575 heartbeat IPC: 0.2265 cumulative IPC: 0.4573 (Simulation time: 00 hr 53 min 01 sec)
Heartbeat CPU 0 instructions: 217000970 cycles: 379220151 heartbeat IPC: 0.3093 cumulative IPC: 0.4567 (Simulation time: 00 hr 53 min 14 sec)
Heartbeat CPU 0 instructions: 217500973 cycles: 380242939 heartbeat IPC: 0.4889 cumulative IPC: 0.4567 (Simulation time: 00 hr 53 min 22 sec)
Heartbeat CPU 0 instructions: 218000974 cycles: 382048808 heartbeat IPC: 0.2769 cumulative IPC: 0.4559 (Simulation time: 00 hr 53 min 35 sec)
Heartbeat CPU 0 instructions: 218500979 cycles: 383127932 heartbeat IPC: 0.4633 cumulative IPC: 0.4559 (Simulation time: 00 hr 53 min 44 sec)
Heartbeat CPU 0 instructions: 219000982 cycles: 384092003 heartbeat IPC: 0.5186 cumulative IPC: 0.4561 (Simulation time: 00 hr 53 min 52 sec)
Heartbeat CPU 0 instructions: 219500984 cycles: 385127121 heartbeat IPC: 0.483 cumulative IPC: 0.4561 (Simulation time: 00 hr 54 min 00 sec)
Heartbeat CPU 0 instructions: 220000985 cycles: 386888518 heartbeat IPC: 0.2839 cumulative IPC: 0.4553 (Simulation time: 00 hr 54 min 14 sec)
Heartbeat CPU 0 instructions: 220500990 cycles: 387527502 heartbeat IPC: 0.7825 cumulative IPC: 0.4559 (Simulation time: 00 hr 54 min 20 sec)
Heartbeat CPU 0 instructions: 221000990 cycles: 388442090 heartbeat IPC: 0.5467 cumulative IPC: 0.4561 (Simulation time: 00 hr 54 min 27 sec)
Heartbeat CPU 0 instructions: 221500991 cycles: 390479694 heartbeat IPC: 0.2454 cumulative IPC: 0.455 (Simulation time: 00 hr 54 min 43 sec)
Heartbeat CPU 0 instructions: 222000991 cycles: 391438916 heartbeat IPC: 0.5213 cumulative IPC: 0.4551 (Simulation time: 00 hr 54 min 51 sec)
Heartbeat CPU 0 instructions: 222500997 cycles: 392975322 heartbeat IPC: 0.3254 cumulative IPC: 0.4546 (Simulation time: 00 hr 55 min 02 sec)
Heartbeat CPU 0 instructions: 223000997 cycles: 394073812 heartbeat IPC: 0.4552 cumulative IPC: 0.4546 (Simulation time: 00 hr 55 min 11 sec)
Heartbeat CPU 0 instructions: 223500997 cycles: 395636988 heartbeat IPC: 0.3199 cumulative IPC: 0.454 (Simulation time: 00 hr 55 min 22 sec)
Heartbeat CPU 0 instructions: 224000999 cycles: 397206273 heartbeat IPC: 0.3186 cumulative IPC: 0.4535 (Simulation time: 00 hr 55 min 35 sec)
Heartbeat CPU 0 instructions: 224500999 cycles: 398104991 heartbeat IPC: 0.5563 cumulative IPC: 0.4537 (Simulation time: 00 hr 55 min 42 sec)
Heartbeat CPU 0 instructions: 225001005 cycles: 399096140 heartbeat IPC: 0.5045 cumulative IPC: 0.4539 (Simulation time: 00 hr 55 min 50 sec)
Heartbeat CPU 0 instructions: 225501005 cycles: 400799483 heartbeat IPC: 0.2935 cumulative IPC: 0.4532 (Simulation time: 00 hr 56 min 03 sec)
Heartbeat CPU 0 instructions: 226001008 cycles: 402182168 heartbeat IPC: 0.3616 cumulative IPC: 0.4528 (Simulation time: 00 hr 56 min 14 sec)
Heartbeat CPU 0 instructions: 226501015 cycles: 403129965 heartbeat IPC: 0.5275 cumulative IPC: 0.453 (Simulation time: 00 hr 56 min 21 sec)
Heartbeat CPU 0 instructions: 227001016 cycles: 403775805 heartbeat IPC: 0.7742 cumulative IPC: 0.4535 (Simulation time: 00 hr 56 min 27 sec)
Heartbeat CPU 0 instructions: 227501021 cycles: 404971660 heartbeat IPC: 0.4181 cumulative IPC: 0.4534 (Simulation time: 00 hr 56 min 37 sec)
Heartbeat CPU 0 instructions: 228001022 cycles: 406548021 heartbeat IPC: 0.3172 cumulative IPC: 0.4529 (Simulation time: 00 hr 56 min 49 sec)
Heartbeat CPU 0 instructions: 228501029 cycles: 407844957 heartbeat IPC: 0.3855 cumulative IPC: 0.4527 (Simulation time: 00 hr 56 min 59 sec)
Heartbeat CPU 0 instructions: 229001029 cycles: 408382881 heartbeat IPC: 0.9295 cumulative IPC: 0.4533 (Simulation time: 00 hr 57 min 04 sec)
Heartbeat CPU 0 instructions: 229501030 cycles: 409139708 heartbeat IPC: 0.6607 cumulative IPC: 0.4537 (Simulation time: 00 hr 57 min 10 sec)
Heartbeat CPU 0 instructions: 230001033 cycles: 409417985 heartbeat IPC: 1.797 cumulative IPC: 0.4547 (Simulation time: 00 hr 57 min 14 sec)
Heartbeat CPU 0 instructions: 230501037 cycles: 409705564 heartbeat IPC: 1.739 cumulative IPC: 0.4556 (Simulation time: 00 hr 57 min 18 sec)
Heartbeat CPU 0 instructions: 231001037 cycles: 409932874 heartbeat IPC: 2.2 cumulative IPC: 0.4566 (Simulation time: 00 hr 57 min 22 sec)
Heartbeat CPU 0 instructions: 231501040 cycles: 410995237 heartbeat IPC: 0.4707 cumulative IPC: 0.4566 (Simulation time: 00 hr 57 min 31 sec)
Heartbeat CPU 0 instructions: 232001041 cycles: 412128022 heartbeat IPC: 0.4414 cumulative IPC: 0.4566 (Simulation time: 00 hr 57 min 40 sec)
Heartbeat CPU 0 instructions: 232501041 cycles: 413023464 heartbeat IPC: 0.5584 cumulative IPC: 0.4568 (Simulation time: 00 hr 57 min 48 sec)
Heartbeat CPU 0 instructions: 233001043 cycles: 413779320 heartbeat IPC: 0.6615 cumulative IPC: 0.4572 (Simulation time: 00 hr 57 min 54 sec)
Heartbeat CPU 0 instructions: 233501044 cycles: 415293955 heartbeat IPC: 0.3301 cumulative IPC: 0.4567 (Simulation time: 00 hr 58 min 06 sec)
Heartbeat CPU 0 instructions: 234001045 cycles: 416203491 heartbeat IPC: 0.5497 cumulative IPC: 0.4569 (Simulation time: 00 hr 58 min 14 sec)
Heartbeat CPU 0 instructions: 234501051 cycles: 417051118 heartbeat IPC: 0.5899 cumulative IPC: 0.4572 (Simulation time: 00 hr 58 min 21 sec)
Heartbeat CPU 0 instructions: 235001051 cycles: 417709128 heartbeat IPC: 0.7599 cumulative IPC: 0.4577 (Simulation time: 00 hr 58 min 27 sec)
Heartbeat CPU 0 instructions: 235501053 cycles: 418047490 heartbeat IPC: 1.478 cumulative IPC: 0.4586 (Simulation time: 00 hr 58 min 31 sec)
Heartbeat CPU 0 instructions: 236001056 cycles: 419228127 heartbeat IPC: 0.4235 cumulative IPC: 0.4585 (Simulation time: 00 hr 58 min 40 sec)
Heartbeat CPU 0 instructions: 236501058 cycles: 419961937 heartbeat IPC: 0.6814 cumulative IPC: 0.4589 (Simulation time: 00 hr 58 min 46 sec)
Heartbeat CPU 0 instructions: 237001058 cycles: 421098132 heartbeat IPC: 0.4401 cumulative IPC: 0.4588 (Simulation time: 00 hr 58 min 55 sec)
Heartbeat CPU 0 instructions: 237501058 cycles: 423349647 heartbeat IPC: 0.2221 cumulative IPC: 0.4575 (Simulation time: 00 hr 59 min 12 sec)
Heartbeat CPU 0 instructions: 238001058 cycles: 423975476 heartbeat IPC: 0.7989 cumulative IPC: 0.458 (Simulation time: 00 hr 59 min 18 sec)
Heartbeat CPU 0 instructions: 238501059 cycles: 425551499 heartbeat IPC: 0.3173 cumulative IPC: 0.4575 (Simulation time: 00 hr 59 min 31 sec)
Heartbeat CPU 0 instructions: 239001061 cycles: 426877661 heartbeat IPC: 0.377 cumulative IPC: 0.4572 (Simulation time: 00 hr 59 min 41 sec)
Heartbeat CPU 0 instructions: 239501062 cycles: 427855154 heartbeat IPC: 0.5115 cumulative IPC: 0.4574 (Simulation time: 00 hr 59 min 49 sec)
Heartbeat CPU 0 instructions: 240001066 cycles: 429346292 heartbeat IPC: 0.3353 cumulative IPC: 0.4569 (Simulation time: 01 hr 00 min 00 sec)
Heartbeat CPU 0 instructions: 240501066 cycles: 431290284 heartbeat IPC: 0.2572 cumulative IPC: 0.456 (Simulation time: 01 hr 00 min 15 sec)
Heartbeat CPU 0 instructions: 241001073 cycles: 432602371 heartbeat IPC: 0.3811 cumulative IPC: 0.4558 (Simulation time: 01 hr 00 min 25 sec)
Heartbeat CPU 0 instructions: 241501080 cycles: 433635694 heartbeat IPC: 0.4839 cumulative IPC: 0.4558 (Simulation time: 01 hr 00 min 34 sec)
Heartbeat CPU 0 instructions: 242001082 cycles: 434509839 heartbeat IPC: 0.572 cumulative IPC: 0.4561 (Simulation time: 01 hr 00 min 41 sec)
Heartbeat CPU 0 instructions: 242501088 cycles: 436405598 heartbeat IPC: 0.2637 cumulative IPC: 0.4552 (Simulation time: 01 hr 00 min 55 sec)
Heartbeat CPU 0 instructions: 243001089 cycles: 437952188 heartbeat IPC: 0.3233 cumulative IPC: 0.4547 (Simulation time: 01 hr 01 min 07 sec)
Heartbeat CPU 0 instructions: 243501090 cycles: 438692717 heartbeat IPC: 0.6752 cumulative IPC: 0.4551 (Simulation time: 01 hr 01 min 14 sec)
Heartbeat CPU 0 instructions: 244001090 cycles: 439584349 heartbeat IPC: 0.5608 cumulative IPC: 0.4553 (Simulation time: 01 hr 01 min 21 sec)
Heartbeat CPU 0 instructions: 244501090 cycles: 440555267 heartbeat IPC: 0.515 cumulative IPC: 0.4555 (Simulation time: 01 hr 01 min 30 sec)
Heartbeat CPU 0 instructions: 245001092 cycles: 441583671 heartbeat IPC: 0.4862 cumulative IPC: 0.4555 (Simulation time: 01 hr 01 min 38 sec)
Heartbeat CPU 0 instructions: 245501093 cycles: 442404303 heartbeat IPC: 0.6093 cumulative IPC: 0.4558 (Simulation time: 01 hr 01 min 45 sec)
Heartbeat CPU 0 instructions: 246001094 cycles: 442920711 heartbeat IPC: 0.9682 cumulative IPC: 0.4564 (Simulation time: 01 hr 01 min 50 sec)
Heartbeat CPU 0 instructions: 246501094 cycles: 443434097 heartbeat IPC: 0.9739 cumulative IPC: 0.4571 (Simulation time: 01 hr 01 min 55 sec)
Heartbeat CPU 0 instructions: 247001096 cycles: 444009175 heartbeat IPC: 0.8695 cumulative IPC: 0.4576 (Simulation time: 01 hr 02 min 01 sec)
Heartbeat CPU 0 instructions: 247501097 cycles: 445844423 heartbeat IPC: 0.2724 cumulative IPC: 0.4568 (Simulation time: 01 hr 02 min 15 sec)
Heartbeat CPU 0 instructions: 248001103 cycles: 447437064 heartbeat IPC: 0.3139 cumulative IPC: 0.4563 (Simulation time: 01 hr 02 min 27 sec)
Heartbeat CPU 0 instructions: 248501104 cycles: 449230207 heartbeat IPC: 0.2788 cumulative IPC: 0.4556 (Simulation time: 01 hr 02 min 41 sec)
Heartbeat CPU 0 instructions: 249001104 cycles: 450273701 heartbeat IPC: 0.4792 cumulative IPC: 0.4556 (Simulation time: 01 hr 02 min 49 sec)
Heartbeat CPU 0 instructions: 249501106 cycles: 451080653 heartbeat IPC: 0.6196 cumulative IPC: 0.4559 (Simulation time: 01 hr 02 min 57 sec)
Simulation finished CPU 0 instructions: 200000000 cycles: 438653148 cumulative IPC: 0.4559 (Simulation time: 01 hr 03 min 06 sec)
Simulation complete CPU 0 instructions: 200000000 cycles: 438653148 cumulative IPC: 0.4559 (Simulation time: 01 hr 03 min 06 sec)

ChampSim completed all CPUs

=== Simulation ===
CPU 0 runs /local-ssd/ben/dpc4-traces/gtraces_v2/yankee_0001.champsim.gz

Region of Interest Statistics

CPU 0 cumulative IPC: 0.4559 instructions: 200000000 cycles: 438653148
CPU 0 Branch Prediction Accuracy: 88.46% MPKI: 21.36 Average ROB Occupancy at Mispredict: 21.62
Branch type MPKI
BRANCH_DIRECT_JUMP: 0.852
BRANCH_INDIRECT: 0.5314
BRANCH_CONDITIONAL: 17.04
BRANCH_DIRECT_CALL: 1.57
BRANCH_INDIRECT_CALL: 0.4687
BRANCH_RETURN: 0.8973

cpu0->cpu0_STLB TOTAL        ACCESS:    1807118 HIT:    1244632 MISS:     562486 MSHR_MERGE:          0
cpu0->cpu0_STLB LOAD         ACCESS:    1807118 HIT:    1244632 MISS:     562486 MSHR_MERGE:          0
cpu0->cpu0_STLB RFO          ACCESS:          0 HIT:          0 MISS:          0 MSHR_MERGE:          0
cpu0->cpu0_STLB PREFETCH     ACCESS:          0 HIT:          0 MISS:          0 MSHR_MERGE:          0
cpu0->cpu0_STLB WRITE        ACCESS:          0 HIT:          0 MISS:          0 MSHR_MERGE:          0
cpu0->cpu0_STLB TRANSLATION  ACCESS:          0 HIT:          0 MISS:          0 MSHR_MERGE:          0
cpu0->cpu0_STLB PREFETCH REQUESTED:          0 ISSUED:          0 USEFUL:          0 USELESS:          0
cpu0->cpu0_STLB AVERAGE MISS LATENCY: 169.6 cycles
cpu0->cpu0_L2C TOTAL        ACCESS:   16448931 HIT:   10479210 MISS:    5969721 MSHR_MERGE:     871905
cpu0->cpu0_L2C LOAD         ACCESS:    3779425 HIT:    1829011 MISS:    1950414 MSHR_MERGE:      32915
cpu0->cpu0_L2C RFO          ACCESS:     736115 HIT:     252864 MISS:     483251 MSHR_MERGE:       5556
cpu0->cpu0_L2C PREFETCH     ACCESS:   10058158 HIT:    6820281 MISS:    3237877 MSHR_MERGE:     833434
cpu0->cpu0_L2C WRITE        ACCESS:    1220714 HIT:    1220709 MISS:          5 MSHR_MERGE:          0
cpu0->cpu0_L2C TRANSLATION  ACCESS:     654519 HIT:     356345 MISS:     298174 MSHR_MERGE:          0
cpu0->cpu0_L2C PREFETCH REQUESTED:    8665631 ISSUED:    8271079 USEFUL:     730809 USELESS:    1061090
cpu0->cpu0_L2C AVERAGE MISS LATENCY: 205.4 cycles
cpu0->cpu0_L1I TOTAL        ACCESS:   13256211 HIT:   10623317 MISS:    2632894 MSHR_MERGE:     567827
cpu0->cpu0_L1I LOAD         ACCESS:   13256211 HIT:   10623317 MISS:    2632894 MSHR_MERGE:     567827
cpu0->cpu0_L1I RFO          ACCESS:          0 HIT:          0 MISS:          0 MSHR_MERGE:          0
cpu0->cpu0_L1I PREFETCH     ACCESS:          0 HIT:          0 MISS:          0 MSHR_MERGE:          0
cpu0->cpu0_L1I WRITE        ACCESS:          0 HIT:          0 MISS:          0 MSHR_MERGE:          0
cpu0->cpu0_L1I TRANSLATION  ACCESS:          0 HIT:          0 MISS:          0 MSHR_MERGE:          0
cpu0->cpu0_L1I PREFETCH REQUESTED:          0 ISSUED:          0 USEFUL:          0 USELESS:          0
cpu0->cpu0_L1I AVERAGE MISS LATENCY: 144.3 cycles
cpu0->cpu0_L1D TOTAL        ACCESS:   79510086 HIT:   71281621 MISS:    8228465 MSHR_MERGE:    3336366
cpu0->cpu0_L1D LOAD         ACCESS:   33896223 HIT:   31662660 MISS:    2233563 MSHR_MERGE:     519197
cpu0->cpu0_L1D RFO          ACCESS:          0 HIT:          0 MISS:          0 MSHR_MERGE:          0
cpu0->cpu0_L1D PREFETCH     ACCESS:   21176592 HIT:   18661640 MISS:    2514952 MSHR_MERGE:     727870
cpu0->cpu0_L1D WRITE        ACCESS:   22977101 HIT:   20155214 MISS:    2821887 MSHR_MERGE:    2085755
cpu0->cpu0_L1D TRANSLATION  ACCESS:    1460170 HIT:     802107 MISS:     658063 MSHR_MERGE:       3544
cpu0->cpu0_L1D PREFETCH REQUESTED:   22604575 ISSUED:   21176584 USEFUL:     630627 USELESS:    1156291
cpu0->cpu0_L1D AVERAGE MISS LATENCY: 98.34 cycles
cpu0->cpu0_ITLB TOTAL        ACCESS:   10828023 HIT:   10588913 MISS:     239110 MSHR_MERGE:     113006
cpu0->cpu0_ITLB LOAD         ACCESS:   10828023 HIT:   10588913 MISS:     239110 MSHR_MERGE:     113006
cpu0->cpu0_ITLB RFO          ACCESS:          0 HIT:          0 MISS:          0 MSHR_MERGE:          0
cpu0->cpu0_ITLB PREFETCH     ACCESS:          0 HIT:          0 MISS:          0 MSHR_MERGE:          0
cpu0->cpu0_ITLB WRITE        ACCESS:          0 HIT:          0 MISS:          0 MSHR_MERGE:          0
cpu0->cpu0_ITLB TRANSLATION  ACCESS:          0 HIT:          0 MISS:          0 MSHR_MERGE:          0
cpu0->cpu0_ITLB PREFETCH REQUESTED:          0 ISSUED:          0 USEFUL:          0 USELESS:          0
cpu0->cpu0_ITLB AVERAGE MISS LATENCY: 38.8 cycles
cpu0->cpu0_DTLB TOTAL        ACCESS:   72168257 HIT:   69443395 MISS:    2724862 MSHR_MERGE:    1043848
cpu0->cpu0_DTLB LOAD         ACCESS:   72168257 HIT:   69443395 MISS:    2724862 MSHR_MERGE:    1043848
cpu0->cpu0_DTLB RFO          ACCESS:          0 HIT:          0 MISS:          0 MSHR_MERGE:          0
cpu0->cpu0_DTLB PREFETCH     ACCESS:          0 HIT:          0 MISS:          0 MSHR_MERGE:          0
cpu0->cpu0_DTLB WRITE        ACCESS:          0 HIT:          0 MISS:          0 MSHR_MERGE:          0
cpu0->cpu0_DTLB TRANSLATION  ACCESS:          0 HIT:          0 MISS:          0 MSHR_MERGE:          0
cpu0->cpu0_DTLB PREFETCH REQUESTED:          0 ISSUED:          0 USEFUL:          0 USELESS:          0
cpu0->cpu0_DTLB AVERAGE MISS LATENCY: 59.54 cycles
cpu0->LLC TOTAL        ACCESS:    6661888 HIT:    1212703 MISS:    5449185 MSHR_MERGE:      63484
cpu0->LLC LOAD         ACCESS:    1917499 HIT:     423528 MISS:    1493971 MSHR_MERGE:       1269
cpu0->LLC RFO          ACCESS:     477695 HIT:      23987 MISS:     453708 MSHR_MERGE:        300
cpu0->LLC PREFETCH     ACCESS:    3107463 HIT:     513279 MISS:    2594184 MSHR_MERGE:      61915
cpu0->LLC WRITE        ACCESS:     861057 HIT:     206516 MISS:     654541 MSHR_MERGE:          0
cpu0->LLC TRANSLATION  ACCESS:     298174 HIT:      45393 MISS:     252781 MSHR_MERGE:          0
cpu0->LLC PREFETCH REQUESTED:     703026 ISSUED:     703021 USEFUL:      69559 USELESS:     466641
cpu0->LLC AVERAGE MISS LATENCY: 176.8 cycles

DRAM Statistics

Channel 0 RQ ROW_BUFFER_HIT:     125472
  ROW_BUFFER_MISS:    4605598
  AVG DBUS CONGESTED CYCLE: 22.01
Channel 0 WQ ROW_BUFFER_HIT:     216205
  ROW_BUFFER_MISS:     582648
  FULL:          0
Channel 0 REFRESHES ISSUED:      36552
