[VMEM] WARNING: physical memory size is smaller than virtual memory size.

*** ChampSim Multicore Out-of-Order Simulator ***
Warmup Instructions: 50000000
Simulation Instructions: 200000000
Number of CPUs: 1
Page size: 4096
Core 0: /local-ssd/ben/dpc4-traces/gtraces_v2/sierra.a.6_0002.champsim.gz
Off-chip DRAM Size: 64 GiB Channels: 1 Width: 64-bit Data Rate: 4807 MT/s
[BTB] WARNING: target of return is a lower address than the corresponding call. This is usually a problem with your trace.
[BTB] WARNING: target of return is a lower address than the corresponding call. This is usually a problem with your trace.
Heartbeat CPU 0 instructions: 500006 cycles: 251173 heartbeat IPC: 1.991 cumulative IPC: 1.991 (Simulation time: 00 hr 00 min 04 sec)
[BTB] WARNING: target of return is a lower address than the corresponding call. This is usually a problem with your trace.
[BTB] WARNING: target of return is a lower address than the corresponding call. This is usually a problem with your trace.
Heartbeat CPU 0 instructions: 1000011 cycles: 399938 heartbeat IPC: 3.361 cumulative IPC: 2.5 (Simulation time: 00 hr 00 min 07 sec)
[BTB] WARNING: target of return is a lower address than the corresponding call. This is usually a problem with your trace.
Heartbeat CPU 0 instructions: 1500012 cycles: 535924 heartbeat IPC: 3.677 cumulative IPC: 2.799 (Simulation time: 00 hr 00 min 09 sec)
Heartbeat CPU 0 instructions: 2000019 cycles: 651060 heartbeat IPC: 4.343 cumulative IPC: 3.072 (Simulation time: 00 hr 00 min 11 sec)
Heartbeat CPU 0 instructions: 2500023 cycles: 771207 heartbeat IPC: 4.162 cumulative IPC: 3.242 (Simulation time: 00 hr 00 min 13 sec)
[BTB] WARNING: target of return is a lower address than the corresponding call. This is usually a problem with your trace.
[BTB] WARNING: target of return is a lower address than the corresponding call. This is usually a problem with your trace.
[BTB] WARNING: target of return is a lower address than the corresponding call. This is usually a problem with your trace.
Heartbeat CPU 0 instructions: 3000026 cycles: 935675 heartbeat IPC: 3.04 cumulative IPC: 3.206 (Simulation time: 00 hr 00 min 16 sec)
[BTB] WARNING: target of return is a lower address than the corresponding call. This is usually a problem with your trace.
[BTB] WARNING: target of return is a lower address than the corresponding call. This is usually a problem with your trace.
Heartbeat CPU 0 instructions: 3500030 cycles: 1121341 heartbeat IPC: 2.693 cumulative IPC: 3.121 (Simulation time: 00 hr 00 min 19 sec)
Heartbeat CPU 0 instructions: 4000032 cycles: 1308924 heartbeat IPC: 2.665 cumulative IPC: 3.056 (Simulation time: 00 hr 00 min 23 sec)
Heartbeat CPU 0 instructions: 4500037 cycles: 1449788 heartbeat IPC: 3.55 cumulative IPC: 3.104 (Simulation time: 00 hr 00 min 26 sec)
Heartbeat CPU 0 instructions: 5000044 cycles: 1573764 heartbeat IPC: 4.033 cumulative IPC: 3.177 (Simulation time: 00 hr 00 min 29 sec)
Heartbeat CPU 0 instructions: 5500050 cycles: 1730673 heartbeat IPC: 3.187 cumulative IPC: 3.178 (Simulation time: 00 hr 00 min 31 sec)
Heartbeat CPU 0 instructions: 6000056 cycles: 1860904 heartbeat IPC: 3.839 cumulative IPC: 3.224 (Simulation time: 00 hr 00 min 34 sec)
Heartbeat CPU 0 instructions: 6500057 cycles: 2041809 heartbeat IPC: 2.764 cumulative IPC: 3.183 (Simulation time: 00 hr 00 min 38 sec)
Heartbeat CPU 0 instructions: 7000058 cycles: 2182931 heartbeat IPC: 3.543 cumulative IPC: 3.207 (Simulation time: 00 hr 00 min 41 sec)
Heartbeat CPU 0 instructions: 7500061 cycles: 2298269 heartbeat IPC: 4.335 cumulative IPC: 3.263 (Simulation time: 00 hr 00 min 43 sec)
Heartbeat CPU 0 instructions: 8000061 cycles: 2423050 heartbeat IPC: 4.007 cumulative IPC: 3.302 (Simulation time: 00 hr 00 min 46 sec)
Heartbeat CPU 0 instructions: 8500066 cycles: 2664298 heartbeat IPC: 2.073 cumulative IPC: 3.19 (Simulation time: 00 hr 00 min 50 sec)
Heartbeat CPU 0 instructions: 9000069 cycles: 2797624 heartbeat IPC: 3.75 cumulative IPC: 3.217 (Simulation time: 00 hr 00 min 52 sec)
Heartbeat CPU 0 instructions: 9500074 cycles: 2998328 heartbeat IPC: 2.491 cumulative IPC: 3.168 (Simulation time: 00 hr 00 min 56 sec)
Heartbeat CPU 0 instructions: 10000079 cycles: 3178311 heartbeat IPC: 2.778 cumulative IPC: 3.146 (Simulation time: 00 hr 00 min 59 sec)
Heartbeat CPU 0 instructions: 10500079 cycles: 3346668 heartbeat IPC: 2.97 cumulative IPC: 3.137 (Simulation time: 00 hr 01 min 03 sec)
Heartbeat CPU 0 instructions: 11000083 cycles: 3594218 heartbeat IPC: 2.02 cumulative IPC: 3.06 (Simulation time: 00 hr 01 min 07 sec)
Heartbeat CPU 0 instructions: 11500089 cycles: 3779175 heartbeat IPC: 2.703 cumulative IPC: 3.043 (Simulation time: 00 hr 01 min 10 sec)
Heartbeat CPU 0 instructions: 12000092 cycles: 3953036 heartbeat IPC: 2.876 cumulative IPC: 3.036 (Simulation time: 00 hr 01 min 14 sec)
Heartbeat CPU 0 instructions: 12500094 cycles: 4122210 heartbeat IPC: 2.956 cumulative IPC: 3.032 (Simulation time: 00 hr 01 min 17 sec)
Heartbeat CPU 0 instructions: 13000098 cycles: 4290226 heartbeat IPC: 2.976 cumulative IPC: 3.03 (Simulation time: 00 hr 01 min 20 sec)
Heartbeat CPU 0 instructions: 13500103 cycles: 4453971 heartbeat IPC: 3.054 cumulative IPC: 3.031 (Simulation time: 00 hr 01 min 23 sec)
Heartbeat CPU 0 instructions: 14000108 cycles: 4639903 heartbeat IPC: 2.689 cumulative IPC: 3.017 (Simulation time: 00 hr 01 min 26 sec)
Heartbeat CPU 0 instructions: 14500113 cycles: 4797245 heartbeat IPC: 3.178 cumulative IPC: 3.023 (Simulation time: 00 hr 01 min 30 sec)
Heartbeat CPU 0 instructions: 15000115 cycles: 4955034 heartbeat IPC: 3.169 cumulative IPC: 3.027 (Simulation time: 00 hr 01 min 33 sec)
Heartbeat CPU 0 instructions: 15500118 cycles: 5111204 heartbeat IPC: 3.202 cumulative IPC: 3.033 (Simulation time: 00 hr 01 min 36 sec)
Heartbeat CPU 0 instructions: 16000122 cycles: 5266090 heartbeat IPC: 3.228 cumulative IPC: 3.038 (Simulation time: 00 hr 01 min 39 sec)
Heartbeat CPU 0 instructions: 16500129 cycles: 5423936 heartbeat IPC: 3.168 cumulative IPC: 3.042 (Simulation time: 00 hr 01 min 42 sec)
Heartbeat CPU 0 instructions: 17000132 cycles: 5587409 heartbeat IPC: 3.059 cumulative IPC: 3.043 (Simulation time: 00 hr 01 min 45 sec)
Heartbeat CPU 0 instructions: 17500138 cycles: 5739296 heartbeat IPC: 3.292 cumulative IPC: 3.049 (Simulation time: 00 hr 01 min 48 sec)
Heartbeat CPU 0 instructions: 18000142 cycles: 5889193 heartbeat IPC: 3.336 cumulative IPC: 3.056 (Simulation time: 00 hr 01 min 51 sec)
Heartbeat CPU 0 instructions: 18500146 cycles: 6036927 heartbeat IPC: 3.384 cumulative IPC: 3.064 (Simulation time: 00 hr 01 min 54 sec)
Heartbeat CPU 0 instructions: 19000146 cycles: 6189061 heartbeat IPC: 3.287 cumulative IPC: 3.07 (Simulation time: 00 hr 01 min 57 sec)
Heartbeat CPU 0 instructions: 19500152 cycles: 6360714 heartbeat IPC: 2.913 cumulative IPC: 3.066 (Simulation time: 00 hr 02 min 00 sec)
Heartbeat CPU 0 instructions: 20000154 cycles: 6518007 heartbeat IPC: 3.179 cumulative IPC: 3.068 (Simulation time: 00 hr 02 min 03 sec)
Heartbeat CPU 0 instructions: 20500155 cycles: 6664409 heartbeat IPC: 3.415 cumulative IPC: 3.076 (Simulation time: 00 hr 02 min 06 sec)
Heartbeat CPU 0 instructions: 21000161 cycles: 6789506 heartbeat IPC: 3.997 cumulative IPC: 3.093 (Simulation time: 00 hr 02 min 09 sec)
Heartbeat CPU 0 instructions: 21500168 cycles: 6916470 heartbeat IPC: 3.938 cumulative IPC: 3.109 (Simulation time: 00 hr 02 min 12 sec)
Heartbeat CPU 0 instructions: 22000169 cycles: 7042423 heartbeat IPC: 3.97 cumulative IPC: 3.124 (Simulation time: 00 hr 02 min 15 sec)
Heartbeat CPU 0 instructions: 22500169 cycles: 7169537 heartbeat IPC: 3.933 cumulative IPC: 3.138 (Simulation time: 00 hr 02 min 17 sec)
Heartbeat CPU 0 instructions: 23000170 cycles: 7295896 heartbeat IPC: 3.957 cumulative IPC: 3.152 (Simulation time: 00 hr 02 min 20 sec)
Heartbeat CPU 0 instructions: 23500174 cycles: 7422288 heartbeat IPC: 3.956 cumulative IPC: 3.166 (Simulation time: 00 hr 02 min 23 sec)
Heartbeat CPU 0 instructions: 24000176 cycles: 7547081 heartbeat IPC: 4.007 cumulative IPC: 3.18 (Simulation time: 00 hr 02 min 26 sec)
Heartbeat CPU 0 instructions: 24500179 cycles: 7647208 heartbeat IPC: 4.994 cumulative IPC: 3.204 (Simulation time: 00 hr 02 min 27 sec)
Heartbeat CPU 0 instructions: 25000185 cycles: 7748386 heartbeat IPC: 4.942 cumulative IPC: 3.227 (Simulation time: 00 hr 02 min 29 sec)
Heartbeat CPU 0 instructions: 25500186 cycles: 7849132 heartbeat IPC: 4.963 cumulative IPC: 3.249 (Simulation time: 00 hr 02 min 31 sec)
Heartbeat CPU 0 instructions: 26000193 cycles: 7950540 heartbeat IPC: 4.931 cumulative IPC: 3.27 (Simulation time: 00 hr 02 min 33 sec)
Heartbeat CPU 0 instructions: 26500194 cycles: 8052725 heartbeat IPC: 4.893 cumulative IPC: 3.291 (Simulation time: 00 hr 02 min 35 sec)
Heartbeat CPU 0 instructions: 27000198 cycles: 8170194 heartbeat IPC: 4.256 cumulative IPC: 3.305 (Simulation time: 00 hr 02 min 37 sec)
Heartbeat CPU 0 instructions: 27500201 cycles: 8271785 heartbeat IPC: 4.922 cumulative IPC: 3.325 (Simulation time: 00 hr 02 min 39 sec)
Heartbeat CPU 0 instructions: 28000206 cycles: 8373594 heartbeat IPC: 4.911 cumulative IPC: 3.344 (Simulation time: 00 hr 02 min 40 sec)
Heartbeat CPU 0 instructions: 28500206 cycles: 8475132 heartbeat IPC: 4.924 cumulative IPC: 3.363 (Simulation time: 00 hr 02 min 42 sec)
Heartbeat CPU 0 instructions: 29000209 cycles: 8576842 heartbeat IPC: 4.916 cumulative IPC: 3.381 (Simulation time: 00 hr 02 min 44 sec)
Heartbeat CPU 0 instructions: 29500211 cycles: 8678357 heartbeat IPC: 4.925 cumulative IPC: 3.399 (Simulation time: 00 hr 02 min 46 sec)
Heartbeat CPU 0 instructions: 30000218 cycles: 8779995 heartbeat IPC: 4.919 cumulative IPC: 3.417 (Simulation time: 00 hr 02 min 48 sec)
Heartbeat CPU 0 instructions: 30500221 cycles: 8881640 heartbeat IPC: 4.919 cumulative IPC: 3.434 (Simulation time: 00 hr 02 min 49 sec)
Heartbeat CPU 0 instructions: 31000224 cycles: 8983255 heartbeat IPC: 4.921 cumulative IPC: 3.451 (Simulation time: 00 hr 02 min 51 sec)
Heartbeat CPU 0 instructions: 31500224 cycles: 9084956 heartbeat IPC: 4.916 cumulative IPC: 3.467 (Simulation time: 00 hr 02 min 53 sec)
Heartbeat CPU 0 instructions: 32000231 cycles: 9186660 heartbeat IPC: 4.916 cumulative IPC: 3.483 (Simulation time: 00 hr 02 min 55 sec)
Heartbeat CPU 0 instructions: 32500233 cycles: 9288068 heartbeat IPC: 4.931 cumulative IPC: 3.499 (Simulation time: 00 hr 02 min 57 sec)
Heartbeat CPU 0 instructions: 33000239 cycles: 9389586 heartbeat IPC: 4.925 cumulative IPC: 3.515 (Simulation time: 00 hr 02 min 59 sec)
Heartbeat CPU 0 instructions: 33500244 cycles: 9497230 heartbeat IPC: 4.645 cumulative IPC: 3.527 (Simulation time: 00 hr 03 min 01 sec)
Heartbeat CPU 0 instructions: 34000244 cycles: 9597970 heartbeat IPC: 4.963 cumulative IPC: 3.542 (Simulation time: 00 hr 03 min 03 sec)
Heartbeat CPU 0 instructions: 34500247 cycles: 9703678 heartbeat IPC: 4.73 cumulative IPC: 3.555 (Simulation time: 00 hr 03 min 05 sec)
Heartbeat CPU 0 instructions: 35000248 cycles: 9813650 heartbeat IPC: 4.547 cumulative IPC: 3.566 (Simulation time: 00 hr 03 min 07 sec)
Heartbeat CPU 0 instructions: 35500252 cycles: 9915526 heartbeat IPC: 4.908 cumulative IPC: 3.58 (Simulation time: 00 hr 03 min 09 sec)
Heartbeat CPU 0 instructions: 36000259 cycles: 10015751 heartbeat IPC: 4.989 cumulative IPC: 3.594 (Simulation time: 00 hr 03 min 11 sec)
Heartbeat CPU 0 instructions: 36500264 cycles: 10116743 heartbeat IPC: 4.951 cumulative IPC: 3.608 (Simulation time: 00 hr 03 min 13 sec)
Heartbeat CPU 0 instructions: 37000265 cycles: 10220602 heartbeat IPC: 4.814 cumulative IPC: 3.62 (Simulation time: 00 hr 03 min 15 sec)
Heartbeat CPU 0 instructions: 37500265 cycles: 10326349 heartbeat IPC: 4.728 cumulative IPC: 3.632 (Simulation time: 00 hr 03 min 17 sec)
Heartbeat CPU 0 instructions: 38000271 cycles: 10467830 heartbeat IPC: 3.534 cumulative IPC: 3.63 (Simulation time: 00 hr 03 min 20 sec)
Heartbeat CPU 0 instructions: 38500273 cycles: 10625578 heartbeat IPC: 3.17 cumulative IPC: 3.623 (Simulation time: 00 hr 03 min 23 sec)
Heartbeat CPU 0 instructions: 39000274 cycles: 10763584 heartbeat IPC: 3.623 cumulative IPC: 3.623 (Simulation time: 00 hr 03 min 26 sec)
Heartbeat CPU 0 instructions: 39500274 cycles: 10894441 heartbeat IPC: 3.821 cumulative IPC: 3.626 (Simulation time: 00 hr 03 min 29 sec)
Heartbeat CPU 0 instructions: 40000278 cycles: 11055068 heartbeat IPC: 3.113 cumulative IPC: 3.618 (Simulation time: 00 hr 03 min 32 sec)
Heartbeat CPU 0 instructions: 40500282 cycles: 11194710 heartbeat IPC: 3.581 cumulative IPC: 3.618 (Simulation time: 00 hr 03 min 35 sec)
Heartbeat CPU 0 instructions: 41000284 cycles: 11307461 heartbeat IPC: 4.435 cumulative IPC: 3.626 (Simulation time: 00 hr 03 min 37 sec)
Heartbeat CPU 0 instructions: 41500286 cycles: 11451875 heartbeat IPC: 3.462 cumulative IPC: 3.624 (Simulation time: 00 hr 03 min 40 sec)
Heartbeat CPU 0 instructions: 42000287 cycles: 11572214 heartbeat IPC: 4.155 cumulative IPC: 3.629 (Simulation time: 00 hr 03 min 42 sec)
Heartbeat CPU 0 instructions: 42500290 cycles: 11705704 heartbeat IPC: 3.746 cumulative IPC: 3.631 (Simulation time: 00 hr 03 min 45 sec)
Heartbeat CPU 0 instructions: 43000291 cycles: 11828412 heartbeat IPC: 4.075 cumulative IPC: 3.635 (Simulation time: 00 hr 03 min 47 sec)
Heartbeat CPU 0 instructions: 43500295 cycles: 11975560 heartbeat IPC: 3.398 cumulative IPC: 3.632 (Simulation time: 00 hr 03 min 50 sec)
Heartbeat CPU 0 instructions: 44000298 cycles: 12114477 heartbeat IPC: 3.599 cumulative IPC: 3.632 (Simulation time: 00 hr 03 min 53 sec)
Heartbeat CPU 0 instructions: 44500300 cycles: 12240247 heartbeat IPC: 3.976 cumulative IPC: 3.636 (Simulation time: 00 hr 03 min 55 sec)
Heartbeat CPU 0 instructions: 45000307 cycles: 12390610 heartbeat IPC: 3.325 cumulative IPC: 3.632 (Simulation time: 00 hr 03 min 58 sec)
Heartbeat CPU 0 instructions: 45500311 cycles: 12535845 heartbeat IPC: 3.443 cumulative IPC: 3.63 (Simulation time: 00 hr 04 min 01 sec)
Heartbeat CPU 0 instructions: 46000318 cycles: 12673734 heartbeat IPC: 3.626 cumulative IPC: 3.63 (Simulation time: 00 hr 04 min 04 sec)
Heartbeat CPU 0 instructions: 46500325 cycles: 12823423 heartbeat IPC: 3.34 cumulative IPC: 3.626 (Simulation time: 00 hr 04 min 07 sec)
Heartbeat CPU 0 instructions: 47000329 cycles: 12970524 heartbeat IPC: 3.399 cumulative IPC: 3.624 (Simulation time: 00 hr 04 min 11 sec)
Heartbeat CPU 0 instructions: 47500329 cycles: 13118481 heartbeat IPC: 3.379 cumulative IPC: 3.621 (Simulation time: 00 hr 04 min 14 sec)
Heartbeat CPU 0 instructions: 48000331 cycles: 13270946 heartbeat IPC: 3.279 cumulative IPC: 3.617 (Simulation time: 00 hr 04 min 17 sec)
Heartbeat CPU 0 instructions: 48500337 cycles: 13416616 heartbeat IPC: 3.432 cumulative IPC: 3.615 (Simulation time: 00 hr 04 min 20 sec)
Heartbeat CPU 0 instructions: 49000338 cycles: 13558783 heartbeat IPC: 3.517 cumulative IPC: 3.614 (Simulation time: 00 hr 04 min 23 sec)
Heartbeat CPU 0 instructions: 49500345 cycles: 13710213 heartbeat IPC: 3.302 cumulative IPC: 3.61 (Simulation time: 00 hr 04 min 27 sec)
Warmup halting CPU 0 at instruction 50000005 cycle 13850032 for remainder of phase
Warmup finished CPU 0 instructions: 50000005 cycles: 13850032 cumulative IPC: 3.61 (Simulation time: 00 hr 04 min 30 sec)
Warmup complete CPU 0 instructions: 50000005 cycles: 13850032 cumulative IPC: 3.61 (Simulation time: 00 hr 04 min 30 sec)
Heartbeat CPU 0 instructions: 50000345 cycles: 13850283 heartbeat IPC: 3.57 cumulative IPC: 1.355 (Simulation time: 00 hr 04 min 30 sec)
Heartbeat CPU 0 instructions: 50500347 cycles: 15306702 heartbeat IPC: 0.3433 cumulative IPC: 0.3435 (Simulation time: 00 hr 04 min 41 sec)
Heartbeat CPU 0 instructions: 51000347 cycles: 16394869 heartbeat IPC: 0.4595 cumulative IPC: 0.3931 (Simulation time: 00 hr 04 min 50 sec)
Heartbeat CPU 0 instructions: 51500347 cycles: 18219944 heartbeat IPC: 0.274 cumulative IPC: 0.3433 (Simulation time: 00 hr 05 min 04 sec)
Heartbeat CPU 0 instructions: 52000348 cycles: 19617028 heartbeat IPC: 0.3579 cumulative IPC: 0.3469 (Simulation time: 00 hr 05 min 15 sec)
Heartbeat CPU 0 instructions: 52500349 cycles: 20856906 heartbeat IPC: 0.4033 cumulative IPC: 0.3568 (Simulation time: 00 hr 05 min 25 sec)
Heartbeat CPU 0 instructions: 53000356 cycles: 22796403 heartbeat IPC: 0.2578 cumulative IPC: 0.3354 (Simulation time: 00 hr 05 min 39 sec)
Heartbeat CPU 0 instructions: 53500356 cycles: 23340889 heartbeat IPC: 0.9183 cumulative IPC: 0.3688 (Simulation time: 00 hr 05 min 44 sec)
Heartbeat CPU 0 instructions: 54000357 cycles: 24657244 heartbeat IPC: 0.3798 cumulative IPC: 0.3702 (Simulation time: 00 hr 05 min 54 sec)
Heartbeat CPU 0 instructions: 54500357 cycles: 26541442 heartbeat IPC: 0.2654 cumulative IPC: 0.3546 (Simulation time: 00 hr 06 min 08 sec)
Heartbeat CPU 0 instructions: 55000364 cycles: 28349351 heartbeat IPC: 0.2766 cumulative IPC: 0.3449 (Simulation time: 00 hr 06 min 22 sec)
Heartbeat CPU 0 instructions: 55500365 cycles: 29841246 heartbeat IPC: 0.3351 cumulative IPC: 0.344 (Simulation time: 00 hr 06 min 34 sec)
Heartbeat CPU 0 instructions: 56000369 cycles: 30668687 heartbeat IPC: 0.6043 cumulative IPC: 0.3568 (Simulation time: 00 hr 06 min 43 sec)
Heartbeat CPU 0 instructions: 56500370 cycles: 31459517 heartbeat IPC: 0.6322 cumulative IPC: 0.3691 (Simulation time: 00 hr 06 min 51 sec)
Heartbeat CPU 0 instructions: 57000371 cycles: 32159003 heartbeat IPC: 0.7148 cumulative IPC: 0.3823 (Simulation time: 00 hr 06 min 59 sec)
Heartbeat CPU 0 instructions: 57500377 cycles: 33437385 heartbeat IPC: 0.3911 cumulative IPC: 0.3829 (Simulation time: 00 hr 07 min 10 sec)
Heartbeat CPU 0 instructions: 58000380 cycles: 34449412 heartbeat IPC: 0.4941 cumulative IPC: 0.3884 (Simulation time: 00 hr 07 min 19 sec)
Heartbeat CPU 0 instructions: 58500387 cycles: 36660184 heartbeat IPC: 0.2262 cumulative IPC: 0.3727 (Simulation time: 00 hr 07 min 35 sec)
Heartbeat CPU 0 instructions: 59000389 cycles: 37924913 heartbeat IPC: 0.3953 cumulative IPC: 0.3738 (Simulation time: 00 hr 07 min 46 sec)
Heartbeat CPU 0 instructions: 59500390 cycles: 38344110 heartbeat IPC: 1.193 cumulative IPC: 0.3879 (Simulation time: 00 hr 07 min 50 sec)
Heartbeat CPU 0 instructions: 60000394 cycles: 38676620 heartbeat IPC: 1.504 cumulative IPC: 0.4028 (Simulation time: 00 hr 07 min 54 sec)
Heartbeat CPU 0 instructions: 60500396 cycles: 39240949 heartbeat IPC: 0.886 cumulative IPC: 0.4135 (Simulation time: 00 hr 07 min 59 sec)
Heartbeat CPU 0 instructions: 61000396 cycles: 40687410 heartbeat IPC: 0.3457 cumulative IPC: 0.4099 (Simulation time: 00 hr 08 min 10 sec)
Heartbeat CPU 0 instructions: 61500403 cycles: 41620972 heartbeat IPC: 0.5356 cumulative IPC: 0.4141 (Simulation time: 00 hr 08 min 18 sec)
Heartbeat CPU 0 instructions: 62000406 cycles: 42585421 heartbeat IPC: 0.5184 cumulative IPC: 0.4176 (Simulation time: 00 hr 08 min 27 sec)
Heartbeat CPU 0 instructions: 62500406 cycles: 44084183 heartbeat IPC: 0.3336 cumulative IPC: 0.4135 (Simulation time: 00 hr 08 min 39 sec)
Heartbeat CPU 0 instructions: 63000406 cycles: 45196912 heartbeat IPC: 0.4493 cumulative IPC: 0.4147 (Simulation time: 00 hr 08 min 49 sec)
Heartbeat CPU 0 instructions: 63500407 cycles: 46753232 heartbeat IPC: 0.3213 cumulative IPC: 0.4103 (Simulation time: 00 hr 09 min 01 sec)
Heartbeat CPU 0 instructions: 64000414 cycles: 48656019 heartbeat IPC: 0.2628 cumulative IPC: 0.4022 (Simulation time: 00 hr 09 min 16 sec)
Heartbeat CPU 0 instructions: 64500420 cycles: 49924872 heartbeat IPC: 0.3941 cumulative IPC: 0.402 (Simulation time: 00 hr 09 min 26 sec)
Heartbeat CPU 0 instructions: 65000422 cycles: 51132818 heartbeat IPC: 0.4139 cumulative IPC: 0.4023 (Simulation time: 00 hr 09 min 36 sec)
Heartbeat CPU 0 instructions: 65500423 cycles: 52525403 heartbeat IPC: 0.359 cumulative IPC: 0.4008 (Simulation time: 00 hr 09 min 47 sec)
Heartbeat CPU 0 instructions: 66000424 cycles: 54122289 heartbeat IPC: 0.3131 cumulative IPC: 0.3973 (Simulation time: 00 hr 10 min 00 sec)
Heartbeat CPU 0 instructions: 66500428 cycles: 56270286 heartbeat IPC: 0.2328 cumulative IPC: 0.389 (Simulation time: 00 hr 10 min 16 sec)
Heartbeat CPU 0 instructions: 67000429 cycles: 57999495 heartbeat IPC: 0.2892 cumulative IPC: 0.3851 (Simulation time: 00 hr 10 min 29 sec)
Heartbeat CPU 0 instructions: 67500429 cycles: 59091153 heartbeat IPC: 0.458 cumulative IPC: 0.3868 (Simulation time: 00 hr 10 min 39 sec)
Heartbeat CPU 0 instructions: 68000431 cycles: 60300801 heartbeat IPC: 0.4133 cumulative IPC: 0.3875 (Simulation time: 00 hr 10 min 49 sec)
Heartbeat CPU 0 instructions: 68500434 cycles: 62093396 heartbeat IPC: 0.2789 cumulative IPC: 0.3835 (Simulation time: 00 hr 11 min 02 sec)
Heartbeat CPU 0 instructions: 69000434 cycles: 63897290 heartbeat IPC: 0.2772 cumulative IPC: 0.3796 (Simulation time: 00 hr 11 min 16 sec)
Heartbeat CPU 0 instructions: 69500434 cycles: 64276658 heartbeat IPC: 1.318 cumulative IPC: 0.3867 (Simulation time: 00 hr 11 min 20 sec)
Heartbeat CPU 0 instructions: 70000439 cycles: 64639810 heartbeat IPC: 1.377 cumulative IPC: 0.3938 (Simulation time: 00 hr 11 min 24 sec)
Heartbeat CPU 0 instructions: 70500446 cycles: 65064437 heartbeat IPC: 1.178 cumulative IPC: 0.4003 (Simulation time: 00 hr 11 min 28 sec)
Heartbeat CPU 0 instructions: 71000446 cycles: 66917502 heartbeat IPC: 0.2698 cumulative IPC: 0.3957 (Simulation time: 00 hr 11 min 42 sec)
Heartbeat CPU 0 instructions: 71500447 cycles: 68304814 heartbeat IPC: 0.3604 cumulative IPC: 0.3948 (Simulation time: 00 hr 11 min 53 sec)
Heartbeat CPU 0 instructions: 72000447 cycles: 69654074 heartbeat IPC: 0.3706 cumulative IPC: 0.3942 (Simulation time: 00 hr 12 min 03 sec)
Heartbeat CPU 0 instructions: 72500447 cycles: 70906548 heartbeat IPC: 0.3992 cumulative IPC: 0.3944 (Simulation time: 00 hr 12 min 14 sec)
Heartbeat CPU 0 instructions: 73000448 cycles: 73380007 heartbeat IPC: 0.2021 cumulative IPC: 0.3864 (Simulation time: 00 hr 12 min 32 sec)
Heartbeat CPU 0 instructions: 73500448 cycles: 74542685 heartbeat IPC: 0.43 cumulative IPC: 0.3872 (Simulation time: 00 hr 12 min 42 sec)
Heartbeat CPU 0 instructions: 74000448 cycles: 75334227 heartbeat IPC: 0.6317 cumulative IPC: 0.3904 (Simulation time: 00 hr 12 min 49 sec)
Heartbeat CPU 0 instructions: 74500450 cycles: 76283475 heartbeat IPC: 0.5267 cumulative IPC: 0.3924 (Simulation time: 00 hr 12 min 57 sec)
Heartbeat CPU 0 instructions: 75000451 cycles: 77691203 heartbeat IPC: 0.3552 cumulative IPC: 0.3916 (Simulation time: 00 hr 13 min 08 sec)
Heartbeat CPU 0 instructions: 75500454 cycles: 78832236 heartbeat IPC: 0.4382 cumulative IPC: 0.3924 (Simulation time: 00 hr 13 min 18 sec)
Heartbeat CPU 0 instructions: 76000456 cycles: 79988055 heartbeat IPC: 0.4326 cumulative IPC: 0.3931 (Simulation time: 00 hr 13 min 28 sec)
Heartbeat CPU 0 instructions: 76500456 cycles: 81207256 heartbeat IPC: 0.4101 cumulative IPC: 0.3934 (Simulation time: 00 hr 13 min 37 sec)
Heartbeat CPU 0 instructions: 77000458 cycles: 82274355 heartbeat IPC: 0.4686 cumulative IPC: 0.3946 (Simulation time: 00 hr 13 min 46 sec)
Heartbeat CPU 0 instructions: 77500460 cycles: 83680777 heartbeat IPC: 0.3555 cumulative IPC: 0.3938 (Simulation time: 00 hr 13 min 57 sec)
Heartbeat CPU 0 instructions: 78000460 cycles: 84879483 heartbeat IPC: 0.4171 cumulative IPC: 0.3942 (Simulation time: 00 hr 14 min 08 sec)
Heartbeat CPU 0 instructions: 78500461 cycles: 86333505 heartbeat IPC: 0.3439 cumulative IPC: 0.3932 (Simulation time: 00 hr 14 min 19 sec)
Heartbeat CPU 0 instructions: 79000462 cycles: 87773777 heartbeat IPC: 0.3472 cumulative IPC: 0.3923 (Simulation time: 00 hr 14 min 31 sec)
Heartbeat CPU 0 instructions: 79500467 cycles: 88966973 heartbeat IPC: 0.419 cumulative IPC: 0.3927 (Simulation time: 00 hr 14 min 41 sec)
Heartbeat CPU 0 instructions: 80000467 cycles: 90873368 heartbeat IPC: 0.2623 cumulative IPC: 0.3895 (Simulation time: 00 hr 14 min 56 sec)
Heartbeat CPU 0 instructions: 80500467 cycles: 92374086 heartbeat IPC: 0.3332 cumulative IPC: 0.3884 (Simulation time: 00 hr 15 min 08 sec)
Heartbeat CPU 0 instructions: 81000470 cycles: 93349919 heartbeat IPC: 0.5124 cumulative IPC: 0.3899 (Simulation time: 00 hr 15 min 16 sec)
Heartbeat CPU 0 instructions: 81500477 cycles: 95003966 heartbeat IPC: 0.3023 cumulative IPC: 0.3882 (Simulation time: 00 hr 15 min 29 sec)
Heartbeat CPU 0 instructions: 82000478 cycles: 96081360 heartbeat IPC: 0.4641 cumulative IPC: 0.3892 (Simulation time: 00 hr 15 min 38 sec)
Heartbeat CPU 0 instructions: 82500478 cycles: 97186047 heartbeat IPC: 0.4526 cumulative IPC: 0.39 (Simulation time: 00 hr 15 min 47 sec)
Heartbeat CPU 0 instructions: 83000478 cycles: 98728301 heartbeat IPC: 0.3242 cumulative IPC: 0.3888 (Simulation time: 00 hr 15 min 59 sec)
Heartbeat CPU 0 instructions: 83500478 cycles: 99936707 heartbeat IPC: 0.4138 cumulative IPC: 0.3891 (Simulation time: 00 hr 16 min 09 sec)
Heartbeat CPU 0 instructions: 84000479 cycles: 101334048 heartbeat IPC: 0.3578 cumulative IPC: 0.3886 (Simulation time: 00 hr 16 min 20 sec)
Heartbeat CPU 0 instructions: 84500480 cycles: 102461469 heartbeat IPC: 0.4435 cumulative IPC: 0.3893 (Simulation time: 00 hr 16 min 30 sec)
Heartbeat CPU 0 instructions: 85000480 cycles: 103505741 heartbeat IPC: 0.4788 cumulative IPC: 0.3904 (Simulation time: 00 hr 16 min 38 sec)
Heartbeat CPU 0 instructions: 85500480 cycles: 104406511 heartbeat IPC: 0.5551 cumulative IPC: 0.392 (Simulation time: 00 hr 16 min 46 sec)
Heartbeat CPU 0 instructions: 86000484 cycles: 105856378 heartbeat IPC: 0.3449 cumulative IPC: 0.3913 (Simulation time: 00 hr 16 min 58 sec)
Heartbeat CPU 0 instructions: 86500487 cycles: 107324925 heartbeat IPC: 0.3405 cumulative IPC: 0.3905 (Simulation time: 00 hr 17 min 09 sec)
Heartbeat CPU 0 instructions: 87000490 cycles: 109227018 heartbeat IPC: 0.2629 cumulative IPC: 0.3879 (Simulation time: 00 hr 17 min 24 sec)
Heartbeat CPU 0 instructions: 87500495 cycles: 110519893 heartbeat IPC: 0.3867 cumulative IPC: 0.3879 (Simulation time: 00 hr 17 min 34 sec)
Heartbeat CPU 0 instructions: 88000495 cycles: 111535363 heartbeat IPC: 0.4924 cumulative IPC: 0.389 (Simulation time: 00 hr 17 min 43 sec)
Heartbeat CPU 0 instructions: 88500495 cycles: 112893124 heartbeat IPC: 0.3683 cumulative IPC: 0.3887 (Simulation time: 00 hr 17 min 54 sec)
Heartbeat CPU 0 instructions: 89000499 cycles: 114157005 heartbeat IPC: 0.3956 cumulative IPC: 0.3888 (Simulation time: 00 hr 18 min 05 sec)
Heartbeat CPU 0 instructions: 89500503 cycles: 115357664 heartbeat IPC: 0.4164 cumulative IPC: 0.3891 (Simulation time: 00 hr 18 min 15 sec)
Heartbeat CPU 0 instructions: 90000506 cycles: 116332976 heartbeat IPC: 0.5127 cumulative IPC: 0.3903 (Simulation time: 00 hr 18 min 23 sec)
Heartbeat CPU 0 instructions: 90500510 cycles: 117539963 heartbeat IPC: 0.4143 cumulative IPC: 0.3906 (Simulation time: 00 hr 18 min 33 sec)
Heartbeat CPU 0 instructions: 91000510 cycles: 118492023 heartbeat IPC: 0.5252 cumulative IPC: 0.3918 (Simulation time: 00 hr 18 min 41 sec)
Heartbeat CPU 0 instructions: 91500516 cycles: 119268173 heartbeat IPC: 0.6442 cumulative IPC: 0.3937 (Simulation time: 00 hr 18 min 48 sec)
Heartbeat CPU 0 instructions: 92000516 cycles: 121615008 heartbeat IPC: 0.2131 cumulative IPC: 0.3897 (Simulation time: 00 hr 19 min 06 sec)
Heartbeat CPU 0 instructions: 92500517 cycles: 123085582 heartbeat IPC: 0.34 cumulative IPC: 0.3891 (Simulation time: 00 hr 19 min 18 sec)
Heartbeat CPU 0 instructions: 93000518 cycles: 124686006 heartbeat IPC: 0.3124 cumulative IPC: 0.388 (Simulation time: 00 hr 19 min 30 sec)
Heartbeat CPU 0 instructions: 93500518 cycles: 126274113 heartbeat IPC: 0.3148 cumulative IPC: 0.3869 (Simulation time: 00 hr 19 min 42 sec)
Heartbeat CPU 0 instructions: 94000518 cycles: 127557484 heartbeat IPC: 0.3896 cumulative IPC: 0.387 (Simulation time: 00 hr 19 min 53 sec)
Heartbeat CPU 0 instructions: 94500518 cycles: 128613525 heartbeat IPC: 0.4735 cumulative IPC: 0.3878 (Simulation time: 00 hr 20 min 02 sec)
Heartbeat CPU 0 instructions: 95000521 cycles: 129082123 heartbeat IPC: 1.067 cumulative IPC: 0.3905 (Simulation time: 00 hr 20 min 07 sec)
Heartbeat CPU 0 instructions: 95500521 cycles: 130701555 heartbeat IPC: 0.3088 cumulative IPC: 0.3894 (Simulation time: 00 hr 20 min 20 sec)
Heartbeat CPU 0 instructions: 96000522 cycles: 131670160 heartbeat IPC: 0.5162 cumulative IPC: 0.3904 (Simulation time: 00 hr 20 min 28 sec)
Heartbeat CPU 0 instructions: 96500524 cycles: 133077985 heartbeat IPC: 0.3552 cumulative IPC: 0.39 (Simulation time: 00 hr 20 min 39 sec)
Heartbeat CPU 0 instructions: 97000524 cycles: 133776920 heartbeat IPC: 0.7154 cumulative IPC: 0.3919 (Simulation time: 00 hr 20 min 46 sec)
Heartbeat CPU 0 instructions: 97500524 cycles: 134999195 heartbeat IPC: 0.4091 cumulative IPC: 0.3921 (Simulation time: 00 hr 20 min 56 sec)
Heartbeat CPU 0 instructions: 98000524 cycles: 136447445 heartbeat IPC: 0.3452 cumulative IPC: 0.3915 (Simulation time: 00 hr 21 min 07 sec)
Heartbeat CPU 0 instructions: 98500524 cycles: 137907839 heartbeat IPC: 0.3424 cumulative IPC: 0.391 (Simulation time: 00 hr 21 min 19 sec)
Heartbeat CPU 0 instructions: 99000531 cycles: 139335988 heartbeat IPC: 0.3501 cumulative IPC: 0.3905 (Simulation time: 00 hr 21 min 30 sec)
Heartbeat CPU 0 instructions: 99500532 cycles: 140794220 heartbeat IPC: 0.3429 cumulative IPC: 0.3899 (Simulation time: 00 hr 21 min 41 sec)
Heartbeat CPU 0 instructions: 100000537 cycles: 142373084 heartbeat IPC: 0.3167 cumulative IPC: 0.389 (Simulation time: 00 hr 21 min 54 sec)
Heartbeat CPU 0 instructions: 100500537 cycles: 143592057 heartbeat IPC: 0.4102 cumulative IPC: 0.3892 (Simulation time: 00 hr 22 min 04 sec)
Heartbeat CPU 0 instructions: 101000538 cycles: 144030035 heartbeat IPC: 1.142 cumulative IPC: 0.3918 (Simulation time: 00 hr 22 min 08 sec)
Heartbeat CPU 0 instructions: 101500538 cycles: 145385204 heartbeat IPC: 0.369 cumulative IPC: 0.3915 (Simulation time: 00 hr 22 min 18 sec)
Heartbeat CPU 0 instructions: 102000540 cycles: 146891017 heartbeat IPC: 0.332 cumulative IPC: 0.3909 (Simulation time: 00 hr 22 min 30 sec)
Heartbeat CPU 0 instructions: 102500540 cycles: 148155413 heartbeat IPC: 0.3954 cumulative IPC: 0.3909 (Simulation time: 00 hr 22 min 40 sec)
Heartbeat CPU 0 instructions: 103000542 cycles: 149516089 heartbeat IPC: 0.3675 cumulative IPC: 0.3907 (Simulation time: 00 hr 22 min 51 sec)
Heartbeat CPU 0 instructions: 103500547 cycles: 150712968 heartbeat IPC: 0.4178 cumulative IPC: 0.3909 (Simulation time: 00 hr 23 min 01 sec)
Heartbeat CPU 0 instructions: 104000548 cycles: 151869211 heartbeat IPC: 0.4324 cumulative IPC: 0.3913 (Simulation time: 00 hr 23 min 10 sec)
Heartbeat CPU 0 instructions: 104500551 cycles: 153362568 heartbeat IPC: 0.3348 cumulative IPC: 0.3906 (Simulation time: 00 hr 23 min 22 sec)
Heartbeat CPU 0 instructions: 105000553 cycles: 154425406 heartbeat IPC: 0.4704 cumulative IPC: 0.3913 (Simulation time: 00 hr 23 min 31 sec)
Heartbeat CPU 0 instructions: 105500558 cycles: 155418069 heartbeat IPC: 0.5037 cumulative IPC: 0.392 (Simulation time: 00 hr 23 min 40 sec)
Heartbeat CPU 0 instructions: 106000563 cycles: 156931893 heartbeat IPC: 0.3303 cumulative IPC: 0.3914 (Simulation time: 00 hr 23 min 52 sec)
Heartbeat CPU 0 instructions: 106500563 cycles: 158380281 heartbeat IPC: 0.3452 cumulative IPC: 0.3909 (Simulation time: 00 hr 24 min 03 sec)
Heartbeat CPU 0 instructions: 107000566 cycles: 160316693 heartbeat IPC: 0.2582 cumulative IPC: 0.3892 (Simulation time: 00 hr 24 min 18 sec)
Heartbeat CPU 0 instructions: 107500567 cycles: 162212960 heartbeat IPC: 0.2637 cumulative IPC: 0.3876 (Simulation time: 00 hr 24 min 33 sec)
Heartbeat CPU 0 instructions: 108000570 cycles: 163598565 heartbeat IPC: 0.3609 cumulative IPC: 0.3873 (Simulation time: 00 hr 24 min 44 sec)
Heartbeat CPU 0 instructions: 108500570 cycles: 164763352 heartbeat IPC: 0.4293 cumulative IPC: 0.3876 (Simulation time: 00 hr 24 min 53 sec)
Heartbeat CPU 0 instructions: 109000573 cycles: 167038945 heartbeat IPC: 0.2197 cumulative IPC: 0.3851 (Simulation time: 00 hr 25 min 11 sec)
Heartbeat CPU 0 instructions: 109500573 cycles: 168038165 heartbeat IPC: 0.5004 cumulative IPC: 0.3859 (Simulation time: 00 hr 25 min 20 sec)
Heartbeat CPU 0 instructions: 110000579 cycles: 169429598 heartbeat IPC: 0.3593 cumulative IPC: 0.3857 (Simulation time: 00 hr 25 min 31 sec)
Heartbeat CPU 0 instructions: 110500583 cycles: 170389230 heartbeat IPC: 0.521 cumulative IPC: 0.3865 (Simulation time: 00 hr 25 min 40 sec)
Heartbeat CPU 0 instructions: 111000583 cycles: 171701597 heartbeat IPC: 0.381 cumulative IPC: 0.3864 (Simulation time: 00 hr 25 min 51 sec)
Heartbeat CPU 0 instructions: 111500588 cycles: 173954418 heartbeat IPC: 0.2219 cumulative IPC: 0.3841 (Simulation time: 00 hr 26 min 08 sec)
Heartbeat CPU 0 instructions: 112000588 cycles: 175813945 heartbeat IPC: 0.2689 cumulative IPC: 0.3828 (Simulation time: 00 hr 26 min 23 sec)
Heartbeat CPU 0 instructions: 112500589 cycles: 177332988 heartbeat IPC: 0.3292 cumulative IPC: 0.3823 (Simulation time: 00 hr 26 min 35 sec)
Heartbeat CPU 0 instructions: 113000594 cycles: 178631458 heartbeat IPC: 0.3851 cumulative IPC: 0.3823 (Simulation time: 00 hr 26 min 45 sec)
Heartbeat CPU 0 instructions: 113500595 cycles: 180369030 heartbeat IPC: 0.2878 cumulative IPC: 0.3813 (Simulation time: 00 hr 26 min 59 sec)
Heartbeat CPU 0 instructions: 114000595 cycles: 181624941 heartbeat IPC: 0.3981 cumulative IPC: 0.3815 (Simulation time: 00 hr 27 min 09 sec)
Heartbeat CPU 0 instructions: 114500595 cycles: 182761780 heartbeat IPC: 0.4398 cumulative IPC: 0.3819 (Simulation time: 00 hr 27 min 18 sec)
Heartbeat CPU 0 instructions: 115000597 cycles: 184054357 heartbeat IPC: 0.3868 cumulative IPC: 0.3819 (Simulation time: 00 hr 27 min 29 sec)
Heartbeat CPU 0 instructions: 115500600 cycles: 185766274 heartbeat IPC: 0.2921 cumulative IPC: 0.381 (Simulation time: 00 hr 27 min 42 sec)
Heartbeat CPU 0 instructions: 116000602 cycles: 186386884 heartbeat IPC: 0.8057 cumulative IPC: 0.3825 (Simulation time: 00 hr 27 min 47 sec)
Heartbeat CPU 0 instructions: 116500604 cycles: 187611505 heartbeat IPC: 0.4083 cumulative IPC: 0.3827 (Simulation time: 00 hr 27 min 57 sec)
Heartbeat CPU 0 instructions: 117000605 cycles: 189519713 heartbeat IPC: 0.262 cumulative IPC: 0.3814 (Simulation time: 00 hr 28 min 12 sec)
Heartbeat CPU 0 instructions: 117500610 cycles: 191194647 heartbeat IPC: 0.2985 cumulative IPC: 0.3806 (Simulation time: 00 hr 28 min 25 sec)
Heartbeat CPU 0 instructions: 118000612 cycles: 192813634 heartbeat IPC: 0.3088 cumulative IPC: 0.38 (Simulation time: 00 hr 28 min 38 sec)
Heartbeat CPU 0 instructions: 118500612 cycles: 194392464 heartbeat IPC: 0.3167 cumulative IPC: 0.3794 (Simulation time: 00 hr 28 min 50 sec)
Heartbeat CPU 0 instructions: 119000617 cycles: 195417497 heartbeat IPC: 0.4878 cumulative IPC: 0.38 (Simulation time: 00 hr 28 min 59 sec)
Heartbeat CPU 0 instructions: 119500622 cycles: 197033409 heartbeat IPC: 0.3094 cumulative IPC: 0.3794 (Simulation time: 00 hr 29 min 12 sec)
Heartbeat CPU 0 instructions: 120000622 cycles: 199295393 heartbeat IPC: 0.221 cumulative IPC: 0.3775 (Simulation time: 00 hr 29 min 29 sec)
Heartbeat CPU 0 instructions: 120500624 cycles: 200504828 heartbeat IPC: 0.4134 cumulative IPC: 0.3777 (Simulation time: 00 hr 29 min 39 sec)
Heartbeat CPU 0 instructions: 121000627 cycles: 201630867 heartbeat IPC: 0.444 cumulative IPC: 0.3781 (Simulation time: 00 hr 29 min 48 sec)
Heartbeat CPU 0 instructions: 121500628 cycles: 203224920 heartbeat IPC: 0.3137 cumulative IPC: 0.3776 (Simulation time: 00 hr 30 min 00 sec)
Heartbeat CPU 0 instructions: 122000630 cycles: 205276016 heartbeat IPC: 0.2438 cumulative IPC: 0.3761 (Simulation time: 00 hr 30 min 16 sec)
Heartbeat CPU 0 instructions: 122500630 cycles: 207524212 heartbeat IPC: 0.2224 cumulative IPC: 0.3743 (Simulation time: 00 hr 30 min 33 sec)
Heartbeat CPU 0 instructions: 123000630 cycles: 209532536 heartbeat IPC: 0.249 cumulative IPC: 0.3731 (Simulation time: 00 hr 30 min 47 sec)
Heartbeat CPU 0 instructions: 123500630 cycles: 210730614 heartbeat IPC: 0.4173 cumulative IPC: 0.3733 (Simulation time: 00 hr 30 min 57 sec)
Heartbeat CPU 0 instructions: 124000630 cycles: 211757589 heartbeat IPC: 0.4869 cumulative IPC: 0.3739 (Simulation time: 00 hr 31 min 06 sec)
Heartbeat CPU 0 instructions: 124500632 cycles: 213142437 heartbeat IPC: 0.3611 cumulative IPC: 0.3738 (Simulation time: 00 hr 31 min 17 sec)
Heartbeat CPU 0 instructions: 125000632 cycles: 215495985 heartbeat IPC: 0.2124 cumulative IPC: 0.3719 (Simulation time: 00 hr 31 min 34 sec)
Heartbeat CPU 0 instructions: 125500637 cycles: 217415370 heartbeat IPC: 0.2605 cumulative IPC: 0.3709 (Simulation time: 00 hr 31 min 49 sec)
Heartbeat CPU 0 instructions: 126000639 cycles: 218771254 heartbeat IPC: 0.3688 cumulative IPC: 0.3709 (Simulation time: 00 hr 32 min 00 sec)
Heartbeat CPU 0 instructions: 126500639 cycles: 219851839 heartbeat IPC: 0.4627 cumulative IPC: 0.3714 (Simulation time: 00 hr 32 min 09 sec)
Heartbeat CPU 0 instructions: 127000639 cycles: 220760962 heartbeat IPC: 0.55 cumulative IPC: 0.3721 (Simulation time: 00 hr 32 min 17 sec)
Heartbeat CPU 0 instructions: 127500642 cycles: 221804920 heartbeat IPC: 0.4789 cumulative IPC: 0.3727 (Simulation time: 00 hr 32 min 26 sec)
Heartbeat CPU 0 instructions: 128000644 cycles: 223115245 heartbeat IPC: 0.3816 cumulative IPC: 0.3727 (Simulation time: 00 hr 32 min 37 sec)
Heartbeat CPU 0 instructions: 128500644 cycles: 224943900 heartbeat IPC: 0.2734 cumulative IPC: 0.3719 (Simulation time: 00 hr 32 min 51 sec)
Heartbeat CPU 0 instructions: 129000651 cycles: 226349769 heartbeat IPC: 0.3557 cumulative IPC: 0.3718 (Simulation time: 00 hr 33 min 02 sec)
Heartbeat CPU 0 instructions: 129500654 cycles: 227449508 heartbeat IPC: 0.4547 cumulative IPC: 0.3722 (Simulation time: 00 hr 33 min 11 sec)
Heartbeat CPU 0 instructions: 130000656 cycles: 228640356 heartbeat IPC: 0.4199 cumulative IPC: 0.3725 (Simulation time: 00 hr 33 min 21 sec)
Heartbeat CPU 0 instructions: 130500658 cycles: 229711161 heartbeat IPC: 0.4669 cumulative IPC: 0.3729 (Simulation time: 00 hr 33 min 30 sec)
Heartbeat CPU 0 instructions: 131000659 cycles: 230425963 heartbeat IPC: 0.6995 cumulative IPC: 0.374 (Simulation time: 00 hr 33 min 37 sec)
Heartbeat CPU 0 instructions: 131500664 cycles: 231635968 heartbeat IPC: 0.4132 cumulative IPC: 0.3742 (Simulation time: 00 hr 33 min 47 sec)
Heartbeat CPU 0 instructions: 132000664 cycles: 232736127 heartbeat IPC: 0.4545 cumulative IPC: 0.3746 (Simulation time: 00 hr 33 min 56 sec)
Heartbeat CPU 0 instructions: 132500665 cycles: 234662785 heartbeat IPC: 0.2595 cumulative IPC: 0.3736 (Simulation time: 00 hr 34 min 11 sec)
Heartbeat CPU 0 instructions: 133000665 cycles: 236195642 heartbeat IPC: 0.3262 cumulative IPC: 0.3733 (Simulation time: 00 hr 34 min 23 sec)
Heartbeat CPU 0 instructions: 133500668 cycles: 237511584 heartbeat IPC: 0.38 cumulative IPC: 0.3733 (Simulation time: 00 hr 34 min 34 sec)
Heartbeat CPU 0 instructions: 134000669 cycles: 238736043 heartbeat IPC: 0.4083 cumulative IPC: 0.3735 (Simulation time: 00 hr 34 min 44 sec)
Heartbeat CPU 0 instructions: 134500669 cycles: 239658931 heartbeat IPC: 0.5418 cumulative IPC: 0.3742 (Simulation time: 00 hr 34 min 52 sec)
Heartbeat CPU 0 instructions: 135000673 cycles: 240088963 heartbeat IPC: 1.163 cumulative IPC: 0.3757 (Simulation time: 00 hr 34 min 56 sec)
Heartbeat CPU 0 instructions: 135500674 cycles: 240436963 heartbeat IPC: 1.437 cumulative IPC: 0.3773 (Simulation time: 00 hr 35 min 00 sec)
Heartbeat CPU 0 instructions: 136000674 cycles: 240781178 heartbeat IPC: 1.453 cumulative IPC: 0.379 (Simulation time: 00 hr 35 min 04 sec)
Heartbeat CPU 0 instructions: 136500674 cycles: 241195031 heartbeat IPC: 1.208 cumulative IPC: 0.3805 (Simulation time: 00 hr 35 min 08 sec)
Heartbeat CPU 0 instructions: 137000681 cycles: 242618641 heartbeat IPC: 0.3512 cumulative IPC: 0.3803 (Simulation time: 00 hr 35 min 19 sec)
Heartbeat CPU 0 instructions: 137500682 cycles: 245495125 heartbeat IPC: 0.1738 cumulative IPC: 0.3777 (Simulation time: 00 hr 35 min 40 sec)
Heartbeat CPU 0 instructions: 138000685 cycles: 247045328 heartbeat IPC: 0.3225 cumulative IPC: 0.3774 (Simulation time: 00 hr 35 min 53 sec)
Heartbeat CPU 0 instructions: 138500685 cycles: 248185577 heartbeat IPC: 0.4385 cumulative IPC: 0.3777 (Simulation time: 00 hr 36 min 02 sec)
Heartbeat CPU 0 instructions: 139000687 cycles: 249863455 heartbeat IPC: 0.298 cumulative IPC: 0.3771 (Simulation time: 00 hr 36 min 15 sec)
Heartbeat CPU 0 instructions: 139500687 cycles: 251037766 heartbeat IPC: 0.4258 cumulative IPC: 0.3773 (Simulation time: 00 hr 36 min 25 sec)
Heartbeat CPU 0 instructions: 140000690 cycles: 253674021 heartbeat IPC: 0.1897 cumulative IPC: 0.3753 (Simulation time: 00 hr 36 min 44 sec)
Heartbeat CPU 0 instructions: 140500691 cycles: 255239808 heartbeat IPC: 0.3193 cumulative IPC: 0.3749 (Simulation time: 00 hr 36 min 56 sec)
Heartbeat CPU 0 instructions: 141000692 cycles: 256909608 heartbeat IPC: 0.2994 cumulative IPC: 0.3744 (Simulation time: 00 hr 37 min 08 sec)
Heartbeat CPU 0 instructions: 141500692 cycles: 259489331 heartbeat IPC: 0.1938 cumulative IPC: 0.3725 (Simulation time: 00 hr 37 min 26 sec)
Heartbeat CPU 0 instructions: 142000693 cycles: 260669141 heartbeat IPC: 0.4238 cumulative IPC: 0.3727 (Simulation time: 00 hr 37 min 36 sec)
Heartbeat CPU 0 instructions: 142500693 cycles: 261300604 heartbeat IPC: 0.7918 cumulative IPC: 0.3738 (Simulation time: 00 hr 37 min 42 sec)
Heartbeat CPU 0 instructions: 143000693 cycles: 262326742 heartbeat IPC: 0.4873 cumulative IPC: 0.3743 (Simulation time: 00 hr 37 min 51 sec)
Heartbeat CPU 0 instructions: 143500697 cycles: 263673017 heartbeat IPC: 0.3714 cumulative IPC: 0.3743 (Simulation time: 00 hr 38 min 02 sec)
Heartbeat CPU 0 instructions: 144000698 cycles: 265370396 heartbeat IPC: 0.2946 cumulative IPC: 0.3737 (Simulation time: 00 hr 38 min 15 sec)
Heartbeat CPU 0 instructions: 144500698 cycles: 267308770 heartbeat IPC: 0.2579 cumulative IPC: 0.3728 (Simulation time: 00 hr 38 min 30 sec)
Heartbeat CPU 0 instructions: 145000699 cycles: 268600730 heartbeat IPC: 0.387 cumulative IPC: 0.3729 (Simulation time: 00 hr 38 min 40 sec)
Heartbeat CPU 0 instructions: 145500701 cycles: 269453854 heartbeat IPC: 0.5861 cumulative IPC: 0.3736 (Simulation time: 00 hr 38 min 48 sec)
Heartbeat CPU 0 instructions: 146000705 cycles: 271909013 heartbeat IPC: 0.2037 cumulative IPC: 0.372 (Simulation time: 00 hr 39 min 05 sec)
Heartbeat CPU 0 instructions: 146500706 cycles: 273012217 heartbeat IPC: 0.4532 cumulative IPC: 0.3724 (Simulation time: 00 hr 39 min 14 sec)
Heartbeat CPU 0 instructions: 147000706 cycles: 274271041 heartbeat IPC: 0.3972 cumulative IPC: 0.3725 (Simulation time: 00 hr 39 min 24 sec)
Heartbeat CPU 0 instructions: 147500708 cycles: 275495848 heartbeat IPC: 0.4082 cumulative IPC: 0.3726 (Simulation time: 00 hr 39 min 35 sec)
Heartbeat CPU 0 instructions: 148000708 cycles: 277607702 heartbeat IPC: 0.2368 cumulative IPC: 0.3716 (Simulation time: 00 hr 39 min 50 sec)
Heartbeat CPU 0 instructions: 148500708 cycles: 278719251 heartbeat IPC: 0.4498 cumulative IPC: 0.3719 (Simulation time: 00 hr 40 min 00 sec)
Heartbeat CPU 0 instructions: 149000711 cycles: 280570969 heartbeat IPC: 0.27 cumulative IPC: 0.3712 (Simulation time: 00 hr 40 min 14 sec)
Heartbeat CPU 0 instructions: 149500711 cycles: 282307461 heartbeat IPC: 0.2879 cumulative IPC: 0.3706 (Simulation time: 00 hr 40 min 27 sec)
Heartbeat CPU 0 instructions: 150000711 cycles: 283266533 heartbeat IPC: 0.5213 cumulative IPC: 0.3712 (Simulation time: 00 hr 40 min 35 sec)
Heartbeat CPU 0 instructions: 150500714 cycles: 283609010 heartbeat IPC: 1.46 cumulative IPC: 0.3726 (Simulation time: 00 hr 40 min 39 sec)
Heartbeat CPU 0 instructions: 151000714 cycles: 283939631 heartbeat IPC: 1.512 cumulative IPC: 0.374 (Simulation time: 00 hr 40 min 42 sec)
Heartbeat CPU 0 instructions: 151500715 cycles: 284445562 heartbeat IPC: 0.9883 cumulative IPC: 0.3751 (Simulation time: 00 hr 40 min 47 sec)
Heartbeat CPU 0 instructions: 152000715 cycles: 285916412 heartbeat IPC: 0.3399 cumulative IPC: 0.3749 (Simulation time: 00 hr 40 min 58 sec)
Heartbeat CPU 0 instructions: 152500715 cycles: 287800202 heartbeat IPC: 0.2654 cumulative IPC: 0.3742 (Simulation time: 00 hr 41 min 12 sec)
Heartbeat CPU 0 instructions: 153000717 cycles: 288946899 heartbeat IPC: 0.436 cumulative IPC: 0.3744 (Simulation time: 00 hr 41 min 21 sec)
Heartbeat CPU 0 instructions: 153500717 cycles: 291222339 heartbeat IPC: 0.2197 cumulative IPC: 0.3731 (Simulation time: 00 hr 41 min 38 sec)
Heartbeat CPU 0 instructions: 154000720 cycles: 292465677 heartbeat IPC: 0.4021 cumulative IPC: 0.3733 (Simulation time: 00 hr 41 min 48 sec)
Heartbeat CPU 0 instructions: 154500725 cycles: 293953507 heartbeat IPC: 0.3361 cumulative IPC: 0.3731 (Simulation time: 00 hr 41 min 59 sec)
Heartbeat CPU 0 instructions: 155000725 cycles: 295033619 heartbeat IPC: 0.4629 cumulative IPC: 0.3734 (Simulation time: 00 hr 42 min 07 sec)
Heartbeat CPU 0 instructions: 155500726 cycles: 295396254 heartbeat IPC: 1.379 cumulative IPC: 0.3747 (Simulation time: 00 hr 42 min 11 sec)
Heartbeat CPU 0 instructions: 156000731 cycles: 295785403 heartbeat IPC: 1.285 cumulative IPC: 0.376 (Simulation time: 00 hr 42 min 15 sec)
Heartbeat CPU 0 instructions: 156500734 cycles: 297402636 heartbeat IPC: 0.3092 cumulative IPC: 0.3756 (Simulation time: 00 hr 42 min 26 sec)
Heartbeat CPU 0 instructions: 157000734 cycles: 299871709 heartbeat IPC: 0.2025 cumulative IPC: 0.3741 (Simulation time: 00 hr 42 min 44 sec)
Heartbeat CPU 0 instructions: 157500735 cycles: 301688950 heartbeat IPC: 0.2751 cumulative IPC: 0.3735 (Simulation time: 00 hr 42 min 56 sec)
Heartbeat CPU 0 instructions: 158000736 cycles: 303775694 heartbeat IPC: 0.2396 cumulative IPC: 0.3725 (Simulation time: 00 hr 43 min 11 sec)
Heartbeat CPU 0 instructions: 158500736 cycles: 305043095 heartbeat IPC: 0.3945 cumulative IPC: 0.3726 (Simulation time: 00 hr 43 min 21 sec)
Heartbeat CPU 0 instructions: 159000737 cycles: 306350696 heartbeat IPC: 0.3824 cumulative IPC: 0.3727 (Simulation time: 00 hr 43 min 31 sec)
Heartbeat CPU 0 instructions: 159500737 cycles: 307197142 heartbeat IPC: 0.5907 cumulative IPC: 0.3733 (Simulation time: 00 hr 43 min 38 sec)
Heartbeat CPU 0 instructions: 160000737 cycles: 308551821 heartbeat IPC: 0.3691 cumulative IPC: 0.3733 (Simulation time: 00 hr 43 min 47 sec)
Heartbeat CPU 0 instructions: 160500737 cycles: 310596075 heartbeat IPC: 0.2446 cumulative IPC: 0.3724 (Simulation time: 00 hr 44 min 01 sec)
Heartbeat CPU 0 instructions: 161000739 cycles: 311229203 heartbeat IPC: 0.7897 cumulative IPC: 0.3733 (Simulation time: 00 hr 44 min 07 sec)
Heartbeat CPU 0 instructions: 161500740 cycles: 311996268 heartbeat IPC: 0.6518 cumulative IPC: 0.374 (Simulation time: 00 hr 44 min 14 sec)
Heartbeat CPU 0 instructions: 162000742 cycles: 313679461 heartbeat IPC: 0.2971 cumulative IPC: 0.3735 (Simulation time: 00 hr 44 min 26 sec)
Heartbeat CPU 0 instructions: 162500746 cycles: 315009542 heartbeat IPC: 0.3759 cumulative IPC: 0.3736 (Simulation time: 00 hr 44 min 36 sec)
Heartbeat CPU 0 instructions: 163000751 cycles: 315385857 heartbeat IPC: 1.329 cumulative IPC: 0.3748 (Simulation time: 00 hr 44 min 40 sec)
Heartbeat CPU 0 instructions: 163500756 cycles: 315747354 heartbeat IPC: 1.383 cumulative IPC: 0.376 (Simulation time: 00 hr 44 min 43 sec)
Heartbeat CPU 0 instructions: 164000756 cycles: 316059099 heartbeat IPC: 1.604 cumulative IPC: 0.3772 (Simulation time: 00 hr 44 min 47 sec)
Heartbeat CPU 0 instructions: 164500757 cycles: 316366889 heartbeat IPC: 1.624 cumulative IPC: 0.3785 (Simulation time: 00 hr 44 min 50 sec)
Heartbeat CPU 0 instructions: 165000757 cycles: 316674719 heartbeat IPC: 1.624 cumulative IPC: 0.3798 (Simulation time: 00 hr 44 min 53 sec)
Heartbeat CPU 0 instructions: 165500757 cycles: 317009033 heartbeat IPC: 1.496 cumulative IPC: 0.381 (Simulation time: 00 hr 44 min 57 sec)
Heartbeat CPU 0 instructions: 166000757 cycles: 317339119 heartbeat IPC: 1.515 cumulative IPC: 0.3822 (Simulation time: 00 hr 45 min 00 sec)
Heartbeat CPU 0 instructions: 166500761 cycles: 317641466 heartbeat IPC: 1.654 cumulative IPC: 0.3835 (Simulation time: 00 hr 45 min 03 sec)
Heartbeat CPU 0 instructions: 167000767 cycles: 317954839 heartbeat IPC: 1.596 cumulative IPC: 0.3847 (Simulation time: 00 hr 45 min 07 sec)
Heartbeat CPU 0 instructions: 167500767 cycles: 318248269 heartbeat IPC: 1.704 cumulative IPC: 0.386 (Simulation time: 00 hr 45 min 10 sec)
Heartbeat CPU 0 instructions: 168000773 cycles: 319152453 heartbeat IPC: 0.553 cumulative IPC: 0.3865 (Simulation time: 00 hr 45 min 16 sec)
Heartbeat CPU 0 instructions: 168500778 cycles: 321742085 heartbeat IPC: 0.1931 cumulative IPC: 0.3849 (Simulation time: 00 hr 45 min 34 sec)
Heartbeat CPU 0 instructions: 169000782 cycles: 323975702 heartbeat IPC: 0.2239 cumulative IPC: 0.3837 (Simulation time: 00 hr 45 min 49 sec)
Heartbeat CPU 0 instructions: 169500789 cycles: 325321289 heartbeat IPC: 0.3716 cumulative IPC: 0.3837 (Simulation time: 00 hr 45 min 59 sec)
Heartbeat CPU 0 instructions: 170000790 cycles: 326760809 heartbeat IPC: 0.3473 cumulative IPC: 0.3835 (Simulation time: 00 hr 46 min 10 sec)
Heartbeat CPU 0 instructions: 170500791 cycles: 327660702 heartbeat IPC: 0.5556 cumulative IPC: 0.384 (Simulation time: 00 hr 46 min 17 sec)
Heartbeat CPU 0 instructions: 171000794 cycles: 328503880 heartbeat IPC: 0.593 cumulative IPC: 0.3846 (Simulation time: 00 hr 46 min 24 sec)
Heartbeat CPU 0 instructions: 171500798 cycles: 328843781 heartbeat IPC: 1.471 cumulative IPC: 0.3857 (Simulation time: 00 hr 46 min 27 sec)
Heartbeat CPU 0 instructions: 172000799 cycles: 329159108 heartbeat IPC: 1.586 cumulative IPC: 0.3869 (Simulation time: 00 hr 46 min 30 sec)
Heartbeat CPU 0 instructions: 172500805 cycles: 329510247 heartbeat IPC: 1.424 cumulative IPC: 0.3881 (Simulation time: 00 hr 46 min 34 sec)
Heartbeat CPU 0 instructions: 173000806 cycles: 329802568 heartbeat IPC: 1.71 cumulative IPC: 0.3893 (Simulation time: 00 hr 46 min 37 sec)
Heartbeat CPU 0 instructions: 173500808 cycles: 330621932 heartbeat IPC: 0.6102 cumulative IPC: 0.3899 (Simulation time: 00 hr 46 min 43 sec)
Heartbeat CPU 0 instructions: 174000808 cycles: 330929916 heartbeat IPC: 1.623 cumulative IPC: 0.3911 (Simulation time: 00 hr 46 min 47 sec)
Heartbeat CPU 0 instructions: 174500810 cycles: 331338410 heartbeat IPC: 1.224 cumulative IPC: 0.3921 (Simulation time: 00 hr 46 min 50 sec)
Heartbeat CPU 0 instructions: 175000812 cycles: 333710196 heartbeat IPC: 0.2108 cumulative IPC: 0.3908 (Simulation time: 00 hr 47 min 07 sec)
Heartbeat CPU 0 instructions: 175500812 cycles: 334622198 heartbeat IPC: 0.5482 cumulative IPC: 0.3912 (Simulation time: 00 hr 47 min 14 sec)
Heartbeat CPU 0 instructions: 176000814 cycles: 336780342 heartbeat IPC: 0.2317 cumulative IPC: 0.3902 (Simulation time: 00 hr 47 min 29 sec)
Heartbeat CPU 0 instructions: 176500815 cycles: 339162903 heartbeat IPC: 0.2099 cumulative IPC: 0.3889 (Simulation time: 00 hr 47 min 46 sec)
Heartbeat CPU 0 instructions: 177000820 cycles: 341028020 heartbeat IPC: 0.2681 cumulative IPC: 0.3882 (Simulation time: 00 hr 47 min 59 sec)
Heartbeat CPU 0 instructions: 177500822 cycles: 342618536 heartbeat IPC: 0.3144 cumulative IPC: 0.3878 (Simulation time: 00 hr 48 min 10 sec)
Heartbeat CPU 0 instructions: 178000826 cycles: 344381561 heartbeat IPC: 0.2836 cumulative IPC: 0.3873 (Simulation time: 00 hr 48 min 22 sec)
Heartbeat CPU 0 instructions: 178500833 cycles: 345378470 heartbeat IPC: 0.5016 cumulative IPC: 0.3876 (Simulation time: 00 hr 48 min 30 sec)
Heartbeat CPU 0 instructions: 179000833 cycles: 347612603 heartbeat IPC: 0.2238 cumulative IPC: 0.3865 (Simulation time: 00 hr 48 min 45 sec)
Heartbeat CPU 0 instructions: 179500834 cycles: 348940363 heartbeat IPC: 0.3766 cumulative IPC: 0.3865 (Simulation time: 00 hr 48 min 55 sec)
Heartbeat CPU 0 instructions: 180000834 cycles: 350401659 heartbeat IPC: 0.3422 cumulative IPC: 0.3863 (Simulation time: 00 hr 49 min 05 sec)
Heartbeat CPU 0 instructions: 180500834 cycles: 351416063 heartbeat IPC: 0.4929 cumulative IPC: 0.3866 (Simulation time: 00 hr 49 min 13 sec)
Heartbeat CPU 0 instructions: 181000835 cycles: 351797162 heartbeat IPC: 1.312 cumulative IPC: 0.3876 (Simulation time: 00 hr 49 min 17 sec)
Heartbeat CPU 0 instructions: 181500836 cycles: 352161614 heartbeat IPC: 1.372 cumulative IPC: 0.3887 (Simulation time: 00 hr 49 min 20 sec)
Heartbeat CPU 0 instructions: 182000840 cycles: 352508081 heartbeat IPC: 1.443 cumulative IPC: 0.3898 (Simulation time: 00 hr 49 min 24 sec)
Heartbeat CPU 0 instructions: 182500841 cycles: 352898700 heartbeat IPC: 1.28 cumulative IPC: 0.3908 (Simulation time: 00 hr 49 min 28 sec)
Heartbeat CPU 0 instructions: 183000842 cycles: 353229890 heartbeat IPC: 1.51 cumulative IPC: 0.3919 (Simulation time: 00 hr 49 min 31 sec)
Heartbeat CPU 0 instructions: 183500847 cycles: 353584908 heartbeat IPC: 1.408 cumulative IPC: 0.393 (Simulation time: 00 hr 49 min 34 sec)
Heartbeat CPU 0 instructions: 184000851 cycles: 355111482 heartbeat IPC: 0.3275 cumulative IPC: 0.3927 (Simulation time: 00 hr 49 min 45 sec)
Heartbeat CPU 0 instructions: 184500854 cycles: 356799833 heartbeat IPC: 0.2961 cumulative IPC: 0.3922 (Simulation time: 00 hr 49 min 57 sec)
Heartbeat CPU 0 instructions: 185000860 cycles: 358792608 heartbeat IPC: 0.2509 cumulative IPC: 0.3914 (Simulation time: 00 hr 50 min 10 sec)
Heartbeat CPU 0 instructions: 185500863 cycles: 361221030 heartbeat IPC: 0.2059 cumulative IPC: 0.3901 (Simulation time: 00 hr 50 min 26 sec)
Heartbeat CPU 0 instructions: 186000864 cycles: 362942185 heartbeat IPC: 0.2905 cumulative IPC: 0.3896 (Simulation time: 00 hr 50 min 38 sec)
Heartbeat CPU 0 instructions: 186500866 cycles: 364230198 heartbeat IPC: 0.3882 cumulative IPC: 0.3896 (Simulation time: 00 hr 50 min 49 sec)
Heartbeat CPU 0 instructions: 187000868 cycles: 364937109 heartbeat IPC: 0.7073 cumulative IPC: 0.3902 (Simulation time: 00 hr 50 min 55 sec)
Heartbeat CPU 0 instructions: 187500871 cycles: 366157446 heartbeat IPC: 0.4097 cumulative IPC: 0.3903 (Simulation time: 00 hr 51 min 05 sec)
Heartbeat CPU 0 instructions: 188000872 cycles: 368095767 heartbeat IPC: 0.258 cumulative IPC: 0.3896 (Simulation time: 00 hr 51 min 20 sec)
Heartbeat CPU 0 instructions: 188500873 cycles: 369080288 heartbeat IPC: 0.5079 cumulative IPC: 0.3899 (Simulation time: 00 hr 51 min 26 sec)
Heartbeat CPU 0 instructions: 189000878 cycles: 369795453 heartbeat IPC: 0.6991 cumulative IPC: 0.3905 (Simulation time: 00 hr 51 min 31 sec)
Heartbeat CPU 0 instructions: 189500880 cycles: 370116714 heartbeat IPC: 1.556 cumulative IPC: 0.3916 (Simulation time: 00 hr 51 min 34 sec)
Heartbeat CPU 0 instructions: 190000881 cycles: 370493244 heartbeat IPC: 1.328 cumulative IPC: 0.3926 (Simulation time: 00 hr 51 min 37 sec)
Heartbeat CPU 0 instructions: 190500884 cycles: 370880934 heartbeat IPC: 1.29 cumulative IPC: 0.3935 (Simulation time: 00 hr 51 min 40 sec)
Heartbeat CPU 0 instructions: 191000889 cycles: 372340909 heartbeat IPC: 0.3425 cumulative IPC: 0.3933 (Simulation time: 00 hr 51 min 48 sec)
Heartbeat CPU 0 instructions: 191500889 cycles: 374271546 heartbeat IPC: 0.259 cumulative IPC: 0.3926 (Simulation time: 00 hr 52 min 00 sec)
Heartbeat CPU 0 instructions: 192000889 cycles: 376124786 heartbeat IPC: 0.2698 cumulative IPC: 0.392 (Simulation time: 00 hr 52 min 12 sec)
Heartbeat CPU 0 instructions: 192500893 cycles: 377531553 heartbeat IPC: 0.3554 cumulative IPC: 0.3918 (Simulation time: 00 hr 52 min 23 sec)
Heartbeat CPU 0 instructions: 193000897 cycles: 379089544 heartbeat IPC: 0.3209 cumulative IPC: 0.3915 (Simulation time: 00 hr 52 min 35 sec)
Heartbeat CPU 0 instructions: 193500900 cycles: 380257619 heartbeat IPC: 0.4281 cumulative IPC: 0.3916 (Simulation time: 00 hr 52 min 44 sec)
Heartbeat CPU 0 instructions: 194000900 cycles: 382319698 heartbeat IPC: 0.2425 cumulative IPC: 0.3908 (Simulation time: 00 hr 53 min 00 sec)
Heartbeat CPU 0 instructions: 194500900 cycles: 383897958 heartbeat IPC: 0.3168 cumulative IPC: 0.3905 (Simulation time: 00 hr 53 min 13 sec)
Heartbeat CPU 0 instructions: 195000902 cycles: 385114423 heartbeat IPC: 0.411 cumulative IPC: 0.3906 (Simulation time: 00 hr 53 min 23 sec)
Heartbeat CPU 0 instructions: 195500903 cycles: 386002361 heartbeat IPC: 0.5631 cumulative IPC: 0.391 (Simulation time: 00 hr 53 min 31 sec)
Heartbeat CPU 0 instructions: 196000904 cycles: 386618739 heartbeat IPC: 0.8112 cumulative IPC: 0.3917 (Simulation time: 00 hr 53 min 37 sec)
Heartbeat CPU 0 instructions: 196500904 cycles: 388011920 heartbeat IPC: 0.3589 cumulative IPC: 0.3915 (Simulation time: 00 hr 53 min 48 sec)
Heartbeat CPU 0 instructions: 197000906 cycles: 388883587 heartbeat IPC: 0.5736 cumulative IPC: 0.392 (Simulation time: 00 hr 53 min 56 sec)
Heartbeat CPU 0 instructions: 197500907 cycles: 390990492 heartbeat IPC: 0.2373 cumulative IPC: 0.3911 (Simulation time: 00 hr 54 min 12 sec)
Heartbeat CPU 0 instructions: 198000908 cycles: 392753634 heartbeat IPC: 0.2836 cumulative IPC: 0.3906 (Simulation time: 00 hr 54 min 26 sec)
Heartbeat CPU 0 instructions: 198500911 cycles: 394262647 heartbeat IPC: 0.3313 cumulative IPC: 0.3904 (Simulation time: 00 hr 54 min 38 sec)
Heartbeat CPU 0 instructions: 199000912 cycles: 395467771 heartbeat IPC: 0.4149 cumulative IPC: 0.3904 (Simulation time: 00 hr 54 min 48 sec)
Heartbeat CPU 0 instructions: 199500912 cycles: 396259482 heartbeat IPC: 0.6315 cumulative IPC: 0.3909 (Simulation time: 00 hr 54 min 56 sec)
Heartbeat CPU 0 instructions: 200000918 cycles: 397444990 heartbeat IPC: 0.4218 cumulative IPC: 0.391 (Simulation time: 00 hr 55 min 06 sec)
Heartbeat CPU 0 instructions: 200500918 cycles: 399526799 heartbeat IPC: 0.2402 cumulative IPC: 0.3902 (Simulation time: 00 hr 55 min 22 sec)
Heartbeat CPU 0 instructions: 201000919 cycles: 401207264 heartbeat IPC: 0.2975 cumulative IPC: 0.3898 (Simulation time: 00 hr 55 min 35 sec)
Heartbeat CPU 0 instructions: 201500920 cycles: 403202672 heartbeat IPC: 0.2506 cumulative IPC: 0.3891 (Simulation time: 00 hr 55 min 51 sec)
Heartbeat CPU 0 instructions: 202000927 cycles: 404250024 heartbeat IPC: 0.4774 cumulative IPC: 0.3893 (Simulation time: 00 hr 56 min 00 sec)
Heartbeat CPU 0 instructions: 202500928 cycles: 406720328 heartbeat IPC: 0.2024 cumulative IPC: 0.3882 (Simulation time: 00 hr 56 min 18 sec)
Heartbeat CPU 0 instructions: 203000932 cycles: 408938611 heartbeat IPC: 0.2254 cumulative IPC: 0.3873 (Simulation time: 00 hr 56 min 35 sec)
Heartbeat CPU 0 instructions: 203500935 cycles: 410240990 heartbeat IPC: 0.3839 cumulative IPC: 0.3872 (Simulation time: 00 hr 56 min 45 sec)
Heartbeat CPU 0 instructions: 204000939 cycles: 411274472 heartbeat IPC: 0.4838 cumulative IPC: 0.3875 (Simulation time: 00 hr 56 min 54 sec)
Heartbeat CPU 0 instructions: 204500945 cycles: 412254010 heartbeat IPC: 0.5105 cumulative IPC: 0.3878 (Simulation time: 00 hr 57 min 03 sec)
Heartbeat CPU 0 instructions: 205000952 cycles: 412966117 heartbeat IPC: 0.7022 cumulative IPC: 0.3884 (Simulation time: 00 hr 57 min 10 sec)
Heartbeat CPU 0 instructions: 205500954 cycles: 413838893 heartbeat IPC: 0.5729 cumulative IPC: 0.3888 (Simulation time: 00 hr 57 min 17 sec)
Heartbeat CPU 0 instructions: 206000954 cycles: 414687930 heartbeat IPC: 0.5889 cumulative IPC: 0.3892 (Simulation time: 00 hr 57 min 25 sec)
Heartbeat CPU 0 instructions: 206500958 cycles: 415919389 heartbeat IPC: 0.406 cumulative IPC: 0.3892 (Simulation time: 00 hr 57 min 35 sec)
Heartbeat CPU 0 instructions: 207000958 cycles: 416786324 heartbeat IPC: 0.5767 cumulative IPC: 0.3896 (Simulation time: 00 hr 57 min 43 sec)
Heartbeat CPU 0 instructions: 207500963 cycles: 417897800 heartbeat IPC: 0.4499 cumulative IPC: 0.3898 (Simulation time: 00 hr 57 min 53 sec)
Heartbeat CPU 0 instructions: 208000963 cycles: 419658627 heartbeat IPC: 0.284 cumulative IPC: 0.3893 (Simulation time: 00 hr 58 min 07 sec)
Heartbeat CPU 0 instructions: 208500966 cycles: 422238658 heartbeat IPC: 0.1938 cumulative IPC: 0.3881 (Simulation time: 00 hr 58 min 27 sec)
Heartbeat CPU 0 instructions: 209000967 cycles: 424279771 heartbeat IPC: 0.245 cumulative IPC: 0.3874 (Simulation time: 00 hr 58 min 41 sec)
Heartbeat CPU 0 instructions: 209500967 cycles: 424599461 heartbeat IPC: 1.564 cumulative IPC: 0.3883 (Simulation time: 00 hr 58 min 45 sec)
Heartbeat CPU 0 instructions: 210000968 cycles: 424936242 heartbeat IPC: 1.485 cumulative IPC: 0.3892 (Simulation time: 00 hr 58 min 48 sec)
Heartbeat CPU 0 instructions: 210500970 cycles: 425332363 heartbeat IPC: 1.262 cumulative IPC: 0.3901 (Simulation time: 00 hr 58 min 52 sec)
Heartbeat CPU 0 instructions: 211000974 cycles: 426778226 heartbeat IPC: 0.3458 cumulative IPC: 0.3899 (Simulation time: 00 hr 59 min 03 sec)
Heartbeat CPU 0 instructions: 211500981 cycles: 428820482 heartbeat IPC: 0.2448 cumulative IPC: 0.3892 (Simulation time: 00 hr 59 min 18 sec)
Heartbeat CPU 0 instructions: 212000987 cycles: 430484520 heartbeat IPC: 0.3005 cumulative IPC: 0.3888 (Simulation time: 00 hr 59 min 31 sec)
Heartbeat CPU 0 instructions: 212500988 cycles: 431606687 heartbeat IPC: 0.4456 cumulative IPC: 0.389 (Simulation time: 00 hr 59 min 40 sec)
Heartbeat CPU 0 instructions: 213000991 cycles: 433589715 heartbeat IPC: 0.2521 cumulative IPC: 0.3883 (Simulation time: 00 hr 59 min 55 sec)
Heartbeat CPU 0 instructions: 213500991 cycles: 435440973 heartbeat IPC: 0.2701 cumulative IPC: 0.3878 (Simulation time: 01 hr 00 min 08 sec)
Heartbeat CPU 0 instructions: 214000993 cycles: 437183717 heartbeat IPC: 0.2869 cumulative IPC: 0.3874 (Simulation time: 01 hr 00 min 21 sec)
Heartbeat CPU 0 instructions: 214500994 cycles: 438391758 heartbeat IPC: 0.4139 cumulative IPC: 0.3875 (Simulation time: 01 hr 00 min 30 sec)
Heartbeat CPU 0 instructions: 215000994 cycles: 439828717 heartbeat IPC: 0.348 cumulative IPC: 0.3873 (Simulation time: 01 hr 00 min 42 sec)
Heartbeat CPU 0 instructions: 215500995 cycles: 441282044 heartbeat IPC: 0.344 cumulative IPC: 0.3872 (Simulation time: 01 hr 00 min 58 sec)
Heartbeat CPU 0 instructions: 216000995 cycles: 442687242 heartbeat IPC: 0.3558 cumulative IPC: 0.3871 (Simulation time: 01 hr 01 min 15 sec)
Heartbeat CPU 0 instructions: 216500995 cycles: 444235765 heartbeat IPC: 0.3229 cumulative IPC: 0.3869 (Simulation time: 01 hr 01 min 26 sec)
Heartbeat CPU 0 instructions: 217001000 cycles: 445288819 heartbeat IPC: 0.4748 cumulative IPC: 0.3871 (Simulation time: 01 hr 01 min 35 sec)
Heartbeat CPU 0 instructions: 217501000 cycles: 446115999 heartbeat IPC: 0.6045 cumulative IPC: 0.3875 (Simulation time: 01 hr 01 min 43 sec)
Heartbeat CPU 0 instructions: 218001000 cycles: 447985538 heartbeat IPC: 0.2674 cumulative IPC: 0.387 (Simulation time: 01 hr 01 min 59 sec)
Heartbeat CPU 0 instructions: 218501000 cycles: 449968235 heartbeat IPC: 0.2522 cumulative IPC: 0.3864 (Simulation time: 01 hr 02 min 14 sec)
Heartbeat CPU 0 instructions: 219001000 cycles: 451290232 heartbeat IPC: 0.3782 cumulative IPC: 0.3863 (Simulation time: 01 hr 02 min 25 sec)
Heartbeat CPU 0 instructions: 219501000 cycles: 453091702 heartbeat IPC: 0.2776 cumulative IPC: 0.3859 (Simulation time: 01 hr 02 min 39 sec)
Heartbeat CPU 0 instructions: 220001000 cycles: 454728440 heartbeat IPC: 0.3055 cumulative IPC: 0.3856 (Simulation time: 01 hr 02 min 51 sec)
Heartbeat CPU 0 instructions: 220501000 cycles: 455819788 heartbeat IPC: 0.4581 cumulative IPC: 0.3858 (Simulation time: 01 hr 03 min 00 sec)
Heartbeat CPU 0 instructions: 221001001 cycles: 457332945 heartbeat IPC: 0.3304 cumulative IPC: 0.3856 (Simulation time: 01 hr 03 min 12 sec)
Heartbeat CPU 0 instructions: 221501003 cycles: 458991390 heartbeat IPC: 0.3015 cumulative IPC: 0.3853 (Simulation time: 01 hr 03 min 25 sec)
Heartbeat CPU 0 instructions: 222001003 cycles: 460564438 heartbeat IPC: 0.3179 cumulative IPC: 0.385 (Simulation time: 01 hr 03 min 37 sec)
Heartbeat CPU 0 instructions: 222501005 cycles: 462196498 heartbeat IPC: 0.3064 cumulative IPC: 0.3847 (Simulation time: 01 hr 03 min 50 sec)
Heartbeat CPU 0 instructions: 223001007 cycles: 464307217 heartbeat IPC: 0.2369 cumulative IPC: 0.3841 (Simulation time: 01 hr 04 min 06 sec)
Heartbeat CPU 0 instructions: 223501014 cycles: 465702515 heartbeat IPC: 0.3584 cumulative IPC: 0.384 (Simulation time: 01 hr 04 min 17 sec)
Heartbeat CPU 0 instructions: 224001018 cycles: 466060209 heartbeat IPC: 1.398 cumulative IPC: 0.3848 (Simulation time: 01 hr 04 min 21 sec)
Heartbeat CPU 0 instructions: 224501022 cycles: 466455702 heartbeat IPC: 1.264 cumulative IPC: 0.3855 (Simulation time: 01 hr 04 min 25 sec)
Heartbeat CPU 0 instructions: 225001025 cycles: 466824117 heartbeat IPC: 1.357 cumulative IPC: 0.3863 (Simulation time: 01 hr 04 min 29 sec)
Heartbeat CPU 0 instructions: 225501028 cycles: 467175988 heartbeat IPC: 1.421 cumulative IPC: 0.3871 (Simulation time: 01 hr 04 min 33 sec)
Heartbeat CPU 0 instructions: 226001029 cycles: 467827717 heartbeat IPC: 0.7672 cumulative IPC: 0.3877 (Simulation time: 01 hr 04 min 38 sec)
Heartbeat CPU 0 instructions: 226501035 cycles: 468192908 heartbeat IPC: 1.369 cumulative IPC: 0.3885 (Simulation time: 01 hr 04 min 42 sec)
Heartbeat CPU 0 instructions: 227001040 cycles: 470249505 heartbeat IPC: 0.2431 cumulative IPC: 0.3878 (Simulation time: 01 hr 04 min 57 sec)
Heartbeat CPU 0 instructions: 227501041 cycles: 471637283 heartbeat IPC: 0.3603 cumulative IPC: 0.3877 (Simulation time: 01 hr 05 min 08 sec)
Heartbeat CPU 0 instructions: 228001047 cycles: 472878021 heartbeat IPC: 0.403 cumulative IPC: 0.3878 (Simulation time: 01 hr 05 min 18 sec)
Heartbeat CPU 0 instructions: 228501053 cycles: 474895126 heartbeat IPC: 0.2479 cumulative IPC: 0.3872 (Simulation time: 01 hr 05 min 32 sec)
Heartbeat CPU 0 instructions: 229001053 cycles: 476387373 heartbeat IPC: 0.3351 cumulative IPC: 0.387 (Simulation time: 01 hr 05 min 43 sec)
Heartbeat CPU 0 instructions: 229501053 cycles: 477932474 heartbeat IPC: 0.3236 cumulative IPC: 0.3868 (Simulation time: 01 hr 05 min 54 sec)
Heartbeat CPU 0 instructions: 230001053 cycles: 479011927 heartbeat IPC: 0.4632 cumulative IPC: 0.387 (Simulation time: 01 hr 06 min 03 sec)
Heartbeat CPU 0 instructions: 230501053 cycles: 480671661 heartbeat IPC: 0.3013 cumulative IPC: 0.3867 (Simulation time: 01 hr 06 min 15 sec)
Heartbeat CPU 0 instructions: 231001053 cycles: 482096933 heartbeat IPC: 0.3508 cumulative IPC: 0.3866 (Simulation time: 01 hr 06 min 26 sec)
Heartbeat CPU 0 instructions: 231501055 cycles: 484013624 heartbeat IPC: 0.2609 cumulative IPC: 0.386 (Simulation time: 01 hr 06 min 41 sec)
Heartbeat CPU 0 instructions: 232001058 cycles: 485777262 heartbeat IPC: 0.2835 cumulative IPC: 0.3857 (Simulation time: 01 hr 06 min 54 sec)
Heartbeat CPU 0 instructions: 232501058 cycles: 487297433 heartbeat IPC: 0.3289 cumulative IPC: 0.3855 (Simulation time: 01 hr 07 min 06 sec)
Heartbeat CPU 0 instructions: 233001058 cycles: 488918053 heartbeat IPC: 0.3085 cumulative IPC: 0.3852 (Simulation time: 01 hr 07 min 19 sec)
Heartbeat CPU 0 instructions: 233501061 cycles: 491030971 heartbeat IPC: 0.2366 cumulative IPC: 0.3846 (Simulation time: 01 hr 07 min 35 sec)
Heartbeat CPU 0 instructions: 234001065 cycles: 492442013 heartbeat IPC: 0.3544 cumulative IPC: 0.3845 (Simulation time: 01 hr 07 min 46 sec)
Heartbeat CPU 0 instructions: 234501067 cycles: 493283630 heartbeat IPC: 0.5941 cumulative IPC: 0.3848 (Simulation time: 01 hr 07 min 54 sec)
Heartbeat CPU 0 instructions: 235001068 cycles: 495393075 heartbeat IPC: 0.237 cumulative IPC: 0.3842 (Simulation time: 01 hr 08 min 09 sec)
Heartbeat CPU 0 instructions: 235501072 cycles: 496393679 heartbeat IPC: 0.4997 cumulative IPC: 0.3844 (Simulation time: 01 hr 08 min 18 sec)
Heartbeat CPU 0 instructions: 236001072 cycles: 498077309 heartbeat IPC: 0.297 cumulative IPC: 0.3841 (Simulation time: 01 hr 08 min 32 sec)
Heartbeat CPU 0 instructions: 236501076 cycles: 499274462 heartbeat IPC: 0.4177 cumulative IPC: 0.3842 (Simulation time: 01 hr 08 min 41 sec)
Heartbeat CPU 0 instructions: 237001077 cycles: 501760455 heartbeat IPC: 0.2011 cumulative IPC: 0.3833 (Simulation time: 01 hr 09 min 00 sec)
Heartbeat CPU 0 instructions: 237501081 cycles: 503429475 heartbeat IPC: 0.2996 cumulative IPC: 0.383 (Simulation time: 01 hr 09 min 13 sec)
Heartbeat CPU 0 instructions: 238001082 cycles: 504933012 heartbeat IPC: 0.3325 cumulative IPC: 0.3828 (Simulation time: 01 hr 09 min 25 sec)
Heartbeat CPU 0 instructions: 238501087 cycles: 506134434 heartbeat IPC: 0.4162 cumulative IPC: 0.3829 (Simulation time: 01 hr 09 min 35 sec)
Heartbeat CPU 0 instructions: 239001087 cycles: 507731141 heartbeat IPC: 0.3131 cumulative IPC: 0.3827 (Simulation time: 01 hr 09 min 48 sec)
Heartbeat CPU 0 instructions: 239501088 cycles: 509209153 heartbeat IPC: 0.3383 cumulative IPC: 0.3826 (Simulation time: 01 hr 10 min 00 sec)
Heartbeat CPU 0 instructions: 240001089 cycles: 510670686 heartbeat IPC: 0.3421 cumulative IPC: 0.3824 (Simulation time: 01 hr 10 min 12 sec)
Heartbeat CPU 0 instructions: 240501090 cycles: 512546553 heartbeat IPC: 0.2665 cumulative IPC: 0.382 (Simulation time: 01 hr 10 min 27 sec)
Heartbeat CPU 0 instructions: 241001090 cycles: 514016924 heartbeat IPC: 0.3401 cumulative IPC: 0.3819 (Simulation time: 01 hr 10 min 38 sec)
Heartbeat CPU 0 instructions: 241501091 cycles: 515971611 heartbeat IPC: 0.2558 cumulative IPC: 0.3814 (Simulation time: 01 hr 10 min 53 sec)
Heartbeat CPU 0 instructions: 242001093 cycles: 517469939 heartbeat IPC: 0.3337 cumulative IPC: 0.3812 (Simulation time: 01 hr 11 min 05 sec)
Heartbeat CPU 0 instructions: 242501093 cycles: 519099910 heartbeat IPC: 0.3068 cumulative IPC: 0.381 (Simulation time: 01 hr 11 min 18 sec)
Heartbeat CPU 0 instructions: 243001095 cycles: 520633408 heartbeat IPC: 0.3261 cumulative IPC: 0.3808 (Simulation time: 01 hr 11 min 30 sec)
Heartbeat CPU 0 instructions: 243501095 cycles: 521466688 heartbeat IPC: 0.6 cumulative IPC: 0.3812 (Simulation time: 01 hr 11 min 37 sec)
Heartbeat CPU 0 instructions: 244001099 cycles: 523270990 heartbeat IPC: 0.2771 cumulative IPC: 0.3808 (Simulation time: 01 hr 11 min 51 sec)
Heartbeat CPU 0 instructions: 244501100 cycles: 524628309 heartbeat IPC: 0.3684 cumulative IPC: 0.3808 (Simulation time: 01 hr 12 min 01 sec)
Heartbeat CPU 0 instructions: 245001100 cycles: 526239807 heartbeat IPC: 0.3103 cumulative IPC: 0.3806 (Simulation time: 01 hr 12 min 13 sec)
Heartbeat CPU 0 instructions: 245501106 cycles: 527319250 heartbeat IPC: 0.4632 cumulative IPC: 0.3807 (Simulation time: 01 hr 12 min 22 sec)
Heartbeat CPU 0 instructions: 246001106 cycles: 528987281 heartbeat IPC: 0.2998 cumulative IPC: 0.3805 (Simulation time: 01 hr 12 min 35 sec)
Heartbeat CPU 0 instructions: 246501106 cycles: 531074453 heartbeat IPC: 0.2396 cumulative IPC: 0.3799 (Simulation time: 01 hr 12 min 50 sec)
Heartbeat CPU 0 instructions: 247001109 cycles: 532381933 heartbeat IPC: 0.3824 cumulative IPC: 0.3799 (Simulation time: 01 hr 13 min 01 sec)
Heartbeat CPU 0 instructions: 247501110 cycles: 533349604 heartbeat IPC: 0.5167 cumulative IPC: 0.3802 (Simulation time: 01 hr 13 min 09 sec)
Heartbeat CPU 0 instructions: 248001110 cycles: 534889345 heartbeat IPC: 0.3247 cumulative IPC: 0.38 (Simulation time: 01 hr 13 min 21 sec)
Heartbeat CPU 0 instructions: 248501110 cycles: 536283935 heartbeat IPC: 0.3585 cumulative IPC: 0.38 (Simulation time: 01 hr 13 min 32 sec)
Heartbeat CPU 0 instructions: 249001115 cycles: 537451500 heartbeat IPC: 0.4282 cumulative IPC: 0.3801 (Simulation time: 01 hr 13 min 41 sec)
Heartbeat CPU 0 instructions: 249501116 cycles: 538220906 heartbeat IPC: 0.6499 cumulative IPC: 0.3805 (Simulation time: 01 hr 13 min 48 sec)
Simulation finished CPU 0 instructions: 200000001 cycles: 525825808 cumulative IPC: 0.3804 (Simulation time: 01 hr 14 min 00 sec)
Simulation complete CPU 0 instructions: 200000001 cycles: 525825808 cumulative IPC: 0.3804 (Simulation time: 01 hr 14 min 00 sec)

ChampSim completed all CPUs

=== Simulation ===
CPU 0 runs /local-ssd/ben/dpc4-traces/gtraces_v2/sierra.a.6_0002.champsim.gz

Region of Interest Statistics

CPU 0 cumulative IPC: 0.3804 instructions: 200000001 cycles: 525825808
CPU 0 Branch Prediction Accuracy: 87.37% MPKI: 24.72 Average ROB Occupancy at Mispredict: 17.51
Branch type MPKI
BRANCH_DIRECT_JUMP: 1.987
BRANCH_INDIRECT: 0.2627
BRANCH_CONDITIONAL: 19.65
BRANCH_DIRECT_CALL: 1.394
BRANCH_INDIRECT_CALL: 0.3355
BRANCH_RETURN: 1.09

cpu0->cpu0_STLB TOTAL        ACCESS:    3633598 HIT:    2731957 MISS:     901641 MSHR_MERGE:          0
cpu0->cpu0_STLB LOAD         ACCESS:    3633598 HIT:    2731957 MISS:     901641 MSHR_MERGE:          0
cpu0->cpu0_STLB RFO          ACCESS:          0 HIT:          0 MISS:          0 MSHR_MERGE:          0
cpu0->cpu0_STLB PREFETCH     ACCESS:          0 HIT:          0 MISS:          0 MSHR_MERGE:          0
cpu0->cpu0_STLB WRITE        ACCESS:          0 HIT:          0 MISS:          0 MSHR_MERGE:          0
cpu0->cpu0_STLB TRANSLATION  ACCESS:          0 HIT:          0 MISS:          0 MSHR_MERGE:          0
cpu0->cpu0_STLB PREFETCH REQUESTED:          0 ISSUED:          0 USEFUL:          0 USELESS:          0
cpu0->cpu0_STLB AVERAGE MISS LATENCY: 139 cycles
cpu0->cpu0_L2C TOTAL        ACCESS:   24508751 HIT:   17566037 MISS:    6942714 MSHR_MERGE:     727068
cpu0->cpu0_L2C LOAD         ACCESS:    9869313 HIT:    7466297 MISS:    2403016 MSHR_MERGE:      26823
cpu0->cpu0_L2C RFO          ACCESS:    1016090 HIT:     598642 MISS:     417448 MSHR_MERGE:       4738
cpu0->cpu0_L2C PREFETCH     ACCESS:   10629718 HIT:    6943093 MISS:    3686625 MSHR_MERGE:     695507
cpu0->cpu0_L2C WRITE        ACCESS:    1967972 HIT:    1967908 MISS:         64 MSHR_MERGE:          0
cpu0->cpu0_L2C TRANSLATION  ACCESS:    1025658 HIT:     590097 MISS:     435561 MSHR_MERGE:          0
cpu0->cpu0_L2C PREFETCH REQUESTED:    8728032 ISSUED:    8518977 USEFUL:     607600 USELESS:    1498892
cpu0->cpu0_L2C AVERAGE MISS LATENCY: 202 cycles
cpu0->cpu0_L1I TOTAL        ACCESS:   22997132 HIT:   13529899 MISS:    9467233 MSHR_MERGE:    2340349
cpu0->cpu0_L1I LOAD         ACCESS:   22997132 HIT:   13529899 MISS:    9467233 MSHR_MERGE:    2340349
cpu0->cpu0_L1I RFO          ACCESS:          0 HIT:          0 MISS:          0 MSHR_MERGE:          0
cpu0->cpu0_L1I PREFETCH     ACCESS:          0 HIT:          0 MISS:          0 MSHR_MERGE:          0
cpu0->cpu0_L1I WRITE        ACCESS:          0 HIT:          0 MISS:          0 MSHR_MERGE:          0
cpu0->cpu0_L1I TRANSLATION  ACCESS:          0 HIT:          0 MISS:          0 MSHR_MERGE:          0
cpu0->cpu0_L1I PREFETCH REQUESTED:          0 ISSUED:          0 USEFUL:          0 USELESS:          0
cpu0->cpu0_L1I AVERAGE MISS LATENCY: 49.56 cycles
cpu0->cpu0_L1D TOTAL        ACCESS:   82054880 HIT:   71393045 MISS:   10661835 MSHR_MERGE:    3766840
cpu0->cpu0_L1D LOAD         ACCESS:   34658598 HIT:   31207687 MISS:    3450911 MSHR_MERGE:     708450
cpu0->cpu0_L1D RFO          ACCESS:          0 HIT:          0 MISS:          0 MSHR_MERGE:          0
cpu0->cpu0_L1D PREFETCH     ACCESS:   20070387 HIT:   17065008 MISS:    3005379 MSHR_MERGE:     894632
cpu0->cpu0_L1D WRITE        ACCESS:   24954813 HIT:   21781492 MISS:    3173321 MSHR_MERGE:    2157192
cpu0->cpu0_L1D TRANSLATION  ACCESS:    2371082 HIT:    1338858 MISS:    1032224 MSHR_MERGE:       6566
cpu0->cpu0_L1D PREFETCH REQUESTED:   20959977 ISSUED:   20070379 USEFUL:     365720 USELESS:    1744930
cpu0->cpu0_L1D AVERAGE MISS LATENCY: 83.16 cycles
cpu0->cpu0_ITLB TOTAL        ACCESS:   18733162 HIT:   17728490 MISS:    1004672 MSHR_MERGE:     471281
cpu0->cpu0_ITLB LOAD         ACCESS:   18733162 HIT:   17728490 MISS:    1004672 MSHR_MERGE:     471281
cpu0->cpu0_ITLB RFO          ACCESS:          0 HIT:          0 MISS:          0 MSHR_MERGE:          0
cpu0->cpu0_ITLB PREFETCH     ACCESS:          0 HIT:          0 MISS:          0 MSHR_MERGE:          0
cpu0->cpu0_ITLB WRITE        ACCESS:          0 HIT:          0 MISS:          0 MSHR_MERGE:          0
cpu0->cpu0_ITLB TRANSLATION  ACCESS:          0 HIT:          0 MISS:          0 MSHR_MERGE:          0
cpu0->cpu0_ITLB PREFETCH REQUESTED:          0 ISSUED:          0 USEFUL:          0 USELESS:          0
cpu0->cpu0_ITLB AVERAGE MISS LATENCY: 22.15 cycles
cpu0->cpu0_DTLB TOTAL        ACCESS:   74283166 HIT:   69561536 MISS:    4721630 MSHR_MERGE:    1621423
cpu0->cpu0_DTLB LOAD         ACCESS:   74283166 HIT:   69561536 MISS:    4721630 MSHR_MERGE:    1621423
cpu0->cpu0_DTLB RFO          ACCESS:          0 HIT:          0 MISS:          0 MSHR_MERGE:          0
cpu0->cpu0_DTLB PREFETCH     ACCESS:          0 HIT:          0 MISS:          0 MSHR_MERGE:          0
cpu0->cpu0_DTLB WRITE        ACCESS:          0 HIT:          0 MISS:          0 MSHR_MERGE:          0
cpu0->cpu0_DTLB TRANSLATION  ACCESS:          0 HIT:          0 MISS:          0 MSHR_MERGE:          0
cpu0->cpu0_DTLB PREFETCH REQUESTED:          0 ISSUED:          0 USEFUL:          0 USELESS:          0
cpu0->cpu0_DTLB AVERAGE MISS LATENCY: 42.77 cycles
cpu0->LLC TOTAL        ACCESS:    8138421 HIT:    1904129 MISS:    6234292 MSHR_MERGE:     108608
cpu0->LLC LOAD         ACCESS:    2376193 HIT:     540800 MISS:    1835393 MSHR_MERGE:       2103
cpu0->LLC RFO          ACCESS:     412710 HIT:      30552 MISS:     382158 MSHR_MERGE:        244
cpu0->LLC PREFETCH     ACCESS:    3954583 HIT:     609862 MISS:    3344721 MSHR_MERGE:     106261
cpu0->LLC WRITE        ACCESS:     959374 HIT:     638881 MISS:     320493 MSHR_MERGE:          0
cpu0->LLC TRANSLATION  ACCESS:     435561 HIT:      84034 MISS:     351527 MSHR_MERGE:          0
cpu0->LLC PREFETCH REQUESTED:     963485 ISSUED:     963465 USEFUL:     127053 USELESS:     555461
cpu0->LLC AVERAGE MISS LATENCY: 202.3 cycles

DRAM Statistics

Channel 0 RQ ROW_BUFFER_HIT:      56513
  ROW_BUFFER_MISS:    5748527
  AVG DBUS CONGESTED CYCLE: 21.75
Channel 0 WQ ROW_BUFFER_HIT:     254303
  ROW_BUFFER_MISS:     637695
  FULL:          0
Channel 0 REFRESHES ISSUED:      43816
