[VMEM] WARNING: physical memory size is smaller than virtual memory size.

*** ChampSim Multicore Out-of-Order Simulator ***
Warmup Instructions: 50000000
Simulation Instructions: 200000000
Number of CPUs: 1
Page size: 4096
Core 0: /local-ssd/ben/dpc4-traces/SPEC17/605.mcf_s-1554B.champsimtrace.xz
Off-chip DRAM Size: 64 GiB Channels: 1 Width: 64-bit Data Rate: 4807 MT/s
Heartbeat CPU 0 instructions: 500000 cycles: 240265 heartbeat IPC: 2.081 cumulative IPC: 2.081 (Simulation time: 00 hr 00 min 05 sec)
Heartbeat CPU 0 instructions: 1000001 cycles: 381902 heartbeat IPC: 3.53 cumulative IPC: 2.618 (Simulation time: 00 hr 00 min 09 sec)
Heartbeat CPU 0 instructions: 1500003 cycles: 516717 heartbeat IPC: 3.709 cumulative IPC: 2.903 (Simulation time: 00 hr 00 min 12 sec)
Heartbeat CPU 0 instructions: 2000006 cycles: 655495 heartbeat IPC: 3.603 cumulative IPC: 3.051 (Simulation time: 00 hr 00 min 16 sec)
Heartbeat CPU 0 instructions: 2500008 cycles: 777279 heartbeat IPC: 4.106 cumulative IPC: 3.216 (Simulation time: 00 hr 00 min 20 sec)
Heartbeat CPU 0 instructions: 3000012 cycles: 930755 heartbeat IPC: 3.258 cumulative IPC: 3.223 (Simulation time: 00 hr 00 min 24 sec)
Heartbeat CPU 0 instructions: 3500019 cycles: 1099293 heartbeat IPC: 2.967 cumulative IPC: 3.184 (Simulation time: 00 hr 00 min 28 sec)
Heartbeat CPU 0 instructions: 4000026 cycles: 1255208 heartbeat IPC: 3.207 cumulative IPC: 3.187 (Simulation time: 00 hr 00 min 32 sec)
Heartbeat CPU 0 instructions: 4500031 cycles: 1411245 heartbeat IPC: 3.204 cumulative IPC: 3.189 (Simulation time: 00 hr 00 min 36 sec)
Heartbeat CPU 0 instructions: 5000035 cycles: 1553805 heartbeat IPC: 3.507 cumulative IPC: 3.218 (Simulation time: 00 hr 00 min 40 sec)
Heartbeat CPU 0 instructions: 5500035 cycles: 1695278 heartbeat IPC: 3.534 cumulative IPC: 3.244 (Simulation time: 00 hr 00 min 44 sec)
Heartbeat CPU 0 instructions: 6000035 cycles: 1817020 heartbeat IPC: 4.107 cumulative IPC: 3.302 (Simulation time: 00 hr 00 min 48 sec)
Heartbeat CPU 0 instructions: 6500040 cycles: 1955325 heartbeat IPC: 3.615 cumulative IPC: 3.324 (Simulation time: 00 hr 00 min 52 sec)
Heartbeat CPU 0 instructions: 7000041 cycles: 2100239 heartbeat IPC: 3.45 cumulative IPC: 3.333 (Simulation time: 00 hr 00 min 56 sec)
Heartbeat CPU 0 instructions: 7500045 cycles: 2257467 heartbeat IPC: 3.18 cumulative IPC: 3.322 (Simulation time: 00 hr 01 min 00 sec)
Heartbeat CPU 0 instructions: 8000050 cycles: 2438131 heartbeat IPC: 2.768 cumulative IPC: 3.281 (Simulation time: 00 hr 01 min 05 sec)
Heartbeat CPU 0 instructions: 8500051 cycles: 2574609 heartbeat IPC: 3.664 cumulative IPC: 3.301 (Simulation time: 00 hr 01 min 09 sec)
Heartbeat CPU 0 instructions: 9000054 cycles: 2738074 heartbeat IPC: 3.059 cumulative IPC: 3.287 (Simulation time: 00 hr 01 min 13 sec)
Heartbeat CPU 0 instructions: 9500055 cycles: 2900869 heartbeat IPC: 3.071 cumulative IPC: 3.275 (Simulation time: 00 hr 01 min 18 sec)
Heartbeat CPU 0 instructions: 10000060 cycles: 3032775 heartbeat IPC: 3.791 cumulative IPC: 3.297 (Simulation time: 00 hr 01 min 21 sec)
Heartbeat CPU 0 instructions: 10500060 cycles: 3155301 heartbeat IPC: 4.081 cumulative IPC: 3.328 (Simulation time: 00 hr 01 min 25 sec)
Heartbeat CPU 0 instructions: 11000062 cycles: 3280826 heartbeat IPC: 3.983 cumulative IPC: 3.353 (Simulation time: 00 hr 01 min 29 sec)
Heartbeat CPU 0 instructions: 11500068 cycles: 3425312 heartbeat IPC: 3.461 cumulative IPC: 3.357 (Simulation time: 00 hr 01 min 33 sec)
Heartbeat CPU 0 instructions: 12000068 cycles: 3565549 heartbeat IPC: 3.565 cumulative IPC: 3.366 (Simulation time: 00 hr 01 min 37 sec)
Heartbeat CPU 0 instructions: 12500075 cycles: 3714832 heartbeat IPC: 3.349 cumulative IPC: 3.365 (Simulation time: 00 hr 01 min 41 sec)
Heartbeat CPU 0 instructions: 13000078 cycles: 3847412 heartbeat IPC: 3.771 cumulative IPC: 3.379 (Simulation time: 00 hr 01 min 45 sec)
Heartbeat CPU 0 instructions: 13500083 cycles: 3969273 heartbeat IPC: 4.103 cumulative IPC: 3.401 (Simulation time: 00 hr 01 min 48 sec)
Heartbeat CPU 0 instructions: 14000085 cycles: 4099444 heartbeat IPC: 3.841 cumulative IPC: 3.415 (Simulation time: 00 hr 01 min 52 sec)
Heartbeat CPU 0 instructions: 14500090 cycles: 4221531 heartbeat IPC: 4.095 cumulative IPC: 3.435 (Simulation time: 00 hr 01 min 56 sec)
Heartbeat CPU 0 instructions: 15000097 cycles: 4386066 heartbeat IPC: 3.039 cumulative IPC: 3.42 (Simulation time: 00 hr 02 min 00 sec)
Heartbeat CPU 0 instructions: 15500102 cycles: 4534602 heartbeat IPC: 3.366 cumulative IPC: 3.418 (Simulation time: 00 hr 02 min 04 sec)
Heartbeat CPU 0 instructions: 16000109 cycles: 4689447 heartbeat IPC: 3.229 cumulative IPC: 3.412 (Simulation time: 00 hr 02 min 09 sec)
Heartbeat CPU 0 instructions: 16500115 cycles: 4819607 heartbeat IPC: 3.841 cumulative IPC: 3.424 (Simulation time: 00 hr 02 min 12 sec)
Heartbeat CPU 0 instructions: 17000118 cycles: 4973884 heartbeat IPC: 3.241 cumulative IPC: 3.418 (Simulation time: 00 hr 02 min 16 sec)
Heartbeat CPU 0 instructions: 17500124 cycles: 5130354 heartbeat IPC: 3.196 cumulative IPC: 3.411 (Simulation time: 00 hr 02 min 21 sec)
Heartbeat CPU 0 instructions: 18000129 cycles: 5276843 heartbeat IPC: 3.413 cumulative IPC: 3.411 (Simulation time: 00 hr 02 min 25 sec)
Heartbeat CPU 0 instructions: 18500135 cycles: 5421438 heartbeat IPC: 3.458 cumulative IPC: 3.412 (Simulation time: 00 hr 02 min 29 sec)
Heartbeat CPU 0 instructions: 19000141 cycles: 5564425 heartbeat IPC: 3.497 cumulative IPC: 3.415 (Simulation time: 00 hr 02 min 33 sec)
Heartbeat CPU 0 instructions: 19500146 cycles: 5686308 heartbeat IPC: 4.102 cumulative IPC: 3.429 (Simulation time: 00 hr 02 min 37 sec)
Heartbeat CPU 0 instructions: 20000147 cycles: 5808005 heartbeat IPC: 4.109 cumulative IPC: 3.444 (Simulation time: 00 hr 02 min 40 sec)
Heartbeat CPU 0 instructions: 20500150 cycles: 5948118 heartbeat IPC: 3.569 cumulative IPC: 3.446 (Simulation time: 00 hr 02 min 44 sec)
Heartbeat CPU 0 instructions: 21000156 cycles: 6129258 heartbeat IPC: 2.76 cumulative IPC: 3.426 (Simulation time: 00 hr 02 min 49 sec)
Heartbeat CPU 0 instructions: 21500156 cycles: 6272890 heartbeat IPC: 3.481 cumulative IPC: 3.427 (Simulation time: 00 hr 02 min 53 sec)
Heartbeat CPU 0 instructions: 22000163 cycles: 6418294 heartbeat IPC: 3.439 cumulative IPC: 3.428 (Simulation time: 00 hr 02 min 57 sec)
Heartbeat CPU 0 instructions: 22500166 cycles: 6540256 heartbeat IPC: 4.1 cumulative IPC: 3.44 (Simulation time: 00 hr 03 min 01 sec)
Heartbeat CPU 0 instructions: 23000169 cycles: 6663269 heartbeat IPC: 4.065 cumulative IPC: 3.452 (Simulation time: 00 hr 03 min 05 sec)
Heartbeat CPU 0 instructions: 23500171 cycles: 6785261 heartbeat IPC: 4.099 cumulative IPC: 3.463 (Simulation time: 00 hr 03 min 08 sec)
Heartbeat CPU 0 instructions: 24000177 cycles: 6913788 heartbeat IPC: 3.89 cumulative IPC: 3.471 (Simulation time: 00 hr 03 min 12 sec)
Heartbeat CPU 0 instructions: 24500178 cycles: 7042715 heartbeat IPC: 3.878 cumulative IPC: 3.479 (Simulation time: 00 hr 03 min 16 sec)
Heartbeat CPU 0 instructions: 25000179 cycles: 7190953 heartbeat IPC: 3.373 cumulative IPC: 3.477 (Simulation time: 00 hr 03 min 20 sec)
Heartbeat CPU 0 instructions: 25500183 cycles: 7356355 heartbeat IPC: 3.023 cumulative IPC: 3.466 (Simulation time: 00 hr 03 min 24 sec)
Heartbeat CPU 0 instructions: 26000190 cycles: 7478250 heartbeat IPC: 4.102 cumulative IPC: 3.477 (Simulation time: 00 hr 03 min 28 sec)
Heartbeat CPU 0 instructions: 26500192 cycles: 7623788 heartbeat IPC: 3.436 cumulative IPC: 3.476 (Simulation time: 00 hr 03 min 32 sec)
Heartbeat CPU 0 instructions: 27000199 cycles: 7793497 heartbeat IPC: 2.946 cumulative IPC: 3.464 (Simulation time: 00 hr 03 min 37 sec)
Heartbeat CPU 0 instructions: 27500202 cycles: 7931524 heartbeat IPC: 3.623 cumulative IPC: 3.467 (Simulation time: 00 hr 03 min 41 sec)
Heartbeat CPU 0 instructions: 28000208 cycles: 8074131 heartbeat IPC: 3.506 cumulative IPC: 3.468 (Simulation time: 00 hr 03 min 45 sec)
Heartbeat CPU 0 instructions: 28500211 cycles: 8195989 heartbeat IPC: 4.103 cumulative IPC: 3.477 (Simulation time: 00 hr 03 min 48 sec)
Heartbeat CPU 0 instructions: 29000217 cycles: 8351889 heartbeat IPC: 3.207 cumulative IPC: 3.472 (Simulation time: 00 hr 03 min 53 sec)
Heartbeat CPU 0 instructions: 29500221 cycles: 8521616 heartbeat IPC: 2.946 cumulative IPC: 3.462 (Simulation time: 00 hr 03 min 57 sec)
Heartbeat CPU 0 instructions: 30000228 cycles: 8643375 heartbeat IPC: 4.107 cumulative IPC: 3.471 (Simulation time: 00 hr 04 min 01 sec)
Heartbeat CPU 0 instructions: 30500233 cycles: 8765382 heartbeat IPC: 4.098 cumulative IPC: 3.48 (Simulation time: 00 hr 04 min 05 sec)
Heartbeat CPU 0 instructions: 31000239 cycles: 8904304 heartbeat IPC: 3.599 cumulative IPC: 3.481 (Simulation time: 00 hr 04 min 08 sec)
Heartbeat CPU 0 instructions: 31500245 cycles: 9073569 heartbeat IPC: 2.954 cumulative IPC: 3.472 (Simulation time: 00 hr 04 min 13 sec)
Heartbeat CPU 0 instructions: 32000245 cycles: 9208267 heartbeat IPC: 3.712 cumulative IPC: 3.475 (Simulation time: 00 hr 04 min 17 sec)
Heartbeat CPU 0 instructions: 32500250 cycles: 9338189 heartbeat IPC: 3.849 cumulative IPC: 3.48 (Simulation time: 00 hr 04 min 21 sec)
Heartbeat CPU 0 instructions: 33000254 cycles: 9478302 heartbeat IPC: 3.569 cumulative IPC: 3.482 (Simulation time: 00 hr 04 min 24 sec)
Heartbeat CPU 0 instructions: 33500259 cycles: 9607939 heartbeat IPC: 3.857 cumulative IPC: 3.487 (Simulation time: 00 hr 04 min 28 sec)
Heartbeat CPU 0 instructions: 34000264 cycles: 9785758 heartbeat IPC: 2.812 cumulative IPC: 3.474 (Simulation time: 00 hr 04 min 33 sec)
Heartbeat CPU 0 instructions: 34500264 cycles: 9944300 heartbeat IPC: 3.154 cumulative IPC: 3.469 (Simulation time: 00 hr 04 min 38 sec)
Heartbeat CPU 0 instructions: 35000264 cycles: 10075120 heartbeat IPC: 3.822 cumulative IPC: 3.474 (Simulation time: 00 hr 04 min 41 sec)
Heartbeat CPU 0 instructions: 35500265 cycles: 10206930 heartbeat IPC: 3.793 cumulative IPC: 3.478 (Simulation time: 00 hr 04 min 45 sec)
Heartbeat CPU 0 instructions: 36000272 cycles: 10336939 heartbeat IPC: 3.846 cumulative IPC: 3.483 (Simulation time: 00 hr 04 min 49 sec)
Heartbeat CPU 0 instructions: 36500278 cycles: 10458637 heartbeat IPC: 4.109 cumulative IPC: 3.49 (Simulation time: 00 hr 04 min 53 sec)
Heartbeat CPU 0 instructions: 37000278 cycles: 10597800 heartbeat IPC: 3.593 cumulative IPC: 3.491 (Simulation time: 00 hr 04 min 56 sec)
Heartbeat CPU 0 instructions: 37500282 cycles: 10751759 heartbeat IPC: 3.248 cumulative IPC: 3.488 (Simulation time: 00 hr 05 min 01 sec)
Heartbeat CPU 0 instructions: 38000287 cycles: 10882549 heartbeat IPC: 3.823 cumulative IPC: 3.492 (Simulation time: 00 hr 05 min 05 sec)
Heartbeat CPU 0 instructions: 38500289 cycles: 11004458 heartbeat IPC: 4.101 cumulative IPC: 3.499 (Simulation time: 00 hr 05 min 08 sec)
Heartbeat CPU 0 instructions: 39000296 cycles: 11155001 heartbeat IPC: 3.321 cumulative IPC: 3.496 (Simulation time: 00 hr 05 min 12 sec)
Heartbeat CPU 0 instructions: 39500302 cycles: 11284150 heartbeat IPC: 3.872 cumulative IPC: 3.501 (Simulation time: 00 hr 05 min 16 sec)
Heartbeat CPU 0 instructions: 40000303 cycles: 11407506 heartbeat IPC: 4.053 cumulative IPC: 3.506 (Simulation time: 00 hr 05 min 20 sec)
Heartbeat CPU 0 instructions: 40500303 cycles: 11529431 heartbeat IPC: 4.101 cumulative IPC: 3.513 (Simulation time: 00 hr 05 min 23 sec)
Heartbeat CPU 0 instructions: 41000305 cycles: 11694492 heartbeat IPC: 3.029 cumulative IPC: 3.506 (Simulation time: 00 hr 05 min 28 sec)
Heartbeat CPU 0 instructions: 41500306 cycles: 11828777 heartbeat IPC: 3.723 cumulative IPC: 3.508 (Simulation time: 00 hr 05 min 32 sec)
Heartbeat CPU 0 instructions: 42000307 cycles: 11980719 heartbeat IPC: 3.291 cumulative IPC: 3.506 (Simulation time: 00 hr 05 min 36 sec)
Heartbeat CPU 0 instructions: 42500313 cycles: 12114772 heartbeat IPC: 3.73 cumulative IPC: 3.508 (Simulation time: 00 hr 05 min 40 sec)
Heartbeat CPU 0 instructions: 43000319 cycles: 12236688 heartbeat IPC: 4.101 cumulative IPC: 3.514 (Simulation time: 00 hr 05 min 44 sec)
Heartbeat CPU 0 instructions: 43500322 cycles: 12374019 heartbeat IPC: 3.641 cumulative IPC: 3.515 (Simulation time: 00 hr 05 min 47 sec)
Heartbeat CPU 0 instructions: 44000323 cycles: 12502146 heartbeat IPC: 3.902 cumulative IPC: 3.519 (Simulation time: 00 hr 05 min 51 sec)
Heartbeat CPU 0 instructions: 44500328 cycles: 12627858 heartbeat IPC: 3.977 cumulative IPC: 3.524 (Simulation time: 00 hr 05 min 55 sec)
Heartbeat CPU 0 instructions: 45000334 cycles: 12763129 heartbeat IPC: 3.696 cumulative IPC: 3.526 (Simulation time: 00 hr 05 min 59 sec)
Heartbeat CPU 0 instructions: 45500339 cycles: 12888163 heartbeat IPC: 3.999 cumulative IPC: 3.53 (Simulation time: 00 hr 06 min 03 sec)
Heartbeat CPU 0 instructions: 46000343 cycles: 13033196 heartbeat IPC: 3.448 cumulative IPC: 3.529 (Simulation time: 00 hr 06 min 07 sec)
Heartbeat CPU 0 instructions: 46500350 cycles: 13203047 heartbeat IPC: 2.944 cumulative IPC: 3.522 (Simulation time: 00 hr 06 min 11 sec)
Heartbeat CPU 0 instructions: 47000350 cycles: 13357529 heartbeat IPC: 3.237 cumulative IPC: 3.519 (Simulation time: 00 hr 06 min 16 sec)
Heartbeat CPU 0 instructions: 47500350 cycles: 13486777 heartbeat IPC: 3.869 cumulative IPC: 3.522 (Simulation time: 00 hr 06 min 19 sec)
Heartbeat CPU 0 instructions: 48000357 cycles: 13626821 heartbeat IPC: 3.57 cumulative IPC: 3.522 (Simulation time: 00 hr 06 min 23 sec)
Heartbeat CPU 0 instructions: 48500359 cycles: 13760102 heartbeat IPC: 3.751 cumulative IPC: 3.525 (Simulation time: 00 hr 06 min 27 sec)
Heartbeat CPU 0 instructions: 49000360 cycles: 13897899 heartbeat IPC: 3.629 cumulative IPC: 3.526 (Simulation time: 00 hr 06 min 31 sec)
Heartbeat CPU 0 instructions: 49500362 cycles: 14035382 heartbeat IPC: 3.637 cumulative IPC: 3.527 (Simulation time: 00 hr 06 min 35 sec)
Warmup halting CPU 0 at instruction 50000004 cycle 14186050 for remainder of phase
Warmup finished CPU 0 instructions: 50000004 cycles: 14186050 cumulative IPC: 3.525 (Simulation time: 00 hr 06 min 39 sec)
Warmup complete CPU 0 instructions: 50000004 cycles: 14186050 cumulative IPC: 3.525 (Simulation time: 00 hr 06 min 39 sec)
Heartbeat CPU 0 instructions: 50000366 cycles: 14186677 heartbeat IPC: 3.305 cumulative IPC: 0.5774 (Simulation time: 00 hr 06 min 39 sec)
Heartbeat CPU 0 instructions: 50500370 cycles: 14848914 heartbeat IPC: 0.755 cumulative IPC: 0.7549 (Simulation time: 00 hr 06 min 50 sec)
Heartbeat CPU 0 instructions: 51000372 cycles: 15439631 heartbeat IPC: 0.8464 cumulative IPC: 0.798 (Simulation time: 00 hr 06 min 59 sec)
Heartbeat CPU 0 instructions: 51500375 cycles: 16043061 heartbeat IPC: 0.8286 cumulative IPC: 0.8079 (Simulation time: 00 hr 07 min 09 sec)
Heartbeat CPU 0 instructions: 52000376 cycles: 16699494 heartbeat IPC: 0.7617 cumulative IPC: 0.7959 (Simulation time: 00 hr 07 min 19 sec)
Heartbeat CPU 0 instructions: 52500376 cycles: 17326651 heartbeat IPC: 0.7972 cumulative IPC: 0.7961 (Simulation time: 00 hr 07 min 29 sec)
Heartbeat CPU 0 instructions: 53000380 cycles: 17957441 heartbeat IPC: 0.7927 cumulative IPC: 0.7956 (Simulation time: 00 hr 07 min 38 sec)
Heartbeat CPU 0 instructions: 53500380 cycles: 18739441 heartbeat IPC: 0.6394 cumulative IPC: 0.7687 (Simulation time: 00 hr 07 min 48 sec)
Heartbeat CPU 0 instructions: 54000381 cycles: 19534422 heartbeat IPC: 0.6289 cumulative IPC: 0.748 (Simulation time: 00 hr 07 min 59 sec)
Heartbeat CPU 0 instructions: 54500383 cycles: 20205137 heartbeat IPC: 0.7455 cumulative IPC: 0.7477 (Simulation time: 00 hr 08 min 10 sec)
Heartbeat CPU 0 instructions: 55000386 cycles: 20997095 heartbeat IPC: 0.6314 cumulative IPC: 0.7342 (Simulation time: 00 hr 08 min 19 sec)
Heartbeat CPU 0 instructions: 55500387 cycles: 21670934 heartbeat IPC: 0.742 cumulative IPC: 0.7349 (Simulation time: 00 hr 08 min 30 sec)
Heartbeat CPU 0 instructions: 56000387 cycles: 22364434 heartbeat IPC: 0.721 cumulative IPC: 0.7337 (Simulation time: 00 hr 08 min 40 sec)
Heartbeat CPU 0 instructions: 56500387 cycles: 23031737 heartbeat IPC: 0.7493 cumulative IPC: 0.7349 (Simulation time: 00 hr 08 min 51 sec)
Heartbeat CPU 0 instructions: 57000394 cycles: 23720181 heartbeat IPC: 0.7263 cumulative IPC: 0.7342 (Simulation time: 00 hr 09 min 00 sec)
Heartbeat CPU 0 instructions: 57500394 cycles: 24403061 heartbeat IPC: 0.7322 cumulative IPC: 0.7341 (Simulation time: 00 hr 09 min 11 sec)
Heartbeat CPU 0 instructions: 58000398 cycles: 25125244 heartbeat IPC: 0.6924 cumulative IPC: 0.7314 (Simulation time: 00 hr 09 min 21 sec)
Heartbeat CPU 0 instructions: 58500403 cycles: 25908786 heartbeat IPC: 0.6381 cumulative IPC: 0.7251 (Simulation time: 00 hr 09 min 31 sec)
Heartbeat CPU 0 instructions: 59000403 cycles: 26658996 heartbeat IPC: 0.6665 cumulative IPC: 0.7216 (Simulation time: 00 hr 09 min 42 sec)
Heartbeat CPU 0 instructions: 59500405 cycles: 27495877 heartbeat IPC: 0.5975 cumulative IPC: 0.7138 (Simulation time: 00 hr 09 min 52 sec)
Heartbeat CPU 0 instructions: 60000410 cycles: 28217249 heartbeat IPC: 0.6931 cumulative IPC: 0.7127 (Simulation time: 00 hr 10 min 03 sec)
Heartbeat CPU 0 instructions: 60500411 cycles: 28844146 heartbeat IPC: 0.7976 cumulative IPC: 0.7164 (Simulation time: 00 hr 10 min 13 sec)
Heartbeat CPU 0 instructions: 61000416 cycles: 29530767 heartbeat IPC: 0.7282 cumulative IPC: 0.7169 (Simulation time: 00 hr 10 min 23 sec)
Heartbeat CPU 0 instructions: 61500417 cycles: 30328508 heartbeat IPC: 0.6268 cumulative IPC: 0.7124 (Simulation time: 00 hr 10 min 34 sec)
Heartbeat CPU 0 instructions: 62000418 cycles: 31125551 heartbeat IPC: 0.6273 cumulative IPC: 0.7084 (Simulation time: 00 hr 10 min 45 sec)
Heartbeat CPU 0 instructions: 62500422 cycles: 31886107 heartbeat IPC: 0.6574 cumulative IPC: 0.7062 (Simulation time: 00 hr 10 min 55 sec)
Heartbeat CPU 0 instructions: 63000422 cycles: 32652127 heartbeat IPC: 0.6527 cumulative IPC: 0.704 (Simulation time: 00 hr 11 min 06 sec)
Heartbeat CPU 0 instructions: 63500422 cycles: 33387553 heartbeat IPC: 0.6799 cumulative IPC: 0.7031 (Simulation time: 00 hr 11 min 17 sec)
Heartbeat CPU 0 instructions: 64000422 cycles: 34020356 heartbeat IPC: 0.7901 cumulative IPC: 0.7059 (Simulation time: 00 hr 11 min 27 sec)
Heartbeat CPU 0 instructions: 64500424 cycles: 34642875 heartbeat IPC: 0.8032 cumulative IPC: 0.7088 (Simulation time: 00 hr 11 min 37 sec)
Heartbeat CPU 0 instructions: 65000428 cycles: 35334025 heartbeat IPC: 0.7234 cumulative IPC: 0.7093 (Simulation time: 00 hr 11 min 47 sec)
Heartbeat CPU 0 instructions: 65500428 cycles: 36113224 heartbeat IPC: 0.6417 cumulative IPC: 0.7069 (Simulation time: 00 hr 11 min 58 sec)
Heartbeat CPU 0 instructions: 66000429 cycles: 36876985 heartbeat IPC: 0.6547 cumulative IPC: 0.7051 (Simulation time: 00 hr 12 min 08 sec)
Heartbeat CPU 0 instructions: 66500429 cycles: 37543427 heartbeat IPC: 0.7503 cumulative IPC: 0.7064 (Simulation time: 00 hr 12 min 19 sec)
Heartbeat CPU 0 instructions: 67000429 cycles: 38267370 heartbeat IPC: 0.6907 cumulative IPC: 0.706 (Simulation time: 00 hr 12 min 29 sec)
Heartbeat CPU 0 instructions: 67500431 cycles: 39000381 heartbeat IPC: 0.6821 cumulative IPC: 0.7053 (Simulation time: 00 hr 12 min 39 sec)
Heartbeat CPU 0 instructions: 68000433 cycles: 39709557 heartbeat IPC: 0.705 cumulative IPC: 0.7052 (Simulation time: 00 hr 12 min 50 sec)
Heartbeat CPU 0 instructions: 68500434 cycles: 40448995 heartbeat IPC: 0.6762 cumulative IPC: 0.7044 (Simulation time: 00 hr 13 min 00 sec)
Heartbeat CPU 0 instructions: 69000437 cycles: 41184599 heartbeat IPC: 0.6797 cumulative IPC: 0.7038 (Simulation time: 00 hr 13 min 11 sec)
Heartbeat CPU 0 instructions: 69500443 cycles: 42035756 heartbeat IPC: 0.5874 cumulative IPC: 0.7002 (Simulation time: 00 hr 13 min 21 sec)
Heartbeat CPU 0 instructions: 70000444 cycles: 42864050 heartbeat IPC: 0.6037 cumulative IPC: 0.6974 (Simulation time: 00 hr 13 min 33 sec)
Heartbeat CPU 0 instructions: 70500445 cycles: 43637368 heartbeat IPC: 0.6466 cumulative IPC: 0.6961 (Simulation time: 00 hr 13 min 44 sec)
Heartbeat CPU 0 instructions: 71000451 cycles: 44445399 heartbeat IPC: 0.6188 cumulative IPC: 0.694 (Simulation time: 00 hr 13 min 54 sec)
Heartbeat CPU 0 instructions: 71500454 cycles: 45210325 heartbeat IPC: 0.6537 cumulative IPC: 0.693 (Simulation time: 00 hr 14 min 05 sec)
Heartbeat CPU 0 instructions: 72000454 cycles: 45965540 heartbeat IPC: 0.6621 cumulative IPC: 0.6923 (Simulation time: 00 hr 14 min 16 sec)
Heartbeat CPU 0 instructions: 72500455 cycles: 46786247 heartbeat IPC: 0.6092 cumulative IPC: 0.6902 (Simulation time: 00 hr 14 min 26 sec)
Heartbeat CPU 0 instructions: 73000455 cycles: 47564734 heartbeat IPC: 0.6423 cumulative IPC: 0.6891 (Simulation time: 00 hr 14 min 37 sec)
Heartbeat CPU 0 instructions: 73500460 cycles: 48265208 heartbeat IPC: 0.7138 cumulative IPC: 0.6896 (Simulation time: 00 hr 14 min 48 sec)
Heartbeat CPU 0 instructions: 74000461 cycles: 48947726 heartbeat IPC: 0.7326 cumulative IPC: 0.6904 (Simulation time: 00 hr 14 min 58 sec)
Heartbeat CPU 0 instructions: 74500464 cycles: 49749364 heartbeat IPC: 0.6237 cumulative IPC: 0.6889 (Simulation time: 00 hr 15 min 08 sec)
Heartbeat CPU 0 instructions: 75000464 cycles: 50606472 heartbeat IPC: 0.5834 cumulative IPC: 0.6864 (Simulation time: 00 hr 15 min 19 sec)
Heartbeat CPU 0 instructions: 75500464 cycles: 51397283 heartbeat IPC: 0.6323 cumulative IPC: 0.6853 (Simulation time: 00 hr 15 min 31 sec)
Heartbeat CPU 0 instructions: 76000464 cycles: 52238901 heartbeat IPC: 0.5941 cumulative IPC: 0.6833 (Simulation time: 00 hr 15 min 42 sec)
Heartbeat CPU 0 instructions: 76500466 cycles: 53009785 heartbeat IPC: 0.6486 cumulative IPC: 0.6826 (Simulation time: 00 hr 15 min 52 sec)
Heartbeat CPU 0 instructions: 77000468 cycles: 53750850 heartbeat IPC: 0.6747 cumulative IPC: 0.6824 (Simulation time: 00 hr 16 min 03 sec)
Heartbeat CPU 0 instructions: 77500469 cycles: 54519571 heartbeat IPC: 0.6504 cumulative IPC: 0.6818 (Simulation time: 00 hr 16 min 14 sec)
Heartbeat CPU 0 instructions: 78000469 cycles: 55235417 heartbeat IPC: 0.6985 cumulative IPC: 0.6821 (Simulation time: 00 hr 16 min 25 sec)
Heartbeat CPU 0 instructions: 78500471 cycles: 55874816 heartbeat IPC: 0.782 cumulative IPC: 0.6836 (Simulation time: 00 hr 16 min 35 sec)
Heartbeat CPU 0 instructions: 79000474 cycles: 56504994 heartbeat IPC: 0.7934 cumulative IPC: 0.6853 (Simulation time: 00 hr 16 min 45 sec)
Heartbeat CPU 0 instructions: 79500474 cycles: 57131837 heartbeat IPC: 0.7976 cumulative IPC: 0.6869 (Simulation time: 00 hr 16 min 55 sec)
Heartbeat CPU 0 instructions: 80000474 cycles: 57924884 heartbeat IPC: 0.6305 cumulative IPC: 0.6859 (Simulation time: 00 hr 17 min 05 sec)
Heartbeat CPU 0 instructions: 80500474 cycles: 58652294 heartbeat IPC: 0.6874 cumulative IPC: 0.6859 (Simulation time: 00 hr 17 min 16 sec)
Heartbeat CPU 0 instructions: 81000476 cycles: 59286608 heartbeat IPC: 0.7883 cumulative IPC: 0.6874 (Simulation time: 00 hr 17 min 26 sec)
Heartbeat CPU 0 instructions: 81500482 cycles: 60080981 heartbeat IPC: 0.6294 cumulative IPC: 0.6864 (Simulation time: 00 hr 17 min 36 sec)
Heartbeat CPU 0 instructions: 82000482 cycles: 60858160 heartbeat IPC: 0.6434 cumulative IPC: 0.6856 (Simulation time: 00 hr 17 min 47 sec)
Heartbeat CPU 0 instructions: 82500486 cycles: 61626051 heartbeat IPC: 0.6511 cumulative IPC: 0.6851 (Simulation time: 00 hr 17 min 58 sec)
Heartbeat CPU 0 instructions: 83000486 cycles: 62369854 heartbeat IPC: 0.6722 cumulative IPC: 0.6849 (Simulation time: 00 hr 18 min 09 sec)
Heartbeat CPU 0 instructions: 83500486 cycles: 63128552 heartbeat IPC: 0.659 cumulative IPC: 0.6845 (Simulation time: 00 hr 18 min 19 sec)
Heartbeat CPU 0 instructions: 84000492 cycles: 63785737 heartbeat IPC: 0.7608 cumulative IPC: 0.6855 (Simulation time: 00 hr 18 min 30 sec)
Heartbeat CPU 0 instructions: 84500493 cycles: 64466208 heartbeat IPC: 0.7348 cumulative IPC: 0.6862 (Simulation time: 00 hr 18 min 40 sec)
Heartbeat CPU 0 instructions: 85000493 cycles: 65189956 heartbeat IPC: 0.6908 cumulative IPC: 0.6862 (Simulation time: 00 hr 18 min 51 sec)
Heartbeat CPU 0 instructions: 85500493 cycles: 65828393 heartbeat IPC: 0.7832 cumulative IPC: 0.6874 (Simulation time: 00 hr 19 min 01 sec)
Heartbeat CPU 0 instructions: 86000495 cycles: 66584504 heartbeat IPC: 0.6613 cumulative IPC: 0.6871 (Simulation time: 00 hr 19 min 12 sec)
Heartbeat CPU 0 instructions: 86500497 cycles: 67353127 heartbeat IPC: 0.6505 cumulative IPC: 0.6865 (Simulation time: 00 hr 19 min 22 sec)
Heartbeat CPU 0 instructions: 87000498 cycles: 68026167 heartbeat IPC: 0.7429 cumulative IPC: 0.6872 (Simulation time: 00 hr 19 min 32 sec)
Heartbeat CPU 0 instructions: 87500500 cycles: 68849952 heartbeat IPC: 0.607 cumulative IPC: 0.686 (Simulation time: 00 hr 19 min 43 sec)
Heartbeat CPU 0 instructions: 88000502 cycles: 69696382 heartbeat IPC: 0.5907 cumulative IPC: 0.6846 (Simulation time: 00 hr 19 min 53 sec)
Heartbeat CPU 0 instructions: 88500507 cycles: 70435514 heartbeat IPC: 0.6765 cumulative IPC: 0.6845 (Simulation time: 00 hr 20 min 05 sec)
Heartbeat CPU 0 instructions: 89000509 cycles: 71158065 heartbeat IPC: 0.692 cumulative IPC: 0.6846 (Simulation time: 00 hr 20 min 15 sec)
Heartbeat CPU 0 instructions: 89500516 cycles: 71867335 heartbeat IPC: 0.705 cumulative IPC: 0.6848 (Simulation time: 00 hr 20 min 26 sec)
Heartbeat CPU 0 instructions: 90000517 cycles: 72644978 heartbeat IPC: 0.643 cumulative IPC: 0.6842 (Simulation time: 00 hr 20 min 36 sec)
Heartbeat CPU 0 instructions: 90500523 cycles: 73360704 heartbeat IPC: 0.6986 cumulative IPC: 0.6844 (Simulation time: 00 hr 20 min 46 sec)
Heartbeat CPU 0 instructions: 91000526 cycles: 74089610 heartbeat IPC: 0.686 cumulative IPC: 0.6844 (Simulation time: 00 hr 20 min 56 sec)
Heartbeat CPU 0 instructions: 91500526 cycles: 74828872 heartbeat IPC: 0.6764 cumulative IPC: 0.6843 (Simulation time: 00 hr 21 min 08 sec)
Heartbeat CPU 0 instructions: 92000532 cycles: 75519956 heartbeat IPC: 0.7235 cumulative IPC: 0.6848 (Simulation time: 00 hr 21 min 18 sec)
Heartbeat CPU 0 instructions: 92500534 cycles: 76338165 heartbeat IPC: 0.6111 cumulative IPC: 0.6838 (Simulation time: 00 hr 21 min 29 sec)
Heartbeat CPU 0 instructions: 93000535 cycles: 77126324 heartbeat IPC: 0.6344 cumulative IPC: 0.6832 (Simulation time: 00 hr 21 min 39 sec)
Heartbeat CPU 0 instructions: 93500535 cycles: 77839554 heartbeat IPC: 0.701 cumulative IPC: 0.6834 (Simulation time: 00 hr 21 min 51 sec)
Heartbeat CPU 0 instructions: 94000540 cycles: 78506804 heartbeat IPC: 0.7494 cumulative IPC: 0.6841 (Simulation time: 00 hr 22 min 01 sec)
Heartbeat CPU 0 instructions: 94500541 cycles: 79143881 heartbeat IPC: 0.7848 cumulative IPC: 0.6851 (Simulation time: 00 hr 22 min 11 sec)
Heartbeat CPU 0 instructions: 95000543 cycles: 79776774 heartbeat IPC: 0.79 cumulative IPC: 0.6861 (Simulation time: 00 hr 22 min 22 sec)
Heartbeat CPU 0 instructions: 95500545 cycles: 80533364 heartbeat IPC: 0.6609 cumulative IPC: 0.6858 (Simulation time: 00 hr 22 min 32 sec)
Heartbeat CPU 0 instructions: 96000550 cycles: 81300552 heartbeat IPC: 0.6517 cumulative IPC: 0.6854 (Simulation time: 00 hr 22 min 42 sec)
Heartbeat CPU 0 instructions: 96500557 cycles: 81956902 heartbeat IPC: 0.7618 cumulative IPC: 0.6861 (Simulation time: 00 hr 22 min 52 sec)
Heartbeat CPU 0 instructions: 97000559 cycles: 82686873 heartbeat IPC: 0.685 cumulative IPC: 0.6861 (Simulation time: 00 hr 23 min 03 sec)
Heartbeat CPU 0 instructions: 97500563 cycles: 83361266 heartbeat IPC: 0.7414 cumulative IPC: 0.6867 (Simulation time: 00 hr 23 min 13 sec)
Heartbeat CPU 0 instructions: 98000566 cycles: 84111634 heartbeat IPC: 0.6663 cumulative IPC: 0.6865 (Simulation time: 00 hr 23 min 23 sec)
Heartbeat CPU 0 instructions: 98500567 cycles: 84856181 heartbeat IPC: 0.6716 cumulative IPC: 0.6863 (Simulation time: 00 hr 23 min 34 sec)
Heartbeat CPU 0 instructions: 99000574 cycles: 85667243 heartbeat IPC: 0.6165 cumulative IPC: 0.6855 (Simulation time: 00 hr 23 min 45 sec)
Heartbeat CPU 0 instructions: 99500578 cycles: 86407026 heartbeat IPC: 0.6759 cumulative IPC: 0.6854 (Simulation time: 00 hr 23 min 55 sec)
Heartbeat CPU 0 instructions: 100000579 cycles: 87229678 heartbeat IPC: 0.6078 cumulative IPC: 0.6845 (Simulation time: 00 hr 24 min 07 sec)
Heartbeat CPU 0 instructions: 100500579 cycles: 87889975 heartbeat IPC: 0.7572 cumulative IPC: 0.6852 (Simulation time: 00 hr 24 min 16 sec)
Heartbeat CPU 0 instructions: 101000579 cycles: 88712759 heartbeat IPC: 0.6077 cumulative IPC: 0.6843 (Simulation time: 00 hr 24 min 27 sec)
Heartbeat CPU 0 instructions: 101500582 cycles: 89446721 heartbeat IPC: 0.6812 cumulative IPC: 0.6843 (Simulation time: 00 hr 24 min 38 sec)
Heartbeat CPU 0 instructions: 102000582 cycles: 90279182 heartbeat IPC: 0.6006 cumulative IPC: 0.6834 (Simulation time: 00 hr 24 min 48 sec)
Heartbeat CPU 0 instructions: 102500586 cycles: 91003449 heartbeat IPC: 0.6904 cumulative IPC: 0.6834 (Simulation time: 00 hr 25 min 00 sec)
Heartbeat CPU 0 instructions: 103000586 cycles: 91692561 heartbeat IPC: 0.7256 cumulative IPC: 0.6838 (Simulation time: 00 hr 25 min 10 sec)
Heartbeat CPU 0 instructions: 103500587 cycles: 92507190 heartbeat IPC: 0.6138 cumulative IPC: 0.6831 (Simulation time: 00 hr 25 min 20 sec)
Heartbeat CPU 0 instructions: 104000587 cycles: 93238062 heartbeat IPC: 0.6841 cumulative IPC: 0.6831 (Simulation time: 00 hr 25 min 32 sec)
Heartbeat CPU 0 instructions: 104500588 cycles: 93903141 heartbeat IPC: 0.7518 cumulative IPC: 0.6837 (Simulation time: 00 hr 25 min 42 sec)
Heartbeat CPU 0 instructions: 105000589 cycles: 94633364 heartbeat IPC: 0.6847 cumulative IPC: 0.6837 (Simulation time: 00 hr 25 min 52 sec)
Heartbeat CPU 0 instructions: 105500589 cycles: 95405349 heartbeat IPC: 0.6477 cumulative IPC: 0.6833 (Simulation time: 00 hr 26 min 03 sec)
Heartbeat CPU 0 instructions: 106000593 cycles: 96180268 heartbeat IPC: 0.6452 cumulative IPC: 0.683 (Simulation time: 00 hr 26 min 14 sec)
Heartbeat CPU 0 instructions: 106500595 cycles: 96892505 heartbeat IPC: 0.702 cumulative IPC: 0.6831 (Simulation time: 00 hr 26 min 25 sec)
Heartbeat CPU 0 instructions: 107000601 cycles: 97670981 heartbeat IPC: 0.6423 cumulative IPC: 0.6828 (Simulation time: 00 hr 26 min 36 sec)
Heartbeat CPU 0 instructions: 107500605 cycles: 98332178 heartbeat IPC: 0.7562 cumulative IPC: 0.6833 (Simulation time: 00 hr 26 min 46 sec)
Heartbeat CPU 0 instructions: 108000608 cycles: 99000933 heartbeat IPC: 0.7477 cumulative IPC: 0.6838 (Simulation time: 00 hr 26 min 57 sec)
Heartbeat CPU 0 instructions: 108500611 cycles: 99752188 heartbeat IPC: 0.6656 cumulative IPC: 0.6837 (Simulation time: 00 hr 27 min 07 sec)
Heartbeat CPU 0 instructions: 109000618 cycles: 100539548 heartbeat IPC: 0.635 cumulative IPC: 0.6832 (Simulation time: 00 hr 27 min 18 sec)
Heartbeat CPU 0 instructions: 109500623 cycles: 101337338 heartbeat IPC: 0.6267 cumulative IPC: 0.6827 (Simulation time: 00 hr 27 min 29 sec)
Heartbeat CPU 0 instructions: 110000624 cycles: 101995899 heartbeat IPC: 0.7592 cumulative IPC: 0.6833 (Simulation time: 00 hr 27 min 40 sec)
Heartbeat CPU 0 instructions: 110500629 cycles: 102650913 heartbeat IPC: 0.7634 cumulative IPC: 0.6839 (Simulation time: 00 hr 27 min 50 sec)
Heartbeat CPU 0 instructions: 111000631 cycles: 103318170 heartbeat IPC: 0.7493 cumulative IPC: 0.6844 (Simulation time: 00 hr 28 min 00 sec)
Heartbeat CPU 0 instructions: 111500631 cycles: 103991765 heartbeat IPC: 0.7423 cumulative IPC: 0.6848 (Simulation time: 00 hr 28 min 10 sec)
Heartbeat CPU 0 instructions: 112000637 cycles: 104730187 heartbeat IPC: 0.6771 cumulative IPC: 0.6848 (Simulation time: 00 hr 28 min 21 sec)
Heartbeat CPU 0 instructions: 112500639 cycles: 105497761 heartbeat IPC: 0.6514 cumulative IPC: 0.6845 (Simulation time: 00 hr 28 min 32 sec)
Heartbeat CPU 0 instructions: 113000640 cycles: 106271235 heartbeat IPC: 0.6464 cumulative IPC: 0.6842 (Simulation time: 00 hr 28 min 43 sec)
Heartbeat CPU 0 instructions: 113500644 cycles: 106967324 heartbeat IPC: 0.7183 cumulative IPC: 0.6844 (Simulation time: 00 hr 28 min 53 sec)
Heartbeat CPU 0 instructions: 114000647 cycles: 107732904 heartbeat IPC: 0.6531 cumulative IPC: 0.6842 (Simulation time: 00 hr 29 min 04 sec)
Heartbeat CPU 0 instructions: 114500648 cycles: 108414197 heartbeat IPC: 0.7339 cumulative IPC: 0.6845 (Simulation time: 00 hr 29 min 15 sec)
Heartbeat CPU 0 instructions: 115000649 cycles: 109060069 heartbeat IPC: 0.7741 cumulative IPC: 0.6851 (Simulation time: 00 hr 29 min 25 sec)
Heartbeat CPU 0 instructions: 115500649 cycles: 109702018 heartbeat IPC: 0.7789 cumulative IPC: 0.6858 (Simulation time: 00 hr 29 min 36 sec)
Heartbeat CPU 0 instructions: 116000652 cycles: 110341677 heartbeat IPC: 0.7817 cumulative IPC: 0.6864 (Simulation time: 00 hr 29 min 46 sec)
Heartbeat CPU 0 instructions: 116500655 cycles: 111053390 heartbeat IPC: 0.7025 cumulative IPC: 0.6865 (Simulation time: 00 hr 29 min 55 sec)
Heartbeat CPU 0 instructions: 117000655 cycles: 111796139 heartbeat IPC: 0.6732 cumulative IPC: 0.6864 (Simulation time: 00 hr 30 min 05 sec)
Heartbeat CPU 0 instructions: 117500655 cycles: 112511084 heartbeat IPC: 0.6994 cumulative IPC: 0.6865 (Simulation time: 00 hr 30 min 17 sec)
Heartbeat CPU 0 instructions: 118000657 cycles: 113161220 heartbeat IPC: 0.7691 cumulative IPC: 0.687 (Simulation time: 00 hr 30 min 27 sec)
Heartbeat CPU 0 instructions: 118500658 cycles: 113802795 heartbeat IPC: 0.7793 cumulative IPC: 0.6876 (Simulation time: 00 hr 30 min 37 sec)
Heartbeat CPU 0 instructions: 119000658 cycles: 114442336 heartbeat IPC: 0.7818 cumulative IPC: 0.6882 (Simulation time: 00 hr 30 min 47 sec)
Heartbeat CPU 0 instructions: 119500658 cycles: 115162853 heartbeat IPC: 0.6939 cumulative IPC: 0.6883 (Simulation time: 00 hr 30 min 57 sec)
Heartbeat CPU 0 instructions: 120000658 cycles: 115993258 heartbeat IPC: 0.6021 cumulative IPC: 0.6876 (Simulation time: 00 hr 31 min 08 sec)
Heartbeat CPU 0 instructions: 120500659 cycles: 116658473 heartbeat IPC: 0.7516 cumulative IPC: 0.688 (Simulation time: 00 hr 31 min 19 sec)
Heartbeat CPU 0 instructions: 121000660 cycles: 117478298 heartbeat IPC: 0.6099 cumulative IPC: 0.6874 (Simulation time: 00 hr 31 min 29 sec)
Heartbeat CPU 0 instructions: 121500663 cycles: 118245296 heartbeat IPC: 0.6519 cumulative IPC: 0.6871 (Simulation time: 00 hr 31 min 41 sec)
Heartbeat CPU 0 instructions: 122000664 cycles: 118906255 heartbeat IPC: 0.7565 cumulative IPC: 0.6876 (Simulation time: 00 hr 31 min 51 sec)
Heartbeat CPU 0 instructions: 122500669 cycles: 119555083 heartbeat IPC: 0.7706 cumulative IPC: 0.6881 (Simulation time: 00 hr 32 min 01 sec)
Heartbeat CPU 0 instructions: 123000670 cycles: 120343076 heartbeat IPC: 0.6345 cumulative IPC: 0.6877 (Simulation time: 00 hr 32 min 12 sec)
Heartbeat CPU 0 instructions: 123500671 cycles: 120998466 heartbeat IPC: 0.7629 cumulative IPC: 0.6881 (Simulation time: 00 hr 32 min 22 sec)
Heartbeat CPU 0 instructions: 124000674 cycles: 121770764 heartbeat IPC: 0.6474 cumulative IPC: 0.6878 (Simulation time: 00 hr 32 min 33 sec)
Heartbeat CPU 0 instructions: 124500674 cycles: 122482507 heartbeat IPC: 0.7025 cumulative IPC: 0.6879 (Simulation time: 00 hr 32 min 43 sec)
Heartbeat CPU 0 instructions: 125000677 cycles: 123214960 heartbeat IPC: 0.6826 cumulative IPC: 0.6879 (Simulation time: 00 hr 32 min 54 sec)
Heartbeat CPU 0 instructions: 125500683 cycles: 123866876 heartbeat IPC: 0.767 cumulative IPC: 0.6884 (Simulation time: 00 hr 33 min 05 sec)
Heartbeat CPU 0 instructions: 126000685 cycles: 124589517 heartbeat IPC: 0.6919 cumulative IPC: 0.6884 (Simulation time: 00 hr 33 min 14 sec)
Heartbeat CPU 0 instructions: 126500692 cycles: 125272090 heartbeat IPC: 0.7325 cumulative IPC: 0.6887 (Simulation time: 00 hr 33 min 27 sec)
Heartbeat CPU 0 instructions: 127000695 cycles: 126055800 heartbeat IPC: 0.638 cumulative IPC: 0.6883 (Simulation time: 00 hr 33 min 41 sec)
Heartbeat CPU 0 instructions: 127500695 cycles: 126815044 heartbeat IPC: 0.6585 cumulative IPC: 0.6881 (Simulation time: 00 hr 33 min 59 sec)
Heartbeat CPU 0 instructions: 128000697 cycles: 127620792 heartbeat IPC: 0.6205 cumulative IPC: 0.6876 (Simulation time: 00 hr 34 min 16 sec)
Heartbeat CPU 0 instructions: 128500700 cycles: 128302980 heartbeat IPC: 0.7329 cumulative IPC: 0.6879 (Simulation time: 00 hr 34 min 32 sec)
Heartbeat CPU 0 instructions: 129000701 cycles: 129035230 heartbeat IPC: 0.6828 cumulative IPC: 0.6879 (Simulation time: 00 hr 34 min 48 sec)
Heartbeat CPU 0 instructions: 129500701 cycles: 129770818 heartbeat IPC: 0.6797 cumulative IPC: 0.6878 (Simulation time: 00 hr 35 min 04 sec)
Heartbeat CPU 0 instructions: 130000701 cycles: 130564781 heartbeat IPC: 0.6298 cumulative IPC: 0.6874 (Simulation time: 00 hr 35 min 20 sec)
Heartbeat CPU 0 instructions: 130500702 cycles: 131242853 heartbeat IPC: 0.7374 cumulative IPC: 0.6877 (Simulation time: 00 hr 35 min 31 sec)
Heartbeat CPU 0 instructions: 131000702 cycles: 131905603 heartbeat IPC: 0.7544 cumulative IPC: 0.6881 (Simulation time: 00 hr 35 min 42 sec)
Heartbeat CPU 0 instructions: 131500705 cycles: 132747363 heartbeat IPC: 0.594 cumulative IPC: 0.6874 (Simulation time: 00 hr 35 min 52 sec)
Heartbeat CPU 0 instructions: 132000705 cycles: 133501697 heartbeat IPC: 0.6628 cumulative IPC: 0.6873 (Simulation time: 00 hr 36 min 03 sec)
Heartbeat CPU 0 instructions: 132500707 cycles: 134289888 heartbeat IPC: 0.6344 cumulative IPC: 0.6869 (Simulation time: 00 hr 36 min 14 sec)
Heartbeat CPU 0 instructions: 133000707 cycles: 135095540 heartbeat IPC: 0.6206 cumulative IPC: 0.6865 (Simulation time: 00 hr 36 min 24 sec)
Heartbeat CPU 0 instructions: 133500707 cycles: 135947248 heartbeat IPC: 0.5871 cumulative IPC: 0.6858 (Simulation time: 00 hr 36 min 35 sec)
Heartbeat CPU 0 instructions: 134000714 cycles: 136758239 heartbeat IPC: 0.6165 cumulative IPC: 0.6853 (Simulation time: 00 hr 36 min 46 sec)
Heartbeat CPU 0 instructions: 134500714 cycles: 137499251 heartbeat IPC: 0.6748 cumulative IPC: 0.6853 (Simulation time: 00 hr 36 min 57 sec)
Heartbeat CPU 0 instructions: 135000716 cycles: 138244573 heartbeat IPC: 0.6709 cumulative IPC: 0.6852 (Simulation time: 00 hr 37 min 08 sec)
Heartbeat CPU 0 instructions: 135500723 cycles: 139031951 heartbeat IPC: 0.635 cumulative IPC: 0.6849 (Simulation time: 00 hr 37 min 18 sec)
Heartbeat CPU 0 instructions: 136000723 cycles: 139776229 heartbeat IPC: 0.6718 cumulative IPC: 0.6848 (Simulation time: 00 hr 37 min 29 sec)
Heartbeat CPU 0 instructions: 136500725 cycles: 140442556 heartbeat IPC: 0.7504 cumulative IPC: 0.6851 (Simulation time: 00 hr 37 min 40 sec)
Heartbeat CPU 0 instructions: 137000732 cycles: 141099830 heartbeat IPC: 0.7607 cumulative IPC: 0.6855 (Simulation time: 00 hr 37 min 50 sec)
Heartbeat CPU 0 instructions: 137500734 cycles: 141875902 heartbeat IPC: 0.6443 cumulative IPC: 0.6853 (Simulation time: 00 hr 38 min 00 sec)
Heartbeat CPU 0 instructions: 138000737 cycles: 142614906 heartbeat IPC: 0.6766 cumulative IPC: 0.6852 (Simulation time: 00 hr 38 min 10 sec)
Heartbeat CPU 0 instructions: 138500738 cycles: 143340456 heartbeat IPC: 0.6891 cumulative IPC: 0.6852 (Simulation time: 00 hr 38 min 21 sec)
Heartbeat CPU 0 instructions: 139000743 cycles: 143999423 heartbeat IPC: 0.7588 cumulative IPC: 0.6856 (Simulation time: 00 hr 38 min 32 sec)
Heartbeat CPU 0 instructions: 139500747 cycles: 144660695 heartbeat IPC: 0.7561 cumulative IPC: 0.686 (Simulation time: 00 hr 38 min 42 sec)
Heartbeat CPU 0 instructions: 140000748 cycles: 145331898 heartbeat IPC: 0.7449 cumulative IPC: 0.6863 (Simulation time: 00 hr 38 min 52 sec)
Heartbeat CPU 0 instructions: 140500751 cycles: 146081800 heartbeat IPC: 0.6668 cumulative IPC: 0.6862 (Simulation time: 00 hr 39 min 02 sec)
Heartbeat CPU 0 instructions: 141000752 cycles: 146761399 heartbeat IPC: 0.7357 cumulative IPC: 0.6864 (Simulation time: 00 hr 39 min 12 sec)
Heartbeat CPU 0 instructions: 141500752 cycles: 147496021 heartbeat IPC: 0.6806 cumulative IPC: 0.6864 (Simulation time: 00 hr 39 min 22 sec)
Heartbeat CPU 0 instructions: 142000752 cycles: 148199234 heartbeat IPC: 0.711 cumulative IPC: 0.6865 (Simulation time: 00 hr 39 min 33 sec)
Heartbeat CPU 0 instructions: 142500752 cycles: 148924018 heartbeat IPC: 0.6899 cumulative IPC: 0.6865 (Simulation time: 00 hr 39 min 43 sec)
Heartbeat CPU 0 instructions: 143000757 cycles: 149738534 heartbeat IPC: 0.6139 cumulative IPC: 0.6861 (Simulation time: 00 hr 39 min 54 sec)
Heartbeat CPU 0 instructions: 143500757 cycles: 150406952 heartbeat IPC: 0.748 cumulative IPC: 0.6864 (Simulation time: 00 hr 40 min 04 sec)
Heartbeat CPU 0 instructions: 144000761 cycles: 151086960 heartbeat IPC: 0.7353 cumulative IPC: 0.6866 (Simulation time: 00 hr 40 min 14 sec)
Heartbeat CPU 0 instructions: 144500762 cycles: 151906960 heartbeat IPC: 0.6098 cumulative IPC: 0.6862 (Simulation time: 00 hr 40 min 24 sec)
Heartbeat CPU 0 instructions: 145000764 cycles: 152769142 heartbeat IPC: 0.5799 cumulative IPC: 0.6855 (Simulation time: 00 hr 40 min 36 sec)
Heartbeat CPU 0 instructions: 145500767 cycles: 153579328 heartbeat IPC: 0.6171 cumulative IPC: 0.6851 (Simulation time: 00 hr 40 min 46 sec)
Heartbeat CPU 0 instructions: 146000767 cycles: 154263206 heartbeat IPC: 0.7311 cumulative IPC: 0.6853 (Simulation time: 00 hr 40 min 57 sec)
Heartbeat CPU 0 instructions: 146500770 cycles: 154923465 heartbeat IPC: 0.7573 cumulative IPC: 0.6857 (Simulation time: 00 hr 41 min 07 sec)
Heartbeat CPU 0 instructions: 147000776 cycles: 155580552 heartbeat IPC: 0.7609 cumulative IPC: 0.686 (Simulation time: 00 hr 41 min 16 sec)
Heartbeat CPU 0 instructions: 147500776 cycles: 156368005 heartbeat IPC: 0.635 cumulative IPC: 0.6857 (Simulation time: 00 hr 41 min 27 sec)
Heartbeat CPU 0 instructions: 148000778 cycles: 157032873 heartbeat IPC: 0.752 cumulative IPC: 0.6861 (Simulation time: 00 hr 41 min 37 sec)
Heartbeat CPU 0 instructions: 148500781 cycles: 157821353 heartbeat IPC: 0.6341 cumulative IPC: 0.6858 (Simulation time: 00 hr 41 min 47 sec)
Heartbeat CPU 0 instructions: 149000781 cycles: 158529819 heartbeat IPC: 0.7058 cumulative IPC: 0.6859 (Simulation time: 00 hr 41 min 57 sec)
Heartbeat CPU 0 instructions: 149500784 cycles: 159279567 heartbeat IPC: 0.6669 cumulative IPC: 0.6858 (Simulation time: 00 hr 42 min 07 sec)
Heartbeat CPU 0 instructions: 150000786 cycles: 159938677 heartbeat IPC: 0.7586 cumulative IPC: 0.6861 (Simulation time: 00 hr 42 min 17 sec)
Heartbeat CPU 0 instructions: 150500788 cycles: 160598175 heartbeat IPC: 0.7582 cumulative IPC: 0.6864 (Simulation time: 00 hr 42 min 27 sec)
Heartbeat CPU 0 instructions: 151000793 cycles: 161251450 heartbeat IPC: 0.7654 cumulative IPC: 0.6868 (Simulation time: 00 hr 42 min 37 sec)
Heartbeat CPU 0 instructions: 151500794 cycles: 161923790 heartbeat IPC: 0.7437 cumulative IPC: 0.687 (Simulation time: 00 hr 42 min 47 sec)
Heartbeat CPU 0 instructions: 152000795 cycles: 162571142 heartbeat IPC: 0.7724 cumulative IPC: 0.6874 (Simulation time: 00 hr 42 min 56 sec)
Heartbeat CPU 0 instructions: 152500798 cycles: 163209273 heartbeat IPC: 0.7835 cumulative IPC: 0.6878 (Simulation time: 00 hr 43 min 06 sec)
Heartbeat CPU 0 instructions: 153000800 cycles: 163845835 heartbeat IPC: 0.7855 cumulative IPC: 0.6882 (Simulation time: 00 hr 43 min 15 sec)
Heartbeat CPU 0 instructions: 153500806 cycles: 164486685 heartbeat IPC: 0.7802 cumulative IPC: 0.6886 (Simulation time: 00 hr 43 min 24 sec)
Heartbeat CPU 0 instructions: 154000810 cycles: 165132202 heartbeat IPC: 0.7746 cumulative IPC: 0.689 (Simulation time: 00 hr 43 min 34 sec)
Heartbeat CPU 0 instructions: 154500814 cycles: 165782838 heartbeat IPC: 0.7685 cumulative IPC: 0.6893 (Simulation time: 00 hr 43 min 44 sec)
Heartbeat CPU 0 instructions: 155000814 cycles: 166446943 heartbeat IPC: 0.7529 cumulative IPC: 0.6896 (Simulation time: 00 hr 43 min 53 sec)
Heartbeat CPU 0 instructions: 155500819 cycles: 167085263 heartbeat IPC: 0.7833 cumulative IPC: 0.69 (Simulation time: 00 hr 44 min 03 sec)
Heartbeat CPU 0 instructions: 156000820 cycles: 167724020 heartbeat IPC: 0.7828 cumulative IPC: 0.6904 (Simulation time: 00 hr 44 min 12 sec)
Heartbeat CPU 0 instructions: 156500822 cycles: 168412219 heartbeat IPC: 0.7265 cumulative IPC: 0.6905 (Simulation time: 00 hr 44 min 21 sec)
Heartbeat CPU 0 instructions: 157000827 cycles: 169262705 heartbeat IPC: 0.5879 cumulative IPC: 0.69 (Simulation time: 00 hr 44 min 32 sec)
Heartbeat CPU 0 instructions: 157500827 cycles: 169958502 heartbeat IPC: 0.7186 cumulative IPC: 0.6901 (Simulation time: 00 hr 44 min 42 sec)
Heartbeat CPU 0 instructions: 158000832 cycles: 170791860 heartbeat IPC: 0.6 cumulative IPC: 0.6896 (Simulation time: 00 hr 44 min 51 sec)
Heartbeat CPU 0 instructions: 158500833 cycles: 171528463 heartbeat IPC: 0.6788 cumulative IPC: 0.6896 (Simulation time: 00 hr 45 min 02 sec)
Heartbeat CPU 0 instructions: 159000838 cycles: 172194514 heartbeat IPC: 0.7507 cumulative IPC: 0.6898 (Simulation time: 00 hr 45 min 12 sec)
Heartbeat CPU 0 instructions: 159500838 cycles: 172875770 heartbeat IPC: 0.7339 cumulative IPC: 0.69 (Simulation time: 00 hr 45 min 21 sec)
Heartbeat CPU 0 instructions: 160000838 cycles: 173611644 heartbeat IPC: 0.6795 cumulative IPC: 0.69 (Simulation time: 00 hr 45 min 30 sec)
Heartbeat CPU 0 instructions: 160500839 cycles: 174405004 heartbeat IPC: 0.6302 cumulative IPC: 0.6897 (Simulation time: 00 hr 45 min 40 sec)
Heartbeat CPU 0 instructions: 161000840 cycles: 175106644 heartbeat IPC: 0.7126 cumulative IPC: 0.6898 (Simulation time: 00 hr 45 min 50 sec)
Heartbeat CPU 0 instructions: 161500842 cycles: 175897674 heartbeat IPC: 0.6321 cumulative IPC: 0.6895 (Simulation time: 00 hr 46 min 00 sec)
Heartbeat CPU 0 instructions: 162000843 cycles: 176663308 heartbeat IPC: 0.6531 cumulative IPC: 0.6893 (Simulation time: 00 hr 46 min 10 sec)
Heartbeat CPU 0 instructions: 162500849 cycles: 177385053 heartbeat IPC: 0.6928 cumulative IPC: 0.6893 (Simulation time: 00 hr 46 min 20 sec)
Heartbeat CPU 0 instructions: 163000854 cycles: 178226586 heartbeat IPC: 0.5942 cumulative IPC: 0.6889 (Simulation time: 00 hr 46 min 30 sec)
Heartbeat CPU 0 instructions: 163500858 cycles: 178974809 heartbeat IPC: 0.6683 cumulative IPC: 0.6888 (Simulation time: 00 hr 46 min 41 sec)
Heartbeat CPU 0 instructions: 164000861 cycles: 179648791 heartbeat IPC: 0.7419 cumulative IPC: 0.689 (Simulation time: 00 hr 46 min 50 sec)
Heartbeat CPU 0 instructions: 164500868 cycles: 180455662 heartbeat IPC: 0.6197 cumulative IPC: 0.6886 (Simulation time: 00 hr 47 min 01 sec)
Heartbeat CPU 0 instructions: 165000873 cycles: 181134920 heartbeat IPC: 0.7361 cumulative IPC: 0.6888 (Simulation time: 00 hr 47 min 11 sec)
Heartbeat CPU 0 instructions: 165500876 cycles: 181796280 heartbeat IPC: 0.756 cumulative IPC: 0.6891 (Simulation time: 00 hr 47 min 20 sec)
Heartbeat CPU 0 instructions: 166000876 cycles: 182482375 heartbeat IPC: 0.7288 cumulative IPC: 0.6893 (Simulation time: 00 hr 47 min 30 sec)
Heartbeat CPU 0 instructions: 166500876 cycles: 183139198 heartbeat IPC: 0.7612 cumulative IPC: 0.6895 (Simulation time: 00 hr 47 min 39 sec)
Heartbeat CPU 0 instructions: 167000882 cycles: 183789962 heartbeat IPC: 0.7683 cumulative IPC: 0.6898 (Simulation time: 00 hr 47 min 49 sec)
Heartbeat CPU 0 instructions: 167500884 cycles: 184439433 heartbeat IPC: 0.7699 cumulative IPC: 0.6902 (Simulation time: 00 hr 47 min 58 sec)
Heartbeat CPU 0 instructions: 168000885 cycles: 185089476 heartbeat IPC: 0.7692 cumulative IPC: 0.6905 (Simulation time: 00 hr 48 min 08 sec)
Heartbeat CPU 0 instructions: 168500885 cycles: 185739545 heartbeat IPC: 0.7691 cumulative IPC: 0.6908 (Simulation time: 00 hr 48 min 17 sec)
Heartbeat CPU 0 instructions: 169000889 cycles: 186383955 heartbeat IPC: 0.7759 cumulative IPC: 0.6911 (Simulation time: 00 hr 48 min 26 sec)
Heartbeat CPU 0 instructions: 169500890 cycles: 187055508 heartbeat IPC: 0.7445 cumulative IPC: 0.6913 (Simulation time: 00 hr 48 min 36 sec)
Heartbeat CPU 0 instructions: 170000893 cycles: 187703111 heartbeat IPC: 0.7721 cumulative IPC: 0.6916 (Simulation time: 00 hr 48 min 45 sec)
Heartbeat CPU 0 instructions: 170500893 cycles: 188370705 heartbeat IPC: 0.749 cumulative IPC: 0.6918 (Simulation time: 00 hr 48 min 54 sec)
Heartbeat CPU 0 instructions: 171000893 cycles: 189130181 heartbeat IPC: 0.6583 cumulative IPC: 0.6917 (Simulation time: 00 hr 49 min 04 sec)
Heartbeat CPU 0 instructions: 171500895 cycles: 189788590 heartbeat IPC: 0.7594 cumulative IPC: 0.6919 (Simulation time: 00 hr 49 min 14 sec)
Heartbeat CPU 0 instructions: 172000898 cycles: 190463716 heartbeat IPC: 0.7406 cumulative IPC: 0.6921 (Simulation time: 00 hr 49 min 23 sec)
Heartbeat CPU 0 instructions: 172500901 cycles: 191240588 heartbeat IPC: 0.6436 cumulative IPC: 0.6919 (Simulation time: 00 hr 49 min 33 sec)
Heartbeat CPU 0 instructions: 173000902 cycles: 191909815 heartbeat IPC: 0.7471 cumulative IPC: 0.6921 (Simulation time: 00 hr 49 min 43 sec)
Heartbeat CPU 0 instructions: 173500902 cycles: 192562962 heartbeat IPC: 0.7655 cumulative IPC: 0.6924 (Simulation time: 00 hr 49 min 52 sec)
Heartbeat CPU 0 instructions: 174000907 cycles: 193217665 heartbeat IPC: 0.7637 cumulative IPC: 0.6926 (Simulation time: 00 hr 50 min 02 sec)
Heartbeat CPU 0 instructions: 174500907 cycles: 193924499 heartbeat IPC: 0.7074 cumulative IPC: 0.6927 (Simulation time: 00 hr 50 min 11 sec)
Heartbeat CPU 0 instructions: 175000908 cycles: 194659790 heartbeat IPC: 0.68 cumulative IPC: 0.6926 (Simulation time: 00 hr 50 min 21 sec)
Heartbeat CPU 0 instructions: 175500911 cycles: 195316810 heartbeat IPC: 0.761 cumulative IPC: 0.6929 (Simulation time: 00 hr 50 min 30 sec)
Heartbeat CPU 0 instructions: 176000916 cycles: 195967865 heartbeat IPC: 0.768 cumulative IPC: 0.6931 (Simulation time: 00 hr 50 min 40 sec)
Heartbeat CPU 0 instructions: 176500917 cycles: 196619618 heartbeat IPC: 0.7672 cumulative IPC: 0.6934 (Simulation time: 00 hr 50 min 51 sec)
Heartbeat CPU 0 instructions: 177000922 cycles: 197356798 heartbeat IPC: 0.6783 cumulative IPC: 0.6933 (Simulation time: 00 hr 51 min 01 sec)
Heartbeat CPU 0 instructions: 177500927 cycles: 198199975 heartbeat IPC: 0.593 cumulative IPC: 0.6929 (Simulation time: 00 hr 51 min 12 sec)
Heartbeat CPU 0 instructions: 178000927 cycles: 198878431 heartbeat IPC: 0.737 cumulative IPC: 0.693 (Simulation time: 00 hr 51 min 22 sec)
Heartbeat CPU 0 instructions: 178500929 cycles: 199540394 heartbeat IPC: 0.7553 cumulative IPC: 0.6933 (Simulation time: 00 hr 51 min 30 sec)
Heartbeat CPU 0 instructions: 179000930 cycles: 200198374 heartbeat IPC: 0.7599 cumulative IPC: 0.6935 (Simulation time: 00 hr 51 min 38 sec)
Heartbeat CPU 0 instructions: 179500931 cycles: 200992041 heartbeat IPC: 0.63 cumulative IPC: 0.6932 (Simulation time: 00 hr 51 min 46 sec)
Heartbeat CPU 0 instructions: 180000931 cycles: 201655413 heartbeat IPC: 0.7537 cumulative IPC: 0.6935 (Simulation time: 00 hr 51 min 54 sec)
Heartbeat CPU 0 instructions: 180500933 cycles: 202452850 heartbeat IPC: 0.627 cumulative IPC: 0.6932 (Simulation time: 00 hr 52 min 02 sec)
Heartbeat CPU 0 instructions: 181000933 cycles: 203272300 heartbeat IPC: 0.6102 cumulative IPC: 0.6928 (Simulation time: 00 hr 52 min 13 sec)
Heartbeat CPU 0 instructions: 181500934 cycles: 203947695 heartbeat IPC: 0.7403 cumulative IPC: 0.693 (Simulation time: 00 hr 52 min 23 sec)
Heartbeat CPU 0 instructions: 182000934 cycles: 204609688 heartbeat IPC: 0.7553 cumulative IPC: 0.6932 (Simulation time: 00 hr 52 min 34 sec)
Heartbeat CPU 0 instructions: 182500937 cycles: 205274559 heartbeat IPC: 0.752 cumulative IPC: 0.6934 (Simulation time: 00 hr 52 min 44 sec)
Heartbeat CPU 0 instructions: 183000938 cycles: 205928943 heartbeat IPC: 0.7641 cumulative IPC: 0.6936 (Simulation time: 00 hr 52 min 55 sec)
Heartbeat CPU 0 instructions: 183500945 cycles: 206572559 heartbeat IPC: 0.7769 cumulative IPC: 0.6939 (Simulation time: 00 hr 53 min 04 sec)
Heartbeat CPU 0 instructions: 184000949 cycles: 207348920 heartbeat IPC: 0.644 cumulative IPC: 0.6937 (Simulation time: 00 hr 53 min 16 sec)
Heartbeat CPU 0 instructions: 184500950 cycles: 208028997 heartbeat IPC: 0.7352 cumulative IPC: 0.6939 (Simulation time: 00 hr 53 min 26 sec)
Heartbeat CPU 0 instructions: 185000950 cycles: 208688782 heartbeat IPC: 0.7578 cumulative IPC: 0.6941 (Simulation time: 00 hr 53 min 37 sec)
Heartbeat CPU 0 instructions: 185500955 cycles: 209347864 heartbeat IPC: 0.7586 cumulative IPC: 0.6943 (Simulation time: 00 hr 53 min 47 sec)
Heartbeat CPU 0 instructions: 186000961 cycles: 209986993 heartbeat IPC: 0.7823 cumulative IPC: 0.6946 (Simulation time: 00 hr 53 min 57 sec)
Heartbeat CPU 0 instructions: 186500963 cycles: 210736543 heartbeat IPC: 0.6671 cumulative IPC: 0.6945 (Simulation time: 00 hr 54 min 08 sec)
Heartbeat CPU 0 instructions: 187000963 cycles: 211443145 heartbeat IPC: 0.7076 cumulative IPC: 0.6945 (Simulation time: 00 hr 54 min 19 sec)
Heartbeat CPU 0 instructions: 187500963 cycles: 212113226 heartbeat IPC: 0.7462 cumulative IPC: 0.6947 (Simulation time: 00 hr 54 min 29 sec)
Heartbeat CPU 0 instructions: 188000965 cycles: 212775238 heartbeat IPC: 0.7553 cumulative IPC: 0.6949 (Simulation time: 00 hr 54 min 40 sec)
Heartbeat CPU 0 instructions: 188500967 cycles: 213428416 heartbeat IPC: 0.7655 cumulative IPC: 0.6951 (Simulation time: 00 hr 54 min 50 sec)
Heartbeat CPU 0 instructions: 189000972 cycles: 214084494 heartbeat IPC: 0.7621 cumulative IPC: 0.6954 (Simulation time: 00 hr 55 min 00 sec)
Heartbeat CPU 0 instructions: 189500972 cycles: 214736672 heartbeat IPC: 0.7667 cumulative IPC: 0.6956 (Simulation time: 00 hr 55 min 11 sec)
Heartbeat CPU 0 instructions: 190000979 cycles: 215396957 heartbeat IPC: 0.7573 cumulative IPC: 0.6958 (Simulation time: 00 hr 55 min 21 sec)
Heartbeat CPU 0 instructions: 190500982 cycles: 216060134 heartbeat IPC: 0.754 cumulative IPC: 0.696 (Simulation time: 00 hr 55 min 32 sec)
Heartbeat CPU 0 instructions: 191000984 cycles: 216792226 heartbeat IPC: 0.683 cumulative IPC: 0.6959 (Simulation time: 00 hr 55 min 42 sec)
Heartbeat CPU 0 instructions: 191500987 cycles: 217509737 heartbeat IPC: 0.6969 cumulative IPC: 0.6959 (Simulation time: 00 hr 55 min 53 sec)
Heartbeat CPU 0 instructions: 192000988 cycles: 218185504 heartbeat IPC: 0.7399 cumulative IPC: 0.6961 (Simulation time: 00 hr 56 min 04 sec)
Heartbeat CPU 0 instructions: 192500993 cycles: 218863629 heartbeat IPC: 0.7373 cumulative IPC: 0.6962 (Simulation time: 00 hr 56 min 14 sec)
Heartbeat CPU 0 instructions: 193000998 cycles: 219591708 heartbeat IPC: 0.6867 cumulative IPC: 0.6962 (Simulation time: 00 hr 56 min 24 sec)
Heartbeat CPU 0 instructions: 193501000 cycles: 220314081 heartbeat IPC: 0.6922 cumulative IPC: 0.6962 (Simulation time: 00 hr 56 min 36 sec)
Heartbeat CPU 0 instructions: 194001000 cycles: 220996648 heartbeat IPC: 0.7325 cumulative IPC: 0.6963 (Simulation time: 00 hr 56 min 47 sec)
Heartbeat CPU 0 instructions: 194501001 cycles: 221657168 heartbeat IPC: 0.757 cumulative IPC: 0.6965 (Simulation time: 00 hr 56 min 57 sec)
Heartbeat CPU 0 instructions: 195001008 cycles: 222309473 heartbeat IPC: 0.7665 cumulative IPC: 0.6967 (Simulation time: 00 hr 57 min 07 sec)
Heartbeat CPU 0 instructions: 195501011 cycles: 222961961 heartbeat IPC: 0.7663 cumulative IPC: 0.6969 (Simulation time: 00 hr 57 min 18 sec)
Heartbeat CPU 0 instructions: 196001013 cycles: 223610209 heartbeat IPC: 0.7713 cumulative IPC: 0.6972 (Simulation time: 00 hr 57 min 28 sec)
Heartbeat CPU 0 instructions: 196501014 cycles: 224263006 heartbeat IPC: 0.7659 cumulative IPC: 0.6974 (Simulation time: 00 hr 57 min 39 sec)
Heartbeat CPU 0 instructions: 197001014 cycles: 224920513 heartbeat IPC: 0.7604 cumulative IPC: 0.6976 (Simulation time: 00 hr 57 min 49 sec)
Heartbeat CPU 0 instructions: 197501020 cycles: 225572273 heartbeat IPC: 0.7672 cumulative IPC: 0.6978 (Simulation time: 00 hr 57 min 59 sec)
Heartbeat CPU 0 instructions: 198001023 cycles: 226248774 heartbeat IPC: 0.7391 cumulative IPC: 0.6979 (Simulation time: 00 hr 58 min 10 sec)
Heartbeat CPU 0 instructions: 198501028 cycles: 227016209 heartbeat IPC: 0.6515 cumulative IPC: 0.6977 (Simulation time: 00 hr 58 min 21 sec)
Heartbeat CPU 0 instructions: 199001031 cycles: 227687987 heartbeat IPC: 0.7443 cumulative IPC: 0.6979 (Simulation time: 00 hr 58 min 31 sec)
Heartbeat CPU 0 instructions: 199501038 cycles: 228372031 heartbeat IPC: 0.731 cumulative IPC: 0.698 (Simulation time: 00 hr 58 min 42 sec)
Heartbeat CPU 0 instructions: 200001039 cycles: 229159536 heartbeat IPC: 0.6349 cumulative IPC: 0.6978 (Simulation time: 00 hr 58 min 52 sec)
Heartbeat CPU 0 instructions: 200501040 cycles: 229819007 heartbeat IPC: 0.7582 cumulative IPC: 0.698 (Simulation time: 00 hr 59 min 02 sec)
Heartbeat CPU 0 instructions: 201001044 cycles: 230609189 heartbeat IPC: 0.6328 cumulative IPC: 0.6977 (Simulation time: 00 hr 59 min 13 sec)
Heartbeat CPU 0 instructions: 201501049 cycles: 231293417 heartbeat IPC: 0.7308 cumulative IPC: 0.6978 (Simulation time: 00 hr 59 min 24 sec)
Heartbeat CPU 0 instructions: 202001049 cycles: 231966142 heartbeat IPC: 0.7432 cumulative IPC: 0.698 (Simulation time: 00 hr 59 min 35 sec)
Heartbeat CPU 0 instructions: 202501056 cycles: 232629663 heartbeat IPC: 0.7536 cumulative IPC: 0.6981 (Simulation time: 00 hr 59 min 45 sec)
Heartbeat CPU 0 instructions: 203001058 cycles: 233296586 heartbeat IPC: 0.7497 cumulative IPC: 0.6983 (Simulation time: 00 hr 59 min 56 sec)
Heartbeat CPU 0 instructions: 203501065 cycles: 233958774 heartbeat IPC: 0.7551 cumulative IPC: 0.6985 (Simulation time: 01 hr 00 min 06 sec)
Heartbeat CPU 0 instructions: 204001068 cycles: 234616973 heartbeat IPC: 0.7597 cumulative IPC: 0.6986 (Simulation time: 01 hr 00 min 16 sec)
Heartbeat CPU 0 instructions: 204501068 cycles: 235369890 heartbeat IPC: 0.6641 cumulative IPC: 0.6985 (Simulation time: 01 hr 00 min 26 sec)
Heartbeat CPU 0 instructions: 205001068 cycles: 236204749 heartbeat IPC: 0.5989 cumulative IPC: 0.6981 (Simulation time: 01 hr 00 min 36 sec)
Heartbeat CPU 0 instructions: 205501070 cycles: 237026100 heartbeat IPC: 0.6088 cumulative IPC: 0.6978 (Simulation time: 01 hr 00 min 48 sec)
Heartbeat CPU 0 instructions: 206001072 cycles: 237721560 heartbeat IPC: 0.719 cumulative IPC: 0.6979 (Simulation time: 01 hr 00 min 59 sec)
Heartbeat CPU 0 instructions: 206501073 cycles: 238406535 heartbeat IPC: 0.73 cumulative IPC: 0.698 (Simulation time: 01 hr 01 min 10 sec)
Heartbeat CPU 0 instructions: 207001073 cycles: 239078694 heartbeat IPC: 0.7439 cumulative IPC: 0.6981 (Simulation time: 01 hr 01 min 21 sec)
Heartbeat CPU 0 instructions: 207501078 cycles: 239748032 heartbeat IPC: 0.747 cumulative IPC: 0.6983 (Simulation time: 01 hr 01 min 32 sec)
Heartbeat CPU 0 instructions: 208001080 cycles: 240429486 heartbeat IPC: 0.7337 cumulative IPC: 0.6984 (Simulation time: 01 hr 01 min 42 sec)
Heartbeat CPU 0 instructions: 208501083 cycles: 241052796 heartbeat IPC: 0.8022 cumulative IPC: 0.6987 (Simulation time: 01 hr 01 min 51 sec)
Heartbeat CPU 0 instructions: 209001087 cycles: 241843086 heartbeat IPC: 0.6327 cumulative IPC: 0.6984 (Simulation time: 01 hr 02 min 03 sec)
Heartbeat CPU 0 instructions: 209501091 cycles: 242661445 heartbeat IPC: 0.611 cumulative IPC: 0.6981 (Simulation time: 01 hr 02 min 14 sec)
Heartbeat CPU 0 instructions: 210001092 cycles: 243361536 heartbeat IPC: 0.7142 cumulative IPC: 0.6982 (Simulation time: 01 hr 02 min 25 sec)
Heartbeat CPU 0 instructions: 210501094 cycles: 244038295 heartbeat IPC: 0.7388 cumulative IPC: 0.6983 (Simulation time: 01 hr 02 min 36 sec)
Heartbeat CPU 0 instructions: 211001097 cycles: 244688405 heartbeat IPC: 0.7691 cumulative IPC: 0.6985 (Simulation time: 01 hr 02 min 44 sec)
Heartbeat CPU 0 instructions: 211501100 cycles: 245615364 heartbeat IPC: 0.5394 cumulative IPC: 0.6978 (Simulation time: 01 hr 02 min 56 sec)
Heartbeat CPU 0 instructions: 212001103 cycles: 246421609 heartbeat IPC: 0.6202 cumulative IPC: 0.6976 (Simulation time: 01 hr 03 min 06 sec)
Heartbeat CPU 0 instructions: 212501103 cycles: 247245600 heartbeat IPC: 0.6068 cumulative IPC: 0.6973 (Simulation time: 01 hr 03 min 19 sec)
Heartbeat CPU 0 instructions: 213001106 cycles: 247945634 heartbeat IPC: 0.7143 cumulative IPC: 0.6973 (Simulation time: 01 hr 03 min 30 sec)
Heartbeat CPU 0 instructions: 213501107 cycles: 248605786 heartbeat IPC: 0.7574 cumulative IPC: 0.6975 (Simulation time: 01 hr 03 min 40 sec)
Heartbeat CPU 0 instructions: 214001107 cycles: 249402612 heartbeat IPC: 0.6275 cumulative IPC: 0.6972 (Simulation time: 01 hr 03 min 52 sec)
Heartbeat CPU 0 instructions: 214501112 cycles: 250161049 heartbeat IPC: 0.6593 cumulative IPC: 0.6971 (Simulation time: 01 hr 04 min 02 sec)
Heartbeat CPU 0 instructions: 215001114 cycles: 250895552 heartbeat IPC: 0.6807 cumulative IPC: 0.6971 (Simulation time: 01 hr 04 min 13 sec)
Heartbeat CPU 0 instructions: 215501115 cycles: 251592294 heartbeat IPC: 0.7176 cumulative IPC: 0.6971 (Simulation time: 01 hr 04 min 24 sec)
Heartbeat CPU 0 instructions: 216001115 cycles: 252274853 heartbeat IPC: 0.7325 cumulative IPC: 0.6972 (Simulation time: 01 hr 04 min 35 sec)
Heartbeat CPU 0 instructions: 216501118 cycles: 252949835 heartbeat IPC: 0.7408 cumulative IPC: 0.6973 (Simulation time: 01 hr 04 min 46 sec)
Heartbeat CPU 0 instructions: 217001120 cycles: 253622902 heartbeat IPC: 0.7429 cumulative IPC: 0.6975 (Simulation time: 01 hr 04 min 56 sec)
Heartbeat CPU 0 instructions: 217501122 cycles: 254363892 heartbeat IPC: 0.6748 cumulative IPC: 0.6974 (Simulation time: 01 hr 05 min 06 sec)
Heartbeat CPU 0 instructions: 218001124 cycles: 255110998 heartbeat IPC: 0.6693 cumulative IPC: 0.6973 (Simulation time: 01 hr 05 min 17 sec)
Heartbeat CPU 0 instructions: 218501127 cycles: 255786211 heartbeat IPC: 0.7405 cumulative IPC: 0.6974 (Simulation time: 01 hr 05 min 27 sec)
Heartbeat CPU 0 instructions: 219001128 cycles: 256459244 heartbeat IPC: 0.7429 cumulative IPC: 0.6976 (Simulation time: 01 hr 05 min 38 sec)
Heartbeat CPU 0 instructions: 219501131 cycles: 257131062 heartbeat IPC: 0.7443 cumulative IPC: 0.6977 (Simulation time: 01 hr 05 min 48 sec)
Heartbeat CPU 0 instructions: 220001137 cycles: 257821191 heartbeat IPC: 0.7245 cumulative IPC: 0.6978 (Simulation time: 01 hr 05 min 58 sec)
Heartbeat CPU 0 instructions: 220501140 cycles: 258487160 heartbeat IPC: 0.7508 cumulative IPC: 0.6979 (Simulation time: 01 hr 06 min 08 sec)
Heartbeat CPU 0 instructions: 221001142 cycles: 259165352 heartbeat IPC: 0.7373 cumulative IPC: 0.698 (Simulation time: 01 hr 06 min 18 sec)
Heartbeat CPU 0 instructions: 221501142 cycles: 259946583 heartbeat IPC: 0.64 cumulative IPC: 0.6978 (Simulation time: 01 hr 06 min 29 sec)
Heartbeat CPU 0 instructions: 222001142 cycles: 260648064 heartbeat IPC: 0.7128 cumulative IPC: 0.6979 (Simulation time: 01 hr 06 min 40 sec)
Heartbeat CPU 0 instructions: 222501147 cycles: 261442523 heartbeat IPC: 0.6294 cumulative IPC: 0.6977 (Simulation time: 01 hr 06 min 51 sec)
Heartbeat CPU 0 instructions: 223001148 cycles: 262281400 heartbeat IPC: 0.596 cumulative IPC: 0.6973 (Simulation time: 01 hr 07 min 02 sec)
Heartbeat CPU 0 instructions: 223501148 cycles: 262972506 heartbeat IPC: 0.7235 cumulative IPC: 0.6974 (Simulation time: 01 hr 07 min 13 sec)
Heartbeat CPU 0 instructions: 224001154 cycles: 263655853 heartbeat IPC: 0.7317 cumulative IPC: 0.6975 (Simulation time: 01 hr 07 min 24 sec)
Heartbeat CPU 0 instructions: 224501156 cycles: 264327937 heartbeat IPC: 0.744 cumulative IPC: 0.6976 (Simulation time: 01 hr 07 min 35 sec)
Heartbeat CPU 0 instructions: 225001157 cycles: 264997535 heartbeat IPC: 0.7467 cumulative IPC: 0.6977 (Simulation time: 01 hr 07 min 46 sec)
Heartbeat CPU 0 instructions: 225501157 cycles: 265690539 heartbeat IPC: 0.7215 cumulative IPC: 0.6978 (Simulation time: 01 hr 07 min 56 sec)
Heartbeat CPU 0 instructions: 226001160 cycles: 266360974 heartbeat IPC: 0.7458 cumulative IPC: 0.6979 (Simulation time: 01 hr 08 min 07 sec)
Heartbeat CPU 0 instructions: 226501163 cycles: 267023133 heartbeat IPC: 0.7551 cumulative IPC: 0.6981 (Simulation time: 01 hr 08 min 18 sec)
Heartbeat CPU 0 instructions: 227001164 cycles: 267685133 heartbeat IPC: 0.7553 cumulative IPC: 0.6982 (Simulation time: 01 hr 08 min 28 sec)
Heartbeat CPU 0 instructions: 227501171 cycles: 268342094 heartbeat IPC: 0.7611 cumulative IPC: 0.6984 (Simulation time: 01 hr 08 min 39 sec)
Heartbeat CPU 0 instructions: 228001174 cycles: 268999438 heartbeat IPC: 0.7606 cumulative IPC: 0.6986 (Simulation time: 01 hr 08 min 49 sec)
Heartbeat CPU 0 instructions: 228501181 cycles: 269640160 heartbeat IPC: 0.7804 cumulative IPC: 0.6988 (Simulation time: 01 hr 08 min 58 sec)
Heartbeat CPU 0 instructions: 229001181 cycles: 270383980 heartbeat IPC: 0.6722 cumulative IPC: 0.6987 (Simulation time: 01 hr 09 min 09 sec)
Heartbeat CPU 0 instructions: 229501185 cycles: 271082538 heartbeat IPC: 0.7158 cumulative IPC: 0.6987 (Simulation time: 01 hr 09 min 20 sec)
Heartbeat CPU 0 instructions: 230001186 cycles: 271791571 heartbeat IPC: 0.7052 cumulative IPC: 0.6987 (Simulation time: 01 hr 09 min 31 sec)
Heartbeat CPU 0 instructions: 230501188 cycles: 272463147 heartbeat IPC: 0.7445 cumulative IPC: 0.6989 (Simulation time: 01 hr 09 min 42 sec)
Heartbeat CPU 0 instructions: 231001193 cycles: 273082054 heartbeat IPC: 0.8079 cumulative IPC: 0.6991 (Simulation time: 01 hr 09 min 50 sec)
Heartbeat CPU 0 instructions: 231501195 cycles: 273868566 heartbeat IPC: 0.6357 cumulative IPC: 0.6989 (Simulation time: 01 hr 10 min 02 sec)
Heartbeat CPU 0 instructions: 232001202 cycles: 274559156 heartbeat IPC: 0.724 cumulative IPC: 0.699 (Simulation time: 01 hr 10 min 13 sec)
Heartbeat CPU 0 instructions: 232501202 cycles: 275292953 heartbeat IPC: 0.6814 cumulative IPC: 0.699 (Simulation time: 01 hr 10 min 24 sec)
Heartbeat CPU 0 instructions: 233001207 cycles: 276091490 heartbeat IPC: 0.6262 cumulative IPC: 0.6987 (Simulation time: 01 hr 10 min 36 sec)
Heartbeat CPU 0 instructions: 233501208 cycles: 276772146 heartbeat IPC: 0.7346 cumulative IPC: 0.6988 (Simulation time: 01 hr 10 min 46 sec)
Heartbeat CPU 0 instructions: 234001209 cycles: 277429705 heartbeat IPC: 0.7604 cumulative IPC: 0.699 (Simulation time: 01 hr 10 min 56 sec)
Heartbeat CPU 0 instructions: 234501209 cycles: 278189215 heartbeat IPC: 0.6583 cumulative IPC: 0.6989 (Simulation time: 01 hr 11 min 07 sec)
Heartbeat CPU 0 instructions: 235001212 cycles: 278892854 heartbeat IPC: 0.7106 cumulative IPC: 0.6989 (Simulation time: 01 hr 11 min 18 sec)
Heartbeat CPU 0 instructions: 235501217 cycles: 279657059 heartbeat IPC: 0.6543 cumulative IPC: 0.6988 (Simulation time: 01 hr 11 min 29 sec)
Heartbeat CPU 0 instructions: 236001217 cycles: 280552447 heartbeat IPC: 0.5584 cumulative IPC: 0.6983 (Simulation time: 01 hr 11 min 41 sec)
Heartbeat CPU 0 instructions: 236501220 cycles: 281263781 heartbeat IPC: 0.7029 cumulative IPC: 0.6983 (Simulation time: 01 hr 11 min 52 sec)
Heartbeat CPU 0 instructions: 237001222 cycles: 281951231 heartbeat IPC: 0.7273 cumulative IPC: 0.6984 (Simulation time: 01 hr 12 min 03 sec)
Heartbeat CPU 0 instructions: 237501223 cycles: 282627849 heartbeat IPC: 0.739 cumulative IPC: 0.6985 (Simulation time: 01 hr 12 min 14 sec)
Heartbeat CPU 0 instructions: 238001224 cycles: 283304054 heartbeat IPC: 0.7394 cumulative IPC: 0.6986 (Simulation time: 01 hr 12 min 25 sec)
Heartbeat CPU 0 instructions: 238501225 cycles: 283971732 heartbeat IPC: 0.7489 cumulative IPC: 0.6987 (Simulation time: 01 hr 12 min 35 sec)
Heartbeat CPU 0 instructions: 239001225 cycles: 284641463 heartbeat IPC: 0.7466 cumulative IPC: 0.6988 (Simulation time: 01 hr 12 min 46 sec)
Heartbeat CPU 0 instructions: 239501225 cycles: 285280344 heartbeat IPC: 0.7826 cumulative IPC: 0.699 (Simulation time: 01 hr 12 min 54 sec)
Heartbeat CPU 0 instructions: 240001225 cycles: 286010238 heartbeat IPC: 0.685 cumulative IPC: 0.699 (Simulation time: 01 hr 13 min 04 sec)
Heartbeat CPU 0 instructions: 240501226 cycles: 286846313 heartbeat IPC: 0.598 cumulative IPC: 0.6987 (Simulation time: 01 hr 13 min 17 sec)
Heartbeat CPU 0 instructions: 241001226 cycles: 287553490 heartbeat IPC: 0.707 cumulative IPC: 0.6987 (Simulation time: 01 hr 13 min 28 sec)
Heartbeat CPU 0 instructions: 241501227 cycles: 288253190 heartbeat IPC: 0.7146 cumulative IPC: 0.6987 (Simulation time: 01 hr 13 min 39 sec)
Heartbeat CPU 0 instructions: 242001229 cycles: 288937738 heartbeat IPC: 0.7304 cumulative IPC: 0.6988 (Simulation time: 01 hr 13 min 50 sec)
Heartbeat CPU 0 instructions: 242501230 cycles: 289620362 heartbeat IPC: 0.7325 cumulative IPC: 0.6989 (Simulation time: 01 hr 14 min 00 sec)
Heartbeat CPU 0 instructions: 243001232 cycles: 290304418 heartbeat IPC: 0.7309 cumulative IPC: 0.699 (Simulation time: 01 hr 14 min 11 sec)
Heartbeat CPU 0 instructions: 243501233 cycles: 291008024 heartbeat IPC: 0.7106 cumulative IPC: 0.699 (Simulation time: 01 hr 14 min 22 sec)
Heartbeat CPU 0 instructions: 244001235 cycles: 291665077 heartbeat IPC: 0.761 cumulative IPC: 0.6992 (Simulation time: 01 hr 14 min 33 sec)
Heartbeat CPU 0 instructions: 244501239 cycles: 292360047 heartbeat IPC: 0.7195 cumulative IPC: 0.6992 (Simulation time: 01 hr 14 min 42 sec)
Heartbeat CPU 0 instructions: 245001243 cycles: 293162750 heartbeat IPC: 0.6229 cumulative IPC: 0.699 (Simulation time: 01 hr 14 min 53 sec)
Heartbeat CPU 0 instructions: 245501247 cycles: 293884627 heartbeat IPC: 0.6926 cumulative IPC: 0.699 (Simulation time: 01 hr 15 min 04 sec)
Heartbeat CPU 0 instructions: 246001248 cycles: 294587225 heartbeat IPC: 0.7116 cumulative IPC: 0.699 (Simulation time: 01 hr 15 min 15 sec)
Heartbeat CPU 0 instructions: 246501248 cycles: 295276873 heartbeat IPC: 0.725 cumulative IPC: 0.6991 (Simulation time: 01 hr 15 min 26 sec)
Heartbeat CPU 0 instructions: 247001250 cycles: 295940370 heartbeat IPC: 0.7536 cumulative IPC: 0.6992 (Simulation time: 01 hr 15 min 35 sec)
Heartbeat CPU 0 instructions: 247501253 cycles: 296761596 heartbeat IPC: 0.6088 cumulative IPC: 0.6989 (Simulation time: 01 hr 15 min 47 sec)
Heartbeat CPU 0 instructions: 248001256 cycles: 297540366 heartbeat IPC: 0.642 cumulative IPC: 0.6988 (Simulation time: 01 hr 15 min 58 sec)
Heartbeat CPU 0 instructions: 248501260 cycles: 298295505 heartbeat IPC: 0.6621 cumulative IPC: 0.6987 (Simulation time: 01 hr 16 min 10 sec)
Heartbeat CPU 0 instructions: 249001262 cycles: 299121615 heartbeat IPC: 0.6052 cumulative IPC: 0.6984 (Simulation time: 01 hr 16 min 21 sec)
Heartbeat CPU 0 instructions: 249501262 cycles: 299892713 heartbeat IPC: 0.6484 cumulative IPC: 0.6983 (Simulation time: 01 hr 16 min 32 sec)
Simulation finished CPU 0 instructions: 200000000 cycles: 286511311 cumulative IPC: 0.6981 (Simulation time: 01 hr 16 min 44 sec)
Simulation complete CPU 0 instructions: 200000000 cycles: 286511311 cumulative IPC: 0.6981 (Simulation time: 01 hr 16 min 44 sec)

ChampSim completed all CPUs

=== Simulation ===
CPU 0 runs /local-ssd/ben/dpc4-traces/SPEC17/605.mcf_s-1554B.champsimtrace.xz

Region of Interest Statistics

CPU 0 cumulative IPC: 0.6981 instructions: 200000000 cycles: 286511311
CPU 0 Branch Prediction Accuracy: 98.31% MPKI: 3.107 Average ROB Occupancy at Mispredict: 49.15
Branch type MPKI
BRANCH_DIRECT_JUMP: 0
BRANCH_INDIRECT: 0
BRANCH_CONDITIONAL: 3.107
BRANCH_DIRECT_CALL: 0
BRANCH_INDIRECT_CALL: 0
BRANCH_RETURN: 0

cpu0->cpu0_STLB TOTAL        ACCESS:     802673 HIT:     790340 MISS:      12333 MSHR_MERGE:          0
cpu0->cpu0_STLB LOAD         ACCESS:     802673 HIT:     790340 MISS:      12333 MSHR_MERGE:          0
cpu0->cpu0_STLB RFO          ACCESS:          0 HIT:          0 MISS:          0 MSHR_MERGE:          0
cpu0->cpu0_STLB PREFETCH     ACCESS:          0 HIT:          0 MISS:          0 MSHR_MERGE:          0
cpu0->cpu0_STLB WRITE        ACCESS:          0 HIT:          0 MISS:          0 MSHR_MERGE:          0
cpu0->cpu0_STLB TRANSLATION  ACCESS:          0 HIT:          0 MISS:          0 MSHR_MERGE:          0
cpu0->cpu0_STLB PREFETCH REQUESTED:          0 ISSUED:          0 USEFUL:          0 USELESS:          0
cpu0->cpu0_STLB AVERAGE MISS LATENCY: 283.9 cycles
cpu0->cpu0_L2C TOTAL        ACCESS:  109099673 HIT:   45796916 MISS:   63302757 MSHR_MERGE:   17811522
cpu0->cpu0_L2C LOAD         ACCESS:   12178932 HIT:    5768844 MISS:    6410088 MSHR_MERGE:    1636535
cpu0->cpu0_L2C RFO          ACCESS:     411394 HIT:      16435 MISS:     394959 MSHR_MERGE:        423
cpu0->cpu0_L2C PREFETCH     ACCESS:   95945513 HIT:   39451520 MISS:   56493993 MSHR_MERGE:   16174564
cpu0->cpu0_L2C WRITE        ACCESS:     555247 HIT:     554334 MISS:        913 MSHR_MERGE:          0
cpu0->cpu0_L2C TRANSLATION  ACCESS:       8587 HIT:       5783 MISS:       2804 MSHR_MERGE:          0
cpu0->cpu0_L2C PREFETCH REQUESTED:  105529190 ISSUED:   73577601 USEFUL:   17628877 USELESS:   14223450
cpu0->cpu0_L2C AVERAGE MISS LATENCY: 103.8 cycles
cpu0->cpu0_L1I TOTAL        ACCESS:   33767154 HIT:   33767154 MISS:          0 MSHR_MERGE:          0
cpu0->cpu0_L1I LOAD         ACCESS:   33767154 HIT:   33767154 MISS:          0 MSHR_MERGE:          0
cpu0->cpu0_L1I RFO          ACCESS:          0 HIT:          0 MISS:          0 MSHR_MERGE:          0
cpu0->cpu0_L1I PREFETCH     ACCESS:          0 HIT:          0 MISS:          0 MSHR_MERGE:          0
cpu0->cpu0_L1I WRITE        ACCESS:          0 HIT:          0 MISS:          0 MSHR_MERGE:          0
cpu0->cpu0_L1I TRANSLATION  ACCESS:          0 HIT:          0 MISS:          0 MSHR_MERGE:          0
cpu0->cpu0_L1I PREFETCH REQUESTED:          0 ISSUED:          0 USEFUL:          0 USELESS:          0
cpu0->cpu0_L1I AVERAGE MISS LATENCY: - cycles
cpu0->cpu0_L1D TOTAL        ACCESS:  131662216 HIT:   81160055 MISS:   50502161 MSHR_MERGE:   15535315
cpu0->cpu0_L1D LOAD         ACCESS:   71631901 HIT:   54259136 MISS:   17372765 MSHR_MERGE:    5193831
cpu0->cpu0_L1D RFO          ACCESS:          0 HIT:          0 MISS:          0 MSHR_MERGE:          0
cpu0->cpu0_L1D PREFETCH     ACCESS:   46688654 HIT:   15813274 MISS:   30875380 MSHR_MERGE:    8507483
cpu0->cpu0_L1D WRITE        ACCESS:   13316979 HIT:   11071560 MISS:    2245419 MSHR_MERGE:    1833991
cpu0->cpu0_L1D TRANSLATION  ACCESS:      24682 HIT:      16085 MISS:       8597 MSHR_MERGE:         10
cpu0->cpu0_L1D PREFETCH REQUESTED:   69052104 ISSUED:   46688648 USEFUL:   18586950 USELESS:    3780863
cpu0->cpu0_L1D AVERAGE MISS LATENCY: 75.4 cycles
cpu0->cpu0_ITLB TOTAL        ACCESS:   25034201 HIT:   25034201 MISS:          0 MSHR_MERGE:          0
cpu0->cpu0_ITLB LOAD         ACCESS:   25034201 HIT:   25034201 MISS:          0 MSHR_MERGE:          0
cpu0->cpu0_ITLB RFO          ACCESS:          0 HIT:          0 MISS:          0 MSHR_MERGE:          0
cpu0->cpu0_ITLB PREFETCH     ACCESS:          0 HIT:          0 MISS:          0 MSHR_MERGE:          0
cpu0->cpu0_ITLB WRITE        ACCESS:          0 HIT:          0 MISS:          0 MSHR_MERGE:          0
cpu0->cpu0_ITLB TRANSLATION  ACCESS:          0 HIT:          0 MISS:          0 MSHR_MERGE:          0
cpu0->cpu0_ITLB PREFETCH REQUESTED:          0 ISSUED:          0 USEFUL:          0 USELESS:          0
cpu0->cpu0_ITLB AVERAGE MISS LATENCY: - cycles
cpu0->cpu0_DTLB TOTAL        ACCESS:  119673816 HIT:  118480995 MISS:    1192821 MSHR_MERGE:     390148
cpu0->cpu0_DTLB LOAD         ACCESS:  119673816 HIT:  118480995 MISS:    1192821 MSHR_MERGE:     390148
cpu0->cpu0_DTLB RFO          ACCESS:          0 HIT:          0 MISS:          0 MSHR_MERGE:          0
cpu0->cpu0_DTLB PREFETCH     ACCESS:          0 HIT:          0 MISS:          0 MSHR_MERGE:          0
cpu0->cpu0_DTLB WRITE        ACCESS:          0 HIT:          0 MISS:          0 MSHR_MERGE:          0
cpu0->cpu0_DTLB TRANSLATION  ACCESS:          0 HIT:          0 MISS:          0 MSHR_MERGE:          0
cpu0->cpu0_DTLB PREFETCH REQUESTED:          0 ISSUED:          0 USEFUL:          0 USELESS:          0
cpu0->cpu0_DTLB AVERAGE MISS LATENCY: 9.378 cycles
cpu0->LLC TOTAL        ACCESS:   57824222 HIT:   39268366 MISS:   18555856 MSHR_MERGE:    2334606
cpu0->LLC LOAD         ACCESS:    4773553 HIT:    3789457 MISS:     984096 MSHR_MERGE:     217728
cpu0->LLC RFO          ACCESS:     394536 HIT:       1814 MISS:     392722 MSHR_MERGE:         17
cpu0->LLC PREFETCH     ACCESS:   52105942 HIT:   35348695 MISS:   16757247 MSHR_MERGE:    2116861
cpu0->LLC WRITE        ACCESS:     547387 HIT:     128351 MISS:     419036 MSHR_MERGE:          0
cpu0->LLC TRANSLATION  ACCESS:       2804 HIT:         49 MISS:       2755 MSHR_MERGE:          0
cpu0->LLC PREFETCH REQUESTED:   11787857 ISSUED:   11786481 USEFUL:     910390 USELESS:    1946361
cpu0->LLC AVERAGE MISS LATENCY: 210.7 cycles

DRAM Statistics

Channel 0 RQ ROW_BUFFER_HIT:    1589345
  ROW_BUFFER_MISS:   14212090
  AVG DBUS CONGESTED CYCLE: 5.507
Channel 0 WQ ROW_BUFFER_HIT:      24520
  ROW_BUFFER_MISS:     517559
  FULL:       6918
Channel 0 REFRESHES ISSUED:      23874
