[VMEM] WARNING: physical memory size is smaller than virtual memory size.

*** ChampSim Multicore Out-of-Order Simulator ***
Warmup Instructions: 50000000
Simulation Instructions: 200000000
Number of CPUs: 1
Page size: 4096
Core 0: /local-ssd/ben/dpc4-traces/SPEC17/620.omnetpp_s-874B.champsimtrace.xz
Off-chip DRAM Size: 64 GiB Channels: 1 Width: 64-bit Data Rate: 4807 MT/s
Heartbeat CPU 0 instructions: 500000 cycles: 218505 heartbeat IPC: 2.288 cumulative IPC: 2.288 (Simulation time: 00 hr 00 min 04 sec)
Heartbeat CPU 0 instructions: 1000003 cycles: 411572 heartbeat IPC: 2.59 cumulative IPC: 2.43 (Simulation time: 00 hr 00 min 08 sec)
Heartbeat CPU 0 instructions: 1500005 cycles: 589834 heartbeat IPC: 2.805 cumulative IPC: 2.543 (Simulation time: 00 hr 00 min 11 sec)
Heartbeat CPU 0 instructions: 2000005 cycles: 748200 heartbeat IPC: 3.157 cumulative IPC: 2.673 (Simulation time: 00 hr 00 min 15 sec)
Heartbeat CPU 0 instructions: 2500010 cycles: 919999 heartbeat IPC: 2.91 cumulative IPC: 2.717 (Simulation time: 00 hr 00 min 19 sec)
Heartbeat CPU 0 instructions: 3000010 cycles: 1091004 heartbeat IPC: 2.924 cumulative IPC: 2.75 (Simulation time: 00 hr 00 min 22 sec)
Heartbeat CPU 0 instructions: 3500013 cycles: 1271789 heartbeat IPC: 2.766 cumulative IPC: 2.752 (Simulation time: 00 hr 00 min 26 sec)
Heartbeat CPU 0 instructions: 4000018 cycles: 1446574 heartbeat IPC: 2.861 cumulative IPC: 2.765 (Simulation time: 00 hr 00 min 30 sec)
Heartbeat CPU 0 instructions: 4500018 cycles: 1616881 heartbeat IPC: 2.936 cumulative IPC: 2.783 (Simulation time: 00 hr 00 min 34 sec)
Heartbeat CPU 0 instructions: 5000019 cycles: 1780835 heartbeat IPC: 3.05 cumulative IPC: 2.808 (Simulation time: 00 hr 00 min 38 sec)
Heartbeat CPU 0 instructions: 5500025 cycles: 1950430 heartbeat IPC: 2.948 cumulative IPC: 2.82 (Simulation time: 00 hr 00 min 42 sec)
Heartbeat CPU 0 instructions: 6000026 cycles: 2116770 heartbeat IPC: 3.006 cumulative IPC: 2.835 (Simulation time: 00 hr 00 min 45 sec)
Heartbeat CPU 0 instructions: 6500030 cycles: 2295506 heartbeat IPC: 2.797 cumulative IPC: 2.832 (Simulation time: 00 hr 00 min 49 sec)
Heartbeat CPU 0 instructions: 7000032 cycles: 2468403 heartbeat IPC: 2.892 cumulative IPC: 2.836 (Simulation time: 00 hr 00 min 53 sec)
Heartbeat CPU 0 instructions: 7500035 cycles: 2621052 heartbeat IPC: 3.276 cumulative IPC: 2.861 (Simulation time: 00 hr 00 min 57 sec)
Heartbeat CPU 0 instructions: 8000039 cycles: 2776248 heartbeat IPC: 3.222 cumulative IPC: 2.882 (Simulation time: 00 hr 01 min 00 sec)
Heartbeat CPU 0 instructions: 8500045 cycles: 2930430 heartbeat IPC: 3.243 cumulative IPC: 2.901 (Simulation time: 00 hr 01 min 04 sec)
Heartbeat CPU 0 instructions: 9000045 cycles: 3104063 heartbeat IPC: 2.88 cumulative IPC: 2.899 (Simulation time: 00 hr 01 min 08 sec)
Heartbeat CPU 0 instructions: 9500049 cycles: 3258030 heartbeat IPC: 3.247 cumulative IPC: 2.916 (Simulation time: 00 hr 01 min 11 sec)
Heartbeat CPU 0 instructions: 10000054 cycles: 3428097 heartbeat IPC: 2.94 cumulative IPC: 2.917 (Simulation time: 00 hr 01 min 15 sec)
Heartbeat CPU 0 instructions: 10500057 cycles: 3582724 heartbeat IPC: 3.234 cumulative IPC: 2.931 (Simulation time: 00 hr 01 min 18 sec)
Heartbeat CPU 0 instructions: 11000062 cycles: 3742142 heartbeat IPC: 3.136 cumulative IPC: 2.94 (Simulation time: 00 hr 01 min 22 sec)
Heartbeat CPU 0 instructions: 11500068 cycles: 3898484 heartbeat IPC: 3.198 cumulative IPC: 2.95 (Simulation time: 00 hr 01 min 26 sec)
Heartbeat CPU 0 instructions: 12000069 cycles: 4061919 heartbeat IPC: 3.059 cumulative IPC: 2.954 (Simulation time: 00 hr 01 min 29 sec)
Heartbeat CPU 0 instructions: 12500076 cycles: 4211908 heartbeat IPC: 3.334 cumulative IPC: 2.968 (Simulation time: 00 hr 01 min 33 sec)
Heartbeat CPU 0 instructions: 13000079 cycles: 4378093 heartbeat IPC: 3.009 cumulative IPC: 2.969 (Simulation time: 00 hr 01 min 37 sec)
Heartbeat CPU 0 instructions: 13500085 cycles: 4536757 heartbeat IPC: 3.151 cumulative IPC: 2.976 (Simulation time: 00 hr 01 min 40 sec)
Heartbeat CPU 0 instructions: 14000091 cycles: 4709038 heartbeat IPC: 2.902 cumulative IPC: 2.973 (Simulation time: 00 hr 01 min 44 sec)
Heartbeat CPU 0 instructions: 14500094 cycles: 4867184 heartbeat IPC: 3.162 cumulative IPC: 2.979 (Simulation time: 00 hr 01 min 48 sec)
Heartbeat CPU 0 instructions: 15000098 cycles: 5018384 heartbeat IPC: 3.307 cumulative IPC: 2.989 (Simulation time: 00 hr 01 min 51 sec)
Heartbeat CPU 0 instructions: 15500099 cycles: 5186943 heartbeat IPC: 2.966 cumulative IPC: 2.988 (Simulation time: 00 hr 01 min 55 sec)
Heartbeat CPU 0 instructions: 16000106 cycles: 5324290 heartbeat IPC: 3.64 cumulative IPC: 3.005 (Simulation time: 00 hr 01 min 58 sec)
Heartbeat CPU 0 instructions: 16500109 cycles: 5476102 heartbeat IPC: 3.294 cumulative IPC: 3.013 (Simulation time: 00 hr 02 min 02 sec)
Heartbeat CPU 0 instructions: 17000109 cycles: 5634261 heartbeat IPC: 3.161 cumulative IPC: 3.017 (Simulation time: 00 hr 02 min 05 sec)
Heartbeat CPU 0 instructions: 17500113 cycles: 5796498 heartbeat IPC: 3.082 cumulative IPC: 3.019 (Simulation time: 00 hr 02 min 09 sec)
Heartbeat CPU 0 instructions: 18000119 cycles: 5948229 heartbeat IPC: 3.295 cumulative IPC: 3.026 (Simulation time: 00 hr 02 min 12 sec)
Heartbeat CPU 0 instructions: 18500119 cycles: 6117916 heartbeat IPC: 2.947 cumulative IPC: 3.024 (Simulation time: 00 hr 02 min 16 sec)
Heartbeat CPU 0 instructions: 19000122 cycles: 6255380 heartbeat IPC: 3.637 cumulative IPC: 3.037 (Simulation time: 00 hr 02 min 20 sec)
Heartbeat CPU 0 instructions: 19500125 cycles: 6417764 heartbeat IPC: 3.079 cumulative IPC: 3.038 (Simulation time: 00 hr 02 min 23 sec)
Heartbeat CPU 0 instructions: 20000125 cycles: 6572864 heartbeat IPC: 3.224 cumulative IPC: 3.043 (Simulation time: 00 hr 02 min 27 sec)
Heartbeat CPU 0 instructions: 20500125 cycles: 6716780 heartbeat IPC: 3.474 cumulative IPC: 3.052 (Simulation time: 00 hr 02 min 30 sec)
Heartbeat CPU 0 instructions: 21000131 cycles: 6873461 heartbeat IPC: 3.191 cumulative IPC: 3.055 (Simulation time: 00 hr 02 min 34 sec)
Heartbeat CPU 0 instructions: 21500136 cycles: 7034028 heartbeat IPC: 3.114 cumulative IPC: 3.057 (Simulation time: 00 hr 02 min 38 sec)
Heartbeat CPU 0 instructions: 22000140 cycles: 7173394 heartbeat IPC: 3.588 cumulative IPC: 3.067 (Simulation time: 00 hr 02 min 41 sec)
Heartbeat CPU 0 instructions: 22500146 cycles: 7336484 heartbeat IPC: 3.066 cumulative IPC: 3.067 (Simulation time: 00 hr 02 min 45 sec)
Heartbeat CPU 0 instructions: 23000152 cycles: 7483224 heartbeat IPC: 3.407 cumulative IPC: 3.074 (Simulation time: 00 hr 02 min 48 sec)
Heartbeat CPU 0 instructions: 23500152 cycles: 7618395 heartbeat IPC: 3.699 cumulative IPC: 3.085 (Simulation time: 00 hr 02 min 51 sec)
Heartbeat CPU 0 instructions: 24000159 cycles: 7777417 heartbeat IPC: 3.144 cumulative IPC: 3.086 (Simulation time: 00 hr 02 min 55 sec)
Heartbeat CPU 0 instructions: 24500162 cycles: 7920088 heartbeat IPC: 3.505 cumulative IPC: 3.093 (Simulation time: 00 hr 02 min 59 sec)
Heartbeat CPU 0 instructions: 25000168 cycles: 8062462 heartbeat IPC: 3.512 cumulative IPC: 3.101 (Simulation time: 00 hr 03 min 02 sec)
Heartbeat CPU 0 instructions: 25500172 cycles: 8229696 heartbeat IPC: 2.99 cumulative IPC: 3.099 (Simulation time: 00 hr 03 min 06 sec)
Heartbeat CPU 0 instructions: 26000172 cycles: 8375770 heartbeat IPC: 3.423 cumulative IPC: 3.104 (Simulation time: 00 hr 03 min 09 sec)
Heartbeat CPU 0 instructions: 26500172 cycles: 8522321 heartbeat IPC: 3.412 cumulative IPC: 3.11 (Simulation time: 00 hr 03 min 13 sec)
Heartbeat CPU 0 instructions: 27000176 cycles: 8658675 heartbeat IPC: 3.667 cumulative IPC: 3.118 (Simulation time: 00 hr 03 min 16 sec)
Heartbeat CPU 0 instructions: 27500176 cycles: 8823195 heartbeat IPC: 3.039 cumulative IPC: 3.117 (Simulation time: 00 hr 03 min 20 sec)
Heartbeat CPU 0 instructions: 28000176 cycles: 8970588 heartbeat IPC: 3.392 cumulative IPC: 3.121 (Simulation time: 00 hr 03 min 23 sec)
Heartbeat CPU 0 instructions: 28500181 cycles: 9114105 heartbeat IPC: 3.484 cumulative IPC: 3.127 (Simulation time: 00 hr 03 min 27 sec)
Heartbeat CPU 0 instructions: 29000188 cycles: 9271937 heartbeat IPC: 3.168 cumulative IPC: 3.128 (Simulation time: 00 hr 03 min 31 sec)
Heartbeat CPU 0 instructions: 29500188 cycles: 9429670 heartbeat IPC: 3.17 cumulative IPC: 3.128 (Simulation time: 00 hr 03 min 34 sec)
Heartbeat CPU 0 instructions: 30000190 cycles: 9578355 heartbeat IPC: 3.363 cumulative IPC: 3.132 (Simulation time: 00 hr 03 min 38 sec)
Heartbeat CPU 0 instructions: 30500192 cycles: 9715501 heartbeat IPC: 3.646 cumulative IPC: 3.139 (Simulation time: 00 hr 03 min 41 sec)
Heartbeat CPU 0 instructions: 31000197 cycles: 9864974 heartbeat IPC: 3.345 cumulative IPC: 3.142 (Simulation time: 00 hr 03 min 45 sec)
Heartbeat CPU 0 instructions: 31500198 cycles: 10024738 heartbeat IPC: 3.13 cumulative IPC: 3.142 (Simulation time: 00 hr 03 min 49 sec)
Heartbeat CPU 0 instructions: 32000198 cycles: 10163918 heartbeat IPC: 3.592 cumulative IPC: 3.148 (Simulation time: 00 hr 03 min 52 sec)
Heartbeat CPU 0 instructions: 32500201 cycles: 10298766 heartbeat IPC: 3.708 cumulative IPC: 3.156 (Simulation time: 00 hr 03 min 55 sec)
Heartbeat CPU 0 instructions: 33000207 cycles: 10446915 heartbeat IPC: 3.375 cumulative IPC: 3.159 (Simulation time: 00 hr 03 min 59 sec)
Heartbeat CPU 0 instructions: 33500213 cycles: 10587734 heartbeat IPC: 3.551 cumulative IPC: 3.164 (Simulation time: 00 hr 04 min 02 sec)
Heartbeat CPU 0 instructions: 34000219 cycles: 10731730 heartbeat IPC: 3.472 cumulative IPC: 3.168 (Simulation time: 00 hr 04 min 06 sec)
Heartbeat CPU 0 instructions: 34500225 cycles: 10884354 heartbeat IPC: 3.276 cumulative IPC: 3.17 (Simulation time: 00 hr 04 min 09 sec)
Heartbeat CPU 0 instructions: 35000228 cycles: 11036168 heartbeat IPC: 3.294 cumulative IPC: 3.171 (Simulation time: 00 hr 04 min 13 sec)
Heartbeat CPU 0 instructions: 35500231 cycles: 11179287 heartbeat IPC: 3.494 cumulative IPC: 3.176 (Simulation time: 00 hr 04 min 16 sec)
Heartbeat CPU 0 instructions: 36000238 cycles: 11325265 heartbeat IPC: 3.425 cumulative IPC: 3.179 (Simulation time: 00 hr 04 min 20 sec)
Heartbeat CPU 0 instructions: 36500238 cycles: 11474745 heartbeat IPC: 3.345 cumulative IPC: 3.181 (Simulation time: 00 hr 04 min 23 sec)
Heartbeat CPU 0 instructions: 37000245 cycles: 11622420 heartbeat IPC: 3.386 cumulative IPC: 3.184 (Simulation time: 00 hr 04 min 27 sec)
Heartbeat CPU 0 instructions: 37500246 cycles: 11775714 heartbeat IPC: 3.262 cumulative IPC: 3.185 (Simulation time: 00 hr 04 min 30 sec)
Heartbeat CPU 0 instructions: 38000250 cycles: 11966877 heartbeat IPC: 2.616 cumulative IPC: 3.175 (Simulation time: 00 hr 04 min 35 sec)
Heartbeat CPU 0 instructions: 38500254 cycles: 12131788 heartbeat IPC: 3.032 cumulative IPC: 3.174 (Simulation time: 00 hr 04 min 39 sec)
Heartbeat CPU 0 instructions: 39000259 cycles: 12290004 heartbeat IPC: 3.16 cumulative IPC: 3.173 (Simulation time: 00 hr 04 min 42 sec)
Heartbeat CPU 0 instructions: 39500266 cycles: 12405439 heartbeat IPC: 4.332 cumulative IPC: 3.184 (Simulation time: 00 hr 04 min 45 sec)
Heartbeat CPU 0 instructions: 40000270 cycles: 12563223 heartbeat IPC: 3.169 cumulative IPC: 3.184 (Simulation time: 00 hr 04 min 49 sec)
Heartbeat CPU 0 instructions: 40500275 cycles: 12708965 heartbeat IPC: 3.431 cumulative IPC: 3.187 (Simulation time: 00 hr 04 min 52 sec)
Heartbeat CPU 0 instructions: 41000279 cycles: 12841417 heartbeat IPC: 3.775 cumulative IPC: 3.193 (Simulation time: 00 hr 04 min 56 sec)
Heartbeat CPU 0 instructions: 41500279 cycles: 12978661 heartbeat IPC: 3.643 cumulative IPC: 3.198 (Simulation time: 00 hr 04 min 59 sec)
Heartbeat CPU 0 instructions: 42000280 cycles: 13135761 heartbeat IPC: 3.183 cumulative IPC: 3.197 (Simulation time: 00 hr 05 min 03 sec)
Heartbeat CPU 0 instructions: 42500287 cycles: 13276246 heartbeat IPC: 3.559 cumulative IPC: 3.201 (Simulation time: 00 hr 05 min 06 sec)
Heartbeat CPU 0 instructions: 43000291 cycles: 13428574 heartbeat IPC: 3.282 cumulative IPC: 3.202 (Simulation time: 00 hr 05 min 10 sec)
Heartbeat CPU 0 instructions: 43500298 cycles: 13563493 heartbeat IPC: 3.706 cumulative IPC: 3.207 (Simulation time: 00 hr 05 min 13 sec)
Heartbeat CPU 0 instructions: 44000303 cycles: 13705072 heartbeat IPC: 3.532 cumulative IPC: 3.211 (Simulation time: 00 hr 05 min 17 sec)
Heartbeat CPU 0 instructions: 44500305 cycles: 13836761 heartbeat IPC: 3.797 cumulative IPC: 3.216 (Simulation time: 00 hr 05 min 20 sec)
Heartbeat CPU 0 instructions: 45000308 cycles: 13986014 heartbeat IPC: 3.35 cumulative IPC: 3.218 (Simulation time: 00 hr 05 min 24 sec)
Heartbeat CPU 0 instructions: 45500312 cycles: 14126144 heartbeat IPC: 3.568 cumulative IPC: 3.221 (Simulation time: 00 hr 05 min 27 sec)
Heartbeat CPU 0 instructions: 46000315 cycles: 14259047 heartbeat IPC: 3.762 cumulative IPC: 3.226 (Simulation time: 00 hr 05 min 30 sec)
Heartbeat CPU 0 instructions: 46500319 cycles: 14407117 heartbeat IPC: 3.377 cumulative IPC: 3.228 (Simulation time: 00 hr 05 min 34 sec)
Heartbeat CPU 0 instructions: 47000324 cycles: 14555947 heartbeat IPC: 3.36 cumulative IPC: 3.229 (Simulation time: 00 hr 05 min 37 sec)
Heartbeat CPU 0 instructions: 47500327 cycles: 14706184 heartbeat IPC: 3.328 cumulative IPC: 3.23 (Simulation time: 00 hr 05 min 41 sec)
Heartbeat CPU 0 instructions: 48000328 cycles: 14857484 heartbeat IPC: 3.305 cumulative IPC: 3.231 (Simulation time: 00 hr 05 min 45 sec)
Heartbeat CPU 0 instructions: 48500331 cycles: 14986960 heartbeat IPC: 3.862 cumulative IPC: 3.236 (Simulation time: 00 hr 05 min 48 sec)
Heartbeat CPU 0 instructions: 49000337 cycles: 15130852 heartbeat IPC: 3.475 cumulative IPC: 3.238 (Simulation time: 00 hr 05 min 51 sec)
Heartbeat CPU 0 instructions: 49500342 cycles: 15270603 heartbeat IPC: 3.578 cumulative IPC: 3.242 (Simulation time: 00 hr 05 min 55 sec)
Warmup halting CPU 0 at instruction 50000007 cycle 15405003 for remainder of phase
Warmup finished CPU 0 instructions: 50000007 cycles: 15405003 cumulative IPC: 3.246 (Simulation time: 00 hr 05 min 58 sec)
Warmup complete CPU 0 instructions: 50000007 cycles: 15405003 cumulative IPC: 3.246 (Simulation time: 00 hr 05 min 58 sec)
Heartbeat CPU 0 instructions: 50000343 cycles: 15405045 heartbeat IPC: 3.719 cumulative IPC: 8 (Simulation time: 00 hr 05 min 58 sec)
Heartbeat CPU 0 instructions: 50500348 cycles: 16276346 heartbeat IPC: 0.5739 cumulative IPC: 0.5742 (Simulation time: 00 hr 06 min 07 sec)
Heartbeat CPU 0 instructions: 51000349 cycles: 17075575 heartbeat IPC: 0.6256 cumulative IPC: 0.5988 (Simulation time: 00 hr 06 min 15 sec)
Heartbeat CPU 0 instructions: 51500350 cycles: 18209282 heartbeat IPC: 0.441 cumulative IPC: 0.535 (Simulation time: 00 hr 06 min 26 sec)
Heartbeat CPU 0 instructions: 52000353 cycles: 19198895 heartbeat IPC: 0.5053 cumulative IPC: 0.5273 (Simulation time: 00 hr 06 min 37 sec)
Heartbeat CPU 0 instructions: 52500354 cycles: 20453830 heartbeat IPC: 0.3984 cumulative IPC: 0.4952 (Simulation time: 00 hr 06 min 48 sec)
Heartbeat CPU 0 instructions: 53000360 cycles: 21186596 heartbeat IPC: 0.6824 cumulative IPC: 0.5189 (Simulation time: 00 hr 06 min 56 sec)
Heartbeat CPU 0 instructions: 53500360 cycles: 22138398 heartbeat IPC: 0.5253 cumulative IPC: 0.5198 (Simulation time: 00 hr 07 min 05 sec)
Heartbeat CPU 0 instructions: 54000360 cycles: 22798717 heartbeat IPC: 0.7572 cumulative IPC: 0.541 (Simulation time: 00 hr 07 min 13 sec)
Heartbeat CPU 0 instructions: 54500361 cycles: 23609680 heartbeat IPC: 0.6166 cumulative IPC: 0.5485 (Simulation time: 00 hr 07 min 21 sec)
Heartbeat CPU 0 instructions: 55000361 cycles: 24536056 heartbeat IPC: 0.5397 cumulative IPC: 0.5476 (Simulation time: 00 hr 07 min 30 sec)
Heartbeat CPU 0 instructions: 55500363 cycles: 25408953 heartbeat IPC: 0.5728 cumulative IPC: 0.5498 (Simulation time: 00 hr 07 min 38 sec)
Heartbeat CPU 0 instructions: 56000367 cycles: 26275256 heartbeat IPC: 0.5772 cumulative IPC: 0.552 (Simulation time: 00 hr 07 min 47 sec)
Heartbeat CPU 0 instructions: 56500374 cycles: 27193088 heartbeat IPC: 0.5448 cumulative IPC: 0.5514 (Simulation time: 00 hr 07 min 56 sec)
Heartbeat CPU 0 instructions: 57000374 cycles: 28105614 heartbeat IPC: 0.5479 cumulative IPC: 0.5512 (Simulation time: 00 hr 08 min 05 sec)
Heartbeat CPU 0 instructions: 57500375 cycles: 28997918 heartbeat IPC: 0.5603 cumulative IPC: 0.5518 (Simulation time: 00 hr 08 min 14 sec)
Heartbeat CPU 0 instructions: 58000376 cycles: 29856842 heartbeat IPC: 0.5821 cumulative IPC: 0.5536 (Simulation time: 00 hr 08 min 23 sec)
Heartbeat CPU 0 instructions: 58500381 cycles: 30805873 heartbeat IPC: 0.5269 cumulative IPC: 0.5519 (Simulation time: 00 hr 08 min 32 sec)
Heartbeat CPU 0 instructions: 59000381 cycles: 31730265 heartbeat IPC: 0.5409 cumulative IPC: 0.5513 (Simulation time: 00 hr 08 min 42 sec)
Heartbeat CPU 0 instructions: 59500381 cycles: 32665712 heartbeat IPC: 0.5345 cumulative IPC: 0.5504 (Simulation time: 00 hr 08 min 51 sec)
Heartbeat CPU 0 instructions: 60000381 cycles: 33395515 heartbeat IPC: 0.6851 cumulative IPC: 0.5559 (Simulation time: 00 hr 08 min 59 sec)
Heartbeat CPU 0 instructions: 60500386 cycles: 34375959 heartbeat IPC: 0.51 cumulative IPC: 0.5535 (Simulation time: 00 hr 09 min 09 sec)
Heartbeat CPU 0 instructions: 61000392 cycles: 35180884 heartbeat IPC: 0.6212 cumulative IPC: 0.5563 (Simulation time: 00 hr 09 min 17 sec)
Heartbeat CPU 0 instructions: 61500399 cycles: 36060628 heartbeat IPC: 0.5684 cumulative IPC: 0.5568 (Simulation time: 00 hr 09 min 26 sec)
Heartbeat CPU 0 instructions: 62000399 cycles: 37012740 heartbeat IPC: 0.5251 cumulative IPC: 0.5554 (Simulation time: 00 hr 09 min 35 sec)
Heartbeat CPU 0 instructions: 62500401 cycles: 37948201 heartbeat IPC: 0.5345 cumulative IPC: 0.5545 (Simulation time: 00 hr 09 min 44 sec)
Heartbeat CPU 0 instructions: 63000401 cycles: 38778995 heartbeat IPC: 0.6018 cumulative IPC: 0.5562 (Simulation time: 00 hr 09 min 52 sec)
Heartbeat CPU 0 instructions: 63500401 cycles: 39578531 heartbeat IPC: 0.6254 cumulative IPC: 0.5585 (Simulation time: 00 hr 10 min 00 sec)
Heartbeat CPU 0 instructions: 64000401 cycles: 40483443 heartbeat IPC: 0.5525 cumulative IPC: 0.5583 (Simulation time: 00 hr 10 min 09 sec)
Heartbeat CPU 0 instructions: 64500406 cycles: 41276088 heartbeat IPC: 0.6308 cumulative IPC: 0.5605 (Simulation time: 00 hr 10 min 17 sec)
Heartbeat CPU 0 instructions: 65000406 cycles: 42268567 heartbeat IPC: 0.5038 cumulative IPC: 0.5584 (Simulation time: 00 hr 10 min 27 sec)
Heartbeat CPU 0 instructions: 65500413 cycles: 43111337 heartbeat IPC: 0.5933 cumulative IPC: 0.5595 (Simulation time: 00 hr 10 min 36 sec)
Heartbeat CPU 0 instructions: 66000418 cycles: 43943291 heartbeat IPC: 0.601 cumulative IPC: 0.5607 (Simulation time: 00 hr 10 min 44 sec)
Heartbeat CPU 0 instructions: 66500424 cycles: 44893241 heartbeat IPC: 0.5263 cumulative IPC: 0.5596 (Simulation time: 00 hr 10 min 53 sec)
Heartbeat CPU 0 instructions: 67000429 cycles: 45790566 heartbeat IPC: 0.5572 cumulative IPC: 0.5595 (Simulation time: 00 hr 11 min 02 sec)
Heartbeat CPU 0 instructions: 67500431 cycles: 46638681 heartbeat IPC: 0.5895 cumulative IPC: 0.5603 (Simulation time: 00 hr 11 min 11 sec)
Heartbeat CPU 0 instructions: 68000431 cycles: 47346905 heartbeat IPC: 0.706 cumulative IPC: 0.5635 (Simulation time: 00 hr 11 min 18 sec)
Heartbeat CPU 0 instructions: 68500434 cycles: 48296167 heartbeat IPC: 0.5267 cumulative IPC: 0.5625 (Simulation time: 00 hr 11 min 28 sec)
Heartbeat CPU 0 instructions: 69000434 cycles: 49211685 heartbeat IPC: 0.5461 cumulative IPC: 0.562 (Simulation time: 00 hr 11 min 37 sec)
Heartbeat CPU 0 instructions: 69500440 cycles: 49928785 heartbeat IPC: 0.6973 cumulative IPC: 0.5648 (Simulation time: 00 hr 11 min 45 sec)
Heartbeat CPU 0 instructions: 70000441 cycles: 50818487 heartbeat IPC: 0.562 cumulative IPC: 0.5648 (Simulation time: 00 hr 11 min 54 sec)
Heartbeat CPU 0 instructions: 70500444 cycles: 51691440 heartbeat IPC: 0.5728 cumulative IPC: 0.565 (Simulation time: 00 hr 12 min 03 sec)
Heartbeat CPU 0 instructions: 71000446 cycles: 52468082 heartbeat IPC: 0.6438 cumulative IPC: 0.5666 (Simulation time: 00 hr 12 min 10 sec)
Heartbeat CPU 0 instructions: 71500451 cycles: 53352220 heartbeat IPC: 0.5655 cumulative IPC: 0.5666 (Simulation time: 00 hr 12 min 19 sec)
Heartbeat CPU 0 instructions: 72000453 cycles: 54243244 heartbeat IPC: 0.5612 cumulative IPC: 0.5665 (Simulation time: 00 hr 12 min 28 sec)
Heartbeat CPU 0 instructions: 72500455 cycles: 55115890 heartbeat IPC: 0.573 cumulative IPC: 0.5666 (Simulation time: 00 hr 12 min 37 sec)
Heartbeat CPU 0 instructions: 73000457 cycles: 56088994 heartbeat IPC: 0.5138 cumulative IPC: 0.5653 (Simulation time: 00 hr 12 min 47 sec)
Heartbeat CPU 0 instructions: 73500460 cycles: 57050509 heartbeat IPC: 0.52 cumulative IPC: 0.5643 (Simulation time: 00 hr 12 min 57 sec)
Heartbeat CPU 0 instructions: 74000465 cycles: 57963456 heartbeat IPC: 0.5477 cumulative IPC: 0.5639 (Simulation time: 00 hr 13 min 06 sec)
Heartbeat CPU 0 instructions: 74500472 cycles: 58763037 heartbeat IPC: 0.6253 cumulative IPC: 0.5651 (Simulation time: 00 hr 13 min 14 sec)
Heartbeat CPU 0 instructions: 75000472 cycles: 59681580 heartbeat IPC: 0.5443 cumulative IPC: 0.5646 (Simulation time: 00 hr 13 min 23 sec)
Heartbeat CPU 0 instructions: 75500479 cycles: 60684732 heartbeat IPC: 0.4984 cumulative IPC: 0.5632 (Simulation time: 00 hr 13 min 33 sec)
Heartbeat CPU 0 instructions: 76000483 cycles: 61512437 heartbeat IPC: 0.6041 cumulative IPC: 0.5639 (Simulation time: 00 hr 13 min 42 sec)
Heartbeat CPU 0 instructions: 76500486 cycles: 62298436 heartbeat IPC: 0.6361 cumulative IPC: 0.5651 (Simulation time: 00 hr 13 min 50 sec)
Heartbeat CPU 0 instructions: 77000486 cycles: 63298867 heartbeat IPC: 0.4998 cumulative IPC: 0.5638 (Simulation time: 00 hr 14 min 00 sec)
Heartbeat CPU 0 instructions: 77500493 cycles: 64224938 heartbeat IPC: 0.5399 cumulative IPC: 0.5633 (Simulation time: 00 hr 14 min 09 sec)
Heartbeat CPU 0 instructions: 78000497 cycles: 64950577 heartbeat IPC: 0.6891 cumulative IPC: 0.5651 (Simulation time: 00 hr 14 min 16 sec)
Heartbeat CPU 0 instructions: 78500499 cycles: 65914585 heartbeat IPC: 0.5187 cumulative IPC: 0.5643 (Simulation time: 00 hr 14 min 26 sec)
Heartbeat CPU 0 instructions: 79000499 cycles: 66748594 heartbeat IPC: 0.5995 cumulative IPC: 0.5648 (Simulation time: 00 hr 14 min 35 sec)
Heartbeat CPU 0 instructions: 79500505 cycles: 67705486 heartbeat IPC: 0.5225 cumulative IPC: 0.5641 (Simulation time: 00 hr 14 min 44 sec)
Heartbeat CPU 0 instructions: 80000507 cycles: 68550952 heartbeat IPC: 0.5914 cumulative IPC: 0.5645 (Simulation time: 00 hr 14 min 53 sec)
Heartbeat CPU 0 instructions: 80500508 cycles: 69387366 heartbeat IPC: 0.5978 cumulative IPC: 0.565 (Simulation time: 00 hr 15 min 01 sec)
Heartbeat CPU 0 instructions: 81000510 cycles: 70248940 heartbeat IPC: 0.5803 cumulative IPC: 0.5652 (Simulation time: 00 hr 15 min 10 sec)
Heartbeat CPU 0 instructions: 81500517 cycles: 71144116 heartbeat IPC: 0.5586 cumulative IPC: 0.5651 (Simulation time: 00 hr 15 min 19 sec)
Heartbeat CPU 0 instructions: 82000517 cycles: 72015423 heartbeat IPC: 0.5739 cumulative IPC: 0.5653 (Simulation time: 00 hr 15 min 28 sec)
Heartbeat CPU 0 instructions: 82500517 cycles: 72948486 heartbeat IPC: 0.5359 cumulative IPC: 0.5648 (Simulation time: 00 hr 15 min 38 sec)
Heartbeat CPU 0 instructions: 83000517 cycles: 73744255 heartbeat IPC: 0.6283 cumulative IPC: 0.5657 (Simulation time: 00 hr 15 min 46 sec)
Heartbeat CPU 0 instructions: 83500518 cycles: 74762034 heartbeat IPC: 0.4913 cumulative IPC: 0.5644 (Simulation time: 00 hr 15 min 56 sec)
Heartbeat CPU 0 instructions: 84000518 cycles: 75586466 heartbeat IPC: 0.6065 cumulative IPC: 0.565 (Simulation time: 00 hr 16 min 05 sec)
Heartbeat CPU 0 instructions: 84500523 cycles: 76451098 heartbeat IPC: 0.5783 cumulative IPC: 0.5652 (Simulation time: 00 hr 16 min 13 sec)
Heartbeat CPU 0 instructions: 85000530 cycles: 77248411 heartbeat IPC: 0.6271 cumulative IPC: 0.566 (Simulation time: 00 hr 16 min 22 sec)
Heartbeat CPU 0 instructions: 85500532 cycles: 78214187 heartbeat IPC: 0.5177 cumulative IPC: 0.5652 (Simulation time: 00 hr 16 min 31 sec)
Heartbeat CPU 0 instructions: 86000532 cycles: 78972836 heartbeat IPC: 0.6591 cumulative IPC: 0.5663 (Simulation time: 00 hr 16 min 39 sec)
Heartbeat CPU 0 instructions: 86500533 cycles: 79630987 heartbeat IPC: 0.7597 cumulative IPC: 0.5683 (Simulation time: 00 hr 16 min 46 sec)
Heartbeat CPU 0 instructions: 87000538 cycles: 80500742 heartbeat IPC: 0.5749 cumulative IPC: 0.5684 (Simulation time: 00 hr 16 min 54 sec)
Heartbeat CPU 0 instructions: 87500544 cycles: 81203462 heartbeat IPC: 0.7115 cumulative IPC: 0.5699 (Simulation time: 00 hr 17 min 02 sec)
Heartbeat CPU 0 instructions: 88000549 cycles: 82094127 heartbeat IPC: 0.5614 cumulative IPC: 0.5698 (Simulation time: 00 hr 17 min 10 sec)
Heartbeat CPU 0 instructions: 88500549 cycles: 82769000 heartbeat IPC: 0.7409 cumulative IPC: 0.5715 (Simulation time: 00 hr 17 min 17 sec)
Heartbeat CPU 0 instructions: 89000551 cycles: 83586054 heartbeat IPC: 0.612 cumulative IPC: 0.572 (Simulation time: 00 hr 17 min 26 sec)
Heartbeat CPU 0 instructions: 89500557 cycles: 84509210 heartbeat IPC: 0.5416 cumulative IPC: 0.5716 (Simulation time: 00 hr 17 min 35 sec)
Heartbeat CPU 0 instructions: 90000557 cycles: 85582795 heartbeat IPC: 0.4657 cumulative IPC: 0.57 (Simulation time: 00 hr 17 min 46 sec)
Heartbeat CPU 0 instructions: 90500557 cycles: 86414043 heartbeat IPC: 0.6015 cumulative IPC: 0.5704 (Simulation time: 00 hr 17 min 54 sec)
Heartbeat CPU 0 instructions: 91000560 cycles: 87163892 heartbeat IPC: 0.6668 cumulative IPC: 0.5714 (Simulation time: 00 hr 18 min 01 sec)
Heartbeat CPU 0 instructions: 91500560 cycles: 88131765 heartbeat IPC: 0.5166 cumulative IPC: 0.5706 (Simulation time: 00 hr 18 min 11 sec)
Heartbeat CPU 0 instructions: 92000567 cycles: 89066015 heartbeat IPC: 0.5352 cumulative IPC: 0.5702 (Simulation time: 00 hr 18 min 20 sec)
Heartbeat CPU 0 instructions: 92500573 cycles: 89975244 heartbeat IPC: 0.5499 cumulative IPC: 0.5699 (Simulation time: 00 hr 18 min 29 sec)
Heartbeat CPU 0 instructions: 93000575 cycles: 90878547 heartbeat IPC: 0.5535 cumulative IPC: 0.5697 (Simulation time: 00 hr 18 min 38 sec)
Heartbeat CPU 0 instructions: 93500575 cycles: 91798149 heartbeat IPC: 0.5437 cumulative IPC: 0.5694 (Simulation time: 00 hr 18 min 48 sec)
Heartbeat CPU 0 instructions: 94000579 cycles: 92797321 heartbeat IPC: 0.5004 cumulative IPC: 0.5685 (Simulation time: 00 hr 18 min 58 sec)
Heartbeat CPU 0 instructions: 94500579 cycles: 93570245 heartbeat IPC: 0.6469 cumulative IPC: 0.5693 (Simulation time: 00 hr 19 min 06 sec)
Heartbeat CPU 0 instructions: 95000579 cycles: 94435395 heartbeat IPC: 0.5779 cumulative IPC: 0.5694 (Simulation time: 00 hr 19 min 15 sec)
Heartbeat CPU 0 instructions: 95500586 cycles: 95385517 heartbeat IPC: 0.5263 cumulative IPC: 0.5689 (Simulation time: 00 hr 19 min 24 sec)
Heartbeat CPU 0 instructions: 96000592 cycles: 96167356 heartbeat IPC: 0.6395 cumulative IPC: 0.5696 (Simulation time: 00 hr 19 min 32 sec)
Heartbeat CPU 0 instructions: 96500597 cycles: 97177996 heartbeat IPC: 0.4947 cumulative IPC: 0.5687 (Simulation time: 00 hr 19 min 43 sec)
Heartbeat CPU 0 instructions: 97000597 cycles: 98133474 heartbeat IPC: 0.5233 cumulative IPC: 0.5681 (Simulation time: 00 hr 19 min 52 sec)
Heartbeat CPU 0 instructions: 97500597 cycles: 99050393 heartbeat IPC: 0.5453 cumulative IPC: 0.5679 (Simulation time: 00 hr 20 min 02 sec)
Heartbeat CPU 0 instructions: 98000597 cycles: 99936310 heartbeat IPC: 0.5644 cumulative IPC: 0.5678 (Simulation time: 00 hr 20 min 11 sec)
Heartbeat CPU 0 instructions: 98500598 cycles: 100851431 heartbeat IPC: 0.5464 cumulative IPC: 0.5676 (Simulation time: 00 hr 20 min 20 sec)
Heartbeat CPU 0 instructions: 99000601 cycles: 101819091 heartbeat IPC: 0.5167 cumulative IPC: 0.567 (Simulation time: 00 hr 20 min 29 sec)
Heartbeat CPU 0 instructions: 99500606 cycles: 102702580 heartbeat IPC: 0.5659 cumulative IPC: 0.567 (Simulation time: 00 hr 20 min 38 sec)
Heartbeat CPU 0 instructions: 100000606 cycles: 103559877 heartbeat IPC: 0.5832 cumulative IPC: 0.5672 (Simulation time: 00 hr 20 min 47 sec)
Heartbeat CPU 0 instructions: 100500610 cycles: 104381874 heartbeat IPC: 0.6083 cumulative IPC: 0.5676 (Simulation time: 00 hr 20 min 55 sec)
Heartbeat CPU 0 instructions: 101000612 cycles: 105317442 heartbeat IPC: 0.5344 cumulative IPC: 0.5672 (Simulation time: 00 hr 21 min 05 sec)
Heartbeat CPU 0 instructions: 101500618 cycles: 106301172 heartbeat IPC: 0.5083 cumulative IPC: 0.5666 (Simulation time: 00 hr 21 min 15 sec)
Heartbeat CPU 0 instructions: 102000618 cycles: 107241951 heartbeat IPC: 0.5315 cumulative IPC: 0.5662 (Simulation time: 00 hr 21 min 25 sec)
Heartbeat CPU 0 instructions: 102500620 cycles: 108002911 heartbeat IPC: 0.6571 cumulative IPC: 0.567 (Simulation time: 00 hr 21 min 32 sec)
Heartbeat CPU 0 instructions: 103000620 cycles: 108897744 heartbeat IPC: 0.5588 cumulative IPC: 0.5669 (Simulation time: 00 hr 21 min 41 sec)
Heartbeat CPU 0 instructions: 103500620 cycles: 109817329 heartbeat IPC: 0.5437 cumulative IPC: 0.5667 (Simulation time: 00 hr 21 min 50 sec)
Heartbeat CPU 0 instructions: 104000620 cycles: 110757149 heartbeat IPC: 0.532 cumulative IPC: 0.5663 (Simulation time: 00 hr 22 min 00 sec)
Heartbeat CPU 0 instructions: 104500624 cycles: 111646840 heartbeat IPC: 0.562 cumulative IPC: 0.5663 (Simulation time: 00 hr 22 min 09 sec)
Heartbeat CPU 0 instructions: 105000625 cycles: 112362493 heartbeat IPC: 0.6987 cumulative IPC: 0.5673 (Simulation time: 00 hr 22 min 16 sec)
Heartbeat CPU 0 instructions: 105500631 cycles: 113367409 heartbeat IPC: 0.4976 cumulative IPC: 0.5666 (Simulation time: 00 hr 22 min 26 sec)
Heartbeat CPU 0 instructions: 106000631 cycles: 114337365 heartbeat IPC: 0.5155 cumulative IPC: 0.566 (Simulation time: 00 hr 22 min 37 sec)
Heartbeat CPU 0 instructions: 106500635 cycles: 115527827 heartbeat IPC: 0.42 cumulative IPC: 0.5643 (Simulation time: 00 hr 22 min 49 sec)
Heartbeat CPU 0 instructions: 107000636 cycles: 116435315 heartbeat IPC: 0.551 cumulative IPC: 0.5642 (Simulation time: 00 hr 22 min 58 sec)
Heartbeat CPU 0 instructions: 107500636 cycles: 117355522 heartbeat IPC: 0.5434 cumulative IPC: 0.564 (Simulation time: 00 hr 23 min 08 sec)
Heartbeat CPU 0 instructions: 108000640 cycles: 118093656 heartbeat IPC: 0.6774 cumulative IPC: 0.5648 (Simulation time: 00 hr 23 min 15 sec)
Heartbeat CPU 0 instructions: 108500641 cycles: 118641815 heartbeat IPC: 0.9121 cumulative IPC: 0.5667 (Simulation time: 00 hr 23 min 21 sec)
Heartbeat CPU 0 instructions: 109000645 cycles: 119631403 heartbeat IPC: 0.5053 cumulative IPC: 0.5661 (Simulation time: 00 hr 23 min 31 sec)
Heartbeat CPU 0 instructions: 109500645 cycles: 120399161 heartbeat IPC: 0.6512 cumulative IPC: 0.5667 (Simulation time: 00 hr 23 min 38 sec)
Heartbeat CPU 0 instructions: 110000647 cycles: 121277707 heartbeat IPC: 0.5691 cumulative IPC: 0.5667 (Simulation time: 00 hr 23 min 47 sec)
Heartbeat CPU 0 instructions: 110500651 cycles: 122223724 heartbeat IPC: 0.5285 cumulative IPC: 0.5664 (Simulation time: 00 hr 23 min 56 sec)
Heartbeat CPU 0 instructions: 111000656 cycles: 123147503 heartbeat IPC: 0.5413 cumulative IPC: 0.5662 (Simulation time: 00 hr 24 min 05 sec)
Heartbeat CPU 0 instructions: 111500658 cycles: 123976958 heartbeat IPC: 0.6028 cumulative IPC: 0.5665 (Simulation time: 00 hr 24 min 14 sec)
Heartbeat CPU 0 instructions: 112000658 cycles: 124822934 heartbeat IPC: 0.591 cumulative IPC: 0.5666 (Simulation time: 00 hr 24 min 22 sec)
Heartbeat CPU 0 instructions: 112500664 cycles: 125859200 heartbeat IPC: 0.4825 cumulative IPC: 0.5659 (Simulation time: 00 hr 24 min 32 sec)
Heartbeat CPU 0 instructions: 113000664 cycles: 126734042 heartbeat IPC: 0.5715 cumulative IPC: 0.5659 (Simulation time: 00 hr 24 min 41 sec)
Heartbeat CPU 0 instructions: 113500670 cycles: 127581584 heartbeat IPC: 0.5899 cumulative IPC: 0.5661 (Simulation time: 00 hr 24 min 50 sec)
Heartbeat CPU 0 instructions: 114000675 cycles: 128516284 heartbeat IPC: 0.5349 cumulative IPC: 0.5658 (Simulation time: 00 hr 24 min 59 sec)
Heartbeat CPU 0 instructions: 114500679 cycles: 129145390 heartbeat IPC: 0.7948 cumulative IPC: 0.5671 (Simulation time: 00 hr 25 min 06 sec)
Heartbeat CPU 0 instructions: 115000682 cycles: 130095412 heartbeat IPC: 0.5263 cumulative IPC: 0.5667 (Simulation time: 00 hr 25 min 16 sec)
Heartbeat CPU 0 instructions: 115500683 cycles: 130906902 heartbeat IPC: 0.6162 cumulative IPC: 0.5671 (Simulation time: 00 hr 25 min 24 sec)
Heartbeat CPU 0 instructions: 116000685 cycles: 131790496 heartbeat IPC: 0.5659 cumulative IPC: 0.5671 (Simulation time: 00 hr 25 min 33 sec)
Heartbeat CPU 0 instructions: 116500686 cycles: 132708017 heartbeat IPC: 0.5449 cumulative IPC: 0.5669 (Simulation time: 00 hr 25 min 42 sec)
Heartbeat CPU 0 instructions: 117000691 cycles: 133661308 heartbeat IPC: 0.5245 cumulative IPC: 0.5666 (Simulation time: 00 hr 25 min 52 sec)
Heartbeat CPU 0 instructions: 117500698 cycles: 134452618 heartbeat IPC: 0.6319 cumulative IPC: 0.567 (Simulation time: 00 hr 26 min 01 sec)
Heartbeat CPU 0 instructions: 118000701 cycles: 135405957 heartbeat IPC: 0.5245 cumulative IPC: 0.5667 (Simulation time: 00 hr 26 min 10 sec)
Heartbeat CPU 0 instructions: 118500703 cycles: 136289261 heartbeat IPC: 0.5661 cumulative IPC: 0.5667 (Simulation time: 00 hr 26 min 19 sec)
Heartbeat CPU 0 instructions: 119000707 cycles: 137112912 heartbeat IPC: 0.6071 cumulative IPC: 0.5669 (Simulation time: 00 hr 26 min 27 sec)
Heartbeat CPU 0 instructions: 119500710 cycles: 138001038 heartbeat IPC: 0.563 cumulative IPC: 0.5669 (Simulation time: 00 hr 26 min 37 sec)
Heartbeat CPU 0 instructions: 120000717 cycles: 138840693 heartbeat IPC: 0.5955 cumulative IPC: 0.5671 (Simulation time: 00 hr 26 min 45 sec)
Heartbeat CPU 0 instructions: 120500721 cycles: 139685317 heartbeat IPC: 0.592 cumulative IPC: 0.5673 (Simulation time: 00 hr 26 min 54 sec)
Heartbeat CPU 0 instructions: 121000722 cycles: 140554581 heartbeat IPC: 0.5752 cumulative IPC: 0.5673 (Simulation time: 00 hr 27 min 02 sec)
Heartbeat CPU 0 instructions: 121500725 cycles: 141494296 heartbeat IPC: 0.5321 cumulative IPC: 0.5671 (Simulation time: 00 hr 27 min 12 sec)
Heartbeat CPU 0 instructions: 122000730 cycles: 142431288 heartbeat IPC: 0.5336 cumulative IPC: 0.5668 (Simulation time: 00 hr 27 min 21 sec)
Heartbeat CPU 0 instructions: 122500733 cycles: 143296662 heartbeat IPC: 0.5778 cumulative IPC: 0.5669 (Simulation time: 00 hr 27 min 30 sec)
Heartbeat CPU 0 instructions: 123000740 cycles: 144086603 heartbeat IPC: 0.633 cumulative IPC: 0.5673 (Simulation time: 00 hr 27 min 38 sec)
Heartbeat CPU 0 instructions: 123500743 cycles: 145041445 heartbeat IPC: 0.5236 cumulative IPC: 0.567 (Simulation time: 00 hr 27 min 47 sec)
Heartbeat CPU 0 instructions: 124000744 cycles: 146075117 heartbeat IPC: 0.4837 cumulative IPC: 0.5663 (Simulation time: 00 hr 27 min 58 sec)
Heartbeat CPU 0 instructions: 124500745 cycles: 146839115 heartbeat IPC: 0.6545 cumulative IPC: 0.5668 (Simulation time: 00 hr 28 min 05 sec)
Heartbeat CPU 0 instructions: 125000748 cycles: 147737537 heartbeat IPC: 0.5565 cumulative IPC: 0.5668 (Simulation time: 00 hr 28 min 14 sec)
Heartbeat CPU 0 instructions: 125500755 cycles: 148579221 heartbeat IPC: 0.5941 cumulative IPC: 0.5669 (Simulation time: 00 hr 28 min 23 sec)
Heartbeat CPU 0 instructions: 126000756 cycles: 149464260 heartbeat IPC: 0.5649 cumulative IPC: 0.5669 (Simulation time: 00 hr 28 min 32 sec)
Heartbeat CPU 0 instructions: 126500759 cycles: 150257894 heartbeat IPC: 0.63 cumulative IPC: 0.5673 (Simulation time: 00 hr 28 min 40 sec)
Heartbeat CPU 0 instructions: 127000764 cycles: 151205562 heartbeat IPC: 0.5276 cumulative IPC: 0.567 (Simulation time: 00 hr 28 min 49 sec)
Heartbeat CPU 0 instructions: 127500764 cycles: 152107144 heartbeat IPC: 0.5546 cumulative IPC: 0.5669 (Simulation time: 00 hr 28 min 58 sec)
Heartbeat CPU 0 instructions: 128000768 cycles: 152919269 heartbeat IPC: 0.6157 cumulative IPC: 0.5672 (Simulation time: 00 hr 29 min 06 sec)
Heartbeat CPU 0 instructions: 128500769 cycles: 153863998 heartbeat IPC: 0.5293 cumulative IPC: 0.567 (Simulation time: 00 hr 29 min 16 sec)
Heartbeat CPU 0 instructions: 129000769 cycles: 154843067 heartbeat IPC: 0.5107 cumulative IPC: 0.5666 (Simulation time: 00 hr 29 min 26 sec)
Heartbeat CPU 0 instructions: 129500772 cycles: 155820461 heartbeat IPC: 0.5116 cumulative IPC: 0.5662 (Simulation time: 00 hr 29 min 36 sec)
Heartbeat CPU 0 instructions: 130000776 cycles: 156701627 heartbeat IPC: 0.5674 cumulative IPC: 0.5662 (Simulation time: 00 hr 29 min 45 sec)
Heartbeat CPU 0 instructions: 130500778 cycles: 157516389 heartbeat IPC: 0.6137 cumulative IPC: 0.5665 (Simulation time: 00 hr 29 min 53 sec)
Heartbeat CPU 0 instructions: 131000785 cycles: 158285312 heartbeat IPC: 0.6503 cumulative IPC: 0.5669 (Simulation time: 00 hr 30 min 01 sec)
Heartbeat CPU 0 instructions: 131500792 cycles: 159221133 heartbeat IPC: 0.5343 cumulative IPC: 0.5667 (Simulation time: 00 hr 30 min 10 sec)
Heartbeat CPU 0 instructions: 132000795 cycles: 160148489 heartbeat IPC: 0.5392 cumulative IPC: 0.5665 (Simulation time: 00 hr 30 min 19 sec)
Heartbeat CPU 0 instructions: 132500798 cycles: 161062663 heartbeat IPC: 0.5469 cumulative IPC: 0.5664 (Simulation time: 00 hr 30 min 29 sec)
Heartbeat CPU 0 instructions: 133000803 cycles: 161954732 heartbeat IPC: 0.5605 cumulative IPC: 0.5664 (Simulation time: 00 hr 30 min 38 sec)
Heartbeat CPU 0 instructions: 133500803 cycles: 162726851 heartbeat IPC: 0.6476 cumulative IPC: 0.5668 (Simulation time: 00 hr 30 min 46 sec)
Heartbeat CPU 0 instructions: 134000803 cycles: 163648426 heartbeat IPC: 0.5425 cumulative IPC: 0.5666 (Simulation time: 00 hr 30 min 55 sec)
Heartbeat CPU 0 instructions: 134500803 cycles: 164425825 heartbeat IPC: 0.6432 cumulative IPC: 0.567 (Simulation time: 00 hr 31 min 03 sec)
Heartbeat CPU 0 instructions: 135000803 cycles: 165415766 heartbeat IPC: 0.5051 cumulative IPC: 0.5666 (Simulation time: 00 hr 31 min 13 sec)
Heartbeat CPU 0 instructions: 135500805 cycles: 166176646 heartbeat IPC: 0.6571 cumulative IPC: 0.5671 (Simulation time: 00 hr 31 min 21 sec)
Heartbeat CPU 0 instructions: 136000806 cycles: 167121967 heartbeat IPC: 0.5289 cumulative IPC: 0.5669 (Simulation time: 00 hr 31 min 30 sec)
Heartbeat CPU 0 instructions: 136500806 cycles: 167913745 heartbeat IPC: 0.6315 cumulative IPC: 0.5672 (Simulation time: 00 hr 31 min 38 sec)
Heartbeat CPU 0 instructions: 137000808 cycles: 168776934 heartbeat IPC: 0.5792 cumulative IPC: 0.5673 (Simulation time: 00 hr 31 min 47 sec)
Heartbeat CPU 0 instructions: 137500809 cycles: 169741469 heartbeat IPC: 0.5184 cumulative IPC: 0.5669 (Simulation time: 00 hr 31 min 57 sec)
Heartbeat CPU 0 instructions: 138000811 cycles: 170503579 heartbeat IPC: 0.6561 cumulative IPC: 0.5674 (Simulation time: 00 hr 32 min 04 sec)
Heartbeat CPU 0 instructions: 138500814 cycles: 171527069 heartbeat IPC: 0.4885 cumulative IPC: 0.5669 (Simulation time: 00 hr 32 min 15 sec)
Heartbeat CPU 0 instructions: 139000819 cycles: 172538217 heartbeat IPC: 0.4945 cumulative IPC: 0.5664 (Simulation time: 00 hr 32 min 25 sec)
Heartbeat CPU 0 instructions: 139500819 cycles: 173393895 heartbeat IPC: 0.5843 cumulative IPC: 0.5665 (Simulation time: 00 hr 32 min 34 sec)
Heartbeat CPU 0 instructions: 140000824 cycles: 174046765 heartbeat IPC: 0.7659 cumulative IPC: 0.5673 (Simulation time: 00 hr 32 min 40 sec)
Heartbeat CPU 0 instructions: 140500824 cycles: 174841534 heartbeat IPC: 0.6291 cumulative IPC: 0.5676 (Simulation time: 00 hr 32 min 48 sec)
Heartbeat CPU 0 instructions: 141000824 cycles: 175851856 heartbeat IPC: 0.4949 cumulative IPC: 0.5672 (Simulation time: 00 hr 32 min 58 sec)
Heartbeat CPU 0 instructions: 141500829 cycles: 176453743 heartbeat IPC: 0.8307 cumulative IPC: 0.5682 (Simulation time: 00 hr 33 min 04 sec)
Heartbeat CPU 0 instructions: 142000829 cycles: 177461439 heartbeat IPC: 0.4962 cumulative IPC: 0.5677 (Simulation time: 00 hr 33 min 14 sec)
Heartbeat CPU 0 instructions: 142500829 cycles: 178339379 heartbeat IPC: 0.5695 cumulative IPC: 0.5677 (Simulation time: 00 hr 33 min 23 sec)
Heartbeat CPU 0 instructions: 143000832 cycles: 179262552 heartbeat IPC: 0.5416 cumulative IPC: 0.5676 (Simulation time: 00 hr 33 min 32 sec)
Heartbeat CPU 0 instructions: 143500836 cycles: 180062016 heartbeat IPC: 0.6254 cumulative IPC: 0.5679 (Simulation time: 00 hr 33 min 41 sec)
Heartbeat CPU 0 instructions: 144000839 cycles: 181026413 heartbeat IPC: 0.5185 cumulative IPC: 0.5676 (Simulation time: 00 hr 33 min 50 sec)
Heartbeat CPU 0 instructions: 144500839 cycles: 181949529 heartbeat IPC: 0.5416 cumulative IPC: 0.5674 (Simulation time: 00 hr 34 min 00 sec)
Heartbeat CPU 0 instructions: 145000841 cycles: 182777149 heartbeat IPC: 0.6041 cumulative IPC: 0.5676 (Simulation time: 00 hr 34 min 08 sec)
Heartbeat CPU 0 instructions: 145500841 cycles: 183784114 heartbeat IPC: 0.4965 cumulative IPC: 0.5672 (Simulation time: 00 hr 34 min 18 sec)
Heartbeat CPU 0 instructions: 146000841 cycles: 184608692 heartbeat IPC: 0.6064 cumulative IPC: 0.5674 (Simulation time: 00 hr 34 min 27 sec)
Heartbeat CPU 0 instructions: 146500844 cycles: 185497252 heartbeat IPC: 0.5627 cumulative IPC: 0.5673 (Simulation time: 00 hr 34 min 36 sec)
Heartbeat CPU 0 instructions: 147000847 cycles: 186394160 heartbeat IPC: 0.5575 cumulative IPC: 0.5673 (Simulation time: 00 hr 34 min 44 sec)
Heartbeat CPU 0 instructions: 147500853 cycles: 187364088 heartbeat IPC: 0.5155 cumulative IPC: 0.567 (Simulation time: 00 hr 34 min 54 sec)
Heartbeat CPU 0 instructions: 148000854 cycles: 188183055 heartbeat IPC: 0.6105 cumulative IPC: 0.5672 (Simulation time: 00 hr 35 min 03 sec)
Heartbeat CPU 0 instructions: 148500854 cycles: 189020830 heartbeat IPC: 0.5968 cumulative IPC: 0.5673 (Simulation time: 00 hr 35 min 11 sec)
Heartbeat CPU 0 instructions: 149000857 cycles: 190002119 heartbeat IPC: 0.5095 cumulative IPC: 0.567 (Simulation time: 00 hr 35 min 21 sec)
Heartbeat CPU 0 instructions: 149500859 cycles: 190818632 heartbeat IPC: 0.6124 cumulative IPC: 0.5672 (Simulation time: 00 hr 35 min 29 sec)
Heartbeat CPU 0 instructions: 150000862 cycles: 191689946 heartbeat IPC: 0.5738 cumulative IPC: 0.5673 (Simulation time: 00 hr 35 min 38 sec)
Heartbeat CPU 0 instructions: 150500864 cycles: 192602542 heartbeat IPC: 0.5479 cumulative IPC: 0.5672 (Simulation time: 00 hr 35 min 47 sec)
Heartbeat CPU 0 instructions: 151000870 cycles: 193589388 heartbeat IPC: 0.5067 cumulative IPC: 0.5668 (Simulation time: 00 hr 35 min 57 sec)
Heartbeat CPU 0 instructions: 151500870 cycles: 194473856 heartbeat IPC: 0.5653 cumulative IPC: 0.5668 (Simulation time: 00 hr 36 min 05 sec)
Heartbeat CPU 0 instructions: 152000874 cycles: 195346700 heartbeat IPC: 0.5728 cumulative IPC: 0.5669 (Simulation time: 00 hr 36 min 14 sec)
Heartbeat CPU 0 instructions: 152500877 cycles: 196349550 heartbeat IPC: 0.4986 cumulative IPC: 0.5665 (Simulation time: 00 hr 36 min 24 sec)
Heartbeat CPU 0 instructions: 153000880 cycles: 197134091 heartbeat IPC: 0.6373 cumulative IPC: 0.5668 (Simulation time: 00 hr 36 min 32 sec)
Heartbeat CPU 0 instructions: 153500887 cycles: 198038942 heartbeat IPC: 0.5526 cumulative IPC: 0.5667 (Simulation time: 00 hr 36 min 41 sec)
Heartbeat CPU 0 instructions: 154000889 cycles: 198842403 heartbeat IPC: 0.6223 cumulative IPC: 0.567 (Simulation time: 00 hr 36 min 49 sec)
Heartbeat CPU 0 instructions: 154500890 cycles: 199800990 heartbeat IPC: 0.5216 cumulative IPC: 0.5667 (Simulation time: 00 hr 36 min 58 sec)
Heartbeat CPU 0 instructions: 155000896 cycles: 200801747 heartbeat IPC: 0.4996 cumulative IPC: 0.5664 (Simulation time: 00 hr 37 min 08 sec)
Heartbeat CPU 0 instructions: 155500897 cycles: 201782719 heartbeat IPC: 0.5097 cumulative IPC: 0.5661 (Simulation time: 00 hr 37 min 18 sec)
Heartbeat CPU 0 instructions: 156000897 cycles: 202651874 heartbeat IPC: 0.5753 cumulative IPC: 0.5661 (Simulation time: 00 hr 37 min 26 sec)
Heartbeat CPU 0 instructions: 156500903 cycles: 203452173 heartbeat IPC: 0.6248 cumulative IPC: 0.5664 (Simulation time: 00 hr 37 min 34 sec)
Heartbeat CPU 0 instructions: 157000905 cycles: 204304577 heartbeat IPC: 0.5866 cumulative IPC: 0.5664 (Simulation time: 00 hr 37 min 42 sec)
Heartbeat CPU 0 instructions: 157500909 cycles: 205319177 heartbeat IPC: 0.4928 cumulative IPC: 0.566 (Simulation time: 00 hr 37 min 52 sec)
Heartbeat CPU 0 instructions: 158000916 cycles: 206112272 heartbeat IPC: 0.6305 cumulative IPC: 0.5663 (Simulation time: 00 hr 38 min 01 sec)
Heartbeat CPU 0 instructions: 158500916 cycles: 206695662 heartbeat IPC: 0.8571 cumulative IPC: 0.5672 (Simulation time: 00 hr 38 min 07 sec)
Heartbeat CPU 0 instructions: 159000917 cycles: 207590962 heartbeat IPC: 0.5585 cumulative IPC: 0.5672 (Simulation time: 00 hr 38 min 15 sec)
Heartbeat CPU 0 instructions: 159500920 cycles: 208550960 heartbeat IPC: 0.5208 cumulative IPC: 0.5669 (Simulation time: 00 hr 38 min 25 sec)
Heartbeat CPU 0 instructions: 160000926 cycles: 209534981 heartbeat IPC: 0.5081 cumulative IPC: 0.5666 (Simulation time: 00 hr 38 min 35 sec)
Heartbeat CPU 0 instructions: 160500928 cycles: 210815972 heartbeat IPC: 0.3903 cumulative IPC: 0.5655 (Simulation time: 00 hr 38 min 48 sec)
Heartbeat CPU 0 instructions: 161000934 cycles: 211531804 heartbeat IPC: 0.6985 cumulative IPC: 0.566 (Simulation time: 00 hr 38 min 55 sec)
Heartbeat CPU 0 instructions: 161500936 cycles: 212381835 heartbeat IPC: 0.5882 cumulative IPC: 0.5661 (Simulation time: 00 hr 39 min 04 sec)
Heartbeat CPU 0 instructions: 162000938 cycles: 212892674 heartbeat IPC: 0.9788 cumulative IPC: 0.5671 (Simulation time: 00 hr 39 min 09 sec)
Heartbeat CPU 0 instructions: 162500943 cycles: 213760605 heartbeat IPC: 0.5761 cumulative IPC: 0.5672 (Simulation time: 00 hr 39 min 18 sec)
Heartbeat CPU 0 instructions: 163000949 cycles: 214695178 heartbeat IPC: 0.535 cumulative IPC: 0.567 (Simulation time: 00 hr 39 min 26 sec)
Heartbeat CPU 0 instructions: 163500955 cycles: 215475067 heartbeat IPC: 0.6411 cumulative IPC: 0.5673 (Simulation time: 00 hr 39 min 34 sec)
Heartbeat CPU 0 instructions: 164000956 cycles: 216367158 heartbeat IPC: 0.5605 cumulative IPC: 0.5673 (Simulation time: 00 hr 39 min 43 sec)
Heartbeat CPU 0 instructions: 164500957 cycles: 217310129 heartbeat IPC: 0.5302 cumulative IPC: 0.5671 (Simulation time: 00 hr 39 min 52 sec)
Heartbeat CPU 0 instructions: 165000957 cycles: 218161507 heartbeat IPC: 0.5873 cumulative IPC: 0.5672 (Simulation time: 00 hr 40 min 00 sec)
Heartbeat CPU 0 instructions: 165500958 cycles: 219033425 heartbeat IPC: 0.5734 cumulative IPC: 0.5672 (Simulation time: 00 hr 40 min 08 sec)
Heartbeat CPU 0 instructions: 166000963 cycles: 219996946 heartbeat IPC: 0.5189 cumulative IPC: 0.567 (Simulation time: 00 hr 40 min 18 sec)
Heartbeat CPU 0 instructions: 166500969 cycles: 220861854 heartbeat IPC: 0.5781 cumulative IPC: 0.567 (Simulation time: 00 hr 40 min 26 sec)
Heartbeat CPU 0 instructions: 167000970 cycles: 221734976 heartbeat IPC: 0.5727 cumulative IPC: 0.5671 (Simulation time: 00 hr 40 min 34 sec)
Heartbeat CPU 0 instructions: 167500977 cycles: 222644659 heartbeat IPC: 0.5496 cumulative IPC: 0.567 (Simulation time: 00 hr 40 min 43 sec)
Heartbeat CPU 0 instructions: 168000981 cycles: 223486955 heartbeat IPC: 0.5936 cumulative IPC: 0.5671 (Simulation time: 00 hr 40 min 52 sec)
Heartbeat CPU 0 instructions: 168500985 cycles: 224441609 heartbeat IPC: 0.5238 cumulative IPC: 0.5669 (Simulation time: 00 hr 41 min 01 sec)
Heartbeat CPU 0 instructions: 169000991 cycles: 225356361 heartbeat IPC: 0.5466 cumulative IPC: 0.5668 (Simulation time: 00 hr 41 min 09 sec)
Heartbeat CPU 0 instructions: 169500991 cycles: 226166315 heartbeat IPC: 0.6173 cumulative IPC: 0.567 (Simulation time: 00 hr 41 min 17 sec)
Heartbeat CPU 0 instructions: 170000998 cycles: 226933648 heartbeat IPC: 0.6516 cumulative IPC: 0.5673 (Simulation time: 00 hr 41 min 25 sec)
Heartbeat CPU 0 instructions: 170500999 cycles: 227783660 heartbeat IPC: 0.5882 cumulative IPC: 0.5674 (Simulation time: 00 hr 41 min 33 sec)
Heartbeat CPU 0 instructions: 171001002 cycles: 228723135 heartbeat IPC: 0.5322 cumulative IPC: 0.5672 (Simulation time: 00 hr 41 min 42 sec)
Heartbeat CPU 0 instructions: 171501008 cycles: 229608751 heartbeat IPC: 0.5646 cumulative IPC: 0.5672 (Simulation time: 00 hr 41 min 51 sec)
Heartbeat CPU 0 instructions: 172001011 cycles: 230478145 heartbeat IPC: 0.5751 cumulative IPC: 0.5673 (Simulation time: 00 hr 41 min 59 sec)
Heartbeat CPU 0 instructions: 172501012 cycles: 231393878 heartbeat IPC: 0.546 cumulative IPC: 0.5672 (Simulation time: 00 hr 42 min 07 sec)
Heartbeat CPU 0 instructions: 173001014 cycles: 232134157 heartbeat IPC: 0.6754 cumulative IPC: 0.5675 (Simulation time: 00 hr 42 min 14 sec)
Heartbeat CPU 0 instructions: 173501021 cycles: 233029445 heartbeat IPC: 0.5585 cumulative IPC: 0.5675 (Simulation time: 00 hr 42 min 23 sec)
Heartbeat CPU 0 instructions: 174001022 cycles: 233949028 heartbeat IPC: 0.5437 cumulative IPC: 0.5674 (Simulation time: 00 hr 42 min 32 sec)
Heartbeat CPU 0 instructions: 174501026 cycles: 234712967 heartbeat IPC: 0.6545 cumulative IPC: 0.5677 (Simulation time: 00 hr 42 min 39 sec)
Heartbeat CPU 0 instructions: 175001027 cycles: 235697601 heartbeat IPC: 0.5078 cumulative IPC: 0.5674 (Simulation time: 00 hr 42 min 48 sec)
Heartbeat CPU 0 instructions: 175501027 cycles: 236492538 heartbeat IPC: 0.629 cumulative IPC: 0.5677 (Simulation time: 00 hr 42 min 56 sec)
Heartbeat CPU 0 instructions: 176001027 cycles: 237477227 heartbeat IPC: 0.5078 cumulative IPC: 0.5674 (Simulation time: 00 hr 43 min 05 sec)
Heartbeat CPU 0 instructions: 176501034 cycles: 238385487 heartbeat IPC: 0.5505 cumulative IPC: 0.5673 (Simulation time: 00 hr 43 min 14 sec)
Heartbeat CPU 0 instructions: 177001037 cycles: 239202800 heartbeat IPC: 0.6118 cumulative IPC: 0.5675 (Simulation time: 00 hr 43 min 22 sec)
Heartbeat CPU 0 instructions: 177501038 cycles: 240046516 heartbeat IPC: 0.5926 cumulative IPC: 0.5676 (Simulation time: 00 hr 43 min 30 sec)
Heartbeat CPU 0 instructions: 178001044 cycles: 240781246 heartbeat IPC: 0.6805 cumulative IPC: 0.5679 (Simulation time: 00 hr 43 min 37 sec)
Heartbeat CPU 0 instructions: 178501044 cycles: 241802161 heartbeat IPC: 0.4898 cumulative IPC: 0.5676 (Simulation time: 00 hr 43 min 47 sec)
Heartbeat CPU 0 instructions: 179001045 cycles: 242676388 heartbeat IPC: 0.5719 cumulative IPC: 0.5676 (Simulation time: 00 hr 43 min 55 sec)
Heartbeat CPU 0 instructions: 179501049 cycles: 243517435 heartbeat IPC: 0.5945 cumulative IPC: 0.5677 (Simulation time: 00 hr 44 min 03 sec)
Heartbeat CPU 0 instructions: 180001052 cycles: 244317462 heartbeat IPC: 0.625 cumulative IPC: 0.5679 (Simulation time: 00 hr 44 min 11 sec)
Heartbeat CPU 0 instructions: 180501052 cycles: 245151595 heartbeat IPC: 0.5994 cumulative IPC: 0.568 (Simulation time: 00 hr 44 min 19 sec)
Heartbeat CPU 0 instructions: 181001054 cycles: 246181646 heartbeat IPC: 0.4854 cumulative IPC: 0.5677 (Simulation time: 00 hr 44 min 28 sec)
Heartbeat CPU 0 instructions: 181501055 cycles: 246958038 heartbeat IPC: 0.644 cumulative IPC: 0.5679 (Simulation time: 00 hr 44 min 36 sec)
Heartbeat CPU 0 instructions: 182001055 cycles: 247833341 heartbeat IPC: 0.5712 cumulative IPC: 0.5679 (Simulation time: 00 hr 44 min 44 sec)
Heartbeat CPU 0 instructions: 182501059 cycles: 248589973 heartbeat IPC: 0.6608 cumulative IPC: 0.5682 (Simulation time: 00 hr 44 min 51 sec)
Heartbeat CPU 0 instructions: 183001060 cycles: 249498465 heartbeat IPC: 0.5504 cumulative IPC: 0.5682 (Simulation time: 00 hr 44 min 59 sec)
Heartbeat CPU 0 instructions: 183501063 cycles: 250361354 heartbeat IPC: 0.5795 cumulative IPC: 0.5682 (Simulation time: 00 hr 45 min 07 sec)
Heartbeat CPU 0 instructions: 184001065 cycles: 251252490 heartbeat IPC: 0.5611 cumulative IPC: 0.5682 (Simulation time: 00 hr 45 min 15 sec)
Heartbeat CPU 0 instructions: 184501067 cycles: 252185220 heartbeat IPC: 0.5361 cumulative IPC: 0.568 (Simulation time: 00 hr 45 min 24 sec)
Heartbeat CPU 0 instructions: 185001067 cycles: 253079779 heartbeat IPC: 0.5589 cumulative IPC: 0.568 (Simulation time: 00 hr 45 min 32 sec)
Heartbeat CPU 0 instructions: 185501068 cycles: 254075493 heartbeat IPC: 0.5022 cumulative IPC: 0.5677 (Simulation time: 00 hr 45 min 41 sec)
Heartbeat CPU 0 instructions: 186001069 cycles: 254971975 heartbeat IPC: 0.5577 cumulative IPC: 0.5677 (Simulation time: 00 hr 45 min 50 sec)
Heartbeat CPU 0 instructions: 186501070 cycles: 255866864 heartbeat IPC: 0.5587 cumulative IPC: 0.5677 (Simulation time: 00 hr 45 min 58 sec)
Heartbeat CPU 0 instructions: 187001075 cycles: 256689593 heartbeat IPC: 0.6077 cumulative IPC: 0.5678 (Simulation time: 00 hr 46 min 06 sec)
Heartbeat CPU 0 instructions: 187501082 cycles: 257492413 heartbeat IPC: 0.6228 cumulative IPC: 0.568 (Simulation time: 00 hr 46 min 13 sec)
Heartbeat CPU 0 instructions: 188001086 cycles: 258409511 heartbeat IPC: 0.5452 cumulative IPC: 0.5679 (Simulation time: 00 hr 46 min 22 sec)
Heartbeat CPU 0 instructions: 188501089 cycles: 259157391 heartbeat IPC: 0.6686 cumulative IPC: 0.5682 (Simulation time: 00 hr 46 min 29 sec)
Heartbeat CPU 0 instructions: 189001089 cycles: 260199078 heartbeat IPC: 0.48 cumulative IPC: 0.5678 (Simulation time: 00 hr 46 min 38 sec)
Heartbeat CPU 0 instructions: 189501089 cycles: 261014874 heartbeat IPC: 0.6129 cumulative IPC: 0.568 (Simulation time: 00 hr 46 min 46 sec)
Heartbeat CPU 0 instructions: 190001095 cycles: 261831750 heartbeat IPC: 0.6121 cumulative IPC: 0.5681 (Simulation time: 00 hr 46 min 53 sec)
Heartbeat CPU 0 instructions: 190501097 cycles: 262686590 heartbeat IPC: 0.5849 cumulative IPC: 0.5682 (Simulation time: 00 hr 47 min 01 sec)
Heartbeat CPU 0 instructions: 191001099 cycles: 263538460 heartbeat IPC: 0.5869 cumulative IPC: 0.5682 (Simulation time: 00 hr 47 min 09 sec)
Heartbeat CPU 0 instructions: 191501105 cycles: 264492186 heartbeat IPC: 0.5243 cumulative IPC: 0.5681 (Simulation time: 00 hr 47 min 18 sec)
Heartbeat CPU 0 instructions: 192001106 cycles: 265343702 heartbeat IPC: 0.5872 cumulative IPC: 0.5681 (Simulation time: 00 hr 47 min 26 sec)
Heartbeat CPU 0 instructions: 192501108 cycles: 266188537 heartbeat IPC: 0.5918 cumulative IPC: 0.5682 (Simulation time: 00 hr 47 min 34 sec)
Heartbeat CPU 0 instructions: 193001114 cycles: 267085981 heartbeat IPC: 0.5571 cumulative IPC: 0.5682 (Simulation time: 00 hr 47 min 42 sec)
Heartbeat CPU 0 instructions: 193501114 cycles: 267995455 heartbeat IPC: 0.5498 cumulative IPC: 0.5681 (Simulation time: 00 hr 47 min 51 sec)
Heartbeat CPU 0 instructions: 194001115 cycles: 268788317 heartbeat IPC: 0.6306 cumulative IPC: 0.5683 (Simulation time: 00 hr 47 min 58 sec)
Heartbeat CPU 0 instructions: 194501115 cycles: 269639383 heartbeat IPC: 0.5875 cumulative IPC: 0.5684 (Simulation time: 00 hr 48 min 06 sec)
Heartbeat CPU 0 instructions: 195001118 cycles: 270598501 heartbeat IPC: 0.5213 cumulative IPC: 0.5682 (Simulation time: 00 hr 48 min 15 sec)
Heartbeat CPU 0 instructions: 195501125 cycles: 271657654 heartbeat IPC: 0.4721 cumulative IPC: 0.5678 (Simulation time: 00 hr 48 min 25 sec)
Heartbeat CPU 0 instructions: 196001127 cycles: 272460117 heartbeat IPC: 0.6231 cumulative IPC: 0.568 (Simulation time: 00 hr 48 min 32 sec)
Heartbeat CPU 0 instructions: 196501129 cycles: 273170866 heartbeat IPC: 0.7035 cumulative IPC: 0.5683 (Simulation time: 00 hr 48 min 39 sec)
Heartbeat CPU 0 instructions: 197001133 cycles: 274083476 heartbeat IPC: 0.5479 cumulative IPC: 0.5683 (Simulation time: 00 hr 48 min 47 sec)
Heartbeat CPU 0 instructions: 197501139 cycles: 274925671 heartbeat IPC: 0.5937 cumulative IPC: 0.5684 (Simulation time: 00 hr 48 min 55 sec)
Heartbeat CPU 0 instructions: 198001140 cycles: 275915969 heartbeat IPC: 0.5049 cumulative IPC: 0.5681 (Simulation time: 00 hr 49 min 04 sec)
Heartbeat CPU 0 instructions: 198501140 cycles: 276700047 heartbeat IPC: 0.6377 cumulative IPC: 0.5683 (Simulation time: 00 hr 49 min 12 sec)
Heartbeat CPU 0 instructions: 199001143 cycles: 277624251 heartbeat IPC: 0.541 cumulative IPC: 0.5682 (Simulation time: 00 hr 49 min 20 sec)
Heartbeat CPU 0 instructions: 199501148 cycles: 278517798 heartbeat IPC: 0.5596 cumulative IPC: 0.5682 (Simulation time: 00 hr 49 min 28 sec)
Heartbeat CPU 0 instructions: 200001155 cycles: 279316915 heartbeat IPC: 0.6257 cumulative IPC: 0.5684 (Simulation time: 00 hr 49 min 35 sec)
Heartbeat CPU 0 instructions: 200501155 cycles: 280205789 heartbeat IPC: 0.5625 cumulative IPC: 0.5684 (Simulation time: 00 hr 49 min 44 sec)
Heartbeat CPU 0 instructions: 201001156 cycles: 281116618 heartbeat IPC: 0.549 cumulative IPC: 0.5683 (Simulation time: 00 hr 49 min 52 sec)
Heartbeat CPU 0 instructions: 201501163 cycles: 282001784 heartbeat IPC: 0.5649 cumulative IPC: 0.5683 (Simulation time: 00 hr 50 min 00 sec)
Heartbeat CPU 0 instructions: 202001170 cycles: 282759702 heartbeat IPC: 0.6597 cumulative IPC: 0.5685 (Simulation time: 00 hr 50 min 07 sec)
Heartbeat CPU 0 instructions: 202501177 cycles: 283597175 heartbeat IPC: 0.597 cumulative IPC: 0.5686 (Simulation time: 00 hr 50 min 15 sec)
Heartbeat CPU 0 instructions: 203001181 cycles: 284514693 heartbeat IPC: 0.545 cumulative IPC: 0.5685 (Simulation time: 00 hr 50 min 23 sec)
Heartbeat CPU 0 instructions: 203501181 cycles: 285451412 heartbeat IPC: 0.5338 cumulative IPC: 0.5684 (Simulation time: 00 hr 50 min 32 sec)
Heartbeat CPU 0 instructions: 204001183 cycles: 286327596 heartbeat IPC: 0.5707 cumulative IPC: 0.5684 (Simulation time: 00 hr 50 min 41 sec)
Heartbeat CPU 0 instructions: 204501185 cycles: 287062426 heartbeat IPC: 0.6804 cumulative IPC: 0.5687 (Simulation time: 00 hr 50 min 49 sec)
Heartbeat CPU 0 instructions: 205001191 cycles: 287960437 heartbeat IPC: 0.5568 cumulative IPC: 0.5687 (Simulation time: 00 hr 50 min 58 sec)
Heartbeat CPU 0 instructions: 205501195 cycles: 288829855 heartbeat IPC: 0.5751 cumulative IPC: 0.5687 (Simulation time: 00 hr 51 min 06 sec)
Heartbeat CPU 0 instructions: 206001197 cycles: 289666346 heartbeat IPC: 0.5977 cumulative IPC: 0.5688 (Simulation time: 00 hr 51 min 15 sec)
Heartbeat CPU 0 instructions: 206501202 cycles: 290689586 heartbeat IPC: 0.4886 cumulative IPC: 0.5685 (Simulation time: 00 hr 51 min 23 sec)
Heartbeat CPU 0 instructions: 207001208 cycles: 291563701 heartbeat IPC: 0.572 cumulative IPC: 0.5685 (Simulation time: 00 hr 51 min 30 sec)
Heartbeat CPU 0 instructions: 207501211 cycles: 292368481 heartbeat IPC: 0.6213 cumulative IPC: 0.5687 (Simulation time: 00 hr 51 min 37 sec)
Heartbeat CPU 0 instructions: 208001214 cycles: 293376290 heartbeat IPC: 0.4961 cumulative IPC: 0.5684 (Simulation time: 00 hr 51 min 45 sec)
Heartbeat CPU 0 instructions: 208501221 cycles: 294184407 heartbeat IPC: 0.6187 cumulative IPC: 0.5686 (Simulation time: 00 hr 51 min 51 sec)
Heartbeat CPU 0 instructions: 209001224 cycles: 294997171 heartbeat IPC: 0.6152 cumulative IPC: 0.5687 (Simulation time: 00 hr 51 min 57 sec)
Heartbeat CPU 0 instructions: 209501225 cycles: 295910628 heartbeat IPC: 0.5474 cumulative IPC: 0.5686 (Simulation time: 00 hr 52 min 05 sec)
Heartbeat CPU 0 instructions: 210001225 cycles: 296735595 heartbeat IPC: 0.6061 cumulative IPC: 0.5687 (Simulation time: 00 hr 52 min 13 sec)
Heartbeat CPU 0 instructions: 210501230 cycles: 297772682 heartbeat IPC: 0.4821 cumulative IPC: 0.5684 (Simulation time: 00 hr 52 min 23 sec)
Heartbeat CPU 0 instructions: 211001231 cycles: 298645162 heartbeat IPC: 0.5731 cumulative IPC: 0.5684 (Simulation time: 00 hr 52 min 32 sec)
Heartbeat CPU 0 instructions: 211501233 cycles: 299544603 heartbeat IPC: 0.5559 cumulative IPC: 0.5684 (Simulation time: 00 hr 52 min 41 sec)
Heartbeat CPU 0 instructions: 212001237 cycles: 300438966 heartbeat IPC: 0.5591 cumulative IPC: 0.5684 (Simulation time: 00 hr 52 min 50 sec)
Heartbeat CPU 0 instructions: 212501237 cycles: 301234606 heartbeat IPC: 0.6284 cumulative IPC: 0.5685 (Simulation time: 00 hr 52 min 58 sec)
Heartbeat CPU 0 instructions: 213001240 cycles: 302082316 heartbeat IPC: 0.5898 cumulative IPC: 0.5686 (Simulation time: 00 hr 53 min 06 sec)
Heartbeat CPU 0 instructions: 213501245 cycles: 303022579 heartbeat IPC: 0.5318 cumulative IPC: 0.5685 (Simulation time: 00 hr 53 min 16 sec)
Heartbeat CPU 0 instructions: 214001246 cycles: 303820846 heartbeat IPC: 0.6264 cumulative IPC: 0.5686 (Simulation time: 00 hr 53 min 24 sec)
Heartbeat CPU 0 instructions: 214501253 cycles: 304642435 heartbeat IPC: 0.6086 cumulative IPC: 0.5687 (Simulation time: 00 hr 53 min 33 sec)
Heartbeat CPU 0 instructions: 215001253 cycles: 305505038 heartbeat IPC: 0.5796 cumulative IPC: 0.5688 (Simulation time: 00 hr 53 min 41 sec)
Heartbeat CPU 0 instructions: 215501256 cycles: 306425123 heartbeat IPC: 0.5434 cumulative IPC: 0.5687 (Simulation time: 00 hr 53 min 50 sec)
Heartbeat CPU 0 instructions: 216001256 cycles: 307408129 heartbeat IPC: 0.5086 cumulative IPC: 0.5685 (Simulation time: 00 hr 54 min 01 sec)
Heartbeat CPU 0 instructions: 216501256 cycles: 308799133 heartbeat IPC: 0.3595 cumulative IPC: 0.5675 (Simulation time: 00 hr 54 min 15 sec)
Heartbeat CPU 0 instructions: 217001258 cycles: 309478202 heartbeat IPC: 0.7363 cumulative IPC: 0.5679 (Simulation time: 00 hr 54 min 22 sec)
Heartbeat CPU 0 instructions: 217501258 cycles: 310265367 heartbeat IPC: 0.6352 cumulative IPC: 0.5681 (Simulation time: 00 hr 54 min 30 sec)
Heartbeat CPU 0 instructions: 218001261 cycles: 310699140 heartbeat IPC: 1.153 cumulative IPC: 0.5689 (Simulation time: 00 hr 54 min 35 sec)
Heartbeat CPU 0 instructions: 218501261 cycles: 311671766 heartbeat IPC: 0.5141 cumulative IPC: 0.5687 (Simulation time: 00 hr 54 min 45 sec)
Heartbeat CPU 0 instructions: 219001263 cycles: 312515555 heartbeat IPC: 0.5926 cumulative IPC: 0.5688 (Simulation time: 00 hr 54 min 53 sec)
Heartbeat CPU 0 instructions: 219501264 cycles: 313350530 heartbeat IPC: 0.5988 cumulative IPC: 0.5689 (Simulation time: 00 hr 55 min 02 sec)
Heartbeat CPU 0 instructions: 220001265 cycles: 314305625 heartbeat IPC: 0.5235 cumulative IPC: 0.5688 (Simulation time: 00 hr 55 min 11 sec)
Heartbeat CPU 0 instructions: 220501266 cycles: 315130061 heartbeat IPC: 0.6065 cumulative IPC: 0.5689 (Simulation time: 00 hr 55 min 20 sec)
Heartbeat CPU 0 instructions: 221001273 cycles: 316056560 heartbeat IPC: 0.5397 cumulative IPC: 0.5688 (Simulation time: 00 hr 55 min 29 sec)
Heartbeat CPU 0 instructions: 221501274 cycles: 316938040 heartbeat IPC: 0.5672 cumulative IPC: 0.5688 (Simulation time: 00 hr 55 min 38 sec)
Heartbeat CPU 0 instructions: 222001275 cycles: 317589824 heartbeat IPC: 0.7671 cumulative IPC: 0.5692 (Simulation time: 00 hr 55 min 45 sec)
Heartbeat CPU 0 instructions: 222501275 cycles: 318573811 heartbeat IPC: 0.5081 cumulative IPC: 0.569 (Simulation time: 00 hr 55 min 54 sec)
Heartbeat CPU 0 instructions: 223001276 cycles: 319359784 heartbeat IPC: 0.6362 cumulative IPC: 0.5692 (Simulation time: 00 hr 56 min 03 sec)
Heartbeat CPU 0 instructions: 223501281 cycles: 320181967 heartbeat IPC: 0.6081 cumulative IPC: 0.5693 (Simulation time: 00 hr 56 min 11 sec)
Heartbeat CPU 0 instructions: 224001282 cycles: 321112930 heartbeat IPC: 0.5371 cumulative IPC: 0.5692 (Simulation time: 00 hr 56 min 20 sec)
Heartbeat CPU 0 instructions: 224501282 cycles: 321956148 heartbeat IPC: 0.593 cumulative IPC: 0.5692 (Simulation time: 00 hr 56 min 29 sec)
Heartbeat CPU 0 instructions: 225001287 cycles: 322941267 heartbeat IPC: 0.5076 cumulative IPC: 0.569 (Simulation time: 00 hr 56 min 39 sec)
Heartbeat CPU 0 instructions: 225501292 cycles: 323689187 heartbeat IPC: 0.6685 cumulative IPC: 0.5693 (Simulation time: 00 hr 56 min 46 sec)
Heartbeat CPU 0 instructions: 226001298 cycles: 324572412 heartbeat IPC: 0.5661 cumulative IPC: 0.5693 (Simulation time: 00 hr 56 min 55 sec)
Heartbeat CPU 0 instructions: 226501299 cycles: 325454495 heartbeat IPC: 0.5668 cumulative IPC: 0.5693 (Simulation time: 00 hr 57 min 04 sec)
Heartbeat CPU 0 instructions: 227001300 cycles: 326365104 heartbeat IPC: 0.5491 cumulative IPC: 0.5692 (Simulation time: 00 hr 57 min 13 sec)
Heartbeat CPU 0 instructions: 227501305 cycles: 327243113 heartbeat IPC: 0.5695 cumulative IPC: 0.5692 (Simulation time: 00 hr 57 min 22 sec)
Heartbeat CPU 0 instructions: 228001305 cycles: 328185099 heartbeat IPC: 0.5308 cumulative IPC: 0.5691 (Simulation time: 00 hr 57 min 31 sec)
Heartbeat CPU 0 instructions: 228501305 cycles: 329106533 heartbeat IPC: 0.5426 cumulative IPC: 0.569 (Simulation time: 00 hr 57 min 41 sec)
Heartbeat CPU 0 instructions: 229001305 cycles: 329966451 heartbeat IPC: 0.5815 cumulative IPC: 0.5691 (Simulation time: 00 hr 57 min 49 sec)
Heartbeat CPU 0 instructions: 229501305 cycles: 330814582 heartbeat IPC: 0.5895 cumulative IPC: 0.5691 (Simulation time: 00 hr 57 min 58 sec)
Heartbeat CPU 0 instructions: 230001307 cycles: 331705639 heartbeat IPC: 0.5611 cumulative IPC: 0.5691 (Simulation time: 00 hr 58 min 07 sec)
Heartbeat CPU 0 instructions: 230501309 cycles: 332574219 heartbeat IPC: 0.5757 cumulative IPC: 0.5691 (Simulation time: 00 hr 58 min 16 sec)
Heartbeat CPU 0 instructions: 231001313 cycles: 333528813 heartbeat IPC: 0.5238 cumulative IPC: 0.569 (Simulation time: 00 hr 58 min 25 sec)
Heartbeat CPU 0 instructions: 231501319 cycles: 334304963 heartbeat IPC: 0.6442 cumulative IPC: 0.5691 (Simulation time: 00 hr 58 min 33 sec)
Heartbeat CPU 0 instructions: 232001324 cycles: 335284297 heartbeat IPC: 0.5106 cumulative IPC: 0.569 (Simulation time: 00 hr 58 min 43 sec)
Heartbeat CPU 0 instructions: 232501326 cycles: 336159825 heartbeat IPC: 0.5711 cumulative IPC: 0.569 (Simulation time: 00 hr 58 min 52 sec)
Heartbeat CPU 0 instructions: 233001327 cycles: 337067768 heartbeat IPC: 0.5507 cumulative IPC: 0.5689 (Simulation time: 00 hr 59 min 01 sec)
Heartbeat CPU 0 instructions: 233501333 cycles: 337815825 heartbeat IPC: 0.6684 cumulative IPC: 0.5692 (Simulation time: 00 hr 59 min 09 sec)
Heartbeat CPU 0 instructions: 234001337 cycles: 338848522 heartbeat IPC: 0.4842 cumulative IPC: 0.5689 (Simulation time: 00 hr 59 min 19 sec)
Heartbeat CPU 0 instructions: 234501337 cycles: 339661829 heartbeat IPC: 0.6148 cumulative IPC: 0.569 (Simulation time: 00 hr 59 min 28 sec)
Heartbeat CPU 0 instructions: 235001342 cycles: 340532292 heartbeat IPC: 0.5744 cumulative IPC: 0.569 (Simulation time: 00 hr 59 min 37 sec)
Heartbeat CPU 0 instructions: 235501344 cycles: 341431737 heartbeat IPC: 0.5559 cumulative IPC: 0.569 (Simulation time: 00 hr 59 min 46 sec)
Heartbeat CPU 0 instructions: 236001345 cycles: 342380296 heartbeat IPC: 0.5271 cumulative IPC: 0.5689 (Simulation time: 00 hr 59 min 56 sec)
Heartbeat CPU 0 instructions: 236501345 cycles: 343194485 heartbeat IPC: 0.6141 cumulative IPC: 0.569 (Simulation time: 01 hr 00 min 04 sec)
Heartbeat CPU 0 instructions: 237001346 cycles: 344073226 heartbeat IPC: 0.569 cumulative IPC: 0.569 (Simulation time: 01 hr 00 min 12 sec)
Heartbeat CPU 0 instructions: 237501347 cycles: 344987509 heartbeat IPC: 0.5469 cumulative IPC: 0.5689 (Simulation time: 01 hr 00 min 21 sec)
Heartbeat CPU 0 instructions: 238001347 cycles: 345926421 heartbeat IPC: 0.5325 cumulative IPC: 0.5688 (Simulation time: 01 hr 00 min 31 sec)
Heartbeat CPU 0 instructions: 238501349 cycles: 346668913 heartbeat IPC: 0.6734 cumulative IPC: 0.569 (Simulation time: 01 hr 00 min 38 sec)
Heartbeat CPU 0 instructions: 239001349 cycles: 347576239 heartbeat IPC: 0.5511 cumulative IPC: 0.569 (Simulation time: 01 hr 00 min 47 sec)
Heartbeat CPU 0 instructions: 239501349 cycles: 348426220 heartbeat IPC: 0.5882 cumulative IPC: 0.569 (Simulation time: 01 hr 00 min 56 sec)
Heartbeat CPU 0 instructions: 240001349 cycles: 349255065 heartbeat IPC: 0.6032 cumulative IPC: 0.5691 (Simulation time: 01 hr 01 min 04 sec)
Heartbeat CPU 0 instructions: 240501349 cycles: 350180973 heartbeat IPC: 0.54 cumulative IPC: 0.569 (Simulation time: 01 hr 01 min 14 sec)
Heartbeat CPU 0 instructions: 241001351 cycles: 351070228 heartbeat IPC: 0.5623 cumulative IPC: 0.569 (Simulation time: 01 hr 01 min 23 sec)
Heartbeat CPU 0 instructions: 241501357 cycles: 351943858 heartbeat IPC: 0.5723 cumulative IPC: 0.569 (Simulation time: 01 hr 01 min 32 sec)
Heartbeat CPU 0 instructions: 242001359 cycles: 352883103 heartbeat IPC: 0.5323 cumulative IPC: 0.5689 (Simulation time: 01 hr 01 min 41 sec)
Heartbeat CPU 0 instructions: 242501360 cycles: 353670897 heartbeat IPC: 0.6347 cumulative IPC: 0.5691 (Simulation time: 01 hr 01 min 50 sec)
Heartbeat CPU 0 instructions: 243001366 cycles: 354563978 heartbeat IPC: 0.5599 cumulative IPC: 0.5691 (Simulation time: 01 hr 01 min 59 sec)
Heartbeat CPU 0 instructions: 243501370 cycles: 355324720 heartbeat IPC: 0.6573 cumulative IPC: 0.5693 (Simulation time: 01 hr 02 min 07 sec)
Heartbeat CPU 0 instructions: 244001372 cycles: 356277423 heartbeat IPC: 0.5248 cumulative IPC: 0.5691 (Simulation time: 01 hr 02 min 17 sec)
Heartbeat CPU 0 instructions: 244501376 cycles: 357105899 heartbeat IPC: 0.6035 cumulative IPC: 0.5692 (Simulation time: 01 hr 02 min 25 sec)
Heartbeat CPU 0 instructions: 245001376 cycles: 358103107 heartbeat IPC: 0.5014 cumulative IPC: 0.569 (Simulation time: 01 hr 02 min 35 sec)
Heartbeat CPU 0 instructions: 245501380 cycles: 358864060 heartbeat IPC: 0.6571 cumulative IPC: 0.5692 (Simulation time: 01 hr 02 min 43 sec)
Heartbeat CPU 0 instructions: 246001380 cycles: 359701922 heartbeat IPC: 0.5968 cumulative IPC: 0.5693 (Simulation time: 01 hr 02 min 52 sec)
Heartbeat CPU 0 instructions: 246501385 cycles: 360648458 heartbeat IPC: 0.5282 cumulative IPC: 0.5692 (Simulation time: 01 hr 03 min 01 sec)
Heartbeat CPU 0 instructions: 247001385 cycles: 361476595 heartbeat IPC: 0.6038 cumulative IPC: 0.5693 (Simulation time: 01 hr 03 min 10 sec)
Heartbeat CPU 0 instructions: 247501389 cycles: 362257881 heartbeat IPC: 0.64 cumulative IPC: 0.5694 (Simulation time: 01 hr 03 min 18 sec)
Heartbeat CPU 0 instructions: 248001391 cycles: 363256183 heartbeat IPC: 0.5009 cumulative IPC: 0.5692 (Simulation time: 01 hr 03 min 28 sec)
Heartbeat CPU 0 instructions: 248501395 cycles: 363975160 heartbeat IPC: 0.6954 cumulative IPC: 0.5695 (Simulation time: 01 hr 03 min 35 sec)
Heartbeat CPU 0 instructions: 249001397 cycles: 364894898 heartbeat IPC: 0.5436 cumulative IPC: 0.5694 (Simulation time: 01 hr 03 min 45 sec)
Heartbeat CPU 0 instructions: 249501398 cycles: 365690088 heartbeat IPC: 0.6288 cumulative IPC: 0.5695 (Simulation time: 01 hr 03 min 53 sec)
Simulation finished CPU 0 instructions: 200000007 cycles: 351268953 cumulative IPC: 0.5694 (Simulation time: 01 hr 04 min 03 sec)
Simulation complete CPU 0 instructions: 200000007 cycles: 351268953 cumulative IPC: 0.5694 (Simulation time: 01 hr 04 min 03 sec)

ChampSim completed all CPUs

=== Simulation ===
CPU 0 runs /local-ssd/ben/dpc4-traces/SPEC17/620.omnetpp_s-874B.champsimtrace.xz

Region of Interest Statistics

CPU 0 cumulative IPC: 0.5694 instructions: 200000007 cycles: 351268953
CPU 0 Branch Prediction Accuracy: 94.91% MPKI: 10.59 Average ROB Occupancy at Mispredict: 74.67
Branch type MPKI
BRANCH_DIRECT_JUMP: 0.9232
BRANCH_INDIRECT: 0.1267
BRANCH_CONDITIONAL: 8.407
BRANCH_DIRECT_CALL: 0.000125
BRANCH_INDIRECT_CALL: 0.7329
BRANCH_RETURN: 0.3971

cpu0->cpu0_STLB TOTAL        ACCESS:    5111362 HIT:    3971166 MISS:    1140196 MSHR_MERGE:          0
cpu0->cpu0_STLB LOAD         ACCESS:    5111362 HIT:    3971166 MISS:    1140196 MSHR_MERGE:          0
cpu0->cpu0_STLB RFO          ACCESS:          0 HIT:          0 MISS:          0 MSHR_MERGE:          0
cpu0->cpu0_STLB PREFETCH     ACCESS:          0 HIT:          0 MISS:          0 MSHR_MERGE:          0
cpu0->cpu0_STLB WRITE        ACCESS:          0 HIT:          0 MISS:          0 MSHR_MERGE:          0
cpu0->cpu0_STLB TRANSLATION  ACCESS:          0 HIT:          0 MISS:          0 MSHR_MERGE:          0
cpu0->cpu0_STLB PREFETCH REQUESTED:          0 ISSUED:          0 USEFUL:          0 USELESS:          0
cpu0->cpu0_STLB AVERAGE MISS LATENCY: 84.68 cycles
cpu0->cpu0_L2C TOTAL        ACCESS:   17016309 HIT:   10912719 MISS:    6103590 MSHR_MERGE:     888609
cpu0->cpu0_L2C LOAD         ACCESS:    2956421 HIT:    1744200 MISS:    1212221 MSHR_MERGE:      62377
cpu0->cpu0_L2C RFO          ACCESS:     479592 HIT:     321739 MISS:     157853 MSHR_MERGE:       8387
cpu0->cpu0_L2C PREFETCH     ACCESS:   10608846 HIT:    6180630 MISS:    4428216 MSHR_MERGE:     817845
cpu0->cpu0_L2C WRITE        ACCESS:    1951619 HIT:    1951219 MISS:        400 MSHR_MERGE:          0
cpu0->cpu0_L2C TRANSLATION  ACCESS:    1019831 HIT:     714931 MISS:     304900 MSHR_MERGE:          0
cpu0->cpu0_L2C PREFETCH REQUESTED:    8152618 ISSUED:    8085555 USEFUL:     829312 USELESS:    1792842
cpu0->cpu0_L2C AVERAGE MISS LATENCY: 198.5 cycles
cpu0->cpu0_L1I TOTAL        ACCESS:    6145985 HIT:    6145915 MISS:         70 MSHR_MERGE:          1
cpu0->cpu0_L1I LOAD         ACCESS:    6145985 HIT:    6145915 MISS:         70 MSHR_MERGE:          1
cpu0->cpu0_L1I RFO          ACCESS:          0 HIT:          0 MISS:          0 MSHR_MERGE:          0
cpu0->cpu0_L1I PREFETCH     ACCESS:          0 HIT:          0 MISS:          0 MSHR_MERGE:          0
cpu0->cpu0_L1I WRITE        ACCESS:          0 HIT:          0 MISS:          0 MSHR_MERGE:          0
cpu0->cpu0_L1I TRANSLATION  ACCESS:          0 HIT:          0 MISS:          0 MSHR_MERGE:          0
cpu0->cpu0_L1I PREFETCH REQUESTED:          0 ISSUED:          0 USEFUL:          0 USELESS:          0
cpu0->cpu0_L1I AVERAGE MISS LATENCY: 223.4 cycles
cpu0->cpu0_L1D TOTAL        ACCESS:   89566175 HIT:   80527099 MISS:    9039076 MSHR_MERGE:    2059948
cpu0->cpu0_L1D LOAD         ACCESS:   38520183 HIT:   34735196 MISS:    3784987 MSHR_MERGE:     828619
cpu0->cpu0_L1D RFO          ACCESS:          0 HIT:          0 MISS:          0 MSHR_MERGE:          0
cpu0->cpu0_L1D PREFETCH     ACCESS:   13226945 HIT:   10151150 MISS:    3075795 MSHR_MERGE:     552495
cpu0->cpu0_L1D WRITE        ACCESS:   35118062 HIT:   33961703 MISS:    1156359 MSHR_MERGE:     676730
cpu0->cpu0_L1D TRANSLATION  ACCESS:    2700985 HIT:    1679050 MISS:    1021935 MSHR_MERGE:       2104
cpu0->cpu0_L1D PREFETCH REQUESTED:   13314354 ISSUED:   13226937 USEFUL:     572205 USELESS:    1950968
cpu0->cpu0_L1D AVERAGE MISS LATENCY: 82.83 cycles
cpu0->cpu0_ITLB TOTAL        ACCESS:    5414888 HIT:    5320292 MISS:      94596 MSHR_MERGE:      45213
cpu0->cpu0_ITLB LOAD         ACCESS:    5414888 HIT:    5320292 MISS:      94596 MSHR_MERGE:      45213
cpu0->cpu0_ITLB RFO          ACCESS:          0 HIT:          0 MISS:          0 MSHR_MERGE:          0
cpu0->cpu0_ITLB PREFETCH     ACCESS:          0 HIT:          0 MISS:          0 MSHR_MERGE:          0
cpu0->cpu0_ITLB WRITE        ACCESS:          0 HIT:          0 MISS:          0 MSHR_MERGE:          0
cpu0->cpu0_ITLB TRANSLATION  ACCESS:          0 HIT:          0 MISS:          0 MSHR_MERGE:          0
cpu0->cpu0_ITLB PREFETCH REQUESTED:          0 ISSUED:          0 USEFUL:          0 USELESS:          0
cpu0->cpu0_ITLB AVERAGE MISS LATENCY: 11.65 cycles
cpu0->cpu0_DTLB TOTAL        ACCESS:   80922080 HIT:   75034280 MISS:    5887800 MSHR_MERGE:     825821
cpu0->cpu0_DTLB LOAD         ACCESS:   80922080 HIT:   75034280 MISS:    5887800 MSHR_MERGE:     825821
cpu0->cpu0_DTLB RFO          ACCESS:          0 HIT:          0 MISS:          0 MSHR_MERGE:          0
cpu0->cpu0_DTLB PREFETCH     ACCESS:          0 HIT:          0 MISS:          0 MSHR_MERGE:          0
cpu0->cpu0_DTLB WRITE        ACCESS:          0 HIT:          0 MISS:          0 MSHR_MERGE:          0
cpu0->cpu0_DTLB TRANSLATION  ACCESS:          0 HIT:          0 MISS:          0 MSHR_MERGE:          0
cpu0->cpu0_DTLB PREFETCH REQUESTED:          0 ISSUED:          0 USEFUL:          0 USELESS:          0
cpu0->cpu0_DTLB AVERAGE MISS LATENCY: 24.24 cycles
cpu0->LLC TOTAL        ACCESS:    8423380 HIT:    1532111 MISS:    6891269 MSHR_MERGE:     249663
cpu0->LLC LOAD         ACCESS:    1149844 HIT:     306277 MISS:     843567 MSHR_MERGE:       8304
cpu0->LLC RFO          ACCESS:     149466 HIT:      53539 MISS:      95927 MSHR_MERGE:       1764
cpu0->LLC PREFETCH     ACCESS:    5811209 HIT:     754895 MISS:    5056314 MSHR_MERGE:     239595
cpu0->LLC WRITE        ACCESS:    1007961 HIT:     388471 MISS:     619490 MSHR_MERGE:          0
cpu0->LLC TRANSLATION  ACCESS:     304900 HIT:      28929 MISS:     275971 MSHR_MERGE:          0
cpu0->LLC PREFETCH REQUESTED:    2200838 ISSUED:    2200838 USEFUL:     347396 USELESS:    1424626
cpu0->LLC AVERAGE MISS LATENCY: 160.8 cycles

DRAM Statistics

Channel 0 RQ ROW_BUFFER_HIT:      99916
  ROW_BUFFER_MISS:    5921894
  AVG DBUS CONGESTED CYCLE: 16.26
Channel 0 WQ ROW_BUFFER_HIT:     212162
  ROW_BUFFER_MISS:     552841
  FULL:          0
Channel 0 REFRESHES ISSUED:      29271
