[VMEM] WARNING: physical memory size is smaller than virtual memory size.

*** ChampSim Multicore Out-of-Order Simulator ***
Warmup Instructions: 50000000
Simulation Instructions: 200000000
Number of CPUs: 1
Page size: 4096
Core 0: /local-ssd/ben/dpc4-traces/gtraces_v2/sierra.a.3_0000.champsim.gz
 L1D Berti prefetcher
Off-chip DRAM Size: 64 GiB Channels: 1 Width: 64-bit Data Rate: 4807 MT/s
[BTB] WARNING: target of return is a lower address than the corresponding call. This is usually a problem with your trace.
[BTB] WARNING: target of return is a lower address than the corresponding call. This is usually a problem with your trace.
[BTB] WARNING: target of return is a lower address than the corresponding call. This is usually a problem with your trace.
[BTB] WARNING: target of return is a lower address than the corresponding call. This is usually a problem with your trace.
[BTB] WARNING: target of return is a lower address than the corresponding call. This is usually a problem with your trace.
[BTB] WARNING: target of return is a lower address than the corresponding call. This is usually a problem with your trace.
[BTB] WARNING: target of return is a lower address than the corresponding call. This is usually a problem with your trace.
[BTB] WARNING: target of return is a lower address than the corresponding call. This is usually a problem with your trace.
[BTB] WARNING: target of return is a lower address than the corresponding call. This is usually a problem with your trace.
[BTB] WARNING: target of return is a lower address than the corresponding call. This is usually a problem with your trace.
Heartbeat CPU 0 instructions: 500000 cycles: 184086 heartbeat IPC: 2.716 cumulative IPC: 2.716 (Simulation time: 00 hr 00 min 04 sec)
Heartbeat CPU 0 instructions: 1000001 cycles: 422931 heartbeat IPC: 2.093 cumulative IPC: 2.364 (Simulation time: 00 hr 00 min 07 sec)
Heartbeat CPU 0 instructions: 1500007 cycles: 592440 heartbeat IPC: 2.95 cumulative IPC: 2.532 (Simulation time: 00 hr 00 min 10 sec)
Heartbeat CPU 0 instructions: 2000008 cycles: 783707 heartbeat IPC: 2.614 cumulative IPC: 2.552 (Simulation time: 00 hr 00 min 13 sec)
Heartbeat CPU 0 instructions: 2500013 cycles: 952420 heartbeat IPC: 2.964 cumulative IPC: 2.625 (Simulation time: 00 hr 00 min 16 sec)
Heartbeat CPU 0 instructions: 3000016 cycles: 1154753 heartbeat IPC: 2.471 cumulative IPC: 2.598 (Simulation time: 00 hr 00 min 19 sec)
Heartbeat CPU 0 instructions: 3500023 cycles: 1295652 heartbeat IPC: 3.549 cumulative IPC: 2.701 (Simulation time: 00 hr 00 min 22 sec)
Heartbeat CPU 0 instructions: 4000027 cycles: 1452957 heartbeat IPC: 3.179 cumulative IPC: 2.753 (Simulation time: 00 hr 00 min 24 sec)
Heartbeat CPU 0 instructions: 4500032 cycles: 1621798 heartbeat IPC: 2.961 cumulative IPC: 2.775 (Simulation time: 00 hr 00 min 27 sec)
Heartbeat CPU 0 instructions: 5000032 cycles: 1783794 heartbeat IPC: 3.086 cumulative IPC: 2.803 (Simulation time: 00 hr 00 min 29 sec)
Heartbeat CPU 0 instructions: 5500032 cycles: 1924579 heartbeat IPC: 3.552 cumulative IPC: 2.858 (Simulation time: 00 hr 00 min 31 sec)
Heartbeat CPU 0 instructions: 6000032 cycles: 2046140 heartbeat IPC: 4.113 cumulative IPC: 2.932 (Simulation time: 00 hr 00 min 33 sec)
Heartbeat CPU 0 instructions: 6500037 cycles: 2171580 heartbeat IPC: 3.986 cumulative IPC: 2.993 (Simulation time: 00 hr 00 min 35 sec)
Heartbeat CPU 0 instructions: 7000041 cycles: 2293034 heartbeat IPC: 4.117 cumulative IPC: 3.053 (Simulation time: 00 hr 00 min 37 sec)
Heartbeat CPU 0 instructions: 7500043 cycles: 2414470 heartbeat IPC: 4.117 cumulative IPC: 3.106 (Simulation time: 00 hr 00 min 39 sec)
Heartbeat CPU 0 instructions: 8000047 cycles: 2514920 heartbeat IPC: 4.978 cumulative IPC: 3.181 (Simulation time: 00 hr 00 min 40 sec)
Heartbeat CPU 0 instructions: 8500047 cycles: 2614920 heartbeat IPC: 5 cumulative IPC: 3.251 (Simulation time: 00 hr 00 min 41 sec)
Heartbeat CPU 0 instructions: 9000047 cycles: 2714920 heartbeat IPC: 5 cumulative IPC: 3.315 (Simulation time: 00 hr 00 min 42 sec)
Heartbeat CPU 0 instructions: 9500053 cycles: 2874539 heartbeat IPC: 3.132 cumulative IPC: 3.305 (Simulation time: 00 hr 00 min 45 sec)
Heartbeat CPU 0 instructions: 10000055 cycles: 3033575 heartbeat IPC: 3.144 cumulative IPC: 3.296 (Simulation time: 00 hr 00 min 47 sec)
Heartbeat CPU 0 instructions: 10500055 cycles: 3212033 heartbeat IPC: 2.802 cumulative IPC: 3.269 (Simulation time: 00 hr 00 min 50 sec)
Heartbeat CPU 0 instructions: 11000056 cycles: 3364895 heartbeat IPC: 3.271 cumulative IPC: 3.269 (Simulation time: 00 hr 00 min 53 sec)
Heartbeat CPU 0 instructions: 11500063 cycles: 3507421 heartbeat IPC: 3.508 cumulative IPC: 3.279 (Simulation time: 00 hr 00 min 56 sec)
Heartbeat CPU 0 instructions: 12000068 cycles: 3661504 heartbeat IPC: 3.245 cumulative IPC: 3.277 (Simulation time: 00 hr 00 min 58 sec)
Heartbeat CPU 0 instructions: 12500070 cycles: 3820071 heartbeat IPC: 3.153 cumulative IPC: 3.272 (Simulation time: 00 hr 01 min 01 sec)
Heartbeat CPU 0 instructions: 13000074 cycles: 3954828 heartbeat IPC: 3.71 cumulative IPC: 3.287 (Simulation time: 00 hr 01 min 04 sec)
Heartbeat CPU 0 instructions: 13500075 cycles: 4076126 heartbeat IPC: 4.122 cumulative IPC: 3.312 (Simulation time: 00 hr 01 min 06 sec)
Heartbeat CPU 0 instructions: 14000080 cycles: 4240579 heartbeat IPC: 3.04 cumulative IPC: 3.301 (Simulation time: 00 hr 01 min 08 sec)
Heartbeat CPU 0 instructions: 14500082 cycles: 4377500 heartbeat IPC: 3.652 cumulative IPC: 3.312 (Simulation time: 00 hr 01 min 11 sec)
Heartbeat CPU 0 instructions: 15000088 cycles: 4526374 heartbeat IPC: 3.359 cumulative IPC: 3.314 (Simulation time: 00 hr 01 min 14 sec)
Heartbeat CPU 0 instructions: 15500088 cycles: 4644380 heartbeat IPC: 4.237 cumulative IPC: 3.337 (Simulation time: 00 hr 01 min 16 sec)
Heartbeat CPU 0 instructions: 16000092 cycles: 4798795 heartbeat IPC: 3.238 cumulative IPC: 3.334 (Simulation time: 00 hr 01 min 18 sec)
Heartbeat CPU 0 instructions: 16500095 cycles: 4933669 heartbeat IPC: 3.707 cumulative IPC: 3.344 (Simulation time: 00 hr 01 min 21 sec)
Heartbeat CPU 0 instructions: 17000097 cycles: 5063238 heartbeat IPC: 3.859 cumulative IPC: 3.358 (Simulation time: 00 hr 01 min 24 sec)
Heartbeat CPU 0 instructions: 17500101 cycles: 5181383 heartbeat IPC: 4.232 cumulative IPC: 3.377 (Simulation time: 00 hr 01 min 26 sec)
Heartbeat CPU 0 instructions: 18000102 cycles: 5322257 heartbeat IPC: 3.549 cumulative IPC: 3.382 (Simulation time: 00 hr 01 min 28 sec)
Heartbeat CPU 0 instructions: 18500103 cycles: 5483409 heartbeat IPC: 3.103 cumulative IPC: 3.374 (Simulation time: 00 hr 01 min 30 sec)
Heartbeat CPU 0 instructions: 19000106 cycles: 5638523 heartbeat IPC: 3.223 cumulative IPC: 3.37 (Simulation time: 00 hr 01 min 33 sec)
Heartbeat CPU 0 instructions: 19500109 cycles: 5793648 heartbeat IPC: 3.223 cumulative IPC: 3.366 (Simulation time: 00 hr 01 min 36 sec)
Heartbeat CPU 0 instructions: 20000113 cycles: 5942664 heartbeat IPC: 3.355 cumulative IPC: 3.366 (Simulation time: 00 hr 01 min 39 sec)
Heartbeat CPU 0 instructions: 20500120 cycles: 6108061 heartbeat IPC: 3.023 cumulative IPC: 3.356 (Simulation time: 00 hr 01 min 41 sec)
Heartbeat CPU 0 instructions: 21000127 cycles: 6252583 heartbeat IPC: 3.46 cumulative IPC: 3.359 (Simulation time: 00 hr 01 min 44 sec)
Heartbeat CPU 0 instructions: 21500130 cycles: 6392239 heartbeat IPC: 3.58 cumulative IPC: 3.363 (Simulation time: 00 hr 01 min 46 sec)
Heartbeat CPU 0 instructions: 22000130 cycles: 6524913 heartbeat IPC: 3.769 cumulative IPC: 3.372 (Simulation time: 00 hr 01 min 49 sec)
Heartbeat CPU 0 instructions: 22500131 cycles: 6654234 heartbeat IPC: 3.866 cumulative IPC: 3.381 (Simulation time: 00 hr 01 min 52 sec)
Heartbeat CPU 0 instructions: 23000132 cycles: 6778509 heartbeat IPC: 4.023 cumulative IPC: 3.393 (Simulation time: 00 hr 01 min 54 sec)
Heartbeat CPU 0 instructions: 23500133 cycles: 6911547 heartbeat IPC: 3.758 cumulative IPC: 3.4 (Simulation time: 00 hr 01 min 57 sec)
Heartbeat CPU 0 instructions: 24000139 cycles: 7053033 heartbeat IPC: 3.534 cumulative IPC: 3.403 (Simulation time: 00 hr 01 min 59 sec)
Heartbeat CPU 0 instructions: 24500145 cycles: 7206297 heartbeat IPC: 3.262 cumulative IPC: 3.4 (Simulation time: 00 hr 02 min 02 sec)
Heartbeat CPU 0 instructions: 25000149 cycles: 7363984 heartbeat IPC: 3.171 cumulative IPC: 3.395 (Simulation time: 00 hr 02 min 05 sec)
Heartbeat CPU 0 instructions: 25500156 cycles: 7509397 heartbeat IPC: 3.439 cumulative IPC: 3.396 (Simulation time: 00 hr 02 min 07 sec)
Heartbeat CPU 0 instructions: 26000162 cycles: 7700203 heartbeat IPC: 2.62 cumulative IPC: 3.377 (Simulation time: 00 hr 02 min 10 sec)
Heartbeat CPU 0 instructions: 26500169 cycles: 7860095 heartbeat IPC: 3.127 cumulative IPC: 3.371 (Simulation time: 00 hr 02 min 13 sec)
Heartbeat CPU 0 instructions: 27000169 cycles: 8004203 heartbeat IPC: 3.47 cumulative IPC: 3.373 (Simulation time: 00 hr 02 min 16 sec)
Heartbeat CPU 0 instructions: 27500172 cycles: 8141880 heartbeat IPC: 3.632 cumulative IPC: 3.378 (Simulation time: 00 hr 02 min 18 sec)
Heartbeat CPU 0 instructions: 28000178 cycles: 8276155 heartbeat IPC: 3.724 cumulative IPC: 3.383 (Simulation time: 00 hr 02 min 21 sec)
Heartbeat CPU 0 instructions: 28500180 cycles: 8431275 heartbeat IPC: 3.223 cumulative IPC: 3.38 (Simulation time: 00 hr 02 min 23 sec)
Heartbeat CPU 0 instructions: 29000185 cycles: 8580909 heartbeat IPC: 3.342 cumulative IPC: 3.38 (Simulation time: 00 hr 02 min 26 sec)
Heartbeat CPU 0 instructions: 29500190 cycles: 8721122 heartbeat IPC: 3.566 cumulative IPC: 3.383 (Simulation time: 00 hr 02 min 29 sec)
Heartbeat CPU 0 instructions: 30000195 cycles: 8876398 heartbeat IPC: 3.22 cumulative IPC: 3.38 (Simulation time: 00 hr 02 min 32 sec)
Heartbeat CPU 0 instructions: 30500197 cycles: 9033851 heartbeat IPC: 3.176 cumulative IPC: 3.376 (Simulation time: 00 hr 02 min 34 sec)
Heartbeat CPU 0 instructions: 31000197 cycles: 9177378 heartbeat IPC: 3.484 cumulative IPC: 3.378 (Simulation time: 00 hr 02 min 37 sec)
Heartbeat CPU 0 instructions: 31500203 cycles: 9317153 heartbeat IPC: 3.577 cumulative IPC: 3.381 (Simulation time: 00 hr 02 min 40 sec)
Heartbeat CPU 0 instructions: 32000204 cycles: 9466514 heartbeat IPC: 3.348 cumulative IPC: 3.38 (Simulation time: 00 hr 02 min 42 sec)
Heartbeat CPU 0 instructions: 32500210 cycles: 9612385 heartbeat IPC: 3.428 cumulative IPC: 3.381 (Simulation time: 00 hr 02 min 45 sec)
Heartbeat CPU 0 instructions: 33000217 cycles: 9760778 heartbeat IPC: 3.369 cumulative IPC: 3.381 (Simulation time: 00 hr 02 min 48 sec)
Heartbeat CPU 0 instructions: 33500217 cycles: 9895605 heartbeat IPC: 3.708 cumulative IPC: 3.385 (Simulation time: 00 hr 02 min 50 sec)
Heartbeat CPU 0 instructions: 34000217 cycles: 10051145 heartbeat IPC: 3.215 cumulative IPC: 3.383 (Simulation time: 00 hr 02 min 53 sec)
Heartbeat CPU 0 instructions: 34500220 cycles: 10197016 heartbeat IPC: 3.428 cumulative IPC: 3.383 (Simulation time: 00 hr 02 min 56 sec)
Heartbeat CPU 0 instructions: 35000222 cycles: 10333343 heartbeat IPC: 3.668 cumulative IPC: 3.387 (Simulation time: 00 hr 02 min 59 sec)
Heartbeat CPU 0 instructions: 35500226 cycles: 10474929 heartbeat IPC: 3.531 cumulative IPC: 3.389 (Simulation time: 00 hr 03 min 01 sec)
Heartbeat CPU 0 instructions: 36000231 cycles: 10634018 heartbeat IPC: 3.143 cumulative IPC: 3.385 (Simulation time: 00 hr 03 min 04 sec)
Heartbeat CPU 0 instructions: 36500232 cycles: 10790287 heartbeat IPC: 3.2 cumulative IPC: 3.383 (Simulation time: 00 hr 03 min 06 sec)
Heartbeat CPU 0 instructions: 37000232 cycles: 10925441 heartbeat IPC: 3.699 cumulative IPC: 3.387 (Simulation time: 00 hr 03 min 08 sec)
Heartbeat CPU 0 instructions: 37500235 cycles: 11055936 heartbeat IPC: 3.832 cumulative IPC: 3.392 (Simulation time: 00 hr 03 min 10 sec)
Heartbeat CPU 0 instructions: 38000235 cycles: 11178945 heartbeat IPC: 4.065 cumulative IPC: 3.399 (Simulation time: 00 hr 03 min 13 sec)
Heartbeat CPU 0 instructions: 38500242 cycles: 11322284 heartbeat IPC: 3.488 cumulative IPC: 3.4 (Simulation time: 00 hr 03 min 15 sec)
Heartbeat CPU 0 instructions: 39000242 cycles: 11475982 heartbeat IPC: 3.253 cumulative IPC: 3.398 (Simulation time: 00 hr 03 min 17 sec)
Heartbeat CPU 0 instructions: 39500247 cycles: 11616704 heartbeat IPC: 3.553 cumulative IPC: 3.4 (Simulation time: 00 hr 03 min 20 sec)
Heartbeat CPU 0 instructions: 40000247 cycles: 11747493 heartbeat IPC: 3.823 cumulative IPC: 3.405 (Simulation time: 00 hr 03 min 22 sec)
Heartbeat CPU 0 instructions: 40500248 cycles: 11913599 heartbeat IPC: 3.01 cumulative IPC: 3.399 (Simulation time: 00 hr 03 min 25 sec)
Heartbeat CPU 0 instructions: 41000248 cycles: 12047602 heartbeat IPC: 3.731 cumulative IPC: 3.403 (Simulation time: 00 hr 03 min 28 sec)
Heartbeat CPU 0 instructions: 41500249 cycles: 12183385 heartbeat IPC: 3.682 cumulative IPC: 3.406 (Simulation time: 00 hr 03 min 31 sec)
Heartbeat CPU 0 instructions: 42000255 cycles: 12309523 heartbeat IPC: 3.964 cumulative IPC: 3.412 (Simulation time: 00 hr 03 min 33 sec)
Heartbeat CPU 0 instructions: 42500257 cycles: 12443843 heartbeat IPC: 3.722 cumulative IPC: 3.415 (Simulation time: 00 hr 03 min 36 sec)
Heartbeat CPU 0 instructions: 43000257 cycles: 12587465 heartbeat IPC: 3.481 cumulative IPC: 3.416 (Simulation time: 00 hr 03 min 39 sec)
Heartbeat CPU 0 instructions: 43500259 cycles: 12724349 heartbeat IPC: 3.653 cumulative IPC: 3.419 (Simulation time: 00 hr 03 min 41 sec)
Heartbeat CPU 0 instructions: 44000262 cycles: 12868690 heartbeat IPC: 3.464 cumulative IPC: 3.419 (Simulation time: 00 hr 03 min 44 sec)
Heartbeat CPU 0 instructions: 44500263 cycles: 13011466 heartbeat IPC: 3.502 cumulative IPC: 3.42 (Simulation time: 00 hr 03 min 47 sec)
Heartbeat CPU 0 instructions: 45000267 cycles: 13159682 heartbeat IPC: 3.373 cumulative IPC: 3.42 (Simulation time: 00 hr 03 min 50 sec)
Heartbeat CPU 0 instructions: 45500268 cycles: 13295611 heartbeat IPC: 3.678 cumulative IPC: 3.422 (Simulation time: 00 hr 03 min 52 sec)
Heartbeat CPU 0 instructions: 46000270 cycles: 13435565 heartbeat IPC: 3.573 cumulative IPC: 3.424 (Simulation time: 00 hr 03 min 55 sec)
Heartbeat CPU 0 instructions: 46500276 cycles: 13575510 heartbeat IPC: 3.573 cumulative IPC: 3.425 (Simulation time: 00 hr 03 min 57 sec)
Heartbeat CPU 0 instructions: 47000280 cycles: 13706244 heartbeat IPC: 3.825 cumulative IPC: 3.429 (Simulation time: 00 hr 03 min 59 sec)
Heartbeat CPU 0 instructions: 47500287 cycles: 13850195 heartbeat IPC: 3.473 cumulative IPC: 3.43 (Simulation time: 00 hr 04 min 01 sec)
Heartbeat CPU 0 instructions: 48000288 cycles: 13977455 heartbeat IPC: 3.929 cumulative IPC: 3.434 (Simulation time: 00 hr 04 min 03 sec)
Heartbeat CPU 0 instructions: 48500293 cycles: 14117250 heartbeat IPC: 3.577 cumulative IPC: 3.436 (Simulation time: 00 hr 04 min 05 sec)
Heartbeat CPU 0 instructions: 49000296 cycles: 14250052 heartbeat IPC: 3.765 cumulative IPC: 3.439 (Simulation time: 00 hr 04 min 08 sec)
Heartbeat CPU 0 instructions: 49500301 cycles: 14390945 heartbeat IPC: 3.549 cumulative IPC: 3.44 (Simulation time: 00 hr 04 min 10 sec)
Warmup finished CPU 0 instructions: 50000000 cycles: 14550075 cumulative IPC: 3.436 (Simulation time: 00 hr 04 min 13 sec)
Warmup complete CPU 0 instructions: 50000000 cycles: 14550075 cumulative IPC: 3.436 (Simulation time: 00 hr 04 min 13 sec)
Heartbeat CPU 0 instructions: 50000306 cycles: 14550117 heartbeat IPC: 3.141 cumulative IPC: 7.286 (Simulation time: 00 hr 04 min 13 sec)
Heartbeat CPU 0 instructions: 50500306 cycles: 15662212 heartbeat IPC: 0.4496 cumulative IPC: 0.4499 (Simulation time: 00 hr 04 min 22 sec)
Heartbeat CPU 0 instructions: 51000311 cycles: 16965976 heartbeat IPC: 0.3835 cumulative IPC: 0.4141 (Simulation time: 00 hr 04 min 31 sec)
Heartbeat CPU 0 instructions: 51500315 cycles: 17915804 heartbeat IPC: 0.5264 cumulative IPC: 0.4458 (Simulation time: 00 hr 04 min 38 sec)
Heartbeat CPU 0 instructions: 52000321 cycles: 18984937 heartbeat IPC: 0.4677 cumulative IPC: 0.451 (Simulation time: 00 hr 04 min 46 sec)
Heartbeat CPU 0 instructions: 52500321 cycles: 20164478 heartbeat IPC: 0.4239 cumulative IPC: 0.4453 (Simulation time: 00 hr 04 min 54 sec)
Heartbeat CPU 0 instructions: 53000323 cycles: 21002636 heartbeat IPC: 0.5965 cumulative IPC: 0.465 (Simulation time: 00 hr 05 min 00 sec)
Heartbeat CPU 0 instructions: 53500323 cycles: 21788988 heartbeat IPC: 0.6358 cumulative IPC: 0.4835 (Simulation time: 00 hr 05 min 06 sec)
Heartbeat CPU 0 instructions: 54000323 cycles: 23069987 heartbeat IPC: 0.3903 cumulative IPC: 0.4695 (Simulation time: 00 hr 05 min 15 sec)
Heartbeat CPU 0 instructions: 54500326 cycles: 24271236 heartbeat IPC: 0.4162 cumulative IPC: 0.4629 (Simulation time: 00 hr 05 min 23 sec)
Heartbeat CPU 0 instructions: 55000327 cycles: 25765779 heartbeat IPC: 0.3346 cumulative IPC: 0.4458 (Simulation time: 00 hr 05 min 33 sec)
Heartbeat CPU 0 instructions: 55500328 cycles: 26688897 heartbeat IPC: 0.5416 cumulative IPC: 0.4531 (Simulation time: 00 hr 05 min 40 sec)
Heartbeat CPU 0 instructions: 56000329 cycles: 27869992 heartbeat IPC: 0.4233 cumulative IPC: 0.4505 (Simulation time: 00 hr 05 min 49 sec)
Heartbeat CPU 0 instructions: 56500336 cycles: 29373577 heartbeat IPC: 0.3325 cumulative IPC: 0.4385 (Simulation time: 00 hr 05 min 59 sec)
Heartbeat CPU 0 instructions: 57000339 cycles: 30090966 heartbeat IPC: 0.697 cumulative IPC: 0.4504 (Simulation time: 00 hr 06 min 07 sec)
Heartbeat CPU 0 instructions: 57500340 cycles: 31421625 heartbeat IPC: 0.3758 cumulative IPC: 0.4446 (Simulation time: 00 hr 06 min 19 sec)
Heartbeat CPU 0 instructions: 58000345 cycles: 33251540 heartbeat IPC: 0.2732 cumulative IPC: 0.4278 (Simulation time: 00 hr 06 min 32 sec)
Heartbeat CPU 0 instructions: 58500345 cycles: 34559108 heartbeat IPC: 0.3824 cumulative IPC: 0.4248 (Simulation time: 00 hr 06 min 42 sec)
Heartbeat CPU 0 instructions: 59000345 cycles: 35686889 heartbeat IPC: 0.4433 cumulative IPC: 0.4258 (Simulation time: 00 hr 06 min 50 sec)
Heartbeat CPU 0 instructions: 59500345 cycles: 37324065 heartbeat IPC: 0.3054 cumulative IPC: 0.4172 (Simulation time: 00 hr 07 min 01 sec)
Heartbeat CPU 0 instructions: 60000346 cycles: 38709296 heartbeat IPC: 0.361 cumulative IPC: 0.4139 (Simulation time: 00 hr 07 min 11 sec)
Heartbeat CPU 0 instructions: 60500346 cycles: 40162608 heartbeat IPC: 0.344 cumulative IPC: 0.41 (Simulation time: 00 hr 07 min 21 sec)
Heartbeat CPU 0 instructions: 61000346 cycles: 42043256 heartbeat IPC: 0.2659 cumulative IPC: 0.4001 (Simulation time: 00 hr 07 min 34 sec)
Heartbeat CPU 0 instructions: 61500353 cycles: 43678584 heartbeat IPC: 0.3058 cumulative IPC: 0.3948 (Simulation time: 00 hr 07 min 45 sec)
Heartbeat CPU 0 instructions: 62000357 cycles: 44622586 heartbeat IPC: 0.5297 cumulative IPC: 0.399 (Simulation time: 00 hr 07 min 52 sec)
Heartbeat CPU 0 instructions: 62500357 cycles: 45836023 heartbeat IPC: 0.4121 cumulative IPC: 0.3996 (Simulation time: 00 hr 08 min 00 sec)
Heartbeat CPU 0 instructions: 63000357 cycles: 47488217 heartbeat IPC: 0.3026 cumulative IPC: 0.3947 (Simulation time: 00 hr 08 min 11 sec)
Heartbeat CPU 0 instructions: 63500359 cycles: 48576841 heartbeat IPC: 0.4593 cumulative IPC: 0.3968 (Simulation time: 00 hr 08 min 19 sec)
Heartbeat CPU 0 instructions: 64000359 cycles: 49729256 heartbeat IPC: 0.4339 cumulative IPC: 0.398 (Simulation time: 00 hr 08 min 27 sec)
Heartbeat CPU 0 instructions: 64500359 cycles: 50900603 heartbeat IPC: 0.4269 cumulative IPC: 0.3989 (Simulation time: 00 hr 08 min 36 sec)
Heartbeat CPU 0 instructions: 65000359 cycles: 51781331 heartbeat IPC: 0.5677 cumulative IPC: 0.4029 (Simulation time: 00 hr 08 min 42 sec)
Heartbeat CPU 0 instructions: 65500361 cycles: 52729151 heartbeat IPC: 0.5275 cumulative IPC: 0.406 (Simulation time: 00 hr 08 min 49 sec)
Heartbeat CPU 0 instructions: 66000363 cycles: 54016994 heartbeat IPC: 0.3882 cumulative IPC: 0.4054 (Simulation time: 00 hr 08 min 58 sec)
Heartbeat CPU 0 instructions: 66500364 cycles: 55158780 heartbeat IPC: 0.4379 cumulative IPC: 0.4063 (Simulation time: 00 hr 09 min 06 sec)
Heartbeat CPU 0 instructions: 67000369 cycles: 56355230 heartbeat IPC: 0.4179 cumulative IPC: 0.4067 (Simulation time: 00 hr 09 min 15 sec)
Heartbeat CPU 0 instructions: 67500374 cycles: 57466711 heartbeat IPC: 0.4499 cumulative IPC: 0.4078 (Simulation time: 00 hr 09 min 24 sec)
Heartbeat CPU 0 instructions: 68000379 cycles: 59065533 heartbeat IPC: 0.3127 cumulative IPC: 0.4044 (Simulation time: 00 hr 09 min 35 sec)
Heartbeat CPU 0 instructions: 68500382 cycles: 61161971 heartbeat IPC: 0.2385 cumulative IPC: 0.3969 (Simulation time: 00 hr 09 min 49 sec)
Heartbeat CPU 0 instructions: 69000382 cycles: 62994121 heartbeat IPC: 0.2729 cumulative IPC: 0.3922 (Simulation time: 00 hr 10 min 01 sec)
Heartbeat CPU 0 instructions: 69500385 cycles: 64853934 heartbeat IPC: 0.2688 cumulative IPC: 0.3877 (Simulation time: 00 hr 10 min 13 sec)
Heartbeat CPU 0 instructions: 70000385 cycles: 65696893 heartbeat IPC: 0.5931 cumulative IPC: 0.391 (Simulation time: 00 hr 10 min 19 sec)
Heartbeat CPU 0 instructions: 70500385 cycles: 66542849 heartbeat IPC: 0.591 cumulative IPC: 0.3943 (Simulation time: 00 hr 10 min 25 sec)
Heartbeat CPU 0 instructions: 71000386 cycles: 68007392 heartbeat IPC: 0.3414 cumulative IPC: 0.3928 (Simulation time: 00 hr 10 min 35 sec)
Heartbeat CPU 0 instructions: 71500387 cycles: 69151330 heartbeat IPC: 0.4371 cumulative IPC: 0.3938 (Simulation time: 00 hr 10 min 43 sec)
Heartbeat CPU 0 instructions: 72000387 cycles: 70785431 heartbeat IPC: 0.306 cumulative IPC: 0.3912 (Simulation time: 00 hr 10 min 54 sec)
Heartbeat CPU 0 instructions: 72500392 cycles: 72699611 heartbeat IPC: 0.2612 cumulative IPC: 0.3869 (Simulation time: 00 hr 11 min 07 sec)
Heartbeat CPU 0 instructions: 73000394 cycles: 74366183 heartbeat IPC: 0.3 cumulative IPC: 0.3845 (Simulation time: 00 hr 11 min 20 sec)
Heartbeat CPU 0 instructions: 73500395 cycles: 76023126 heartbeat IPC: 0.3018 cumulative IPC: 0.3823 (Simulation time: 00 hr 11 min 31 sec)
Heartbeat CPU 0 instructions: 74000395 cycles: 77383115 heartbeat IPC: 0.3677 cumulative IPC: 0.382 (Simulation time: 00 hr 11 min 40 sec)
Heartbeat CPU 0 instructions: 74500395 cycles: 78814505 heartbeat IPC: 0.3493 cumulative IPC: 0.3812 (Simulation time: 00 hr 11 min 50 sec)
Heartbeat CPU 0 instructions: 75000396 cycles: 80024001 heartbeat IPC: 0.4134 cumulative IPC: 0.3818 (Simulation time: 00 hr 11 min 59 sec)
Heartbeat CPU 0 instructions: 75500396 cycles: 81329272 heartbeat IPC: 0.3831 cumulative IPC: 0.3819 (Simulation time: 00 hr 12 min 08 sec)
Heartbeat CPU 0 instructions: 76000396 cycles: 82843236 heartbeat IPC: 0.3303 cumulative IPC: 0.3807 (Simulation time: 00 hr 12 min 18 sec)
Heartbeat CPU 0 instructions: 76500397 cycles: 84602290 heartbeat IPC: 0.2842 cumulative IPC: 0.3783 (Simulation time: 00 hr 12 min 30 sec)
Heartbeat CPU 0 instructions: 77000399 cycles: 86126320 heartbeat IPC: 0.3281 cumulative IPC: 0.3772 (Simulation time: 00 hr 12 min 41 sec)
Heartbeat CPU 0 instructions: 77500406 cycles: 87304594 heartbeat IPC: 0.4244 cumulative IPC: 0.378 (Simulation time: 00 hr 12 min 49 sec)
Heartbeat CPU 0 instructions: 78000409 cycles: 88686939 heartbeat IPC: 0.3617 cumulative IPC: 0.3777 (Simulation time: 00 hr 12 min 58 sec)
Heartbeat CPU 0 instructions: 78500413 cycles: 89748971 heartbeat IPC: 0.4708 cumulative IPC: 0.379 (Simulation time: 00 hr 13 min 06 sec)
Heartbeat CPU 0 instructions: 79000414 cycles: 91102539 heartbeat IPC: 0.3694 cumulative IPC: 0.3788 (Simulation time: 00 hr 13 min 15 sec)
Heartbeat CPU 0 instructions: 79500419 cycles: 92378867 heartbeat IPC: 0.3918 cumulative IPC: 0.379 (Simulation time: 00 hr 13 min 24 sec)
Heartbeat CPU 0 instructions: 80000426 cycles: 93880558 heartbeat IPC: 0.333 cumulative IPC: 0.3782 (Simulation time: 00 hr 13 min 34 sec)
Heartbeat CPU 0 instructions: 80500427 cycles: 95145829 heartbeat IPC: 0.3952 cumulative IPC: 0.3784 (Simulation time: 00 hr 13 min 43 sec)
Heartbeat CPU 0 instructions: 81000427 cycles: 96400248 heartbeat IPC: 0.3986 cumulative IPC: 0.3787 (Simulation time: 00 hr 13 min 52 sec)
Heartbeat CPU 0 instructions: 81500431 cycles: 97734257 heartbeat IPC: 0.3748 cumulative IPC: 0.3787 (Simulation time: 00 hr 14 min 01 sec)
Heartbeat CPU 0 instructions: 82000436 cycles: 99430672 heartbeat IPC: 0.2947 cumulative IPC: 0.377 (Simulation time: 00 hr 14 min 13 sec)
Heartbeat CPU 0 instructions: 82500436 cycles: 100581296 heartbeat IPC: 0.4345 cumulative IPC: 0.3778 (Simulation time: 00 hr 14 min 21 sec)
Heartbeat CPU 0 instructions: 83000439 cycles: 101859053 heartbeat IPC: 0.3913 cumulative IPC: 0.378 (Simulation time: 00 hr 14 min 30 sec)
Heartbeat CPU 0 instructions: 83500440 cycles: 102794328 heartbeat IPC: 0.5346 cumulative IPC: 0.3796 (Simulation time: 00 hr 14 min 37 sec)
Heartbeat CPU 0 instructions: 84000444 cycles: 103409850 heartbeat IPC: 0.8123 cumulative IPC: 0.3826 (Simulation time: 00 hr 14 min 41 sec)
Heartbeat CPU 0 instructions: 84500445 cycles: 103776367 heartbeat IPC: 1.364 cumulative IPC: 0.3867 (Simulation time: 00 hr 14 min 44 sec)
Heartbeat CPU 0 instructions: 85000451 cycles: 104081729 heartbeat IPC: 1.637 cumulative IPC: 0.3909 (Simulation time: 00 hr 14 min 47 sec)
Heartbeat CPU 0 instructions: 85500453 cycles: 104390285 heartbeat IPC: 1.62 cumulative IPC: 0.3952 (Simulation time: 00 hr 14 min 50 sec)
Heartbeat CPU 0 instructions: 86000454 cycles: 105089743 heartbeat IPC: 0.7148 cumulative IPC: 0.3976 (Simulation time: 00 hr 14 min 55 sec)
Heartbeat CPU 0 instructions: 86500455 cycles: 106837140 heartbeat IPC: 0.2861 cumulative IPC: 0.3955 (Simulation time: 00 hr 15 min 07 sec)
Heartbeat CPU 0 instructions: 87000462 cycles: 108670154 heartbeat IPC: 0.2728 cumulative IPC: 0.3931 (Simulation time: 00 hr 15 min 19 sec)
Heartbeat CPU 0 instructions: 87500464 cycles: 110038226 heartbeat IPC: 0.3655 cumulative IPC: 0.3927 (Simulation time: 00 hr 15 min 28 sec)
Heartbeat CPU 0 instructions: 88000468 cycles: 111351242 heartbeat IPC: 0.3808 cumulative IPC: 0.3926 (Simulation time: 00 hr 15 min 37 sec)
Heartbeat CPU 0 instructions: 88500468 cycles: 112773198 heartbeat IPC: 0.3516 cumulative IPC: 0.392 (Simulation time: 00 hr 15 min 47 sec)
Heartbeat CPU 0 instructions: 89000473 cycles: 113950638 heartbeat IPC: 0.4247 cumulative IPC: 0.3924 (Simulation time: 00 hr 15 min 55 sec)
Heartbeat CPU 0 instructions: 89500474 cycles: 115239281 heartbeat IPC: 0.388 cumulative IPC: 0.3923 (Simulation time: 00 hr 16 min 04 sec)
Heartbeat CPU 0 instructions: 90000475 cycles: 116348912 heartbeat IPC: 0.4506 cumulative IPC: 0.3929 (Simulation time: 00 hr 16 min 12 sec)
Heartbeat CPU 0 instructions: 90500476 cycles: 118069400 heartbeat IPC: 0.2906 cumulative IPC: 0.3912 (Simulation time: 00 hr 16 min 23 sec)
Heartbeat CPU 0 instructions: 91000476 cycles: 119206568 heartbeat IPC: 0.4397 cumulative IPC: 0.3918 (Simulation time: 00 hr 16 min 32 sec)
Heartbeat CPU 0 instructions: 91500476 cycles: 120940511 heartbeat IPC: 0.2884 cumulative IPC: 0.3901 (Simulation time: 00 hr 16 min 44 sec)
Heartbeat CPU 0 instructions: 92000482 cycles: 122286548 heartbeat IPC: 0.3715 cumulative IPC: 0.3898 (Simulation time: 00 hr 16 min 52 sec)
Heartbeat CPU 0 instructions: 92500483 cycles: 123278305 heartbeat IPC: 0.5042 cumulative IPC: 0.3909 (Simulation time: 00 hr 16 min 59 sec)
Heartbeat CPU 0 instructions: 93000489 cycles: 123625224 heartbeat IPC: 1.441 cumulative IPC: 0.3942 (Simulation time: 00 hr 17 min 03 sec)
Heartbeat CPU 0 instructions: 93500489 cycles: 124875192 heartbeat IPC: 0.4 cumulative IPC: 0.3943 (Simulation time: 00 hr 17 min 11 sec)
Heartbeat CPU 0 instructions: 94000489 cycles: 126639702 heartbeat IPC: 0.2834 cumulative IPC: 0.3925 (Simulation time: 00 hr 17 min 23 sec)
Heartbeat CPU 0 instructions: 94500490 cycles: 127944810 heartbeat IPC: 0.3831 cumulative IPC: 0.3924 (Simulation time: 00 hr 17 min 32 sec)
Heartbeat CPU 0 instructions: 95000496 cycles: 129329974 heartbeat IPC: 0.361 cumulative IPC: 0.3921 (Simulation time: 00 hr 17 min 41 sec)
Heartbeat CPU 0 instructions: 95500498 cycles: 130433627 heartbeat IPC: 0.453 cumulative IPC: 0.3926 (Simulation time: 00 hr 17 min 49 sec)
Heartbeat CPU 0 instructions: 96000498 cycles: 131537684 heartbeat IPC: 0.4529 cumulative IPC: 0.3932 (Simulation time: 00 hr 17 min 57 sec)
Heartbeat CPU 0 instructions: 96500498 cycles: 132428253 heartbeat IPC: 0.5614 cumulative IPC: 0.3945 (Simulation time: 00 hr 18 min 04 sec)
Heartbeat CPU 0 instructions: 97000499 cycles: 134055428 heartbeat IPC: 0.3073 cumulative IPC: 0.3933 (Simulation time: 00 hr 18 min 15 sec)
Heartbeat CPU 0 instructions: 97500499 cycles: 135452194 heartbeat IPC: 0.358 cumulative IPC: 0.3929 (Simulation time: 00 hr 18 min 25 sec)
Heartbeat CPU 0 instructions: 98000501 cycles: 136372125 heartbeat IPC: 0.5435 cumulative IPC: 0.394 (Simulation time: 00 hr 18 min 32 sec)
Heartbeat CPU 0 instructions: 98500504 cycles: 137695657 heartbeat IPC: 0.3778 cumulative IPC: 0.3938 (Simulation time: 00 hr 18 min 41 sec)
Heartbeat CPU 0 instructions: 99000504 cycles: 138918102 heartbeat IPC: 0.409 cumulative IPC: 0.394 (Simulation time: 00 hr 18 min 49 sec)
Heartbeat CPU 0 instructions: 99500505 cycles: 140172945 heartbeat IPC: 0.3985 cumulative IPC: 0.394 (Simulation time: 00 hr 18 min 58 sec)
Heartbeat CPU 0 instructions: 100000508 cycles: 141487898 heartbeat IPC: 0.3802 cumulative IPC: 0.3939 (Simulation time: 00 hr 19 min 07 sec)
Heartbeat CPU 0 instructions: 100500508 cycles: 142779703 heartbeat IPC: 0.3871 cumulative IPC: 0.3938 (Simulation time: 00 hr 19 min 16 sec)
Heartbeat CPU 0 instructions: 101000510 cycles: 144761396 heartbeat IPC: 0.2523 cumulative IPC: 0.3917 (Simulation time: 00 hr 19 min 28 sec)
Heartbeat CPU 0 instructions: 101500510 cycles: 145847108 heartbeat IPC: 0.4605 cumulative IPC: 0.3922 (Simulation time: 00 hr 19 min 36 sec)
Heartbeat CPU 0 instructions: 102000510 cycles: 147038930 heartbeat IPC: 0.4195 cumulative IPC: 0.3925 (Simulation time: 00 hr 19 min 44 sec)
Heartbeat CPU 0 instructions: 102500510 cycles: 148010284 heartbeat IPC: 0.5147 cumulative IPC: 0.3934 (Simulation time: 00 hr 19 min 51 sec)
Heartbeat CPU 0 instructions: 103000513 cycles: 149347718 heartbeat IPC: 0.3739 cumulative IPC: 0.3932 (Simulation time: 00 hr 20 min 00 sec)
Heartbeat CPU 0 instructions: 103500514 cycles: 150835381 heartbeat IPC: 0.3361 cumulative IPC: 0.3926 (Simulation time: 00 hr 20 min 11 sec)
Heartbeat CPU 0 instructions: 104000515 cycles: 152125150 heartbeat IPC: 0.3877 cumulative IPC: 0.3925 (Simulation time: 00 hr 20 min 19 sec)
Heartbeat CPU 0 instructions: 104500521 cycles: 153052667 heartbeat IPC: 0.5391 cumulative IPC: 0.3935 (Simulation time: 00 hr 20 min 26 sec)
Heartbeat CPU 0 instructions: 105000523 cycles: 154868736 heartbeat IPC: 0.2753 cumulative IPC: 0.392 (Simulation time: 00 hr 20 min 38 sec)
Heartbeat CPU 0 instructions: 105500524 cycles: 155860856 heartbeat IPC: 0.504 cumulative IPC: 0.3928 (Simulation time: 00 hr 20 min 45 sec)
Heartbeat CPU 0 instructions: 106000524 cycles: 157323688 heartbeat IPC: 0.3418 cumulative IPC: 0.3922 (Simulation time: 00 hr 20 min 55 sec)
Heartbeat CPU 0 instructions: 106500527 cycles: 158107450 heartbeat IPC: 0.638 cumulative IPC: 0.3936 (Simulation time: 00 hr 21 min 00 sec)
Heartbeat CPU 0 instructions: 107000527 cycles: 158435015 heartbeat IPC: 1.526 cumulative IPC: 0.3962 (Simulation time: 00 hr 21 min 03 sec)
Heartbeat CPU 0 instructions: 107500530 cycles: 159574603 heartbeat IPC: 0.4388 cumulative IPC: 0.3965 (Simulation time: 00 hr 21 min 11 sec)
Heartbeat CPU 0 instructions: 108000532 cycles: 161041516 heartbeat IPC: 0.3409 cumulative IPC: 0.3959 (Simulation time: 00 hr 21 min 21 sec)
Heartbeat CPU 0 instructions: 108500532 cycles: 162500706 heartbeat IPC: 0.3427 cumulative IPC: 0.3954 (Simulation time: 00 hr 21 min 30 sec)
Heartbeat CPU 0 instructions: 109000537 cycles: 162806820 heartbeat IPC: 1.633 cumulative IPC: 0.398 (Simulation time: 00 hr 21 min 33 sec)
Heartbeat CPU 0 instructions: 109500544 cycles: 163083952 heartbeat IPC: 1.804 cumulative IPC: 0.4006 (Simulation time: 00 hr 21 min 36 sec)
Heartbeat CPU 0 instructions: 110000547 cycles: 163305422 heartbeat IPC: 2.258 cumulative IPC: 0.4034 (Simulation time: 00 hr 21 min 39 sec)
Heartbeat CPU 0 instructions: 110500550 cycles: 164861944 heartbeat IPC: 0.3212 cumulative IPC: 0.4025 (Simulation time: 00 hr 21 min 49 sec)
Heartbeat CPU 0 instructions: 111000551 cycles: 166422443 heartbeat IPC: 0.3204 cumulative IPC: 0.4017 (Simulation time: 00 hr 21 min 59 sec)
Heartbeat CPU 0 instructions: 111500554 cycles: 167422916 heartbeat IPC: 0.4998 cumulative IPC: 0.4023 (Simulation time: 00 hr 22 min 06 sec)
Heartbeat CPU 0 instructions: 112000555 cycles: 168990190 heartbeat IPC: 0.319 cumulative IPC: 0.4015 (Simulation time: 00 hr 22 min 16 sec)
Heartbeat CPU 0 instructions: 112500555 cycles: 170431397 heartbeat IPC: 0.3469 cumulative IPC: 0.4009 (Simulation time: 00 hr 22 min 26 sec)
Heartbeat CPU 0 instructions: 113000555 cycles: 172220427 heartbeat IPC: 0.2795 cumulative IPC: 0.3996 (Simulation time: 00 hr 22 min 37 sec)
Heartbeat CPU 0 instructions: 113500559 cycles: 173225161 heartbeat IPC: 0.4976 cumulative IPC: 0.4002 (Simulation time: 00 hr 22 min 44 sec)
Heartbeat CPU 0 instructions: 114000561 cycles: 174115222 heartbeat IPC: 0.5618 cumulative IPC: 0.4011 (Simulation time: 00 hr 22 min 50 sec)
Heartbeat CPU 0 instructions: 114500566 cycles: 175436571 heartbeat IPC: 0.3784 cumulative IPC: 0.4009 (Simulation time: 00 hr 22 min 59 sec)
Heartbeat CPU 0 instructions: 115000567 cycles: 176937686 heartbeat IPC: 0.3331 cumulative IPC: 0.4003 (Simulation time: 00 hr 23 min 09 sec)
Heartbeat CPU 0 instructions: 115500569 cycles: 178242384 heartbeat IPC: 0.3832 cumulative IPC: 0.4001 (Simulation time: 00 hr 23 min 18 sec)
Heartbeat CPU 0 instructions: 116000572 cycles: 179824448 heartbeat IPC: 0.316 cumulative IPC: 0.3993 (Simulation time: 00 hr 23 min 29 sec)
Heartbeat CPU 0 instructions: 116500572 cycles: 181155632 heartbeat IPC: 0.3756 cumulative IPC: 0.3991 (Simulation time: 00 hr 23 min 38 sec)
Heartbeat CPU 0 instructions: 117000573 cycles: 181866504 heartbeat IPC: 0.7034 cumulative IPC: 0.4004 (Simulation time: 00 hr 23 min 43 sec)
Heartbeat CPU 0 instructions: 117500579 cycles: 182959239 heartbeat IPC: 0.4576 cumulative IPC: 0.4008 (Simulation time: 00 hr 23 min 50 sec)
Heartbeat CPU 0 instructions: 118000579 cycles: 183763902 heartbeat IPC: 0.6214 cumulative IPC: 0.4019 (Simulation time: 00 hr 23 min 56 sec)
Heartbeat CPU 0 instructions: 118500586 cycles: 185247561 heartbeat IPC: 0.337 cumulative IPC: 0.4013 (Simulation time: 00 hr 24 min 06 sec)
Heartbeat CPU 0 instructions: 119000587 cycles: 186618705 heartbeat IPC: 0.3647 cumulative IPC: 0.401 (Simulation time: 00 hr 24 min 15 sec)
Heartbeat CPU 0 instructions: 119500587 cycles: 188108715 heartbeat IPC: 0.3356 cumulative IPC: 0.4004 (Simulation time: 00 hr 24 min 25 sec)
Heartbeat CPU 0 instructions: 120000588 cycles: 189523180 heartbeat IPC: 0.3535 cumulative IPC: 0.4001 (Simulation time: 00 hr 24 min 34 sec)
Heartbeat CPU 0 instructions: 120500589 cycles: 190673605 heartbeat IPC: 0.4346 cumulative IPC: 0.4003 (Simulation time: 00 hr 24 min 42 sec)
Heartbeat CPU 0 instructions: 121000592 cycles: 191338561 heartbeat IPC: 0.7519 cumulative IPC: 0.4016 (Simulation time: 00 hr 24 min 47 sec)
Heartbeat CPU 0 instructions: 121500596 cycles: 192533661 heartbeat IPC: 0.4184 cumulative IPC: 0.4017 (Simulation time: 00 hr 24 min 55 sec)
Heartbeat CPU 0 instructions: 122000598 cycles: 194116717 heartbeat IPC: 0.3158 cumulative IPC: 0.401 (Simulation time: 00 hr 25 min 04 sec)
Heartbeat CPU 0 instructions: 122500603 cycles: 195616018 heartbeat IPC: 0.3335 cumulative IPC: 0.4004 (Simulation time: 00 hr 25 min 14 sec)
Heartbeat CPU 0 instructions: 123000605 cycles: 196555705 heartbeat IPC: 0.5321 cumulative IPC: 0.4011 (Simulation time: 00 hr 25 min 20 sec)
Heartbeat CPU 0 instructions: 123500608 cycles: 197714019 heartbeat IPC: 0.4317 cumulative IPC: 0.4013 (Simulation time: 00 hr 25 min 28 sec)
Heartbeat CPU 0 instructions: 124000608 cycles: 198615132 heartbeat IPC: 0.5549 cumulative IPC: 0.402 (Simulation time: 00 hr 25 min 34 sec)
Heartbeat CPU 0 instructions: 124500613 cycles: 199482392 heartbeat IPC: 0.5765 cumulative IPC: 0.4029 (Simulation time: 00 hr 25 min 40 sec)
Heartbeat CPU 0 instructions: 125000613 cycles: 200876130 heartbeat IPC: 0.3587 cumulative IPC: 0.4025 (Simulation time: 00 hr 25 min 49 sec)
Heartbeat CPU 0 instructions: 125500613 cycles: 202260701 heartbeat IPC: 0.3611 cumulative IPC: 0.4022 (Simulation time: 00 hr 25 min 58 sec)
Heartbeat CPU 0 instructions: 126000615 cycles: 203420936 heartbeat IPC: 0.4309 cumulative IPC: 0.4024 (Simulation time: 00 hr 26 min 06 sec)
Heartbeat CPU 0 instructions: 126500615 cycles: 204581689 heartbeat IPC: 0.4308 cumulative IPC: 0.4026 (Simulation time: 00 hr 26 min 14 sec)
Heartbeat CPU 0 instructions: 127000620 cycles: 205947055 heartbeat IPC: 0.3662 cumulative IPC: 0.4023 (Simulation time: 00 hr 26 min 22 sec)
Heartbeat CPU 0 instructions: 127500620 cycles: 207032021 heartbeat IPC: 0.4608 cumulative IPC: 0.4026 (Simulation time: 00 hr 26 min 29 sec)
Heartbeat CPU 0 instructions: 128000623 cycles: 208026272 heartbeat IPC: 0.5029 cumulative IPC: 0.4032 (Simulation time: 00 hr 26 min 36 sec)
Heartbeat CPU 0 instructions: 128500624 cycles: 209710185 heartbeat IPC: 0.2969 cumulative IPC: 0.4022 (Simulation time: 00 hr 26 min 47 sec)
Heartbeat CPU 0 instructions: 129000624 cycles: 211438009 heartbeat IPC: 0.2894 cumulative IPC: 0.4012 (Simulation time: 00 hr 26 min 57 sec)
Heartbeat CPU 0 instructions: 129500631 cycles: 212316611 heartbeat IPC: 0.5691 cumulative IPC: 0.402 (Simulation time: 00 hr 27 min 03 sec)
Heartbeat CPU 0 instructions: 130000633 cycles: 213236801 heartbeat IPC: 0.5434 cumulative IPC: 0.4026 (Simulation time: 00 hr 27 min 09 sec)
Heartbeat CPU 0 instructions: 130500636 cycles: 214409317 heartbeat IPC: 0.4264 cumulative IPC: 0.4028 (Simulation time: 00 hr 27 min 17 sec)
Heartbeat CPU 0 instructions: 131000642 cycles: 214757618 heartbeat IPC: 1.436 cumulative IPC: 0.4046 (Simulation time: 00 hr 27 min 20 sec)
Heartbeat CPU 0 instructions: 131500643 cycles: 214991117 heartbeat IPC: 2.141 cumulative IPC: 0.4066 (Simulation time: 00 hr 27 min 23 sec)
Heartbeat CPU 0 instructions: 132000647 cycles: 216310880 heartbeat IPC: 0.3789 cumulative IPC: 0.4064 (Simulation time: 00 hr 27 min 31 sec)
Heartbeat CPU 0 instructions: 132500647 cycles: 217596875 heartbeat IPC: 0.3888 cumulative IPC: 0.4063 (Simulation time: 00 hr 27 min 39 sec)
Heartbeat CPU 0 instructions: 133000649 cycles: 218965161 heartbeat IPC: 0.3654 cumulative IPC: 0.406 (Simulation time: 00 hr 27 min 48 sec)
Heartbeat CPU 0 instructions: 133500649 cycles: 220508905 heartbeat IPC: 0.3239 cumulative IPC: 0.4054 (Simulation time: 00 hr 27 min 57 sec)
Heartbeat CPU 0 instructions: 134000651 cycles: 222351161 heartbeat IPC: 0.2714 cumulative IPC: 0.4042 (Simulation time: 00 hr 28 min 09 sec)
Heartbeat CPU 0 instructions: 134500655 cycles: 223192117 heartbeat IPC: 0.5946 cumulative IPC: 0.405 (Simulation time: 00 hr 28 min 14 sec)
Heartbeat CPU 0 instructions: 135000655 cycles: 224452419 heartbeat IPC: 0.3967 cumulative IPC: 0.405 (Simulation time: 00 hr 28 min 22 sec)
Heartbeat CPU 0 instructions: 135500655 cycles: 225792532 heartbeat IPC: 0.3731 cumulative IPC: 0.4048 (Simulation time: 00 hr 28 min 31 sec)
Heartbeat CPU 0 instructions: 136000655 cycles: 227218688 heartbeat IPC: 0.3506 cumulative IPC: 0.4044 (Simulation time: 00 hr 28 min 40 sec)
Heartbeat CPU 0 instructions: 136500655 cycles: 228286677 heartbeat IPC: 0.4682 cumulative IPC: 0.4047 (Simulation time: 00 hr 28 min 46 sec)
Heartbeat CPU 0 instructions: 137000656 cycles: 229458427 heartbeat IPC: 0.4267 cumulative IPC: 0.4048 (Simulation time: 00 hr 28 min 54 sec)
Heartbeat CPU 0 instructions: 137500658 cycles: 229835577 heartbeat IPC: 1.326 cumulative IPC: 0.4064 (Simulation time: 00 hr 28 min 57 sec)
Heartbeat CPU 0 instructions: 138000658 cycles: 231742600 heartbeat IPC: 0.2622 cumulative IPC: 0.4052 (Simulation time: 00 hr 29 min 08 sec)
Heartbeat CPU 0 instructions: 138500661 cycles: 233054936 heartbeat IPC: 0.381 cumulative IPC: 0.405 (Simulation time: 00 hr 29 min 16 sec)
Heartbeat CPU 0 instructions: 139000663 cycles: 234151010 heartbeat IPC: 0.4562 cumulative IPC: 0.4053 (Simulation time: 00 hr 29 min 23 sec)
Heartbeat CPU 0 instructions: 139500670 cycles: 235161205 heartbeat IPC: 0.495 cumulative IPC: 0.4057 (Simulation time: 00 hr 29 min 30 sec)
Heartbeat CPU 0 instructions: 140000673 cycles: 236065681 heartbeat IPC: 0.5528 cumulative IPC: 0.4063 (Simulation time: 00 hr 29 min 36 sec)
Heartbeat CPU 0 instructions: 140500678 cycles: 237348830 heartbeat IPC: 0.3897 cumulative IPC: 0.4062 (Simulation time: 00 hr 29 min 44 sec)
Heartbeat CPU 0 instructions: 141000684 cycles: 238718939 heartbeat IPC: 0.3649 cumulative IPC: 0.4059 (Simulation time: 00 hr 29 min 52 sec)
Heartbeat CPU 0 instructions: 141500686 cycles: 239951320 heartbeat IPC: 0.4057 cumulative IPC: 0.4059 (Simulation time: 00 hr 29 min 59 sec)
Heartbeat CPU 0 instructions: 142000686 cycles: 241114320 heartbeat IPC: 0.4299 cumulative IPC: 0.4061 (Simulation time: 00 hr 30 min 07 sec)
Heartbeat CPU 0 instructions: 142500689 cycles: 241974033 heartbeat IPC: 0.5816 cumulative IPC: 0.4067 (Simulation time: 00 hr 30 min 12 sec)
Heartbeat CPU 0 instructions: 143000693 cycles: 242356035 heartbeat IPC: 1.309 cumulative IPC: 0.4082 (Simulation time: 00 hr 30 min 15 sec)
Heartbeat CPU 0 instructions: 143500699 cycles: 242647505 heartbeat IPC: 1.715 cumulative IPC: 0.4099 (Simulation time: 00 hr 30 min 18 sec)
Heartbeat CPU 0 instructions: 144000699 cycles: 242930350 heartbeat IPC: 1.768 cumulative IPC: 0.4116 (Simulation time: 00 hr 30 min 20 sec)
Heartbeat CPU 0 instructions: 144500700 cycles: 244819150 heartbeat IPC: 0.2647 cumulative IPC: 0.4104 (Simulation time: 00 hr 30 min 31 sec)
Heartbeat CPU 0 instructions: 145000706 cycles: 245149234 heartbeat IPC: 1.515 cumulative IPC: 0.412 (Simulation time: 00 hr 30 min 34 sec)
Heartbeat CPU 0 instructions: 145500707 cycles: 245453746 heartbeat IPC: 1.642 cumulative IPC: 0.4136 (Simulation time: 00 hr 30 min 36 sec)
Heartbeat CPU 0 instructions: 146000708 cycles: 245941290 heartbeat IPC: 1.026 cumulative IPC: 0.4149 (Simulation time: 00 hr 30 min 40 sec)
Heartbeat CPU 0 instructions: 146500714 cycles: 246359070 heartbeat IPC: 1.197 cumulative IPC: 0.4163 (Simulation time: 00 hr 30 min 43 sec)
Heartbeat CPU 0 instructions: 147000715 cycles: 246637676 heartbeat IPC: 1.795 cumulative IPC: 0.4179 (Simulation time: 00 hr 30 min 45 sec)
Heartbeat CPU 0 instructions: 147500716 cycles: 246910642 heartbeat IPC: 1.832 cumulative IPC: 0.4196 (Simulation time: 00 hr 30 min 48 sec)
Heartbeat CPU 0 instructions: 148000719 cycles: 247177422 heartbeat IPC: 1.874 cumulative IPC: 0.4213 (Simulation time: 00 hr 30 min 50 sec)
Heartbeat CPU 0 instructions: 148500726 cycles: 248649486 heartbeat IPC: 0.3397 cumulative IPC: 0.4208 (Simulation time: 00 hr 30 min 58 sec)
Heartbeat CPU 0 instructions: 149000727 cycles: 248951034 heartbeat IPC: 1.658 cumulative IPC: 0.4224 (Simulation time: 00 hr 31 min 01 sec)
Heartbeat CPU 0 instructions: 149500729 cycles: 249218028 heartbeat IPC: 1.873 cumulative IPC: 0.424 (Simulation time: 00 hr 31 min 03 sec)
Heartbeat CPU 0 instructions: 150000731 cycles: 249489285 heartbeat IPC: 1.843 cumulative IPC: 0.4256 (Simulation time: 00 hr 31 min 06 sec)
Heartbeat CPU 0 instructions: 150500733 cycles: 250535730 heartbeat IPC: 0.4778 cumulative IPC: 0.4259 (Simulation time: 00 hr 31 min 12 sec)
Heartbeat CPU 0 instructions: 151000734 cycles: 252590956 heartbeat IPC: 0.2433 cumulative IPC: 0.4243 (Simulation time: 00 hr 31 min 23 sec)
Heartbeat CPU 0 instructions: 151500740 cycles: 254098858 heartbeat IPC: 0.3316 cumulative IPC: 0.4237 (Simulation time: 00 hr 31 min 33 sec)
Heartbeat CPU 0 instructions: 152000740 cycles: 255006149 heartbeat IPC: 0.5511 cumulative IPC: 0.4242 (Simulation time: 00 hr 31 min 39 sec)
Heartbeat CPU 0 instructions: 152500742 cycles: 256290498 heartbeat IPC: 0.3893 cumulative IPC: 0.424 (Simulation time: 00 hr 31 min 46 sec)
Heartbeat CPU 0 instructions: 153000745 cycles: 257522514 heartbeat IPC: 0.4058 cumulative IPC: 0.4239 (Simulation time: 00 hr 31 min 54 sec)
Heartbeat CPU 0 instructions: 153500745 cycles: 258715900 heartbeat IPC: 0.419 cumulative IPC: 0.4239 (Simulation time: 00 hr 32 min 02 sec)
Heartbeat CPU 0 instructions: 154000745 cycles: 259709982 heartbeat IPC: 0.503 cumulative IPC: 0.4242 (Simulation time: 00 hr 32 min 08 sec)
Heartbeat CPU 0 instructions: 154500751 cycles: 260663830 heartbeat IPC: 0.5242 cumulative IPC: 0.4246 (Simulation time: 00 hr 32 min 14 sec)
Heartbeat CPU 0 instructions: 155000756 cycles: 262019005 heartbeat IPC: 0.369 cumulative IPC: 0.4243 (Simulation time: 00 hr 32 min 23 sec)
Heartbeat CPU 0 instructions: 155500756 cycles: 263381377 heartbeat IPC: 0.367 cumulative IPC: 0.424 (Simulation time: 00 hr 32 min 31 sec)
Heartbeat CPU 0 instructions: 156000756 cycles: 264537443 heartbeat IPC: 0.4325 cumulative IPC: 0.424 (Simulation time: 00 hr 32 min 38 sec)
Heartbeat CPU 0 instructions: 156500759 cycles: 265511413 heartbeat IPC: 0.5134 cumulative IPC: 0.4244 (Simulation time: 00 hr 32 min 44 sec)
Heartbeat CPU 0 instructions: 157000763 cycles: 266410303 heartbeat IPC: 0.5562 cumulative IPC: 0.4248 (Simulation time: 00 hr 32 min 50 sec)
Heartbeat CPU 0 instructions: 157500766 cycles: 267315887 heartbeat IPC: 0.5521 cumulative IPC: 0.4253 (Simulation time: 00 hr 32 min 56 sec)
Heartbeat CPU 0 instructions: 158000772 cycles: 268368293 heartbeat IPC: 0.4751 cumulative IPC: 0.4255 (Simulation time: 00 hr 33 min 03 sec)
Heartbeat CPU 0 instructions: 158500778 cycles: 269620777 heartbeat IPC: 0.3992 cumulative IPC: 0.4254 (Simulation time: 00 hr 33 min 10 sec)
Heartbeat CPU 0 instructions: 159000781 cycles: 270949881 heartbeat IPC: 0.3762 cumulative IPC: 0.4251 (Simulation time: 00 hr 33 min 19 sec)
Heartbeat CPU 0 instructions: 159500784 cycles: 271582121 heartbeat IPC: 0.7908 cumulative IPC: 0.426 (Simulation time: 00 hr 33 min 23 sec)
Heartbeat CPU 0 instructions: 160000790 cycles: 272969343 heartbeat IPC: 0.3604 cumulative IPC: 0.4257 (Simulation time: 00 hr 33 min 32 sec)
Heartbeat CPU 0 instructions: 160500790 cycles: 274007941 heartbeat IPC: 0.4814 cumulative IPC: 0.4259 (Simulation time: 00 hr 33 min 38 sec)
Heartbeat CPU 0 instructions: 161000790 cycles: 274640143 heartbeat IPC: 0.7909 cumulative IPC: 0.4268 (Simulation time: 00 hr 33 min 43 sec)
Heartbeat CPU 0 instructions: 161500796 cycles: 275396262 heartbeat IPC: 0.6613 cumulative IPC: 0.4275 (Simulation time: 00 hr 33 min 48 sec)
Heartbeat CPU 0 instructions: 162000798 cycles: 276367616 heartbeat IPC: 0.5147 cumulative IPC: 0.4278 (Simulation time: 00 hr 33 min 54 sec)
Heartbeat CPU 0 instructions: 162500798 cycles: 277429550 heartbeat IPC: 0.4708 cumulative IPC: 0.428 (Simulation time: 00 hr 34 min 01 sec)
Heartbeat CPU 0 instructions: 163000800 cycles: 278353491 heartbeat IPC: 0.5412 cumulative IPC: 0.4284 (Simulation time: 00 hr 34 min 07 sec)
Heartbeat CPU 0 instructions: 163500802 cycles: 279552023 heartbeat IPC: 0.4172 cumulative IPC: 0.4283 (Simulation time: 00 hr 34 min 14 sec)
Heartbeat CPU 0 instructions: 164000802 cycles: 280600775 heartbeat IPC: 0.4768 cumulative IPC: 0.4285 (Simulation time: 00 hr 34 min 21 sec)
Heartbeat CPU 0 instructions: 164500802 cycles: 281691163 heartbeat IPC: 0.4586 cumulative IPC: 0.4286 (Simulation time: 00 hr 34 min 28 sec)
Heartbeat CPU 0 instructions: 165000802 cycles: 282975177 heartbeat IPC: 0.3894 cumulative IPC: 0.4284 (Simulation time: 00 hr 34 min 36 sec)
Heartbeat CPU 0 instructions: 165500802 cycles: 283939541 heartbeat IPC: 0.5185 cumulative IPC: 0.4288 (Simulation time: 00 hr 34 min 42 sec)
Heartbeat CPU 0 instructions: 166000807 cycles: 285165181 heartbeat IPC: 0.408 cumulative IPC: 0.4287 (Simulation time: 00 hr 34 min 50 sec)
Heartbeat CPU 0 instructions: 166500808 cycles: 286243684 heartbeat IPC: 0.4636 cumulative IPC: 0.4288 (Simulation time: 00 hr 34 min 57 sec)
Heartbeat CPU 0 instructions: 167000808 cycles: 287460258 heartbeat IPC: 0.411 cumulative IPC: 0.4287 (Simulation time: 00 hr 35 min 04 sec)
Heartbeat CPU 0 instructions: 167500808 cycles: 288776821 heartbeat IPC: 0.3798 cumulative IPC: 0.4285 (Simulation time: 00 hr 35 min 12 sec)
Heartbeat CPU 0 instructions: 168000808 cycles: 290044151 heartbeat IPC: 0.3945 cumulative IPC: 0.4283 (Simulation time: 00 hr 35 min 20 sec)
Heartbeat CPU 0 instructions: 168500808 cycles: 291113513 heartbeat IPC: 0.4676 cumulative IPC: 0.4285 (Simulation time: 00 hr 35 min 27 sec)
Heartbeat CPU 0 instructions: 169000809 cycles: 292381936 heartbeat IPC: 0.3942 cumulative IPC: 0.4283 (Simulation time: 00 hr 35 min 34 sec)
Heartbeat CPU 0 instructions: 169500813 cycles: 293376275 heartbeat IPC: 0.5029 cumulative IPC: 0.4286 (Simulation time: 00 hr 35 min 41 sec)
Heartbeat CPU 0 instructions: 170000814 cycles: 294322086 heartbeat IPC: 0.5286 cumulative IPC: 0.4289 (Simulation time: 00 hr 35 min 47 sec)
Heartbeat CPU 0 instructions: 170500820 cycles: 295277074 heartbeat IPC: 0.5236 cumulative IPC: 0.4292 (Simulation time: 00 hr 35 min 53 sec)
Heartbeat CPU 0 instructions: 171000820 cycles: 296161608 heartbeat IPC: 0.5653 cumulative IPC: 0.4297 (Simulation time: 00 hr 35 min 59 sec)
Heartbeat CPU 0 instructions: 171500820 cycles: 298046321 heartbeat IPC: 0.2653 cumulative IPC: 0.4286 (Simulation time: 00 hr 36 min 10 sec)
Heartbeat CPU 0 instructions: 172000821 cycles: 299576449 heartbeat IPC: 0.3268 cumulative IPC: 0.428 (Simulation time: 00 hr 36 min 20 sec)
Heartbeat CPU 0 instructions: 172500821 cycles: 301225764 heartbeat IPC: 0.3032 cumulative IPC: 0.4273 (Simulation time: 00 hr 36 min 30 sec)
Heartbeat CPU 0 instructions: 173000821 cycles: 302057535 heartbeat IPC: 0.6011 cumulative IPC: 0.4278 (Simulation time: 00 hr 36 min 35 sec)
Heartbeat CPU 0 instructions: 173500824 cycles: 302722406 heartbeat IPC: 0.752 cumulative IPC: 0.4286 (Simulation time: 00 hr 36 min 39 sec)
Heartbeat CPU 0 instructions: 174000825 cycles: 302972919 heartbeat IPC: 1.996 cumulative IPC: 0.4299 (Simulation time: 00 hr 36 min 42 sec)
Heartbeat CPU 0 instructions: 174500825 cycles: 303200008 heartbeat IPC: 2.202 cumulative IPC: 0.4313 (Simulation time: 00 hr 36 min 44 sec)
Heartbeat CPU 0 instructions: 175000831 cycles: 303319381 heartbeat IPC: 4.189 cumulative IPC: 0.4329 (Simulation time: 00 hr 36 min 46 sec)
Heartbeat CPU 0 instructions: 175500831 cycles: 303427705 heartbeat IPC: 4.616 cumulative IPC: 0.4344 (Simulation time: 00 hr 36 min 48 sec)
Heartbeat CPU 0 instructions: 176000832 cycles: 303575080 heartbeat IPC: 3.393 cumulative IPC: 0.436 (Simulation time: 00 hr 36 min 50 sec)
Heartbeat CPU 0 instructions: 176500833 cycles: 303702658 heartbeat IPC: 3.919 cumulative IPC: 0.4375 (Simulation time: 00 hr 36 min 51 sec)
Heartbeat CPU 0 instructions: 177000833 cycles: 304020908 heartbeat IPC: 1.571 cumulative IPC: 0.4387 (Simulation time: 00 hr 36 min 54 sec)
Heartbeat CPU 0 instructions: 177500838 cycles: 305272635 heartbeat IPC: 0.3995 cumulative IPC: 0.4386 (Simulation time: 00 hr 37 min 01 sec)
Heartbeat CPU 0 instructions: 178000844 cycles: 307038270 heartbeat IPC: 0.2832 cumulative IPC: 0.4376 (Simulation time: 00 hr 37 min 12 sec)
Heartbeat CPU 0 instructions: 178500844 cycles: 308542198 heartbeat IPC: 0.3325 cumulative IPC: 0.4371 (Simulation time: 00 hr 37 min 21 sec)
Heartbeat CPU 0 instructions: 179000845 cycles: 309798812 heartbeat IPC: 0.3979 cumulative IPC: 0.4369 (Simulation time: 00 hr 37 min 29 sec)
Heartbeat CPU 0 instructions: 179500845 cycles: 310806285 heartbeat IPC: 0.4963 cumulative IPC: 0.4371 (Simulation time: 00 hr 37 min 35 sec)
Heartbeat CPU 0 instructions: 180000852 cycles: 311681083 heartbeat IPC: 0.5716 cumulative IPC: 0.4375 (Simulation time: 00 hr 37 min 41 sec)
Heartbeat CPU 0 instructions: 180500852 cycles: 312779414 heartbeat IPC: 0.4552 cumulative IPC: 0.4376 (Simulation time: 00 hr 37 min 48 sec)
Heartbeat CPU 0 instructions: 181000856 cycles: 313568974 heartbeat IPC: 0.6333 cumulative IPC: 0.4381 (Simulation time: 00 hr 37 min 53 sec)
Heartbeat CPU 0 instructions: 181500860 cycles: 313891462 heartbeat IPC: 1.55 cumulative IPC: 0.4393 (Simulation time: 00 hr 37 min 56 sec)
Heartbeat CPU 0 instructions: 182000863 cycles: 314194110 heartbeat IPC: 1.652 cumulative IPC: 0.4405 (Simulation time: 00 hr 37 min 59 sec)
Heartbeat CPU 0 instructions: 182500863 cycles: 314476029 heartbeat IPC: 1.774 cumulative IPC: 0.4418 (Simulation time: 00 hr 38 min 01 sec)
Heartbeat CPU 0 instructions: 183000870 cycles: 315553514 heartbeat IPC: 0.4641 cumulative IPC: 0.4419 (Simulation time: 00 hr 38 min 08 sec)
Heartbeat CPU 0 instructions: 183500870 cycles: 316674792 heartbeat IPC: 0.4459 cumulative IPC: 0.4419 (Simulation time: 00 hr 38 min 15 sec)
Heartbeat CPU 0 instructions: 184000871 cycles: 318063835 heartbeat IPC: 0.36 cumulative IPC: 0.4415 (Simulation time: 00 hr 38 min 23 sec)
Heartbeat CPU 0 instructions: 184500871 cycles: 319288786 heartbeat IPC: 0.4082 cumulative IPC: 0.4414 (Simulation time: 00 hr 38 min 31 sec)
Heartbeat CPU 0 instructions: 185000873 cycles: 320208698 heartbeat IPC: 0.5435 cumulative IPC: 0.4417 (Simulation time: 00 hr 38 min 37 sec)
Heartbeat CPU 0 instructions: 185500877 cycles: 321144145 heartbeat IPC: 0.5345 cumulative IPC: 0.442 (Simulation time: 00 hr 38 min 43 sec)
Heartbeat CPU 0 instructions: 186000879 cycles: 322062914 heartbeat IPC: 0.5442 cumulative IPC: 0.4423 (Simulation time: 00 hr 38 min 49 sec)
Heartbeat CPU 0 instructions: 186500884 cycles: 322990938 heartbeat IPC: 0.5388 cumulative IPC: 0.4426 (Simulation time: 00 hr 38 min 55 sec)
Heartbeat CPU 0 instructions: 187000884 cycles: 324289024 heartbeat IPC: 0.3852 cumulative IPC: 0.4423 (Simulation time: 00 hr 39 min 03 sec)
Heartbeat CPU 0 instructions: 187500888 cycles: 325317396 heartbeat IPC: 0.4862 cumulative IPC: 0.4425 (Simulation time: 00 hr 39 min 09 sec)
Heartbeat CPU 0 instructions: 188000889 cycles: 326299099 heartbeat IPC: 0.5093 cumulative IPC: 0.4427 (Simulation time: 00 hr 39 min 16 sec)
Heartbeat CPU 0 instructions: 188500892 cycles: 327793424 heartbeat IPC: 0.3346 cumulative IPC: 0.4422 (Simulation time: 00 hr 39 min 25 sec)
Heartbeat CPU 0 instructions: 189000892 cycles: 328973630 heartbeat IPC: 0.4237 cumulative IPC: 0.4421 (Simulation time: 00 hr 39 min 32 sec)
Heartbeat CPU 0 instructions: 189500898 cycles: 330528642 heartbeat IPC: 0.3215 cumulative IPC: 0.4415 (Simulation time: 00 hr 39 min 41 sec)
Heartbeat CPU 0 instructions: 190000900 cycles: 331527820 heartbeat IPC: 0.5004 cumulative IPC: 0.4417 (Simulation time: 00 hr 39 min 47 sec)
Heartbeat CPU 0 instructions: 190500907 cycles: 332738114 heartbeat IPC: 0.4131 cumulative IPC: 0.4416 (Simulation time: 00 hr 39 min 55 sec)
Heartbeat CPU 0 instructions: 191000907 cycles: 333797423 heartbeat IPC: 0.472 cumulative IPC: 0.4417 (Simulation time: 00 hr 40 min 02 sec)
Heartbeat CPU 0 instructions: 191500910 cycles: 334657200 heartbeat IPC: 0.5815 cumulative IPC: 0.442 (Simulation time: 00 hr 40 min 07 sec)
Heartbeat CPU 0 instructions: 192000912 cycles: 335505270 heartbeat IPC: 0.5896 cumulative IPC: 0.4424 (Simulation time: 00 hr 40 min 13 sec)
Heartbeat CPU 0 instructions: 192500912 cycles: 336716938 heartbeat IPC: 0.4127 cumulative IPC: 0.4423 (Simulation time: 00 hr 40 min 21 sec)
Heartbeat CPU 0 instructions: 193000916 cycles: 337981079 heartbeat IPC: 0.3955 cumulative IPC: 0.4421 (Simulation time: 00 hr 40 min 28 sec)
Heartbeat CPU 0 instructions: 193500916 cycles: 339044343 heartbeat IPC: 0.4703 cumulative IPC: 0.4422 (Simulation time: 00 hr 40 min 35 sec)
Heartbeat CPU 0 instructions: 194000916 cycles: 339853680 heartbeat IPC: 0.6178 cumulative IPC: 0.4427 (Simulation time: 00 hr 40 min 40 sec)
Heartbeat CPU 0 instructions: 194500922 cycles: 340901624 heartbeat IPC: 0.4771 cumulative IPC: 0.4428 (Simulation time: 00 hr 40 min 48 sec)
Heartbeat CPU 0 instructions: 195000922 cycles: 342158337 heartbeat IPC: 0.3979 cumulative IPC: 0.4426 (Simulation time: 00 hr 40 min 55 sec)
Heartbeat CPU 0 instructions: 195500922 cycles: 343667797 heartbeat IPC: 0.3312 cumulative IPC: 0.4421 (Simulation time: 00 hr 41 min 04 sec)
Heartbeat CPU 0 instructions: 196000923 cycles: 344930350 heartbeat IPC: 0.396 cumulative IPC: 0.4419 (Simulation time: 00 hr 41 min 12 sec)
Heartbeat CPU 0 instructions: 196500923 cycles: 346369876 heartbeat IPC: 0.3473 cumulative IPC: 0.4415 (Simulation time: 00 hr 41 min 21 sec)
Heartbeat CPU 0 instructions: 197000923 cycles: 347616102 heartbeat IPC: 0.4012 cumulative IPC: 0.4414 (Simulation time: 00 hr 41 min 29 sec)
Heartbeat CPU 0 instructions: 197500923 cycles: 348961964 heartbeat IPC: 0.3715 cumulative IPC: 0.4411 (Simulation time: 00 hr 41 min 37 sec)
Heartbeat CPU 0 instructions: 198000930 cycles: 350136258 heartbeat IPC: 0.4258 cumulative IPC: 0.441 (Simulation time: 00 hr 41 min 44 sec)
Heartbeat CPU 0 instructions: 198500932 cycles: 351245899 heartbeat IPC: 0.4506 cumulative IPC: 0.4411 (Simulation time: 00 hr 41 min 51 sec)
Heartbeat CPU 0 instructions: 199000932 cycles: 352671578 heartbeat IPC: 0.3507 cumulative IPC: 0.4407 (Simulation time: 00 hr 42 min 00 sec)
Heartbeat CPU 0 instructions: 199500933 cycles: 353878567 heartbeat IPC: 0.4143 cumulative IPC: 0.4406 (Simulation time: 00 hr 42 min 07 sec)
Heartbeat CPU 0 instructions: 200000933 cycles: 355504185 heartbeat IPC: 0.3076 cumulative IPC: 0.4399 (Simulation time: 00 hr 42 min 17 sec)
Heartbeat CPU 0 instructions: 200500933 cycles: 356659201 heartbeat IPC: 0.4329 cumulative IPC: 0.4399 (Simulation time: 00 hr 42 min 24 sec)
Heartbeat CPU 0 instructions: 201000935 cycles: 357784381 heartbeat IPC: 0.4444 cumulative IPC: 0.4399 (Simulation time: 00 hr 42 min 31 sec)
Heartbeat CPU 0 instructions: 201500940 cycles: 358794959 heartbeat IPC: 0.4948 cumulative IPC: 0.4401 (Simulation time: 00 hr 42 min 37 sec)
Heartbeat CPU 0 instructions: 202000940 cycles: 359823460 heartbeat IPC: 0.4861 cumulative IPC: 0.4402 (Simulation time: 00 hr 42 min 44 sec)
Heartbeat CPU 0 instructions: 202500942 cycles: 360886483 heartbeat IPC: 0.4704 cumulative IPC: 0.4403 (Simulation time: 00 hr 42 min 51 sec)
Heartbeat CPU 0 instructions: 203000942 cycles: 361806711 heartbeat IPC: 0.5433 cumulative IPC: 0.4406 (Simulation time: 00 hr 42 min 57 sec)
Heartbeat CPU 0 instructions: 203500946 cycles: 363056406 heartbeat IPC: 0.4001 cumulative IPC: 0.4405 (Simulation time: 00 hr 43 min 04 sec)
Heartbeat CPU 0 instructions: 204000952 cycles: 363979201 heartbeat IPC: 0.5418 cumulative IPC: 0.4407 (Simulation time: 00 hr 43 min 10 sec)
Heartbeat CPU 0 instructions: 204500952 cycles: 364261231 heartbeat IPC: 1.773 cumulative IPC: 0.4418 (Simulation time: 00 hr 43 min 13 sec)
Heartbeat CPU 0 instructions: 205000952 cycles: 364480122 heartbeat IPC: 2.284 cumulative IPC: 0.4429 (Simulation time: 00 hr 43 min 15 sec)
Heartbeat CPU 0 instructions: 205500953 cycles: 364710317 heartbeat IPC: 2.172 cumulative IPC: 0.4441 (Simulation time: 00 hr 43 min 18 sec)
Heartbeat CPU 0 instructions: 206000960 cycles: 364944661 heartbeat IPC: 2.134 cumulative IPC: 0.4452 (Simulation time: 00 hr 43 min 20 sec)
Heartbeat CPU 0 instructions: 206500961 cycles: 365182496 heartbeat IPC: 2.102 cumulative IPC: 0.4463 (Simulation time: 00 hr 43 min 22 sec)
Heartbeat CPU 0 instructions: 207000961 cycles: 365413124 heartbeat IPC: 2.168 cumulative IPC: 0.4475 (Simulation time: 00 hr 43 min 25 sec)
Heartbeat CPU 0 instructions: 207500962 cycles: 365615542 heartbeat IPC: 2.47 cumulative IPC: 0.4486 (Simulation time: 00 hr 43 min 27 sec)
Heartbeat CPU 0 instructions: 208000967 cycles: 365881382 heartbeat IPC: 1.881 cumulative IPC: 0.4497 (Simulation time: 00 hr 43 min 29 sec)
Heartbeat CPU 0 instructions: 208500969 cycles: 366108894 heartbeat IPC: 2.198 cumulative IPC: 0.4509 (Simulation time: 00 hr 43 min 31 sec)
Heartbeat CPU 0 instructions: 209000970 cycles: 366343262 heartbeat IPC: 2.133 cumulative IPC: 0.452 (Simulation time: 00 hr 43 min 34 sec)
Heartbeat CPU 0 instructions: 209500974 cycles: 366569436 heartbeat IPC: 2.211 cumulative IPC: 0.4531 (Simulation time: 00 hr 43 min 36 sec)
Heartbeat CPU 0 instructions: 210000976 cycles: 366796005 heartbeat IPC: 2.207 cumulative IPC: 0.4542 (Simulation time: 00 hr 43 min 38 sec)
Heartbeat CPU 0 instructions: 210500976 cycles: 367219359 heartbeat IPC: 1.181 cumulative IPC: 0.4551 (Simulation time: 00 hr 43 min 41 sec)
Heartbeat CPU 0 instructions: 211000976 cycles: 367391236 heartbeat IPC: 2.909 cumulative IPC: 0.4563 (Simulation time: 00 hr 43 min 43 sec)
Heartbeat CPU 0 instructions: 211500978 cycles: 367563087 heartbeat IPC: 2.91 cumulative IPC: 0.4575 (Simulation time: 00 hr 43 min 45 sec)
Heartbeat CPU 0 instructions: 212000978 cycles: 367731498 heartbeat IPC: 2.969 cumulative IPC: 0.4587 (Simulation time: 00 hr 43 min 47 sec)
Heartbeat CPU 0 instructions: 212500984 cycles: 368398197 heartbeat IPC: 0.75 cumulative IPC: 0.4592 (Simulation time: 00 hr 43 min 52 sec)
Heartbeat CPU 0 instructions: 213000984 cycles: 370234299 heartbeat IPC: 0.2723 cumulative IPC: 0.4583 (Simulation time: 00 hr 44 min 03 sec)
Heartbeat CPU 0 instructions: 213500984 cycles: 371526408 heartbeat IPC: 0.387 cumulative IPC: 0.458 (Simulation time: 00 hr 44 min 11 sec)
Heartbeat CPU 0 instructions: 214000985 cycles: 373094079 heartbeat IPC: 0.3189 cumulative IPC: 0.4574 (Simulation time: 00 hr 44 min 20 sec)
Heartbeat CPU 0 instructions: 214500985 cycles: 374537014 heartbeat IPC: 0.3465 cumulative IPC: 0.457 (Simulation time: 00 hr 44 min 29 sec)
Heartbeat CPU 0 instructions: 215000989 cycles: 375385202 heartbeat IPC: 0.5895 cumulative IPC: 0.4573 (Simulation time: 00 hr 44 min 35 sec)
Heartbeat CPU 0 instructions: 215500989 cycles: 376260515 heartbeat IPC: 0.5712 cumulative IPC: 0.4576 (Simulation time: 00 hr 44 min 41 sec)
Heartbeat CPU 0 instructions: 216000989 cycles: 377269503 heartbeat IPC: 0.4955 cumulative IPC: 0.4577 (Simulation time: 00 hr 44 min 47 sec)
Heartbeat CPU 0 instructions: 216500990 cycles: 378210130 heartbeat IPC: 0.5316 cumulative IPC: 0.4578 (Simulation time: 00 hr 44 min 53 sec)
Heartbeat CPU 0 instructions: 217000992 cycles: 379097456 heartbeat IPC: 0.5635 cumulative IPC: 0.4581 (Simulation time: 00 hr 44 min 59 sec)
Heartbeat CPU 0 instructions: 217500998 cycles: 380208093 heartbeat IPC: 0.4502 cumulative IPC: 0.4581 (Simulation time: 00 hr 45 min 06 sec)
Heartbeat CPU 0 instructions: 218000999 cycles: 381686806 heartbeat IPC: 0.3381 cumulative IPC: 0.4576 (Simulation time: 00 hr 45 min 15 sec)
Heartbeat CPU 0 instructions: 218501000 cycles: 382769804 heartbeat IPC: 0.4617 cumulative IPC: 0.4576 (Simulation time: 00 hr 45 min 22 sec)
Heartbeat CPU 0 instructions: 219001000 cycles: 383622022 heartbeat IPC: 0.5867 cumulative IPC: 0.4579 (Simulation time: 00 hr 45 min 27 sec)
Heartbeat CPU 0 instructions: 219501001 cycles: 384451557 heartbeat IPC: 0.6027 cumulative IPC: 0.4582 (Simulation time: 00 hr 45 min 33 sec)
Heartbeat CPU 0 instructions: 220001001 cycles: 385901458 heartbeat IPC: 0.3449 cumulative IPC: 0.4578 (Simulation time: 00 hr 45 min 42 sec)
Heartbeat CPU 0 instructions: 220501001 cycles: 387195370 heartbeat IPC: 0.3864 cumulative IPC: 0.4575 (Simulation time: 00 hr 45 min 50 sec)
Heartbeat CPU 0 instructions: 221001008 cycles: 388296243 heartbeat IPC: 0.4542 cumulative IPC: 0.4575 (Simulation time: 00 hr 45 min 57 sec)
Heartbeat CPU 0 instructions: 221501008 cycles: 389336357 heartbeat IPC: 0.4807 cumulative IPC: 0.4576 (Simulation time: 00 hr 46 min 04 sec)
Heartbeat CPU 0 instructions: 222001012 cycles: 390390025 heartbeat IPC: 0.4745 cumulative IPC: 0.4576 (Simulation time: 00 hr 46 min 11 sec)
Heartbeat CPU 0 instructions: 222501013 cycles: 391401926 heartbeat IPC: 0.4941 cumulative IPC: 0.4577 (Simulation time: 00 hr 46 min 17 sec)
Heartbeat CPU 0 instructions: 223001013 cycles: 392451469 heartbeat IPC: 0.4764 cumulative IPC: 0.4578 (Simulation time: 00 hr 46 min 24 sec)
Heartbeat CPU 0 instructions: 223501019 cycles: 393496009 heartbeat IPC: 0.4787 cumulative IPC: 0.4579 (Simulation time: 00 hr 46 min 31 sec)
Heartbeat CPU 0 instructions: 224001021 cycles: 395139030 heartbeat IPC: 0.3043 cumulative IPC: 0.4572 (Simulation time: 00 hr 46 min 40 sec)
Heartbeat CPU 0 instructions: 224501021 cycles: 396742618 heartbeat IPC: 0.3118 cumulative IPC: 0.4566 (Simulation time: 00 hr 46 min 49 sec)
Heartbeat CPU 0 instructions: 225001021 cycles: 397416848 heartbeat IPC: 0.7416 cumulative IPC: 0.4571 (Simulation time: 00 hr 46 min 54 sec)
Heartbeat CPU 0 instructions: 225501027 cycles: 397755797 heartbeat IPC: 1.475 cumulative IPC: 0.458 (Simulation time: 00 hr 46 min 56 sec)
Heartbeat CPU 0 instructions: 226001027 cycles: 398042746 heartbeat IPC: 1.742 cumulative IPC: 0.4589 (Simulation time: 00 hr 46 min 59 sec)
Heartbeat CPU 0 instructions: 226501027 cycles: 398649464 heartbeat IPC: 0.8241 cumulative IPC: 0.4595 (Simulation time: 00 hr 47 min 03 sec)
Heartbeat CPU 0 instructions: 227001028 cycles: 400696901 heartbeat IPC: 0.2442 cumulative IPC: 0.4584 (Simulation time: 00 hr 47 min 14 sec)
Heartbeat CPU 0 instructions: 227501033 cycles: 402164458 heartbeat IPC: 0.3407 cumulative IPC: 0.4579 (Simulation time: 00 hr 47 min 23 sec)
Heartbeat CPU 0 instructions: 228001033 cycles: 403304854 heartbeat IPC: 0.4384 cumulative IPC: 0.4579 (Simulation time: 00 hr 47 min 30 sec)
Heartbeat CPU 0 instructions: 228501033 cycles: 404859167 heartbeat IPC: 0.3217 cumulative IPC: 0.4573 (Simulation time: 00 hr 47 min 40 sec)
Heartbeat CPU 0 instructions: 229001036 cycles: 405989794 heartbeat IPC: 0.4422 cumulative IPC: 0.4573 (Simulation time: 00 hr 47 min 47 sec)
Heartbeat CPU 0 instructions: 229501036 cycles: 407177663 heartbeat IPC: 0.4209 cumulative IPC: 0.4572 (Simulation time: 00 hr 47 min 54 sec)
Heartbeat CPU 0 instructions: 230001036 cycles: 408065835 heartbeat IPC: 0.563 cumulative IPC: 0.4574 (Simulation time: 00 hr 48 min 00 sec)
Heartbeat CPU 0 instructions: 230501037 cycles: 408930863 heartbeat IPC: 0.578 cumulative IPC: 0.4577 (Simulation time: 00 hr 48 min 06 sec)
Heartbeat CPU 0 instructions: 231001038 cycles: 410536989 heartbeat IPC: 0.3113 cumulative IPC: 0.4571 (Simulation time: 00 hr 48 min 16 sec)
Heartbeat CPU 0 instructions: 231501038 cycles: 411894264 heartbeat IPC: 0.3684 cumulative IPC: 0.4568 (Simulation time: 00 hr 48 min 24 sec)
Heartbeat CPU 0 instructions: 232001041 cycles: 412997395 heartbeat IPC: 0.4533 cumulative IPC: 0.4568 (Simulation time: 00 hr 48 min 31 sec)
Heartbeat CPU 0 instructions: 232501041 cycles: 414268270 heartbeat IPC: 0.3934 cumulative IPC: 0.4566 (Simulation time: 00 hr 48 min 39 sec)
Heartbeat CPU 0 instructions: 233001043 cycles: 415420143 heartbeat IPC: 0.4341 cumulative IPC: 0.4565 (Simulation time: 00 hr 48 min 46 sec)
Heartbeat CPU 0 instructions: 233501045 cycles: 416869029 heartbeat IPC: 0.3451 cumulative IPC: 0.4561 (Simulation time: 00 hr 48 min 54 sec)
Heartbeat CPU 0 instructions: 234001052 cycles: 418600787 heartbeat IPC: 0.2887 cumulative IPC: 0.4554 (Simulation time: 00 hr 49 min 05 sec)
Heartbeat CPU 0 instructions: 234501052 cycles: 419803441 heartbeat IPC: 0.4157 cumulative IPC: 0.4553 (Simulation time: 00 hr 49 min 12 sec)
Heartbeat CPU 0 instructions: 235001053 cycles: 421346575 heartbeat IPC: 0.324 cumulative IPC: 0.4548 (Simulation time: 00 hr 49 min 22 sec)
Heartbeat CPU 0 instructions: 235501053 cycles: 422863088 heartbeat IPC: 0.3297 cumulative IPC: 0.4543 (Simulation time: 00 hr 49 min 31 sec)
Heartbeat CPU 0 instructions: 236001056 cycles: 423551233 heartbeat IPC: 0.7266 cumulative IPC: 0.4548 (Simulation time: 00 hr 49 min 36 sec)
Heartbeat CPU 0 instructions: 236501057 cycles: 425042317 heartbeat IPC: 0.3353 cumulative IPC: 0.4543 (Simulation time: 00 hr 49 min 45 sec)
Heartbeat CPU 0 instructions: 237001061 cycles: 426576405 heartbeat IPC: 0.3259 cumulative IPC: 0.4539 (Simulation time: 00 hr 49 min 54 sec)
Heartbeat CPU 0 instructions: 237501064 cycles: 428097789 heartbeat IPC: 0.3287 cumulative IPC: 0.4534 (Simulation time: 00 hr 50 min 03 sec)
Heartbeat CPU 0 instructions: 238001069 cycles: 430034841 heartbeat IPC: 0.2581 cumulative IPC: 0.4525 (Simulation time: 00 hr 50 min 15 sec)
Heartbeat CPU 0 instructions: 238501069 cycles: 431635442 heartbeat IPC: 0.3124 cumulative IPC: 0.4519 (Simulation time: 00 hr 50 min 24 sec)
Heartbeat CPU 0 instructions: 239001069 cycles: 432923277 heartbeat IPC: 0.3882 cumulative IPC: 0.4518 (Simulation time: 00 hr 50 min 32 sec)
Heartbeat CPU 0 instructions: 239501069 cycles: 434706320 heartbeat IPC: 0.2804 cumulative IPC: 0.451 (Simulation time: 00 hr 50 min 42 sec)
Heartbeat CPU 0 instructions: 240001070 cycles: 435994885 heartbeat IPC: 0.388 cumulative IPC: 0.4508 (Simulation time: 00 hr 50 min 50 sec)
Heartbeat CPU 0 instructions: 240501070 cycles: 437274045 heartbeat IPC: 0.3909 cumulative IPC: 0.4507 (Simulation time: 00 hr 50 min 58 sec)
Heartbeat CPU 0 instructions: 241001073 cycles: 438651580 heartbeat IPC: 0.363 cumulative IPC: 0.4504 (Simulation time: 00 hr 51 min 06 sec)
Heartbeat CPU 0 instructions: 241501075 cycles: 440068752 heartbeat IPC: 0.3528 cumulative IPC: 0.45 (Simulation time: 00 hr 51 min 14 sec)
Heartbeat CPU 0 instructions: 242001078 cycles: 441660501 heartbeat IPC: 0.3141 cumulative IPC: 0.4495 (Simulation time: 00 hr 51 min 24 sec)
Heartbeat CPU 0 instructions: 242501083 cycles: 442686775 heartbeat IPC: 0.4872 cumulative IPC: 0.4496 (Simulation time: 00 hr 51 min 30 sec)
Heartbeat CPU 0 instructions: 243001087 cycles: 443674755 heartbeat IPC: 0.5061 cumulative IPC: 0.4498 (Simulation time: 00 hr 51 min 37 sec)
Heartbeat CPU 0 instructions: 243501088 cycles: 445153888 heartbeat IPC: 0.338 cumulative IPC: 0.4494 (Simulation time: 00 hr 51 min 46 sec)
Heartbeat CPU 0 instructions: 244001092 cycles: 447030537 heartbeat IPC: 0.2664 cumulative IPC: 0.4486 (Simulation time: 00 hr 51 min 57 sec)
Heartbeat CPU 0 instructions: 244501092 cycles: 448488478 heartbeat IPC: 0.3429 cumulative IPC: 0.4482 (Simulation time: 00 hr 52 min 06 sec)
Heartbeat CPU 0 instructions: 245001092 cycles: 449586724 heartbeat IPC: 0.4553 cumulative IPC: 0.4482 (Simulation time: 00 hr 52 min 12 sec)
Heartbeat CPU 0 instructions: 245501092 cycles: 451263170 heartbeat IPC: 0.2982 cumulative IPC: 0.4477 (Simulation time: 00 hr 52 min 22 sec)
Heartbeat CPU 0 instructions: 246001098 cycles: 452441297 heartbeat IPC: 0.4244 cumulative IPC: 0.4476 (Simulation time: 00 hr 52 min 30 sec)
Heartbeat CPU 0 instructions: 246501098 cycles: 454508360 heartbeat IPC: 0.2419 cumulative IPC: 0.4466 (Simulation time: 00 hr 52 min 42 sec)
Heartbeat CPU 0 instructions: 247001098 cycles: 455767111 heartbeat IPC: 0.3972 cumulative IPC: 0.4465 (Simulation time: 00 hr 52 min 49 sec)
Heartbeat CPU 0 instructions: 247501101 cycles: 456873326 heartbeat IPC: 0.452 cumulative IPC: 0.4465 (Simulation time: 00 hr 52 min 56 sec)
Heartbeat CPU 0 instructions: 248001106 cycles: 457994418 heartbeat IPC: 0.446 cumulative IPC: 0.4465 (Simulation time: 00 hr 53 min 03 sec)
Heartbeat CPU 0 instructions: 248501108 cycles: 458415132 heartbeat IPC: 1.188 cumulative IPC: 0.4472 (Simulation time: 00 hr 53 min 06 sec)
Heartbeat CPU 0 instructions: 249001113 cycles: 458735490 heartbeat IPC: 1.561 cumulative IPC: 0.448 (Simulation time: 00 hr 53 min 09 sec)
Heartbeat CPU 0 instructions: 249501113 cycles: 459388167 heartbeat IPC: 0.7661 cumulative IPC: 0.4485 (Simulation time: 00 hr 53 min 13 sec)
Simulation finished CPU 0 instructions: 200000006 cycles: 446139387 cumulative IPC: 0.4483 (Simulation time: 00 hr 53 min 21 sec)
Simulation complete CPU 0 instructions: 200000006 cycles: 446139387 cumulative IPC: 0.4483 (Simulation time: 00 hr 53 min 21 sec)

ChampSim completed all CPUs

=== Simulation ===
CPU 0 runs /local-ssd/ben/dpc4-traces/gtraces_v2/sierra.a.3_0000.champsim.gz

Region of Interest Statistics

CPU 0 cumulative IPC: 0.4483 instructions: 200000006 cycles: 446139387
CPU 0 Branch Prediction Accuracy: 85.52% MPKI: 26.71 Average ROB Occupancy at Mispredict: 19.87
Branch type MPKI
BRANCH_DIRECT_JUMP: 2.572
BRANCH_INDIRECT: 0.2864
BRANCH_CONDITIONAL: 20
BRANCH_DIRECT_CALL: 2.006
BRANCH_INDIRECT_CALL: 0.4557
BRANCH_RETURN: 1.397

cpu0->cpu0_STLB TOTAL        ACCESS:    3545532 HIT:    2668950 MISS:     876582 MSHR_MERGE:          0
cpu0->cpu0_STLB LOAD         ACCESS:    3545532 HIT:    2668950 MISS:     876582 MSHR_MERGE:          0
cpu0->cpu0_STLB RFO          ACCESS:          0 HIT:          0 MISS:          0 MSHR_MERGE:          0
cpu0->cpu0_STLB PREFETCH     ACCESS:          0 HIT:          0 MISS:          0 MSHR_MERGE:          0
cpu0->cpu0_STLB WRITE        ACCESS:          0 HIT:          0 MISS:          0 MSHR_MERGE:          0
cpu0->cpu0_STLB TRANSLATION  ACCESS:          0 HIT:          0 MISS:          0 MSHR_MERGE:          0
cpu0->cpu0_STLB PREFETCH REQUESTED:          0 ISSUED:          0 USEFUL:          0 USELESS:          0
cpu0->cpu0_STLB AVERAGE MISS LATENCY: 136.9 cycles
cpu0->cpu0_L2C TOTAL        ACCESS:   43181995 HIT:   33309953 MISS:    9872042 MSHR_MERGE:    3514285
cpu0->cpu0_L2C LOAD         ACCESS:    9333690 HIT:    7605386 MISS:    1728304 MSHR_MERGE:     255277
cpu0->cpu0_L2C RFO          ACCESS:    1013852 HIT:     565741 MISS:     448111 MSHR_MERGE:       3675
cpu0->cpu0_L2C PREFETCH     ACCESS:   29987513 HIT:   22719929 MISS:    7267584 MSHR_MERGE:    3255333
cpu0->cpu0_L2C WRITE        ACCESS:    1896269 HIT:    1896163 MISS:        106 MSHR_MERGE:          0
cpu0->cpu0_L2C TRANSLATION  ACCESS:     950671 HIT:     522734 MISS:     427937 MSHR_MERGE:          0
cpu0->cpu0_L2C PREFETCH REQUESTED:   33886907 ISSUED:   28568453 USEFUL:    1817247 USELESS:    1645132
cpu0->cpu0_L2C AVERAGE MISS LATENCY: 187.3 cycles
cpu0->cpu0_L1I TOTAL        ACCESS:   20612696 HIT:   11747248 MISS:    8865448 MSHR_MERGE:    2129411
cpu0->cpu0_L1I LOAD         ACCESS:   20612696 HIT:   11747248 MISS:    8865448 MSHR_MERGE:    2129411
cpu0->cpu0_L1I RFO          ACCESS:          0 HIT:          0 MISS:          0 MSHR_MERGE:          0
cpu0->cpu0_L1I PREFETCH     ACCESS:          0 HIT:          0 MISS:          0 MSHR_MERGE:          0
cpu0->cpu0_L1I WRITE        ACCESS:          0 HIT:          0 MISS:          0 MSHR_MERGE:          0
cpu0->cpu0_L1I TRANSLATION  ACCESS:          0 HIT:          0 MISS:          0 MSHR_MERGE:          0
cpu0->cpu0_L1I PREFETCH REQUESTED:          0 ISSUED:          0 USEFUL:          0 USELESS:          0
cpu0->cpu0_L1I AVERAGE MISS LATENCY: 26.24 cycles
cpu0->cpu0_L1D TOTAL        ACCESS:   66466977 HIT:   57448632 MISS:    9018345 MSHR_MERGE:    3037027
cpu0->cpu0_L1D LOAD         ACCESS:   35842548 HIT:   32456232 MISS:    3386316 MSHR_MERGE:     788633
cpu0->cpu0_L1D RFO          ACCESS:          0 HIT:          0 MISS:          0 MSHR_MERGE:          0
cpu0->cpu0_L1D PREFETCH     ACCESS:    2959128 HIT:    1469367 MISS:    1489761 MSHR_MERGE:      70685
cpu0->cpu0_L1D WRITE        ACCESS:   25398692 HIT:   22214757 MISS:    3183935 MSHR_MERGE:    2170047
cpu0->cpu0_L1D TRANSLATION  ACCESS:    2266609 HIT:    1308276 MISS:     958333 MSHR_MERGE:       7662
cpu0->cpu0_L1D PREFETCH REQUESTED:    3050754 ISSUED:    2959124 USEFUL:     562490 USELESS:     856583
cpu0->cpu0_L1D AVERAGE MISS LATENCY: 88 cycles
cpu0->cpu0_ITLB TOTAL        ACCESS:   16710180 HIT:   15687554 MISS:    1022626 MSHR_MERGE:     481534
cpu0->cpu0_ITLB LOAD         ACCESS:   16710180 HIT:   15687554 MISS:    1022626 MSHR_MERGE:     481534
cpu0->cpu0_ITLB RFO          ACCESS:          0 HIT:          0 MISS:          0 MSHR_MERGE:          0
cpu0->cpu0_ITLB PREFETCH     ACCESS:          0 HIT:          0 MISS:          0 MSHR_MERGE:          0
cpu0->cpu0_ITLB WRITE        ACCESS:          0 HIT:          0 MISS:          0 MSHR_MERGE:          0
cpu0->cpu0_ITLB TRANSLATION  ACCESS:          0 HIT:          0 MISS:          0 MSHR_MERGE:          0
cpu0->cpu0_ITLB PREFETCH REQUESTED:          0 ISSUED:          0 USEFUL:          0 USELESS:          0
cpu0->cpu0_ITLB AVERAGE MISS LATENCY: 25.47 cycles
cpu0->cpu0_DTLB TOTAL        ACCESS:   61149069 HIT:   56362936 MISS:    4786133 MSHR_MERGE:    1781693
cpu0->cpu0_DTLB LOAD         ACCESS:   61149069 HIT:   56362936 MISS:    4786133 MSHR_MERGE:    1781693
cpu0->cpu0_DTLB RFO          ACCESS:          0 HIT:          0 MISS:          0 MSHR_MERGE:          0
cpu0->cpu0_DTLB PREFETCH     ACCESS:          0 HIT:          0 MISS:          0 MSHR_MERGE:          0
cpu0->cpu0_DTLB WRITE        ACCESS:          0 HIT:          0 MISS:          0 MSHR_MERGE:          0
cpu0->cpu0_DTLB TRANSLATION  ACCESS:          0 HIT:          0 MISS:          0 MSHR_MERGE:          0
cpu0->cpu0_DTLB PREFETCH REQUESTED:          0 ISSUED:          0 USEFUL:          0 USELESS:          0
cpu0->cpu0_DTLB AVERAGE MISS LATENCY: 41.55 cycles
cpu0->LLC TOTAL        ACCESS:    7294715 HIT:    2293800 MISS:    5000915 MSHR_MERGE:          0
cpu0->LLC LOAD         ACCESS:    1473027 HIT:     440283 MISS:    1032744 MSHR_MERGE:          0
cpu0->LLC RFO          ACCESS:     444436 HIT:      30318 MISS:     414118 MSHR_MERGE:          0
cpu0->LLC PREFETCH     ACCESS:    4012251 HIT:    1075728 MISS:    2936523 MSHR_MERGE:          0
cpu0->LLC WRITE        ACCESS:     937064 HIT:     639884 MISS:     297180 MSHR_MERGE:          0
cpu0->LLC TRANSLATION  ACCESS:     427937 HIT:     107587 MISS:     320350 MSHR_MERGE:          0
cpu0->LLC PREFETCH REQUESTED:          0 ISSUED:          0 USEFUL:          0 USELESS:          0
cpu0->LLC AVERAGE MISS LATENCY: 195.9 cycles

DRAM Statistics

Channel 0 RQ ROW_BUFFER_HIT:     166325
  ROW_BUFFER_MISS:    4537273
  AVG DBUS CONGESTED CYCLE: 22.24
Channel 0 WQ ROW_BUFFER_HIT:     247688
  ROW_BUFFER_MISS:     613240
  FULL:          0
Channel 0 REFRESHES ISSUED:      37176
