[VMEM] WARNING: physical memory size is smaller than virtual memory size.

*** ChampSim Multicore Out-of-Order Simulator ***
Warmup Instructions: 50000000
Simulation Instructions: 200000000
Number of CPUs: 1
Page size: 4096
Core 0: /local-ssd/ben/dpc4-traces/SPEC17/605.mcf_s-1536B.champsimtrace.xz
 L1D Berti prefetcher
Off-chip DRAM Size: 64 GiB Channels: 1 Width: 64-bit Data Rate: 4807 MT/s
Heartbeat CPU 0 instructions: 500006 cycles: 213500 heartbeat IPC: 2.342 cumulative IPC: 2.342 (Simulation time: 00 hr 00 min 05 sec)
Heartbeat CPU 0 instructions: 1000008 cycles: 336601 heartbeat IPC: 4.062 cumulative IPC: 2.971 (Simulation time: 00 hr 00 min 07 sec)
Heartbeat CPU 0 instructions: 1500014 cycles: 458930 heartbeat IPC: 4.087 cumulative IPC: 3.269 (Simulation time: 00 hr 00 min 09 sec)
Heartbeat CPU 0 instructions: 2000017 cycles: 581550 heartbeat IPC: 4.078 cumulative IPC: 3.439 (Simulation time: 00 hr 00 min 11 sec)
Heartbeat CPU 0 instructions: 2500021 cycles: 704018 heartbeat IPC: 4.083 cumulative IPC: 3.551 (Simulation time: 00 hr 00 min 14 sec)
Heartbeat CPU 0 instructions: 3000024 cycles: 826048 heartbeat IPC: 4.097 cumulative IPC: 3.632 (Simulation time: 00 hr 00 min 16 sec)
Heartbeat CPU 0 instructions: 3500029 cycles: 948465 heartbeat IPC: 4.084 cumulative IPC: 3.69 (Simulation time: 00 hr 00 min 18 sec)
Heartbeat CPU 0 instructions: 4000033 cycles: 1070686 heartbeat IPC: 4.091 cumulative IPC: 3.736 (Simulation time: 00 hr 00 min 20 sec)
Heartbeat CPU 0 instructions: 4500035 cycles: 1192978 heartbeat IPC: 4.089 cumulative IPC: 3.772 (Simulation time: 00 hr 00 min 23 sec)
Heartbeat CPU 0 instructions: 5000042 cycles: 1315268 heartbeat IPC: 4.089 cumulative IPC: 3.802 (Simulation time: 00 hr 00 min 25 sec)
Heartbeat CPU 0 instructions: 5500042 cycles: 1443128 heartbeat IPC: 3.911 cumulative IPC: 3.811 (Simulation time: 00 hr 00 min 27 sec)
Heartbeat CPU 0 instructions: 6000049 cycles: 1567356 heartbeat IPC: 4.025 cumulative IPC: 3.828 (Simulation time: 00 hr 00 min 30 sec)
Heartbeat CPU 0 instructions: 6500053 cycles: 1689441 heartbeat IPC: 4.096 cumulative IPC: 3.847 (Simulation time: 00 hr 00 min 32 sec)
Heartbeat CPU 0 instructions: 7000055 cycles: 1811395 heartbeat IPC: 4.1 cumulative IPC: 3.864 (Simulation time: 00 hr 00 min 34 sec)
Heartbeat CPU 0 instructions: 7500061 cycles: 1933304 heartbeat IPC: 4.101 cumulative IPC: 3.879 (Simulation time: 00 hr 00 min 37 sec)
Heartbeat CPU 0 instructions: 8000062 cycles: 2054760 heartbeat IPC: 4.117 cumulative IPC: 3.893 (Simulation time: 00 hr 00 min 39 sec)
Heartbeat CPU 0 instructions: 8500067 cycles: 2176674 heartbeat IPC: 4.101 cumulative IPC: 3.905 (Simulation time: 00 hr 00 min 41 sec)
Heartbeat CPU 0 instructions: 9000074 cycles: 2298561 heartbeat IPC: 4.102 cumulative IPC: 3.916 (Simulation time: 00 hr 00 min 43 sec)
Heartbeat CPU 0 instructions: 9500079 cycles: 2420354 heartbeat IPC: 4.105 cumulative IPC: 3.925 (Simulation time: 00 hr 00 min 46 sec)
Heartbeat CPU 0 instructions: 10000079 cycles: 2542018 heartbeat IPC: 4.11 cumulative IPC: 3.934 (Simulation time: 00 hr 00 min 48 sec)
Heartbeat CPU 0 instructions: 10500081 cycles: 2663816 heartbeat IPC: 4.105 cumulative IPC: 3.942 (Simulation time: 00 hr 00 min 50 sec)
Heartbeat CPU 0 instructions: 11000088 cycles: 2785568 heartbeat IPC: 4.107 cumulative IPC: 3.949 (Simulation time: 00 hr 00 min 53 sec)
Heartbeat CPU 0 instructions: 11500095 cycles: 2907657 heartbeat IPC: 4.095 cumulative IPC: 3.955 (Simulation time: 00 hr 00 min 55 sec)
Heartbeat CPU 0 instructions: 12000095 cycles: 3029201 heartbeat IPC: 4.114 cumulative IPC: 3.961 (Simulation time: 00 hr 00 min 57 sec)
Heartbeat CPU 0 instructions: 12500097 cycles: 3150839 heartbeat IPC: 4.111 cumulative IPC: 3.967 (Simulation time: 00 hr 00 min 59 sec)
Heartbeat CPU 0 instructions: 13000099 cycles: 3272580 heartbeat IPC: 4.107 cumulative IPC: 3.972 (Simulation time: 00 hr 01 min 02 sec)
Heartbeat CPU 0 instructions: 13500102 cycles: 3394490 heartbeat IPC: 4.101 cumulative IPC: 3.977 (Simulation time: 00 hr 01 min 04 sec)
Heartbeat CPU 0 instructions: 14000104 cycles: 3516002 heartbeat IPC: 4.115 cumulative IPC: 3.982 (Simulation time: 00 hr 01 min 06 sec)
Heartbeat CPU 0 instructions: 14500109 cycles: 3637723 heartbeat IPC: 4.108 cumulative IPC: 3.986 (Simulation time: 00 hr 01 min 08 sec)
Heartbeat CPU 0 instructions: 15000114 cycles: 3759734 heartbeat IPC: 4.098 cumulative IPC: 3.99 (Simulation time: 00 hr 01 min 11 sec)
Heartbeat CPU 0 instructions: 15500121 cycles: 3881346 heartbeat IPC: 4.111 cumulative IPC: 3.993 (Simulation time: 00 hr 01 min 13 sec)
Heartbeat CPU 0 instructions: 16000123 cycles: 4002748 heartbeat IPC: 4.119 cumulative IPC: 3.997 (Simulation time: 00 hr 01 min 15 sec)
Heartbeat CPU 0 instructions: 16500127 cycles: 4124849 heartbeat IPC: 4.095 cumulative IPC: 4 (Simulation time: 00 hr 01 min 18 sec)
Heartbeat CPU 0 instructions: 17000128 cycles: 4246450 heartbeat IPC: 4.112 cumulative IPC: 4.003 (Simulation time: 00 hr 01 min 20 sec)
Heartbeat CPU 0 instructions: 17500130 cycles: 4367912 heartbeat IPC: 4.117 cumulative IPC: 4.007 (Simulation time: 00 hr 01 min 22 sec)
Heartbeat CPU 0 instructions: 18000131 cycles: 4489699 heartbeat IPC: 4.106 cumulative IPC: 4.009 (Simulation time: 00 hr 01 min 25 sec)
Heartbeat CPU 0 instructions: 18500138 cycles: 4611317 heartbeat IPC: 4.111 cumulative IPC: 4.012 (Simulation time: 00 hr 01 min 27 sec)
Heartbeat CPU 0 instructions: 19000138 cycles: 4732995 heartbeat IPC: 4.109 cumulative IPC: 4.014 (Simulation time: 00 hr 01 min 30 sec)
Heartbeat CPU 0 instructions: 19500145 cycles: 4854545 heartbeat IPC: 4.114 cumulative IPC: 4.017 (Simulation time: 00 hr 01 min 32 sec)
Heartbeat CPU 0 instructions: 20000150 cycles: 4976434 heartbeat IPC: 4.102 cumulative IPC: 4.019 (Simulation time: 00 hr 01 min 34 sec)
Heartbeat CPU 0 instructions: 20500157 cycles: 5098228 heartbeat IPC: 4.105 cumulative IPC: 4.021 (Simulation time: 00 hr 01 min 37 sec)
Heartbeat CPU 0 instructions: 21000157 cycles: 5219636 heartbeat IPC: 4.118 cumulative IPC: 4.023 (Simulation time: 00 hr 01 min 39 sec)
Heartbeat CPU 0 instructions: 21500159 cycles: 5341370 heartbeat IPC: 4.107 cumulative IPC: 4.025 (Simulation time: 00 hr 01 min 41 sec)
Heartbeat CPU 0 instructions: 22000166 cycles: 5463079 heartbeat IPC: 4.108 cumulative IPC: 4.027 (Simulation time: 00 hr 01 min 44 sec)
Heartbeat CPU 0 instructions: 22500170 cycles: 5584756 heartbeat IPC: 4.109 cumulative IPC: 4.029 (Simulation time: 00 hr 01 min 46 sec)
Heartbeat CPU 0 instructions: 23000173 cycles: 5706453 heartbeat IPC: 4.109 cumulative IPC: 4.031 (Simulation time: 00 hr 01 min 49 sec)
Heartbeat CPU 0 instructions: 23500180 cycles: 5828399 heartbeat IPC: 4.1 cumulative IPC: 4.032 (Simulation time: 00 hr 01 min 51 sec)
Heartbeat CPU 0 instructions: 24000181 cycles: 5950043 heartbeat IPC: 4.11 cumulative IPC: 4.034 (Simulation time: 00 hr 01 min 53 sec)
Heartbeat CPU 0 instructions: 24500186 cycles: 6071502 heartbeat IPC: 4.117 cumulative IPC: 4.035 (Simulation time: 00 hr 01 min 56 sec)
Heartbeat CPU 0 instructions: 25000192 cycles: 6193345 heartbeat IPC: 4.104 cumulative IPC: 4.037 (Simulation time: 00 hr 01 min 58 sec)
Heartbeat CPU 0 instructions: 25500199 cycles: 6315147 heartbeat IPC: 4.105 cumulative IPC: 4.038 (Simulation time: 00 hr 02 min 01 sec)
Heartbeat CPU 0 instructions: 26000199 cycles: 6436660 heartbeat IPC: 4.115 cumulative IPC: 4.039 (Simulation time: 00 hr 02 min 03 sec)
Heartbeat CPU 0 instructions: 26500204 cycles: 6558115 heartbeat IPC: 4.117 cumulative IPC: 4.041 (Simulation time: 00 hr 02 min 05 sec)
Heartbeat CPU 0 instructions: 27000207 cycles: 6680220 heartbeat IPC: 4.095 cumulative IPC: 4.042 (Simulation time: 00 hr 02 min 08 sec)
Heartbeat CPU 0 instructions: 27500208 cycles: 6801675 heartbeat IPC: 4.117 cumulative IPC: 4.043 (Simulation time: 00 hr 02 min 10 sec)
Heartbeat CPU 0 instructions: 28000209 cycles: 6923248 heartbeat IPC: 4.113 cumulative IPC: 4.044 (Simulation time: 00 hr 02 min 13 sec)
Heartbeat CPU 0 instructions: 28500210 cycles: 7045069 heartbeat IPC: 4.104 cumulative IPC: 4.045 (Simulation time: 00 hr 02 min 15 sec)
Heartbeat CPU 0 instructions: 29000216 cycles: 7166631 heartbeat IPC: 4.113 cumulative IPC: 4.047 (Simulation time: 00 hr 02 min 17 sec)
Heartbeat CPU 0 instructions: 29500216 cycles: 7288422 heartbeat IPC: 4.105 cumulative IPC: 4.048 (Simulation time: 00 hr 02 min 20 sec)
Heartbeat CPU 0 instructions: 30000222 cycles: 7410109 heartbeat IPC: 4.109 cumulative IPC: 4.049 (Simulation time: 00 hr 02 min 22 sec)
Heartbeat CPU 0 instructions: 30500229 cycles: 7531628 heartbeat IPC: 4.115 cumulative IPC: 4.05 (Simulation time: 00 hr 02 min 25 sec)
Heartbeat CPU 0 instructions: 31000232 cycles: 7653463 heartbeat IPC: 4.104 cumulative IPC: 4.05 (Simulation time: 00 hr 02 min 27 sec)
Heartbeat CPU 0 instructions: 31500233 cycles: 7775216 heartbeat IPC: 4.107 cumulative IPC: 4.051 (Simulation time: 00 hr 02 min 30 sec)
Heartbeat CPU 0 instructions: 32000233 cycles: 7896812 heartbeat IPC: 4.112 cumulative IPC: 4.052 (Simulation time: 00 hr 02 min 32 sec)
Heartbeat CPU 0 instructions: 32500240 cycles: 8018328 heartbeat IPC: 4.115 cumulative IPC: 4.053 (Simulation time: 00 hr 02 min 34 sec)
Heartbeat CPU 0 instructions: 33000240 cycles: 8140145 heartbeat IPC: 4.105 cumulative IPC: 4.054 (Simulation time: 00 hr 02 min 37 sec)
Heartbeat CPU 0 instructions: 33500242 cycles: 8261921 heartbeat IPC: 4.106 cumulative IPC: 4.055 (Simulation time: 00 hr 02 min 39 sec)
Heartbeat CPU 0 instructions: 34000248 cycles: 8383623 heartbeat IPC: 4.108 cumulative IPC: 4.056 (Simulation time: 00 hr 02 min 42 sec)
Heartbeat CPU 0 instructions: 34500254 cycles: 8507295 heartbeat IPC: 4.043 cumulative IPC: 4.055 (Simulation time: 00 hr 02 min 44 sec)
Heartbeat CPU 0 instructions: 35000259 cycles: 8631733 heartbeat IPC: 4.018 cumulative IPC: 4.055 (Simulation time: 00 hr 02 min 47 sec)
Heartbeat CPU 0 instructions: 35500261 cycles: 8755907 heartbeat IPC: 4.027 cumulative IPC: 4.054 (Simulation time: 00 hr 02 min 49 sec)
Heartbeat CPU 0 instructions: 36000261 cycles: 8883361 heartbeat IPC: 3.923 cumulative IPC: 4.053 (Simulation time: 00 hr 02 min 52 sec)
Heartbeat CPU 0 instructions: 36500263 cycles: 9010871 heartbeat IPC: 3.921 cumulative IPC: 4.051 (Simulation time: 00 hr 02 min 54 sec)
Heartbeat CPU 0 instructions: 37000267 cycles: 9134402 heartbeat IPC: 4.048 cumulative IPC: 4.051 (Simulation time: 00 hr 02 min 57 sec)
Heartbeat CPU 0 instructions: 37500274 cycles: 9255702 heartbeat IPC: 4.122 cumulative IPC: 4.052 (Simulation time: 00 hr 02 min 59 sec)
Heartbeat CPU 0 instructions: 38000278 cycles: 9377603 heartbeat IPC: 4.102 cumulative IPC: 4.052 (Simulation time: 00 hr 03 min 01 sec)
Heartbeat CPU 0 instructions: 38500283 cycles: 9499234 heartbeat IPC: 4.111 cumulative IPC: 4.053 (Simulation time: 00 hr 03 min 04 sec)
Heartbeat CPU 0 instructions: 39000284 cycles: 9620919 heartbeat IPC: 4.109 cumulative IPC: 4.054 (Simulation time: 00 hr 03 min 06 sec)
Heartbeat CPU 0 instructions: 39500288 cycles: 9742394 heartbeat IPC: 4.116 cumulative IPC: 4.054 (Simulation time: 00 hr 03 min 08 sec)
Heartbeat CPU 0 instructions: 40000295 cycles: 9864231 heartbeat IPC: 4.104 cumulative IPC: 4.055 (Simulation time: 00 hr 03 min 11 sec)
Heartbeat CPU 0 instructions: 40500302 cycles: 9986052 heartbeat IPC: 4.104 cumulative IPC: 4.056 (Simulation time: 00 hr 03 min 13 sec)
Heartbeat CPU 0 instructions: 41000303 cycles: 10107674 heartbeat IPC: 4.111 cumulative IPC: 4.056 (Simulation time: 00 hr 03 min 16 sec)
Heartbeat CPU 0 instructions: 41500309 cycles: 10229733 heartbeat IPC: 4.096 cumulative IPC: 4.057 (Simulation time: 00 hr 03 min 18 sec)
Heartbeat CPU 0 instructions: 42000312 cycles: 10351922 heartbeat IPC: 4.092 cumulative IPC: 4.057 (Simulation time: 00 hr 03 min 21 sec)
Heartbeat CPU 0 instructions: 42500317 cycles: 10473501 heartbeat IPC: 4.113 cumulative IPC: 4.058 (Simulation time: 00 hr 03 min 23 sec)
Heartbeat CPU 0 instructions: 43000318 cycles: 10595176 heartbeat IPC: 4.109 cumulative IPC: 4.058 (Simulation time: 00 hr 03 min 25 sec)
Heartbeat CPU 0 instructions: 43500324 cycles: 10716989 heartbeat IPC: 4.105 cumulative IPC: 4.059 (Simulation time: 00 hr 03 min 28 sec)
Heartbeat CPU 0 instructions: 44000325 cycles: 10838818 heartbeat IPC: 4.104 cumulative IPC: 4.06 (Simulation time: 00 hr 03 min 30 sec)
Heartbeat CPU 0 instructions: 44500330 cycles: 10960443 heartbeat IPC: 4.111 cumulative IPC: 4.06 (Simulation time: 00 hr 03 min 33 sec)
Heartbeat CPU 0 instructions: 45000337 cycles: 11082384 heartbeat IPC: 4.1 cumulative IPC: 4.061 (Simulation time: 00 hr 03 min 35 sec)
Heartbeat CPU 0 instructions: 45500337 cycles: 11203902 heartbeat IPC: 4.115 cumulative IPC: 4.061 (Simulation time: 00 hr 03 min 38 sec)
Heartbeat CPU 0 instructions: 46000341 cycles: 11326112 heartbeat IPC: 4.091 cumulative IPC: 4.061 (Simulation time: 00 hr 03 min 40 sec)
Heartbeat CPU 0 instructions: 46500342 cycles: 11447554 heartbeat IPC: 4.117 cumulative IPC: 4.062 (Simulation time: 00 hr 03 min 43 sec)
Heartbeat CPU 0 instructions: 47000345 cycles: 11569544 heartbeat IPC: 4.099 cumulative IPC: 4.062 (Simulation time: 00 hr 03 min 45 sec)
Heartbeat CPU 0 instructions: 47500352 cycles: 11691235 heartbeat IPC: 4.109 cumulative IPC: 4.063 (Simulation time: 00 hr 03 min 48 sec)
Heartbeat CPU 0 instructions: 48000358 cycles: 11812899 heartbeat IPC: 4.11 cumulative IPC: 4.063 (Simulation time: 00 hr 03 min 50 sec)
Heartbeat CPU 0 instructions: 48500362 cycles: 11934611 heartbeat IPC: 4.108 cumulative IPC: 4.064 (Simulation time: 00 hr 03 min 52 sec)
Heartbeat CPU 0 instructions: 49000362 cycles: 12056451 heartbeat IPC: 4.104 cumulative IPC: 4.064 (Simulation time: 00 hr 03 min 55 sec)
Heartbeat CPU 0 instructions: 49500363 cycles: 12178173 heartbeat IPC: 4.108 cumulative IPC: 4.065 (Simulation time: 00 hr 03 min 57 sec)
Warmup finished CPU 0 instructions: 50000001 cycles: 12299723 cumulative IPC: 4.065 (Simulation time: 00 hr 04 min 00 sec)
Warmup complete CPU 0 instructions: 50000001 cycles: 12299723 cumulative IPC: 4.065 (Simulation time: 00 hr 04 min 00 sec)
Heartbeat CPU 0 instructions: 50000366 cycles: 12300159 heartbeat IPC: 4.099 cumulative IPC: 0.8372 (Simulation time: 00 hr 04 min 00 sec)
Heartbeat CPU 0 instructions: 50500373 cycles: 13060932 heartbeat IPC: 0.6572 cumulative IPC: 0.6573 (Simulation time: 00 hr 04 min 10 sec)
Heartbeat CPU 0 instructions: 51000374 cycles: 13792983 heartbeat IPC: 0.683 cumulative IPC: 0.6699 (Simulation time: 00 hr 04 min 19 sec)
Heartbeat CPU 0 instructions: 51500374 cycles: 14529828 heartbeat IPC: 0.6786 cumulative IPC: 0.6728 (Simulation time: 00 hr 04 min 28 sec)
Heartbeat CPU 0 instructions: 52000375 cycles: 15257300 heartbeat IPC: 0.6873 cumulative IPC: 0.6764 (Simulation time: 00 hr 04 min 37 sec)
Heartbeat CPU 0 instructions: 52500379 cycles: 15992191 heartbeat IPC: 0.6804 cumulative IPC: 0.6772 (Simulation time: 00 hr 04 min 47 sec)
Heartbeat CPU 0 instructions: 53000382 cycles: 16727750 heartbeat IPC: 0.6798 cumulative IPC: 0.6776 (Simulation time: 00 hr 04 min 56 sec)
Heartbeat CPU 0 instructions: 53500385 cycles: 17475687 heartbeat IPC: 0.6685 cumulative IPC: 0.6763 (Simulation time: 00 hr 05 min 05 sec)
Heartbeat CPU 0 instructions: 54000385 cycles: 18207723 heartbeat IPC: 0.683 cumulative IPC: 0.6771 (Simulation time: 00 hr 05 min 15 sec)
Heartbeat CPU 0 instructions: 54500392 cycles: 18942591 heartbeat IPC: 0.6804 cumulative IPC: 0.6775 (Simulation time: 00 hr 05 min 24 sec)
Heartbeat CPU 0 instructions: 55000399 cycles: 19672589 heartbeat IPC: 0.6849 cumulative IPC: 0.6782 (Simulation time: 00 hr 05 min 33 sec)
Heartbeat CPU 0 instructions: 55500405 cycles: 20417829 heartbeat IPC: 0.6709 cumulative IPC: 0.6775 (Simulation time: 00 hr 05 min 43 sec)
Heartbeat CPU 0 instructions: 56000407 cycles: 21145143 heartbeat IPC: 0.6875 cumulative IPC: 0.6784 (Simulation time: 00 hr 05 min 52 sec)
Heartbeat CPU 0 instructions: 56500408 cycles: 21876077 heartbeat IPC: 0.6841 cumulative IPC: 0.6788 (Simulation time: 00 hr 06 min 01 sec)
Heartbeat CPU 0 instructions: 57000409 cycles: 22619919 heartbeat IPC: 0.6722 cumulative IPC: 0.6783 (Simulation time: 00 hr 06 min 10 sec)
Heartbeat CPU 0 instructions: 57500416 cycles: 23355723 heartbeat IPC: 0.6795 cumulative IPC: 0.6784 (Simulation time: 00 hr 06 min 20 sec)
Heartbeat CPU 0 instructions: 58000416 cycles: 24100815 heartbeat IPC: 0.6711 cumulative IPC: 0.6779 (Simulation time: 00 hr 06 min 29 sec)
Heartbeat CPU 0 instructions: 58500416 cycles: 24828743 heartbeat IPC: 0.6869 cumulative IPC: 0.6785 (Simulation time: 00 hr 06 min 38 sec)
Heartbeat CPU 0 instructions: 59000418 cycles: 25569306 heartbeat IPC: 0.6752 cumulative IPC: 0.6783 (Simulation time: 00 hr 06 min 47 sec)
Heartbeat CPU 0 instructions: 59500418 cycles: 26309235 heartbeat IPC: 0.6757 cumulative IPC: 0.6781 (Simulation time: 00 hr 06 min 57 sec)
Heartbeat CPU 0 instructions: 60000422 cycles: 27047224 heartbeat IPC: 0.6775 cumulative IPC: 0.6781 (Simulation time: 00 hr 07 min 06 sec)
Heartbeat CPU 0 instructions: 60500429 cycles: 27774111 heartbeat IPC: 0.6879 cumulative IPC: 0.6786 (Simulation time: 00 hr 07 min 15 sec)
Heartbeat CPU 0 instructions: 61000435 cycles: 28507312 heartbeat IPC: 0.6819 cumulative IPC: 0.6787 (Simulation time: 00 hr 07 min 24 sec)
Heartbeat CPU 0 instructions: 61500438 cycles: 29239209 heartbeat IPC: 0.6832 cumulative IPC: 0.6789 (Simulation time: 00 hr 07 min 33 sec)
Heartbeat CPU 0 instructions: 62000442 cycles: 29971879 heartbeat IPC: 0.6824 cumulative IPC: 0.6791 (Simulation time: 00 hr 07 min 43 sec)
Heartbeat CPU 0 instructions: 62500446 cycles: 30701685 heartbeat IPC: 0.6851 cumulative IPC: 0.6793 (Simulation time: 00 hr 07 min 52 sec)
Heartbeat CPU 0 instructions: 63000448 cycles: 31437329 heartbeat IPC: 0.6797 cumulative IPC: 0.6793 (Simulation time: 00 hr 08 min 01 sec)
Heartbeat CPU 0 instructions: 63500450 cycles: 32169932 heartbeat IPC: 0.6825 cumulative IPC: 0.6794 (Simulation time: 00 hr 08 min 10 sec)
Heartbeat CPU 0 instructions: 64000450 cycles: 32904176 heartbeat IPC: 0.681 cumulative IPC: 0.6795 (Simulation time: 00 hr 08 min 20 sec)
Heartbeat CPU 0 instructions: 64500454 cycles: 33637760 heartbeat IPC: 0.6816 cumulative IPC: 0.6796 (Simulation time: 00 hr 08 min 29 sec)
Heartbeat CPU 0 instructions: 65000456 cycles: 34373528 heartbeat IPC: 0.6796 cumulative IPC: 0.6796 (Simulation time: 00 hr 08 min 38 sec)
Heartbeat CPU 0 instructions: 65500456 cycles: 35097597 heartbeat IPC: 0.6905 cumulative IPC: 0.6799 (Simulation time: 00 hr 08 min 47 sec)
Heartbeat CPU 0 instructions: 66000463 cycles: 35834281 heartbeat IPC: 0.6787 cumulative IPC: 0.6799 (Simulation time: 00 hr 08 min 57 sec)
Heartbeat CPU 0 instructions: 66500464 cycles: 36569977 heartbeat IPC: 0.6796 cumulative IPC: 0.6799 (Simulation time: 00 hr 09 min 06 sec)
Heartbeat CPU 0 instructions: 67000464 cycles: 37304900 heartbeat IPC: 0.6803 cumulative IPC: 0.6799 (Simulation time: 00 hr 09 min 15 sec)
Heartbeat CPU 0 instructions: 67500469 cycles: 38050576 heartbeat IPC: 0.6705 cumulative IPC: 0.6796 (Simulation time: 00 hr 09 min 24 sec)
Heartbeat CPU 0 instructions: 68000472 cycles: 38781567 heartbeat IPC: 0.684 cumulative IPC: 0.6797 (Simulation time: 00 hr 09 min 34 sec)
Heartbeat CPU 0 instructions: 68500478 cycles: 39512946 heartbeat IPC: 0.6836 cumulative IPC: 0.6798 (Simulation time: 00 hr 09 min 43 sec)
Heartbeat CPU 0 instructions: 69000484 cycles: 40268197 heartbeat IPC: 0.662 cumulative IPC: 0.6794 (Simulation time: 00 hr 09 min 52 sec)
Heartbeat CPU 0 instructions: 69500489 cycles: 41007937 heartbeat IPC: 0.6759 cumulative IPC: 0.6793 (Simulation time: 00 hr 10 min 02 sec)
Heartbeat CPU 0 instructions: 70000493 cycles: 41736456 heartbeat IPC: 0.6863 cumulative IPC: 0.6794 (Simulation time: 00 hr 10 min 11 sec)
Heartbeat CPU 0 instructions: 70500494 cycles: 42467954 heartbeat IPC: 0.6835 cumulative IPC: 0.6795 (Simulation time: 00 hr 10 min 20 sec)
Heartbeat CPU 0 instructions: 71000496 cycles: 43206969 heartbeat IPC: 0.6766 cumulative IPC: 0.6795 (Simulation time: 00 hr 10 min 29 sec)
Heartbeat CPU 0 instructions: 71500501 cycles: 43946200 heartbeat IPC: 0.6764 cumulative IPC: 0.6794 (Simulation time: 00 hr 10 min 38 sec)
Heartbeat CPU 0 instructions: 72000507 cycles: 44681080 heartbeat IPC: 0.6804 cumulative IPC: 0.6794 (Simulation time: 00 hr 10 min 48 sec)
Heartbeat CPU 0 instructions: 72500513 cycles: 45438915 heartbeat IPC: 0.6598 cumulative IPC: 0.679 (Simulation time: 00 hr 10 min 57 sec)
Heartbeat CPU 0 instructions: 73000514 cycles: 46166945 heartbeat IPC: 0.6868 cumulative IPC: 0.6791 (Simulation time: 00 hr 11 min 06 sec)
Heartbeat CPU 0 instructions: 73500514 cycles: 46900720 heartbeat IPC: 0.6814 cumulative IPC: 0.6792 (Simulation time: 00 hr 11 min 15 sec)
Heartbeat CPU 0 instructions: 74000520 cycles: 47628695 heartbeat IPC: 0.6868 cumulative IPC: 0.6793 (Simulation time: 00 hr 11 min 24 sec)
Heartbeat CPU 0 instructions: 74500527 cycles: 48357476 heartbeat IPC: 0.6861 cumulative IPC: 0.6795 (Simulation time: 00 hr 11 min 34 sec)
Heartbeat CPU 0 instructions: 75000530 cycles: 49088132 heartbeat IPC: 0.6843 cumulative IPC: 0.6796 (Simulation time: 00 hr 11 min 43 sec)
Heartbeat CPU 0 instructions: 75500537 cycles: 49828862 heartbeat IPC: 0.675 cumulative IPC: 0.6795 (Simulation time: 00 hr 11 min 52 sec)
Heartbeat CPU 0 instructions: 76000543 cycles: 50554969 heartbeat IPC: 0.6886 cumulative IPC: 0.6797 (Simulation time: 00 hr 12 min 01 sec)
Heartbeat CPU 0 instructions: 76500543 cycles: 51298282 heartbeat IPC: 0.6727 cumulative IPC: 0.6795 (Simulation time: 00 hr 12 min 10 sec)
Heartbeat CPU 0 instructions: 77000543 cycles: 52061215 heartbeat IPC: 0.6554 cumulative IPC: 0.6791 (Simulation time: 00 hr 12 min 20 sec)
Heartbeat CPU 0 instructions: 77500544 cycles: 52790517 heartbeat IPC: 0.6856 cumulative IPC: 0.6792 (Simulation time: 00 hr 12 min 29 sec)
Heartbeat CPU 0 instructions: 78000548 cycles: 53529148 heartbeat IPC: 0.6769 cumulative IPC: 0.6791 (Simulation time: 00 hr 12 min 38 sec)
Heartbeat CPU 0 instructions: 78500552 cycles: 54266794 heartbeat IPC: 0.6778 cumulative IPC: 0.6791 (Simulation time: 00 hr 12 min 47 sec)
Heartbeat CPU 0 instructions: 79000552 cycles: 55002188 heartbeat IPC: 0.6799 cumulative IPC: 0.6791 (Simulation time: 00 hr 12 min 56 sec)
Heartbeat CPU 0 instructions: 79500552 cycles: 55736351 heartbeat IPC: 0.681 cumulative IPC: 0.6792 (Simulation time: 00 hr 13 min 05 sec)
Heartbeat CPU 0 instructions: 80000559 cycles: 56469123 heartbeat IPC: 0.6824 cumulative IPC: 0.6792 (Simulation time: 00 hr 13 min 15 sec)
Heartbeat CPU 0 instructions: 80500559 cycles: 57202896 heartbeat IPC: 0.6814 cumulative IPC: 0.6793 (Simulation time: 00 hr 13 min 24 sec)
Heartbeat CPU 0 instructions: 81000560 cycles: 57937637 heartbeat IPC: 0.6805 cumulative IPC: 0.6793 (Simulation time: 00 hr 13 min 33 sec)
Heartbeat CPU 0 instructions: 81500560 cycles: 58694318 heartbeat IPC: 0.6608 cumulative IPC: 0.679 (Simulation time: 00 hr 13 min 42 sec)
Heartbeat CPU 0 instructions: 82000564 cycles: 59426223 heartbeat IPC: 0.6832 cumulative IPC: 0.679 (Simulation time: 00 hr 13 min 52 sec)
Heartbeat CPU 0 instructions: 82500564 cycles: 60150099 heartbeat IPC: 0.6907 cumulative IPC: 0.6792 (Simulation time: 00 hr 14 min 01 sec)
Heartbeat CPU 0 instructions: 83000571 cycles: 60884120 heartbeat IPC: 0.6812 cumulative IPC: 0.6792 (Simulation time: 00 hr 14 min 10 sec)
Heartbeat CPU 0 instructions: 83500577 cycles: 61626939 heartbeat IPC: 0.6731 cumulative IPC: 0.6791 (Simulation time: 00 hr 14 min 19 sec)
Heartbeat CPU 0 instructions: 84000580 cycles: 62359143 heartbeat IPC: 0.6829 cumulative IPC: 0.6792 (Simulation time: 00 hr 14 min 29 sec)
Heartbeat CPU 0 instructions: 84500587 cycles: 63090945 heartbeat IPC: 0.6833 cumulative IPC: 0.6793 (Simulation time: 00 hr 14 min 38 sec)
Heartbeat CPU 0 instructions: 85000587 cycles: 63822358 heartbeat IPC: 0.6836 cumulative IPC: 0.6793 (Simulation time: 00 hr 14 min 47 sec)
Heartbeat CPU 0 instructions: 85500588 cycles: 64562701 heartbeat IPC: 0.6754 cumulative IPC: 0.6793 (Simulation time: 00 hr 14 min 56 sec)
Heartbeat CPU 0 instructions: 86000588 cycles: 65295792 heartbeat IPC: 0.682 cumulative IPC: 0.6793 (Simulation time: 00 hr 15 min 06 sec)
Heartbeat CPU 0 instructions: 86500589 cycles: 66026870 heartbeat IPC: 0.6839 cumulative IPC: 0.6794 (Simulation time: 00 hr 15 min 15 sec)
Heartbeat CPU 0 instructions: 87000596 cycles: 66773752 heartbeat IPC: 0.6695 cumulative IPC: 0.6792 (Simulation time: 00 hr 15 min 24 sec)
Heartbeat CPU 0 instructions: 87500596 cycles: 67508590 heartbeat IPC: 0.6804 cumulative IPC: 0.6792 (Simulation time: 00 hr 15 min 34 sec)
Heartbeat CPU 0 instructions: 88000603 cycles: 68240720 heartbeat IPC: 0.6829 cumulative IPC: 0.6793 (Simulation time: 00 hr 15 min 43 sec)
Heartbeat CPU 0 instructions: 88500604 cycles: 69009257 heartbeat IPC: 0.6506 cumulative IPC: 0.6789 (Simulation time: 00 hr 15 min 53 sec)
Heartbeat CPU 0 instructions: 89000608 cycles: 69745955 heartbeat IPC: 0.6787 cumulative IPC: 0.6789 (Simulation time: 00 hr 16 min 02 sec)
Heartbeat CPU 0 instructions: 89500615 cycles: 70476819 heartbeat IPC: 0.6841 cumulative IPC: 0.679 (Simulation time: 00 hr 16 min 11 sec)
Heartbeat CPU 0 instructions: 90000616 cycles: 71208642 heartbeat IPC: 0.6832 cumulative IPC: 0.679 (Simulation time: 00 hr 16 min 20 sec)
Heartbeat CPU 0 instructions: 90500617 cycles: 71945989 heartbeat IPC: 0.6781 cumulative IPC: 0.679 (Simulation time: 00 hr 16 min 29 sec)
Heartbeat CPU 0 instructions: 91000623 cycles: 72685919 heartbeat IPC: 0.6757 cumulative IPC: 0.679 (Simulation time: 00 hr 16 min 39 sec)
Heartbeat CPU 0 instructions: 91500623 cycles: 73423648 heartbeat IPC: 0.6778 cumulative IPC: 0.679 (Simulation time: 00 hr 16 min 48 sec)
Heartbeat CPU 0 instructions: 92000625 cycles: 74157722 heartbeat IPC: 0.6811 cumulative IPC: 0.679 (Simulation time: 00 hr 16 min 57 sec)
Heartbeat CPU 0 instructions: 92500625 cycles: 74898560 heartbeat IPC: 0.6749 cumulative IPC: 0.6789 (Simulation time: 00 hr 17 min 07 sec)
Heartbeat CPU 0 instructions: 93000626 cycles: 75631417 heartbeat IPC: 0.6823 cumulative IPC: 0.679 (Simulation time: 00 hr 17 min 16 sec)
Heartbeat CPU 0 instructions: 93500630 cycles: 76369562 heartbeat IPC: 0.6774 cumulative IPC: 0.679 (Simulation time: 00 hr 17 min 25 sec)
Heartbeat CPU 0 instructions: 94000632 cycles: 77107904 heartbeat IPC: 0.6772 cumulative IPC: 0.6789 (Simulation time: 00 hr 17 min 34 sec)
Heartbeat CPU 0 instructions: 94500632 cycles: 77872822 heartbeat IPC: 0.6537 cumulative IPC: 0.6786 (Simulation time: 00 hr 17 min 44 sec)
Heartbeat CPU 0 instructions: 95000632 cycles: 78603086 heartbeat IPC: 0.6847 cumulative IPC: 0.6787 (Simulation time: 00 hr 17 min 53 sec)
Heartbeat CPU 0 instructions: 95500632 cycles: 79334123 heartbeat IPC: 0.684 cumulative IPC: 0.6788 (Simulation time: 00 hr 18 min 02 sec)
Heartbeat CPU 0 instructions: 96000639 cycles: 80068767 heartbeat IPC: 0.6806 cumulative IPC: 0.6788 (Simulation time: 00 hr 18 min 12 sec)
Heartbeat CPU 0 instructions: 96500640 cycles: 80804586 heartbeat IPC: 0.6795 cumulative IPC: 0.6788 (Simulation time: 00 hr 18 min 21 sec)
Heartbeat CPU 0 instructions: 97000640 cycles: 81536214 heartbeat IPC: 0.6834 cumulative IPC: 0.6788 (Simulation time: 00 hr 18 min 30 sec)
Heartbeat CPU 0 instructions: 97500641 cycles: 82266695 heartbeat IPC: 0.6845 cumulative IPC: 0.6789 (Simulation time: 00 hr 18 min 39 sec)
Heartbeat CPU 0 instructions: 98000643 cycles: 83000483 heartbeat IPC: 0.6814 cumulative IPC: 0.6789 (Simulation time: 00 hr 18 min 48 sec)
Heartbeat CPU 0 instructions: 98500647 cycles: 83734084 heartbeat IPC: 0.6816 cumulative IPC: 0.679 (Simulation time: 00 hr 18 min 57 sec)
Heartbeat CPU 0 instructions: 99000652 cycles: 84463295 heartbeat IPC: 0.6857 cumulative IPC: 0.679 (Simulation time: 00 hr 19 min 06 sec)
Heartbeat CPU 0 instructions: 99500653 cycles: 85201102 heartbeat IPC: 0.6777 cumulative IPC: 0.679 (Simulation time: 00 hr 19 min 16 sec)
Heartbeat CPU 0 instructions: 100000653 cycles: 85972330 heartbeat IPC: 0.6483 cumulative IPC: 0.6787 (Simulation time: 00 hr 19 min 25 sec)
Heartbeat CPU 0 instructions: 100500656 cycles: 86697022 heartbeat IPC: 0.69 cumulative IPC: 0.6788 (Simulation time: 00 hr 19 min 34 sec)
Heartbeat CPU 0 instructions: 101000659 cycles: 87430873 heartbeat IPC: 0.6813 cumulative IPC: 0.6788 (Simulation time: 00 hr 19 min 43 sec)
Heartbeat CPU 0 instructions: 101500660 cycles: 88164916 heartbeat IPC: 0.6812 cumulative IPC: 0.6788 (Simulation time: 00 hr 19 min 52 sec)
Heartbeat CPU 0 instructions: 102000664 cycles: 88897088 heartbeat IPC: 0.6829 cumulative IPC: 0.6789 (Simulation time: 00 hr 20 min 01 sec)
Heartbeat CPU 0 instructions: 102500666 cycles: 89636294 heartbeat IPC: 0.6764 cumulative IPC: 0.6789 (Simulation time: 00 hr 20 min 10 sec)
Heartbeat CPU 0 instructions: 103000670 cycles: 90369899 heartbeat IPC: 0.6816 cumulative IPC: 0.6789 (Simulation time: 00 hr 20 min 19 sec)
Heartbeat CPU 0 instructions: 103500670 cycles: 91112426 heartbeat IPC: 0.6734 cumulative IPC: 0.6788 (Simulation time: 00 hr 20 min 29 sec)
Heartbeat CPU 0 instructions: 104000677 cycles: 91845282 heartbeat IPC: 0.6823 cumulative IPC: 0.6789 (Simulation time: 00 hr 20 min 38 sec)
Heartbeat CPU 0 instructions: 104500683 cycles: 92588388 heartbeat IPC: 0.6729 cumulative IPC: 0.6788 (Simulation time: 00 hr 20 min 47 sec)
Heartbeat CPU 0 instructions: 105000686 cycles: 93321090 heartbeat IPC: 0.6824 cumulative IPC: 0.6788 (Simulation time: 00 hr 20 min 56 sec)
Heartbeat CPU 0 instructions: 105500690 cycles: 94056731 heartbeat IPC: 0.6797 cumulative IPC: 0.6788 (Simulation time: 00 hr 21 min 05 sec)
Heartbeat CPU 0 instructions: 106000691 cycles: 94790705 heartbeat IPC: 0.6812 cumulative IPC: 0.6789 (Simulation time: 00 hr 21 min 14 sec)
Heartbeat CPU 0 instructions: 106500694 cycles: 95532741 heartbeat IPC: 0.6738 cumulative IPC: 0.6788 (Simulation time: 00 hr 21 min 23 sec)
Heartbeat CPU 0 instructions: 107000694 cycles: 96276162 heartbeat IPC: 0.6726 cumulative IPC: 0.6788 (Simulation time: 00 hr 21 min 32 sec)
Heartbeat CPU 0 instructions: 107500701 cycles: 97016681 heartbeat IPC: 0.6752 cumulative IPC: 0.6787 (Simulation time: 00 hr 21 min 41 sec)
Heartbeat CPU 0 instructions: 108000707 cycles: 97748911 heartbeat IPC: 0.6829 cumulative IPC: 0.6788 (Simulation time: 00 hr 21 min 50 sec)
Heartbeat CPU 0 instructions: 108500714 cycles: 98477677 heartbeat IPC: 0.6861 cumulative IPC: 0.6788 (Simulation time: 00 hr 21 min 59 sec)
Heartbeat CPU 0 instructions: 109000719 cycles: 99215474 heartbeat IPC: 0.6777 cumulative IPC: 0.6788 (Simulation time: 00 hr 22 min 08 sec)
Heartbeat CPU 0 instructions: 109500725 cycles: 99947140 heartbeat IPC: 0.6834 cumulative IPC: 0.6789 (Simulation time: 00 hr 22 min 16 sec)
Heartbeat CPU 0 instructions: 110000726 cycles: 100682131 heartbeat IPC: 0.6803 cumulative IPC: 0.6789 (Simulation time: 00 hr 22 min 25 sec)
Heartbeat CPU 0 instructions: 110500726 cycles: 101422305 heartbeat IPC: 0.6755 cumulative IPC: 0.6788 (Simulation time: 00 hr 22 min 34 sec)
Heartbeat CPU 0 instructions: 111000727 cycles: 102157045 heartbeat IPC: 0.6805 cumulative IPC: 0.6789 (Simulation time: 00 hr 22 min 43 sec)
Heartbeat CPU 0 instructions: 111500734 cycles: 102889933 heartbeat IPC: 0.6822 cumulative IPC: 0.6789 (Simulation time: 00 hr 22 min 52 sec)
Heartbeat CPU 0 instructions: 112000734 cycles: 103618190 heartbeat IPC: 0.6866 cumulative IPC: 0.679 (Simulation time: 00 hr 23 min 01 sec)
Heartbeat CPU 0 instructions: 112500735 cycles: 104390707 heartbeat IPC: 0.6472 cumulative IPC: 0.6787 (Simulation time: 00 hr 23 min 10 sec)
Heartbeat CPU 0 instructions: 113000737 cycles: 105122586 heartbeat IPC: 0.6832 cumulative IPC: 0.6787 (Simulation time: 00 hr 23 min 18 sec)
Heartbeat CPU 0 instructions: 113500744 cycles: 105860978 heartbeat IPC: 0.6772 cumulative IPC: 0.6787 (Simulation time: 00 hr 23 min 27 sec)
Heartbeat CPU 0 instructions: 114000751 cycles: 106597705 heartbeat IPC: 0.6787 cumulative IPC: 0.6787 (Simulation time: 00 hr 23 min 36 sec)
Heartbeat CPU 0 instructions: 114500757 cycles: 107356344 heartbeat IPC: 0.6591 cumulative IPC: 0.6786 (Simulation time: 00 hr 23 min 45 sec)
Heartbeat CPU 0 instructions: 115000758 cycles: 108090804 heartbeat IPC: 0.6808 cumulative IPC: 0.6786 (Simulation time: 00 hr 23 min 54 sec)
Heartbeat CPU 0 instructions: 115500758 cycles: 108826774 heartbeat IPC: 0.6794 cumulative IPC: 0.6786 (Simulation time: 00 hr 24 min 02 sec)
Heartbeat CPU 0 instructions: 116000762 cycles: 109560255 heartbeat IPC: 0.6817 cumulative IPC: 0.6786 (Simulation time: 00 hr 24 min 11 sec)
Heartbeat CPU 0 instructions: 116500768 cycles: 110300762 heartbeat IPC: 0.6752 cumulative IPC: 0.6786 (Simulation time: 00 hr 24 min 20 sec)
Heartbeat CPU 0 instructions: 117000774 cycles: 111035395 heartbeat IPC: 0.6806 cumulative IPC: 0.6786 (Simulation time: 00 hr 24 min 29 sec)
Heartbeat CPU 0 instructions: 117500774 cycles: 111770123 heartbeat IPC: 0.6805 cumulative IPC: 0.6786 (Simulation time: 00 hr 24 min 37 sec)
Heartbeat CPU 0 instructions: 118000775 cycles: 112545844 heartbeat IPC: 0.6446 cumulative IPC: 0.6783 (Simulation time: 00 hr 24 min 46 sec)
Heartbeat CPU 0 instructions: 118500781 cycles: 113279166 heartbeat IPC: 0.6818 cumulative IPC: 0.6784 (Simulation time: 00 hr 24 min 55 sec)
Heartbeat CPU 0 instructions: 119000784 cycles: 114011776 heartbeat IPC: 0.6825 cumulative IPC: 0.6784 (Simulation time: 00 hr 25 min 04 sec)
Heartbeat CPU 0 instructions: 119500788 cycles: 114742166 heartbeat IPC: 0.6846 cumulative IPC: 0.6784 (Simulation time: 00 hr 25 min 12 sec)
Heartbeat CPU 0 instructions: 120000792 cycles: 115477650 heartbeat IPC: 0.6798 cumulative IPC: 0.6784 (Simulation time: 00 hr 25 min 21 sec)
Heartbeat CPU 0 instructions: 120500792 cycles: 116216821 heartbeat IPC: 0.6764 cumulative IPC: 0.6784 (Simulation time: 00 hr 25 min 29 sec)
Heartbeat CPU 0 instructions: 121000799 cycles: 116950691 heartbeat IPC: 0.6813 cumulative IPC: 0.6785 (Simulation time: 00 hr 25 min 38 sec)
Heartbeat CPU 0 instructions: 121500799 cycles: 117688690 heartbeat IPC: 0.6775 cumulative IPC: 0.6784 (Simulation time: 00 hr 25 min 47 sec)
Heartbeat CPU 0 instructions: 122000800 cycles: 118420211 heartbeat IPC: 0.6835 cumulative IPC: 0.6785 (Simulation time: 00 hr 25 min 55 sec)
Heartbeat CPU 0 instructions: 122500803 cycles: 119162962 heartbeat IPC: 0.6732 cumulative IPC: 0.6784 (Simulation time: 00 hr 26 min 04 sec)
Heartbeat CPU 0 instructions: 123000807 cycles: 119895771 heartbeat IPC: 0.6823 cumulative IPC: 0.6785 (Simulation time: 00 hr 26 min 12 sec)
Heartbeat CPU 0 instructions: 123500809 cycles: 120631221 heartbeat IPC: 0.6799 cumulative IPC: 0.6785 (Simulation time: 00 hr 26 min 21 sec)
Heartbeat CPU 0 instructions: 124000816 cycles: 121366013 heartbeat IPC: 0.6805 cumulative IPC: 0.6785 (Simulation time: 00 hr 26 min 29 sec)
Heartbeat CPU 0 instructions: 124500816 cycles: 122102930 heartbeat IPC: 0.6785 cumulative IPC: 0.6785 (Simulation time: 00 hr 26 min 38 sec)
Heartbeat CPU 0 instructions: 125000823 cycles: 122842533 heartbeat IPC: 0.676 cumulative IPC: 0.6785 (Simulation time: 00 hr 26 min 46 sec)
Heartbeat CPU 0 instructions: 125500824 cycles: 123593431 heartbeat IPC: 0.6659 cumulative IPC: 0.6784 (Simulation time: 00 hr 26 min 55 sec)
Heartbeat CPU 0 instructions: 126000828 cycles: 124328089 heartbeat IPC: 0.6806 cumulative IPC: 0.6784 (Simulation time: 00 hr 27 min 03 sec)
Heartbeat CPU 0 instructions: 126500831 cycles: 125066866 heartbeat IPC: 0.6768 cumulative IPC: 0.6784 (Simulation time: 00 hr 27 min 12 sec)
Heartbeat CPU 0 instructions: 127000832 cycles: 125801221 heartbeat IPC: 0.6809 cumulative IPC: 0.6784 (Simulation time: 00 hr 27 min 20 sec)
Heartbeat CPU 0 instructions: 127500832 cycles: 126542307 heartbeat IPC: 0.6747 cumulative IPC: 0.6784 (Simulation time: 00 hr 27 min 29 sec)
Heartbeat CPU 0 instructions: 128000839 cycles: 127277644 heartbeat IPC: 0.68 cumulative IPC: 0.6784 (Simulation time: 00 hr 27 min 37 sec)
Heartbeat CPU 0 instructions: 128500840 cycles: 128020381 heartbeat IPC: 0.6732 cumulative IPC: 0.6784 (Simulation time: 00 hr 27 min 45 sec)
Heartbeat CPU 0 instructions: 129000840 cycles: 128759491 heartbeat IPC: 0.6765 cumulative IPC: 0.6784 (Simulation time: 00 hr 27 min 54 sec)
Heartbeat CPU 0 instructions: 129500840 cycles: 129505766 heartbeat IPC: 0.67 cumulative IPC: 0.6783 (Simulation time: 00 hr 28 min 02 sec)
Heartbeat CPU 0 instructions: 130000843 cycles: 130275977 heartbeat IPC: 0.6492 cumulative IPC: 0.6781 (Simulation time: 00 hr 28 min 11 sec)
Heartbeat CPU 0 instructions: 130500845 cycles: 131010551 heartbeat IPC: 0.6807 cumulative IPC: 0.6781 (Simulation time: 00 hr 28 min 19 sec)
Heartbeat CPU 0 instructions: 131000852 cycles: 131751371 heartbeat IPC: 0.6749 cumulative IPC: 0.6781 (Simulation time: 00 hr 28 min 27 sec)
Heartbeat CPU 0 instructions: 131500852 cycles: 132480729 heartbeat IPC: 0.6855 cumulative IPC: 0.6782 (Simulation time: 00 hr 28 min 36 sec)
Heartbeat CPU 0 instructions: 132000859 cycles: 133223676 heartbeat IPC: 0.673 cumulative IPC: 0.6781 (Simulation time: 00 hr 28 min 44 sec)
Heartbeat CPU 0 instructions: 132500865 cycles: 133967842 heartbeat IPC: 0.6719 cumulative IPC: 0.6781 (Simulation time: 00 hr 28 min 52 sec)
Heartbeat CPU 0 instructions: 133000868 cycles: 134705973 heartbeat IPC: 0.6774 cumulative IPC: 0.6781 (Simulation time: 00 hr 29 min 00 sec)
Heartbeat CPU 0 instructions: 133500872 cycles: 135451658 heartbeat IPC: 0.6705 cumulative IPC: 0.678 (Simulation time: 00 hr 29 min 08 sec)
Heartbeat CPU 0 instructions: 134000872 cycles: 136191941 heartbeat IPC: 0.6754 cumulative IPC: 0.678 (Simulation time: 00 hr 29 min 17 sec)
Heartbeat CPU 0 instructions: 134500876 cycles: 136934899 heartbeat IPC: 0.673 cumulative IPC: 0.678 (Simulation time: 00 hr 29 min 25 sec)
Heartbeat CPU 0 instructions: 135000877 cycles: 137676463 heartbeat IPC: 0.6743 cumulative IPC: 0.678 (Simulation time: 00 hr 29 min 33 sec)
Heartbeat CPU 0 instructions: 135500884 cycles: 138416697 heartbeat IPC: 0.6755 cumulative IPC: 0.6779 (Simulation time: 00 hr 29 min 41 sec)
Heartbeat CPU 0 instructions: 136000885 cycles: 139189759 heartbeat IPC: 0.6468 cumulative IPC: 0.6778 (Simulation time: 00 hr 29 min 49 sec)
Heartbeat CPU 0 instructions: 136500888 cycles: 139922852 heartbeat IPC: 0.682 cumulative IPC: 0.6778 (Simulation time: 00 hr 29 min 58 sec)
Heartbeat CPU 0 instructions: 137000895 cycles: 140658166 heartbeat IPC: 0.68 cumulative IPC: 0.6778 (Simulation time: 00 hr 30 min 06 sec)
Heartbeat CPU 0 instructions: 137500896 cycles: 141390488 heartbeat IPC: 0.6828 cumulative IPC: 0.6778 (Simulation time: 00 hr 30 min 14 sec)
Heartbeat CPU 0 instructions: 138000902 cycles: 142157082 heartbeat IPC: 0.6522 cumulative IPC: 0.6777 (Simulation time: 00 hr 30 min 22 sec)
Heartbeat CPU 0 instructions: 138500902 cycles: 142886594 heartbeat IPC: 0.6854 cumulative IPC: 0.6777 (Simulation time: 00 hr 30 min 30 sec)
Heartbeat CPU 0 instructions: 139000909 cycles: 143619652 heartbeat IPC: 0.6821 cumulative IPC: 0.6777 (Simulation time: 00 hr 30 min 38 sec)
Heartbeat CPU 0 instructions: 139500909 cycles: 144368049 heartbeat IPC: 0.6681 cumulative IPC: 0.6777 (Simulation time: 00 hr 30 min 47 sec)
Heartbeat CPU 0 instructions: 140000909 cycles: 145124485 heartbeat IPC: 0.661 cumulative IPC: 0.6776 (Simulation time: 00 hr 30 min 55 sec)
Heartbeat CPU 0 instructions: 140500909 cycles: 145855796 heartbeat IPC: 0.6837 cumulative IPC: 0.6776 (Simulation time: 00 hr 31 min 03 sec)
Heartbeat CPU 0 instructions: 141000911 cycles: 146588700 heartbeat IPC: 0.6822 cumulative IPC: 0.6776 (Simulation time: 00 hr 31 min 11 sec)
Heartbeat CPU 0 instructions: 141500911 cycles: 147326166 heartbeat IPC: 0.678 cumulative IPC: 0.6777 (Simulation time: 00 hr 31 min 19 sec)
Heartbeat CPU 0 instructions: 142000912 cycles: 148058742 heartbeat IPC: 0.6825 cumulative IPC: 0.6777 (Simulation time: 00 hr 31 min 27 sec)
Heartbeat CPU 0 instructions: 142500914 cycles: 148805350 heartbeat IPC: 0.6697 cumulative IPC: 0.6776 (Simulation time: 00 hr 31 min 35 sec)
Heartbeat CPU 0 instructions: 143000914 cycles: 149563703 heartbeat IPC: 0.6593 cumulative IPC: 0.6775 (Simulation time: 00 hr 31 min 44 sec)
Heartbeat CPU 0 instructions: 143500916 cycles: 150295441 heartbeat IPC: 0.6833 cumulative IPC: 0.6776 (Simulation time: 00 hr 31 min 52 sec)
Heartbeat CPU 0 instructions: 144000922 cycles: 151031019 heartbeat IPC: 0.6797 cumulative IPC: 0.6776 (Simulation time: 00 hr 32 min 00 sec)
Heartbeat CPU 0 instructions: 144500929 cycles: 151777946 heartbeat IPC: 0.6694 cumulative IPC: 0.6775 (Simulation time: 00 hr 32 min 08 sec)
Heartbeat CPU 0 instructions: 145000934 cycles: 152520752 heartbeat IPC: 0.6731 cumulative IPC: 0.6775 (Simulation time: 00 hr 32 min 16 sec)
Heartbeat CPU 0 instructions: 145500938 cycles: 153263250 heartbeat IPC: 0.6734 cumulative IPC: 0.6775 (Simulation time: 00 hr 32 min 25 sec)
Heartbeat CPU 0 instructions: 146000941 cycles: 154015533 heartbeat IPC: 0.6646 cumulative IPC: 0.6774 (Simulation time: 00 hr 32 min 33 sec)
Heartbeat CPU 0 instructions: 146500948 cycles: 154770874 heartbeat IPC: 0.662 cumulative IPC: 0.6773 (Simulation time: 00 hr 32 min 41 sec)
Heartbeat CPU 0 instructions: 147000955 cycles: 155504475 heartbeat IPC: 0.6816 cumulative IPC: 0.6774 (Simulation time: 00 hr 32 min 49 sec)
Heartbeat CPU 0 instructions: 147500956 cycles: 156241715 heartbeat IPC: 0.6782 cumulative IPC: 0.6774 (Simulation time: 00 hr 32 min 57 sec)
Heartbeat CPU 0 instructions: 148000958 cycles: 156989575 heartbeat IPC: 0.6686 cumulative IPC: 0.6773 (Simulation time: 00 hr 33 min 06 sec)
Heartbeat CPU 0 instructions: 148500960 cycles: 157729728 heartbeat IPC: 0.6755 cumulative IPC: 0.6773 (Simulation time: 00 hr 33 min 14 sec)
Heartbeat CPU 0 instructions: 149000965 cycles: 158465985 heartbeat IPC: 0.6791 cumulative IPC: 0.6773 (Simulation time: 00 hr 33 min 22 sec)
Heartbeat CPU 0 instructions: 149500972 cycles: 159213811 heartbeat IPC: 0.6686 cumulative IPC: 0.6773 (Simulation time: 00 hr 33 min 30 sec)
Heartbeat CPU 0 instructions: 150000972 cycles: 159963135 heartbeat IPC: 0.6673 cumulative IPC: 0.6772 (Simulation time: 00 hr 33 min 38 sec)
Heartbeat CPU 0 instructions: 150500977 cycles: 160700860 heartbeat IPC: 0.6778 cumulative IPC: 0.6772 (Simulation time: 00 hr 33 min 47 sec)
Heartbeat CPU 0 instructions: 151000980 cycles: 161439324 heartbeat IPC: 0.6771 cumulative IPC: 0.6772 (Simulation time: 00 hr 33 min 55 sec)
Heartbeat CPU 0 instructions: 151500980 cycles: 162185372 heartbeat IPC: 0.6702 cumulative IPC: 0.6772 (Simulation time: 00 hr 34 min 03 sec)
Heartbeat CPU 0 instructions: 152000987 cycles: 162928421 heartbeat IPC: 0.6729 cumulative IPC: 0.6772 (Simulation time: 00 hr 34 min 11 sec)
Heartbeat CPU 0 instructions: 152500988 cycles: 163665171 heartbeat IPC: 0.6787 cumulative IPC: 0.6772 (Simulation time: 00 hr 34 min 19 sec)
Heartbeat CPU 0 instructions: 153000988 cycles: 164408778 heartbeat IPC: 0.6724 cumulative IPC: 0.6772 (Simulation time: 00 hr 34 min 28 sec)
Heartbeat CPU 0 instructions: 153500995 cycles: 165153197 heartbeat IPC: 0.6717 cumulative IPC: 0.6771 (Simulation time: 00 hr 34 min 36 sec)
Heartbeat CPU 0 instructions: 154000996 cycles: 165894190 heartbeat IPC: 0.6748 cumulative IPC: 0.6771 (Simulation time: 00 hr 34 min 44 sec)
Heartbeat CPU 0 instructions: 154500996 cycles: 166641361 heartbeat IPC: 0.6692 cumulative IPC: 0.6771 (Simulation time: 00 hr 34 min 52 sec)
Heartbeat CPU 0 instructions: 155000996 cycles: 167385702 heartbeat IPC: 0.6717 cumulative IPC: 0.6771 (Simulation time: 00 hr 35 min 00 sec)
Heartbeat CPU 0 instructions: 155501003 cycles: 168125804 heartbeat IPC: 0.6756 cumulative IPC: 0.677 (Simulation time: 00 hr 35 min 09 sec)
Heartbeat CPU 0 instructions: 156001004 cycles: 168876125 heartbeat IPC: 0.6664 cumulative IPC: 0.677 (Simulation time: 00 hr 35 min 17 sec)
Heartbeat CPU 0 instructions: 156501006 cycles: 169620212 heartbeat IPC: 0.672 cumulative IPC: 0.677 (Simulation time: 00 hr 35 min 25 sec)
Heartbeat CPU 0 instructions: 157001011 cycles: 170361635 heartbeat IPC: 0.6744 cumulative IPC: 0.677 (Simulation time: 00 hr 35 min 33 sec)
Heartbeat CPU 0 instructions: 157501011 cycles: 171109759 heartbeat IPC: 0.6683 cumulative IPC: 0.6769 (Simulation time: 00 hr 35 min 42 sec)
Heartbeat CPU 0 instructions: 158001012 cycles: 171858127 heartbeat IPC: 0.6681 cumulative IPC: 0.6769 (Simulation time: 00 hr 35 min 50 sec)
Heartbeat CPU 0 instructions: 158501012 cycles: 172597921 heartbeat IPC: 0.6759 cumulative IPC: 0.6769 (Simulation time: 00 hr 35 min 58 sec)
Heartbeat CPU 0 instructions: 159001019 cycles: 173348349 heartbeat IPC: 0.6663 cumulative IPC: 0.6768 (Simulation time: 00 hr 36 min 06 sec)
Heartbeat CPU 0 instructions: 159501022 cycles: 174086323 heartbeat IPC: 0.6775 cumulative IPC: 0.6768 (Simulation time: 00 hr 36 min 15 sec)
Heartbeat CPU 0 instructions: 160001028 cycles: 174829937 heartbeat IPC: 0.6724 cumulative IPC: 0.6768 (Simulation time: 00 hr 36 min 23 sec)
Heartbeat CPU 0 instructions: 160501035 cycles: 175577302 heartbeat IPC: 0.669 cumulative IPC: 0.6768 (Simulation time: 00 hr 36 min 31 sec)
Heartbeat CPU 0 instructions: 161001041 cycles: 176319569 heartbeat IPC: 0.6736 cumulative IPC: 0.6768 (Simulation time: 00 hr 36 min 39 sec)
Heartbeat CPU 0 instructions: 161501044 cycles: 177062309 heartbeat IPC: 0.6732 cumulative IPC: 0.6767 (Simulation time: 00 hr 36 min 47 sec)
Heartbeat CPU 0 instructions: 162001044 cycles: 177809713 heartbeat IPC: 0.669 cumulative IPC: 0.6767 (Simulation time: 00 hr 36 min 56 sec)
Heartbeat CPU 0 instructions: 162501051 cycles: 178555153 heartbeat IPC: 0.6708 cumulative IPC: 0.6767 (Simulation time: 00 hr 37 min 04 sec)
Heartbeat CPU 0 instructions: 163001052 cycles: 179291658 heartbeat IPC: 0.6789 cumulative IPC: 0.6767 (Simulation time: 00 hr 37 min 12 sec)
Heartbeat CPU 0 instructions: 163501059 cycles: 180032826 heartbeat IPC: 0.6746 cumulative IPC: 0.6767 (Simulation time: 00 hr 37 min 20 sec)
Heartbeat CPU 0 instructions: 164001059 cycles: 180777306 heartbeat IPC: 0.6716 cumulative IPC: 0.6767 (Simulation time: 00 hr 37 min 28 sec)
Heartbeat CPU 0 instructions: 164501060 cycles: 181522302 heartbeat IPC: 0.6711 cumulative IPC: 0.6766 (Simulation time: 00 hr 37 min 37 sec)
Heartbeat CPU 0 instructions: 165001060 cycles: 182257015 heartbeat IPC: 0.6805 cumulative IPC: 0.6766 (Simulation time: 00 hr 37 min 45 sec)
Heartbeat CPU 0 instructions: 165501067 cycles: 182996116 heartbeat IPC: 0.6765 cumulative IPC: 0.6766 (Simulation time: 00 hr 37 min 53 sec)
Heartbeat CPU 0 instructions: 166001069 cycles: 183736425 heartbeat IPC: 0.6754 cumulative IPC: 0.6766 (Simulation time: 00 hr 38 min 01 sec)
Heartbeat CPU 0 instructions: 166501076 cycles: 184478292 heartbeat IPC: 0.674 cumulative IPC: 0.6766 (Simulation time: 00 hr 38 min 09 sec)
Heartbeat CPU 0 instructions: 167001076 cycles: 185217695 heartbeat IPC: 0.6762 cumulative IPC: 0.6766 (Simulation time: 00 hr 38 min 17 sec)
Heartbeat CPU 0 instructions: 167501083 cycles: 185964027 heartbeat IPC: 0.67 cumulative IPC: 0.6766 (Simulation time: 00 hr 38 min 26 sec)
Heartbeat CPU 0 instructions: 168001084 cycles: 186710251 heartbeat IPC: 0.67 cumulative IPC: 0.6766 (Simulation time: 00 hr 38 min 34 sec)
Heartbeat CPU 0 instructions: 168501084 cycles: 187449551 heartbeat IPC: 0.6763 cumulative IPC: 0.6766 (Simulation time: 00 hr 38 min 42 sec)
Heartbeat CPU 0 instructions: 169001084 cycles: 188206408 heartbeat IPC: 0.6606 cumulative IPC: 0.6765 (Simulation time: 00 hr 38 min 51 sec)
Heartbeat CPU 0 instructions: 169501090 cycles: 188946600 heartbeat IPC: 0.6755 cumulative IPC: 0.6765 (Simulation time: 00 hr 38 min 59 sec)
Heartbeat CPU 0 instructions: 170001090 cycles: 189682931 heartbeat IPC: 0.679 cumulative IPC: 0.6765 (Simulation time: 00 hr 39 min 07 sec)
Heartbeat CPU 0 instructions: 170501094 cycles: 190421333 heartbeat IPC: 0.6771 cumulative IPC: 0.6765 (Simulation time: 00 hr 39 min 15 sec)
Heartbeat CPU 0 instructions: 171001099 cycles: 191163874 heartbeat IPC: 0.6734 cumulative IPC: 0.6765 (Simulation time: 00 hr 39 min 23 sec)
Heartbeat CPU 0 instructions: 171501106 cycles: 191911704 heartbeat IPC: 0.6686 cumulative IPC: 0.6765 (Simulation time: 00 hr 39 min 31 sec)
Heartbeat CPU 0 instructions: 172001106 cycles: 192650471 heartbeat IPC: 0.6768 cumulative IPC: 0.6765 (Simulation time: 00 hr 39 min 40 sec)
Heartbeat CPU 0 instructions: 172501113 cycles: 193397432 heartbeat IPC: 0.6694 cumulative IPC: 0.6764 (Simulation time: 00 hr 39 min 48 sec)
Heartbeat CPU 0 instructions: 173001114 cycles: 194130611 heartbeat IPC: 0.682 cumulative IPC: 0.6765 (Simulation time: 00 hr 39 min 56 sec)
Heartbeat CPU 0 instructions: 173501117 cycles: 194872151 heartbeat IPC: 0.6743 cumulative IPC: 0.6764 (Simulation time: 00 hr 40 min 04 sec)
Heartbeat CPU 0 instructions: 174001122 cycles: 195621971 heartbeat IPC: 0.6668 cumulative IPC: 0.6764 (Simulation time: 00 hr 40 min 13 sec)
Heartbeat CPU 0 instructions: 174501129 cycles: 196372701 heartbeat IPC: 0.666 cumulative IPC: 0.6764 (Simulation time: 00 hr 40 min 21 sec)
Heartbeat CPU 0 instructions: 175001130 cycles: 197114201 heartbeat IPC: 0.6743 cumulative IPC: 0.6764 (Simulation time: 00 hr 40 min 29 sec)
Heartbeat CPU 0 instructions: 175501137 cycles: 197867405 heartbeat IPC: 0.6638 cumulative IPC: 0.6763 (Simulation time: 00 hr 40 min 37 sec)
Heartbeat CPU 0 instructions: 176001137 cycles: 198608879 heartbeat IPC: 0.6743 cumulative IPC: 0.6763 (Simulation time: 00 hr 40 min 45 sec)
Heartbeat CPU 0 instructions: 176501138 cycles: 199350025 heartbeat IPC: 0.6746 cumulative IPC: 0.6763 (Simulation time: 00 hr 40 min 54 sec)
Heartbeat CPU 0 instructions: 177001138 cycles: 200097610 heartbeat IPC: 0.6688 cumulative IPC: 0.6763 (Simulation time: 00 hr 41 min 02 sec)
Heartbeat CPU 0 instructions: 177501145 cycles: 200844046 heartbeat IPC: 0.6699 cumulative IPC: 0.6762 (Simulation time: 00 hr 41 min 10 sec)
Heartbeat CPU 0 instructions: 178001146 cycles: 201594677 heartbeat IPC: 0.6661 cumulative IPC: 0.6762 (Simulation time: 00 hr 41 min 18 sec)
Heartbeat CPU 0 instructions: 178501146 cycles: 202344100 heartbeat IPC: 0.6672 cumulative IPC: 0.6762 (Simulation time: 00 hr 41 min 27 sec)
Heartbeat CPU 0 instructions: 179001146 cycles: 203091736 heartbeat IPC: 0.6688 cumulative IPC: 0.6761 (Simulation time: 00 hr 41 min 35 sec)
Heartbeat CPU 0 instructions: 179501149 cycles: 203841139 heartbeat IPC: 0.6672 cumulative IPC: 0.6761 (Simulation time: 00 hr 41 min 43 sec)
Heartbeat CPU 0 instructions: 180001153 cycles: 204586901 heartbeat IPC: 0.6705 cumulative IPC: 0.6761 (Simulation time: 00 hr 41 min 52 sec)
Heartbeat CPU 0 instructions: 180501154 cycles: 205338769 heartbeat IPC: 0.665 cumulative IPC: 0.676 (Simulation time: 00 hr 42 min 00 sec)
Heartbeat CPU 0 instructions: 181001161 cycles: 206074054 heartbeat IPC: 0.68 cumulative IPC: 0.6761 (Simulation time: 00 hr 42 min 08 sec)
Heartbeat CPU 0 instructions: 181501162 cycles: 206815000 heartbeat IPC: 0.6748 cumulative IPC: 0.676 (Simulation time: 00 hr 42 min 16 sec)
Heartbeat CPU 0 instructions: 182001162 cycles: 207563302 heartbeat IPC: 0.6682 cumulative IPC: 0.676 (Simulation time: 00 hr 42 min 24 sec)
Heartbeat CPU 0 instructions: 182501169 cycles: 208310980 heartbeat IPC: 0.6687 cumulative IPC: 0.676 (Simulation time: 00 hr 42 min 33 sec)
Heartbeat CPU 0 instructions: 183001172 cycles: 209058381 heartbeat IPC: 0.669 cumulative IPC: 0.676 (Simulation time: 00 hr 42 min 41 sec)
Heartbeat CPU 0 instructions: 183501178 cycles: 209813110 heartbeat IPC: 0.6625 cumulative IPC: 0.6759 (Simulation time: 00 hr 42 min 49 sec)
Heartbeat CPU 0 instructions: 184001182 cycles: 210561113 heartbeat IPC: 0.6685 cumulative IPC: 0.6759 (Simulation time: 00 hr 42 min 57 sec)
Heartbeat CPU 0 instructions: 184501185 cycles: 211307458 heartbeat IPC: 0.6699 cumulative IPC: 0.6759 (Simulation time: 00 hr 43 min 06 sec)
Heartbeat CPU 0 instructions: 185001185 cycles: 212053204 heartbeat IPC: 0.6705 cumulative IPC: 0.6758 (Simulation time: 00 hr 43 min 14 sec)
Heartbeat CPU 0 instructions: 185501190 cycles: 212800456 heartbeat IPC: 0.6691 cumulative IPC: 0.6758 (Simulation time: 00 hr 43 min 22 sec)
Heartbeat CPU 0 instructions: 186001193 cycles: 213551171 heartbeat IPC: 0.666 cumulative IPC: 0.6758 (Simulation time: 00 hr 43 min 30 sec)
Heartbeat CPU 0 instructions: 186501194 cycles: 214290402 heartbeat IPC: 0.6764 cumulative IPC: 0.6758 (Simulation time: 00 hr 43 min 38 sec)
Heartbeat CPU 0 instructions: 187001194 cycles: 215039337 heartbeat IPC: 0.6676 cumulative IPC: 0.6757 (Simulation time: 00 hr 43 min 47 sec)
Heartbeat CPU 0 instructions: 187501201 cycles: 215787126 heartbeat IPC: 0.6686 cumulative IPC: 0.6757 (Simulation time: 00 hr 43 min 55 sec)
Heartbeat CPU 0 instructions: 188001202 cycles: 216534833 heartbeat IPC: 0.6687 cumulative IPC: 0.6757 (Simulation time: 00 hr 44 min 03 sec)
Heartbeat CPU 0 instructions: 188501202 cycles: 217275742 heartbeat IPC: 0.6748 cumulative IPC: 0.6757 (Simulation time: 00 hr 44 min 11 sec)
Heartbeat CPU 0 instructions: 189001209 cycles: 218021290 heartbeat IPC: 0.6707 cumulative IPC: 0.6757 (Simulation time: 00 hr 44 min 19 sec)
Heartbeat CPU 0 instructions: 189501211 cycles: 218768766 heartbeat IPC: 0.6689 cumulative IPC: 0.6757 (Simulation time: 00 hr 44 min 28 sec)
Heartbeat CPU 0 instructions: 190001217 cycles: 219520156 heartbeat IPC: 0.6654 cumulative IPC: 0.6756 (Simulation time: 00 hr 44 min 36 sec)
Heartbeat CPU 0 instructions: 190501218 cycles: 220263873 heartbeat IPC: 0.6723 cumulative IPC: 0.6756 (Simulation time: 00 hr 44 min 44 sec)
Heartbeat CPU 0 instructions: 191001219 cycles: 221004082 heartbeat IPC: 0.6755 cumulative IPC: 0.6756 (Simulation time: 00 hr 44 min 52 sec)
Heartbeat CPU 0 instructions: 191501219 cycles: 221747455 heartbeat IPC: 0.6726 cumulative IPC: 0.6756 (Simulation time: 00 hr 45 min 00 sec)
Heartbeat CPU 0 instructions: 192001226 cycles: 222489450 heartbeat IPC: 0.6739 cumulative IPC: 0.6756 (Simulation time: 00 hr 45 min 08 sec)
Heartbeat CPU 0 instructions: 192501226 cycles: 223241822 heartbeat IPC: 0.6646 cumulative IPC: 0.6755 (Simulation time: 00 hr 45 min 17 sec)
Heartbeat CPU 0 instructions: 193001233 cycles: 223985664 heartbeat IPC: 0.6722 cumulative IPC: 0.6755 (Simulation time: 00 hr 45 min 25 sec)
Heartbeat CPU 0 instructions: 193501234 cycles: 224755780 heartbeat IPC: 0.6493 cumulative IPC: 0.6754 (Simulation time: 00 hr 45 min 33 sec)
Heartbeat CPU 0 instructions: 194001234 cycles: 225488965 heartbeat IPC: 0.682 cumulative IPC: 0.6755 (Simulation time: 00 hr 45 min 41 sec)
Heartbeat CPU 0 instructions: 194501241 cycles: 226229390 heartbeat IPC: 0.6753 cumulative IPC: 0.6755 (Simulation time: 00 hr 45 min 50 sec)
Heartbeat CPU 0 instructions: 195001247 cycles: 226963664 heartbeat IPC: 0.681 cumulative IPC: 0.6755 (Simulation time: 00 hr 45 min 58 sec)
Heartbeat CPU 0 instructions: 195501247 cycles: 227718931 heartbeat IPC: 0.662 cumulative IPC: 0.6754 (Simulation time: 00 hr 46 min 06 sec)
Heartbeat CPU 0 instructions: 196001251 cycles: 228464900 heartbeat IPC: 0.6703 cumulative IPC: 0.6754 (Simulation time: 00 hr 46 min 14 sec)
Heartbeat CPU 0 instructions: 196501257 cycles: 229206058 heartbeat IPC: 0.6746 cumulative IPC: 0.6754 (Simulation time: 00 hr 46 min 22 sec)
Heartbeat CPU 0 instructions: 197001258 cycles: 229951873 heartbeat IPC: 0.6704 cumulative IPC: 0.6754 (Simulation time: 00 hr 46 min 30 sec)
Heartbeat CPU 0 instructions: 197501258 cycles: 230694100 heartbeat IPC: 0.6736 cumulative IPC: 0.6754 (Simulation time: 00 hr 46 min 39 sec)
Heartbeat CPU 0 instructions: 198001265 cycles: 231441315 heartbeat IPC: 0.6692 cumulative IPC: 0.6754 (Simulation time: 00 hr 46 min 47 sec)
Heartbeat CPU 0 instructions: 198501271 cycles: 232182420 heartbeat IPC: 0.6747 cumulative IPC: 0.6754 (Simulation time: 00 hr 46 min 55 sec)
Heartbeat CPU 0 instructions: 199001274 cycles: 232919425 heartbeat IPC: 0.6784 cumulative IPC: 0.6754 (Simulation time: 00 hr 47 min 03 sec)
Heartbeat CPU 0 instructions: 199501281 cycles: 233663535 heartbeat IPC: 0.672 cumulative IPC: 0.6754 (Simulation time: 00 hr 47 min 11 sec)
Heartbeat CPU 0 instructions: 200001282 cycles: 234409936 heartbeat IPC: 0.6699 cumulative IPC: 0.6753 (Simulation time: 00 hr 47 min 20 sec)
Heartbeat CPU 0 instructions: 200501284 cycles: 235157629 heartbeat IPC: 0.6687 cumulative IPC: 0.6753 (Simulation time: 00 hr 47 min 28 sec)
Heartbeat CPU 0 instructions: 201001289 cycles: 235904018 heartbeat IPC: 0.6699 cumulative IPC: 0.6753 (Simulation time: 00 hr 47 min 36 sec)
Heartbeat CPU 0 instructions: 201501289 cycles: 236648845 heartbeat IPC: 0.6713 cumulative IPC: 0.6753 (Simulation time: 00 hr 47 min 44 sec)
Heartbeat CPU 0 instructions: 202001290 cycles: 237394142 heartbeat IPC: 0.6709 cumulative IPC: 0.6753 (Simulation time: 00 hr 47 min 52 sec)
Heartbeat CPU 0 instructions: 202501297 cycles: 238141812 heartbeat IPC: 0.6688 cumulative IPC: 0.6753 (Simulation time: 00 hr 48 min 00 sec)
Heartbeat CPU 0 instructions: 203001297 cycles: 238887062 heartbeat IPC: 0.6709 cumulative IPC: 0.6752 (Simulation time: 00 hr 48 min 09 sec)
Heartbeat CPU 0 instructions: 203501303 cycles: 239634300 heartbeat IPC: 0.6691 cumulative IPC: 0.6752 (Simulation time: 00 hr 48 min 17 sec)
Heartbeat CPU 0 instructions: 204001305 cycles: 240376713 heartbeat IPC: 0.6735 cumulative IPC: 0.6752 (Simulation time: 00 hr 48 min 25 sec)
Heartbeat CPU 0 instructions: 204501305 cycles: 241129526 heartbeat IPC: 0.6642 cumulative IPC: 0.6752 (Simulation time: 00 hr 48 min 33 sec)
Heartbeat CPU 0 instructions: 205001306 cycles: 241870636 heartbeat IPC: 0.6747 cumulative IPC: 0.6752 (Simulation time: 00 hr 48 min 41 sec)
Heartbeat CPU 0 instructions: 205501313 cycles: 242617716 heartbeat IPC: 0.6693 cumulative IPC: 0.6752 (Simulation time: 00 hr 48 min 50 sec)
Heartbeat CPU 0 instructions: 206001315 cycles: 243358796 heartbeat IPC: 0.6747 cumulative IPC: 0.6752 (Simulation time: 00 hr 48 min 58 sec)
Heartbeat CPU 0 instructions: 206501315 cycles: 244107711 heartbeat IPC: 0.6676 cumulative IPC: 0.6751 (Simulation time: 00 hr 49 min 06 sec)
Heartbeat CPU 0 instructions: 207001321 cycles: 244854436 heartbeat IPC: 0.6696 cumulative IPC: 0.6751 (Simulation time: 00 hr 49 min 14 sec)
Heartbeat CPU 0 instructions: 207501321 cycles: 245601293 heartbeat IPC: 0.6695 cumulative IPC: 0.6751 (Simulation time: 00 hr 49 min 22 sec)
Heartbeat CPU 0 instructions: 208001326 cycles: 246350875 heartbeat IPC: 0.667 cumulative IPC: 0.6751 (Simulation time: 00 hr 49 min 31 sec)
Heartbeat CPU 0 instructions: 208501327 cycles: 247091628 heartbeat IPC: 0.675 cumulative IPC: 0.6751 (Simulation time: 00 hr 49 min 39 sec)
Heartbeat CPU 0 instructions: 209001334 cycles: 247839652 heartbeat IPC: 0.6684 cumulative IPC: 0.6751 (Simulation time: 00 hr 49 min 47 sec)
Heartbeat CPU 0 instructions: 209501337 cycles: 248591682 heartbeat IPC: 0.6649 cumulative IPC: 0.675 (Simulation time: 00 hr 49 min 55 sec)
Heartbeat CPU 0 instructions: 210001337 cycles: 249342741 heartbeat IPC: 0.6657 cumulative IPC: 0.675 (Simulation time: 00 hr 50 min 03 sec)
Heartbeat CPU 0 instructions: 210501338 cycles: 250088131 heartbeat IPC: 0.6708 cumulative IPC: 0.675 (Simulation time: 00 hr 50 min 12 sec)
Heartbeat CPU 0 instructions: 211001345 cycles: 250837593 heartbeat IPC: 0.6672 cumulative IPC: 0.675 (Simulation time: 00 hr 50 min 20 sec)
Heartbeat CPU 0 instructions: 211501348 cycles: 251587794 heartbeat IPC: 0.6665 cumulative IPC: 0.6749 (Simulation time: 00 hr 50 min 28 sec)
Heartbeat CPU 0 instructions: 212001354 cycles: 252331704 heartbeat IPC: 0.6721 cumulative IPC: 0.6749 (Simulation time: 00 hr 50 min 36 sec)
Heartbeat CPU 0 instructions: 212501361 cycles: 253075721 heartbeat IPC: 0.672 cumulative IPC: 0.6749 (Simulation time: 00 hr 50 min 44 sec)
Heartbeat CPU 0 instructions: 213001361 cycles: 253823553 heartbeat IPC: 0.6686 cumulative IPC: 0.6749 (Simulation time: 00 hr 50 min 53 sec)
Heartbeat CPU 0 instructions: 213501367 cycles: 254573868 heartbeat IPC: 0.6664 cumulative IPC: 0.6749 (Simulation time: 00 hr 51 min 01 sec)
Heartbeat CPU 0 instructions: 214001370 cycles: 255317983 heartbeat IPC: 0.6719 cumulative IPC: 0.6749 (Simulation time: 00 hr 51 min 09 sec)
Heartbeat CPU 0 instructions: 214501370 cycles: 256065548 heartbeat IPC: 0.6688 cumulative IPC: 0.6748 (Simulation time: 00 hr 51 min 17 sec)
Heartbeat CPU 0 instructions: 215001377 cycles: 256810035 heartbeat IPC: 0.6716 cumulative IPC: 0.6748 (Simulation time: 00 hr 51 min 25 sec)
Heartbeat CPU 0 instructions: 215501377 cycles: 257555153 heartbeat IPC: 0.671 cumulative IPC: 0.6748 (Simulation time: 00 hr 51 min 33 sec)
Heartbeat CPU 0 instructions: 216001377 cycles: 258299463 heartbeat IPC: 0.6718 cumulative IPC: 0.6748 (Simulation time: 00 hr 51 min 42 sec)
Heartbeat CPU 0 instructions: 216501377 cycles: 259058330 heartbeat IPC: 0.6589 cumulative IPC: 0.6748 (Simulation time: 00 hr 51 min 50 sec)
Heartbeat CPU 0 instructions: 217001378 cycles: 259806347 heartbeat IPC: 0.6684 cumulative IPC: 0.6747 (Simulation time: 00 hr 51 min 58 sec)
Heartbeat CPU 0 instructions: 217501382 cycles: 260555746 heartbeat IPC: 0.6672 cumulative IPC: 0.6747 (Simulation time: 00 hr 52 min 06 sec)
Heartbeat CPU 0 instructions: 218001383 cycles: 261300755 heartbeat IPC: 0.6711 cumulative IPC: 0.6747 (Simulation time: 00 hr 52 min 15 sec)
Heartbeat CPU 0 instructions: 218501383 cycles: 262047628 heartbeat IPC: 0.6695 cumulative IPC: 0.6747 (Simulation time: 00 hr 52 min 23 sec)
Heartbeat CPU 0 instructions: 219001386 cycles: 262795462 heartbeat IPC: 0.6686 cumulative IPC: 0.6747 (Simulation time: 00 hr 52 min 31 sec)
Heartbeat CPU 0 instructions: 219501393 cycles: 263544810 heartbeat IPC: 0.6673 cumulative IPC: 0.6746 (Simulation time: 00 hr 52 min 39 sec)
Heartbeat CPU 0 instructions: 220001395 cycles: 264290799 heartbeat IPC: 0.6703 cumulative IPC: 0.6746 (Simulation time: 00 hr 52 min 47 sec)
Heartbeat CPU 0 instructions: 220501402 cycles: 265034760 heartbeat IPC: 0.6721 cumulative IPC: 0.6746 (Simulation time: 00 hr 52 min 55 sec)
Heartbeat CPU 0 instructions: 221001402 cycles: 265784033 heartbeat IPC: 0.6673 cumulative IPC: 0.6746 (Simulation time: 00 hr 53 min 04 sec)
Heartbeat CPU 0 instructions: 221501403 cycles: 266530976 heartbeat IPC: 0.6694 cumulative IPC: 0.6746 (Simulation time: 00 hr 53 min 12 sec)
Heartbeat CPU 0 instructions: 222001404 cycles: 267287762 heartbeat IPC: 0.6607 cumulative IPC: 0.6745 (Simulation time: 00 hr 53 min 20 sec)
Heartbeat CPU 0 instructions: 222501411 cycles: 268036704 heartbeat IPC: 0.6676 cumulative IPC: 0.6745 (Simulation time: 00 hr 53 min 28 sec)
Heartbeat CPU 0 instructions: 223001411 cycles: 268783784 heartbeat IPC: 0.6693 cumulative IPC: 0.6745 (Simulation time: 00 hr 53 min 37 sec)
Heartbeat CPU 0 instructions: 223501412 cycles: 269530542 heartbeat IPC: 0.6696 cumulative IPC: 0.6745 (Simulation time: 00 hr 53 min 45 sec)
Heartbeat CPU 0 instructions: 224001413 cycles: 270281046 heartbeat IPC: 0.6662 cumulative IPC: 0.6745 (Simulation time: 00 hr 53 min 53 sec)
Heartbeat CPU 0 instructions: 224501419 cycles: 271032298 heartbeat IPC: 0.6656 cumulative IPC: 0.6744 (Simulation time: 00 hr 54 min 01 sec)
Heartbeat CPU 0 instructions: 225001419 cycles: 271779954 heartbeat IPC: 0.6688 cumulative IPC: 0.6744 (Simulation time: 00 hr 54 min 09 sec)
Heartbeat CPU 0 instructions: 225501425 cycles: 272530114 heartbeat IPC: 0.6665 cumulative IPC: 0.6744 (Simulation time: 00 hr 54 min 17 sec)
Heartbeat CPU 0 instructions: 226001427 cycles: 273278458 heartbeat IPC: 0.6681 cumulative IPC: 0.6744 (Simulation time: 00 hr 54 min 26 sec)
Heartbeat CPU 0 instructions: 226501432 cycles: 274024323 heartbeat IPC: 0.6704 cumulative IPC: 0.6744 (Simulation time: 00 hr 54 min 34 sec)
Heartbeat CPU 0 instructions: 227001433 cycles: 274777346 heartbeat IPC: 0.664 cumulative IPC: 0.6743 (Simulation time: 00 hr 54 min 42 sec)
Heartbeat CPU 0 instructions: 227501436 cycles: 275524112 heartbeat IPC: 0.6696 cumulative IPC: 0.6743 (Simulation time: 00 hr 54 min 50 sec)
Heartbeat CPU 0 instructions: 228001437 cycles: 276280610 heartbeat IPC: 0.6609 cumulative IPC: 0.6743 (Simulation time: 00 hr 54 min 58 sec)
Heartbeat CPU 0 instructions: 228501443 cycles: 277041048 heartbeat IPC: 0.6575 cumulative IPC: 0.6742 (Simulation time: 00 hr 55 min 07 sec)
Heartbeat CPU 0 instructions: 229001444 cycles: 277795814 heartbeat IPC: 0.6625 cumulative IPC: 0.6742 (Simulation time: 00 hr 55 min 15 sec)
Heartbeat CPU 0 instructions: 229501450 cycles: 278554909 heartbeat IPC: 0.6587 cumulative IPC: 0.6742 (Simulation time: 00 hr 55 min 23 sec)
Heartbeat CPU 0 instructions: 230001451 cycles: 279305825 heartbeat IPC: 0.6659 cumulative IPC: 0.6741 (Simulation time: 00 hr 55 min 31 sec)
Heartbeat CPU 0 instructions: 230501452 cycles: 280063324 heartbeat IPC: 0.6601 cumulative IPC: 0.6741 (Simulation time: 00 hr 55 min 40 sec)
Heartbeat CPU 0 instructions: 231001452 cycles: 280815396 heartbeat IPC: 0.6648 cumulative IPC: 0.6741 (Simulation time: 00 hr 55 min 48 sec)
Heartbeat CPU 0 instructions: 231501459 cycles: 281572872 heartbeat IPC: 0.6601 cumulative IPC: 0.674 (Simulation time: 00 hr 55 min 56 sec)
Heartbeat CPU 0 instructions: 232001462 cycles: 282327171 heartbeat IPC: 0.6629 cumulative IPC: 0.674 (Simulation time: 00 hr 56 min 04 sec)
Heartbeat CPU 0 instructions: 232501468 cycles: 283084016 heartbeat IPC: 0.6606 cumulative IPC: 0.674 (Simulation time: 00 hr 56 min 13 sec)
Heartbeat CPU 0 instructions: 233001472 cycles: 283835196 heartbeat IPC: 0.6656 cumulative IPC: 0.674 (Simulation time: 00 hr 56 min 21 sec)
Heartbeat CPU 0 instructions: 233501472 cycles: 284591922 heartbeat IPC: 0.6607 cumulative IPC: 0.6739 (Simulation time: 00 hr 56 min 29 sec)
Heartbeat CPU 0 instructions: 234001476 cycles: 285344183 heartbeat IPC: 0.6647 cumulative IPC: 0.6739 (Simulation time: 00 hr 56 min 37 sec)
Heartbeat CPU 0 instructions: 234501476 cycles: 286098295 heartbeat IPC: 0.663 cumulative IPC: 0.6739 (Simulation time: 00 hr 56 min 46 sec)
Heartbeat CPU 0 instructions: 235001479 cycles: 286848085 heartbeat IPC: 0.6669 cumulative IPC: 0.6738 (Simulation time: 00 hr 56 min 54 sec)
Heartbeat CPU 0 instructions: 235501484 cycles: 287606355 heartbeat IPC: 0.6594 cumulative IPC: 0.6738 (Simulation time: 00 hr 57 min 02 sec)
Heartbeat CPU 0 instructions: 236001484 cycles: 288358986 heartbeat IPC: 0.6643 cumulative IPC: 0.6738 (Simulation time: 00 hr 57 min 10 sec)
Heartbeat CPU 0 instructions: 236501488 cycles: 289107294 heartbeat IPC: 0.6682 cumulative IPC: 0.6738 (Simulation time: 00 hr 57 min 18 sec)
Heartbeat CPU 0 instructions: 237001489 cycles: 289861738 heartbeat IPC: 0.6627 cumulative IPC: 0.6737 (Simulation time: 00 hr 57 min 27 sec)
Heartbeat CPU 0 instructions: 237501495 cycles: 290624923 heartbeat IPC: 0.6552 cumulative IPC: 0.6737 (Simulation time: 00 hr 57 min 35 sec)
Heartbeat CPU 0 instructions: 238001499 cycles: 291374014 heartbeat IPC: 0.6675 cumulative IPC: 0.6737 (Simulation time: 00 hr 57 min 43 sec)
Heartbeat CPU 0 instructions: 238501500 cycles: 292127286 heartbeat IPC: 0.6638 cumulative IPC: 0.6736 (Simulation time: 00 hr 57 min 51 sec)
Heartbeat CPU 0 instructions: 239001500 cycles: 292883412 heartbeat IPC: 0.6613 cumulative IPC: 0.6736 (Simulation time: 00 hr 58 min 00 sec)
Heartbeat CPU 0 instructions: 239501500 cycles: 293650940 heartbeat IPC: 0.6514 cumulative IPC: 0.6735 (Simulation time: 00 hr 58 min 08 sec)
Heartbeat CPU 0 instructions: 240001507 cycles: 294408880 heartbeat IPC: 0.6597 cumulative IPC: 0.6735 (Simulation time: 00 hr 58 min 16 sec)
Heartbeat CPU 0 instructions: 240501507 cycles: 295172368 heartbeat IPC: 0.6549 cumulative IPC: 0.6735 (Simulation time: 00 hr 58 min 25 sec)
Heartbeat CPU 0 instructions: 241001507 cycles: 295927218 heartbeat IPC: 0.6624 cumulative IPC: 0.6734 (Simulation time: 00 hr 58 min 33 sec)
Heartbeat CPU 0 instructions: 241501509 cycles: 296698628 heartbeat IPC: 0.6482 cumulative IPC: 0.6734 (Simulation time: 00 hr 58 min 41 sec)
Heartbeat CPU 0 instructions: 242001509 cycles: 297479846 heartbeat IPC: 0.64 cumulative IPC: 0.6733 (Simulation time: 00 hr 58 min 50 sec)
Heartbeat CPU 0 instructions: 242501510 cycles: 298227580 heartbeat IPC: 0.6687 cumulative IPC: 0.6733 (Simulation time: 00 hr 58 min 58 sec)
Heartbeat CPU 0 instructions: 243001517 cycles: 298984926 heartbeat IPC: 0.6602 cumulative IPC: 0.6732 (Simulation time: 00 hr 59 min 07 sec)
Heartbeat CPU 0 instructions: 243501517 cycles: 299739410 heartbeat IPC: 0.6627 cumulative IPC: 0.6732 (Simulation time: 00 hr 59 min 15 sec)
Heartbeat CPU 0 instructions: 244001523 cycles: 300491916 heartbeat IPC: 0.6645 cumulative IPC: 0.6732 (Simulation time: 00 hr 59 min 23 sec)
Heartbeat CPU 0 instructions: 244501530 cycles: 301252608 heartbeat IPC: 0.6573 cumulative IPC: 0.6731 (Simulation time: 00 hr 59 min 31 sec)
Heartbeat CPU 0 instructions: 245001533 cycles: 302006472 heartbeat IPC: 0.6633 cumulative IPC: 0.6731 (Simulation time: 00 hr 59 min 39 sec)
Heartbeat CPU 0 instructions: 245501535 cycles: 302764059 heartbeat IPC: 0.66 cumulative IPC: 0.6731 (Simulation time: 00 hr 59 min 48 sec)
Heartbeat CPU 0 instructions: 246001538 cycles: 303522821 heartbeat IPC: 0.659 cumulative IPC: 0.673 (Simulation time: 00 hr 59 min 56 sec)
Heartbeat CPU 0 instructions: 246501541 cycles: 304282010 heartbeat IPC: 0.6586 cumulative IPC: 0.673 (Simulation time: 01 hr 00 min 04 sec)
Heartbeat CPU 0 instructions: 247001541 cycles: 305035106 heartbeat IPC: 0.6639 cumulative IPC: 0.673 (Simulation time: 01 hr 00 min 13 sec)
Heartbeat CPU 0 instructions: 247501545 cycles: 305795760 heartbeat IPC: 0.6573 cumulative IPC: 0.6729 (Simulation time: 01 hr 00 min 21 sec)
Heartbeat CPU 0 instructions: 248001550 cycles: 306552834 heartbeat IPC: 0.6604 cumulative IPC: 0.6729 (Simulation time: 01 hr 00 min 29 sec)
Heartbeat CPU 0 instructions: 248501557 cycles: 307319081 heartbeat IPC: 0.6525 cumulative IPC: 0.6728 (Simulation time: 01 hr 00 min 37 sec)
Heartbeat CPU 0 instructions: 249001557 cycles: 308077905 heartbeat IPC: 0.6589 cumulative IPC: 0.6728 (Simulation time: 01 hr 00 min 46 sec)
Heartbeat CPU 0 instructions: 249501558 cycles: 308833129 heartbeat IPC: 0.6621 cumulative IPC: 0.6728 (Simulation time: 01 hr 00 min 54 sec)
Simulation finished CPU 0 instructions: 200000007 cycles: 297283014 cumulative IPC: 0.6728 (Simulation time: 01 hr 01 min 02 sec)
Simulation complete CPU 0 instructions: 200000007 cycles: 297283014 cumulative IPC: 0.6728 (Simulation time: 01 hr 01 min 02 sec)

ChampSim completed all CPUs

=== Simulation ===
CPU 0 runs /local-ssd/ben/dpc4-traces/SPEC17/605.mcf_s-1536B.champsimtrace.xz

Region of Interest Statistics

CPU 0 cumulative IPC: 0.6728 instructions: 200000007 cycles: 297283014
CPU 0 Branch Prediction Accuracy: 99.96% MPKI: 0.05878 Average ROB Occupancy at Mispredict: 200.4
Branch type MPKI
BRANCH_DIRECT_JUMP: 0
BRANCH_INDIRECT: 0
BRANCH_CONDITIONAL: 0.05878
BRANCH_DIRECT_CALL: 0
BRANCH_INDIRECT_CALL: 0
BRANCH_RETURN: 0

cpu0->cpu0_STLB TOTAL        ACCESS:    4879311 HIT:     231123 MISS:    4648188 MSHR_MERGE:          0
cpu0->cpu0_STLB LOAD         ACCESS:    4879311 HIT:     231123 MISS:    4648188 MSHR_MERGE:          0
cpu0->cpu0_STLB RFO          ACCESS:          0 HIT:          0 MISS:          0 MSHR_MERGE:          0
cpu0->cpu0_STLB PREFETCH     ACCESS:          0 HIT:          0 MISS:          0 MSHR_MERGE:          0
cpu0->cpu0_STLB WRITE        ACCESS:          0 HIT:          0 MISS:          0 MSHR_MERGE:          0
cpu0->cpu0_STLB TRANSLATION  ACCESS:          0 HIT:          0 MISS:          0 MSHR_MERGE:          0
cpu0->cpu0_STLB PREFETCH REQUESTED:          0 ISSUED:          0 USEFUL:          0 USELESS:          0
cpu0->cpu0_STLB AVERAGE MISS LATENCY: 33.31 cycles
cpu0->cpu0_L2C TOTAL        ACCESS:   50185969 HIT:   44165794 MISS:    6020175 MSHR_MERGE:     637092
cpu0->cpu0_L2C LOAD         ACCESS:    9126374 HIT:    8147905 MISS:     978469 MSHR_MERGE:       1742
cpu0->cpu0_L2C RFO          ACCESS:     575685 HIT:     571868 MISS:       3817 MSHR_MERGE:          0
cpu0->cpu0_L2C PREFETCH     ACCESS:   31479366 HIT:   26485235 MISS:    4994131 MSHR_MERGE:     635350
cpu0->cpu0_L2C WRITE        ACCESS:    4457112 HIT:    4457112 MISS:          0 MSHR_MERGE:          0
cpu0->cpu0_L2C TRANSLATION  ACCESS:    4547432 HIT:    4503674 MISS:      43758 MSHR_MERGE:          0
cpu0->cpu0_L2C PREFETCH REQUESTED:   32026597 ISSUED:   28061780 USEFUL:    4084876 USELESS:     173350
cpu0->cpu0_L2C AVERAGE MISS LATENCY: 358.2 cycles
cpu0->cpu0_L1I TOTAL        ACCESS:   37529038 HIT:   37529038 MISS:          0 MSHR_MERGE:          0
cpu0->cpu0_L1I LOAD         ACCESS:   37529038 HIT:   37529038 MISS:          0 MSHR_MERGE:          0
cpu0->cpu0_L1I RFO          ACCESS:          0 HIT:          0 MISS:          0 MSHR_MERGE:          0
cpu0->cpu0_L1I PREFETCH     ACCESS:          0 HIT:          0 MISS:          0 MSHR_MERGE:          0
cpu0->cpu0_L1I WRITE        ACCESS:          0 HIT:          0 MISS:          0 MSHR_MERGE:          0
cpu0->cpu0_L1I TRANSLATION  ACCESS:          0 HIT:          0 MISS:          0 MSHR_MERGE:          0
cpu0->cpu0_L1I PREFETCH REQUESTED:          0 ISSUED:          0 USEFUL:          0 USELESS:          0
cpu0->cpu0_L1I AVERAGE MISS LATENCY: - cycles
cpu0->cpu0_L1D TOTAL        ACCESS:   54818070 HIT:   33479901 MISS:   21338169 MSHR_MERGE:    3670258
cpu0->cpu0_L1D LOAD         ACCESS:   32190926 HIT:   19558042 MISS:   12632884 MSHR_MERGE:    3506510
cpu0->cpu0_L1D RFO          ACCESS:          0 HIT:          0 MISS:          0 MSHR_MERGE:          0
cpu0->cpu0_L1D PREFETCH     ACCESS:    3829316 HIT:     308287 MISS:    3521029 MSHR_MERGE:     103453
cpu0->cpu0_L1D WRITE        ACCESS:    8867893 HIT:    8281061 MISS:     586832 MSHR_MERGE:      10303
cpu0->cpu0_L1D TRANSLATION  ACCESS:    9929935 HIT:    5332511 MISS:    4597424 MSHR_MERGE:      49992
cpu0->cpu0_L1D PREFETCH REQUESTED:    3829337 ISSUED:    3829311 USEFUL:    1408832 USELESS:    2008642
cpu0->cpu0_L1D AVERAGE MISS LATENCY: 34.01 cycles
cpu0->cpu0_ITLB TOTAL        ACCESS:   32784987 HIT:   32784987 MISS:          0 MSHR_MERGE:          0
cpu0->cpu0_ITLB LOAD         ACCESS:   32784987 HIT:   32784987 MISS:          0 MSHR_MERGE:          0
cpu0->cpu0_ITLB RFO          ACCESS:          0 HIT:          0 MISS:          0 MSHR_MERGE:          0
cpu0->cpu0_ITLB PREFETCH     ACCESS:          0 HIT:          0 MISS:          0 MSHR_MERGE:          0
cpu0->cpu0_ITLB WRITE        ACCESS:          0 HIT:          0 MISS:          0 MSHR_MERGE:          0
cpu0->cpu0_ITLB TRANSLATION  ACCESS:          0 HIT:          0 MISS:          0 MSHR_MERGE:          0
cpu0->cpu0_ITLB PREFETCH REQUESTED:          0 ISSUED:          0 USEFUL:          0 USELESS:          0
cpu0->cpu0_ITLB AVERAGE MISS LATENCY: - cycles
cpu0->cpu0_DTLB TOTAL        ACCESS:   43133087 HIT:   33250937 MISS:    9882150 MSHR_MERGE:    5002839
cpu0->cpu0_DTLB LOAD         ACCESS:   43133087 HIT:   33250937 MISS:    9882150 MSHR_MERGE:    5002839
cpu0->cpu0_DTLB RFO          ACCESS:          0 HIT:          0 MISS:          0 MSHR_MERGE:          0
cpu0->cpu0_DTLB PREFETCH     ACCESS:          0 HIT:          0 MISS:          0 MSHR_MERGE:          0
cpu0->cpu0_DTLB WRITE        ACCESS:          0 HIT:          0 MISS:          0 MSHR_MERGE:          0
cpu0->cpu0_DTLB TRANSLATION  ACCESS:          0 HIT:          0 MISS:          0 MSHR_MERGE:          0
cpu0->cpu0_DTLB PREFETCH REQUESTED:          0 ISSUED:          0 USEFUL:          0 USELESS:          0
cpu0->cpu0_DTLB AVERAGE MISS LATENCY: 37.68 cycles
cpu0->LLC TOTAL        ACCESS:    9824721 HIT:    2468571 MISS:    7356150 MSHR_MERGE:          0
cpu0->LLC LOAD         ACCESS:     976727 HIT:      32776 MISS:     943951 MSHR_MERGE:          0
cpu0->LLC RFO          ACCESS:       3817 HIT:       3142 MISS:        675 MSHR_MERGE:          0
cpu0->LLC PREFETCH     ACCESS:    4358781 HIT:     128518 MISS:    4230263 MSHR_MERGE:          0
cpu0->LLC WRITE        ACCESS:    4441638 HIT:    2284635 MISS:    2157003 MSHR_MERGE:          0
cpu0->LLC TRANSLATION  ACCESS:      43758 HIT:      19500 MISS:      24258 MSHR_MERGE:          0
cpu0->LLC PREFETCH REQUESTED:          0 ISSUED:          0 USEFUL:          0 USELESS:          0
cpu0->LLC AVERAGE MISS LATENCY: 121.6 cycles

DRAM Statistics

Channel 0 RQ ROW_BUFFER_HIT:     149779
  ROW_BUFFER_MISS:    5049368
  AVG DBUS CONGESTED CYCLE: 14.29
Channel 0 WQ ROW_BUFFER_HIT:     769080
  ROW_BUFFER_MISS:    3671803
  FULL:        440
Channel 0 REFRESHES ISSUED:      24772
