[VMEM] WARNING: physical memory size is smaller than virtual memory size.

*** ChampSim Multicore Out-of-Order Simulator ***
Warmup Instructions: 50000000
Simulation Instructions: 200000000
Number of CPUs: 1
Page size: 4096
Core 0: /local-ssd/ben/dpc4-traces/ai-ml/bark.cpp-bark-small.coarse_token_gen.4.champsimtrace.gz
Initialize SIGNATURE TABLE
ST_SET: 1
ST_WAY: 256
ST_TAG_BIT: 16

Initialize PATTERN TABLE
PT_SET: 512
PT_WAY: 4
SIG_DELTA_BIT: 7
C_SIG_BIT: 4
C_DELTA_BIT: 4

Initialize PREFETCH FILTER
FILTER_SET: 1024
 L1D Berti prefetcher
Off-chip DRAM Size: 64 GiB Channels: 1 Width: 64-bit Data Rate: 4807 MT/s
Heartbeat CPU 0 instructions: 500001 cycles: 129844 heartbeat IPC: 3.851 cumulative IPC: 3.851 (Simulation time: 00 hr 00 min 03 sec)
Heartbeat CPU 0 instructions: 1000006 cycles: 253485 heartbeat IPC: 4.044 cumulative IPC: 3.945 (Simulation time: 00 hr 00 min 06 sec)
Heartbeat CPU 0 instructions: 1500013 cycles: 376878 heartbeat IPC: 4.052 cumulative IPC: 3.98 (Simulation time: 00 hr 00 min 08 sec)
Heartbeat CPU 0 instructions: 2000015 cycles: 500951 heartbeat IPC: 4.03 cumulative IPC: 3.992 (Simulation time: 00 hr 00 min 11 sec)
Heartbeat CPU 0 instructions: 2500018 cycles: 625141 heartbeat IPC: 4.026 cumulative IPC: 3.999 (Simulation time: 00 hr 00 min 13 sec)
Heartbeat CPU 0 instructions: 3000019 cycles: 748269 heartbeat IPC: 4.061 cumulative IPC: 4.009 (Simulation time: 00 hr 00 min 16 sec)
Heartbeat CPU 0 instructions: 3500025 cycles: 872246 heartbeat IPC: 4.033 cumulative IPC: 4.013 (Simulation time: 00 hr 00 min 18 sec)
Heartbeat CPU 0 instructions: 4000029 cycles: 996310 heartbeat IPC: 4.03 cumulative IPC: 4.015 (Simulation time: 00 hr 00 min 21 sec)
Heartbeat CPU 0 instructions: 4500029 cycles: 1120692 heartbeat IPC: 4.02 cumulative IPC: 4.015 (Simulation time: 00 hr 00 min 23 sec)
Heartbeat CPU 0 instructions: 5000034 cycles: 1243861 heartbeat IPC: 4.06 cumulative IPC: 4.02 (Simulation time: 00 hr 00 min 26 sec)
Heartbeat CPU 0 instructions: 5500034 cycles: 1367863 heartbeat IPC: 4.032 cumulative IPC: 4.021 (Simulation time: 00 hr 00 min 28 sec)
Heartbeat CPU 0 instructions: 6000039 cycles: 1491891 heartbeat IPC: 4.031 cumulative IPC: 4.022 (Simulation time: 00 hr 00 min 31 sec)
Heartbeat CPU 0 instructions: 6500044 cycles: 1615861 heartbeat IPC: 4.033 cumulative IPC: 4.023 (Simulation time: 00 hr 00 min 33 sec)
Heartbeat CPU 0 instructions: 7000051 cycles: 1738976 heartbeat IPC: 4.061 cumulative IPC: 4.025 (Simulation time: 00 hr 00 min 36 sec)
Heartbeat CPU 0 instructions: 7500054 cycles: 1863029 heartbeat IPC: 4.031 cumulative IPC: 4.026 (Simulation time: 00 hr 00 min 38 sec)
Heartbeat CPU 0 instructions: 8000054 cycles: 1987183 heartbeat IPC: 4.027 cumulative IPC: 4.026 (Simulation time: 00 hr 00 min 41 sec)
Heartbeat CPU 0 instructions: 8500059 cycles: 2111350 heartbeat IPC: 4.027 cumulative IPC: 4.026 (Simulation time: 00 hr 00 min 43 sec)
Heartbeat CPU 0 instructions: 9000063 cycles: 2234550 heartbeat IPC: 4.058 cumulative IPC: 4.028 (Simulation time: 00 hr 00 min 46 sec)
Heartbeat CPU 0 instructions: 9500069 cycles: 2358460 heartbeat IPC: 4.035 cumulative IPC: 4.028 (Simulation time: 00 hr 00 min 48 sec)
Heartbeat CPU 0 instructions: 10000072 cycles: 2482376 heartbeat IPC: 4.035 cumulative IPC: 4.028 (Simulation time: 00 hr 00 min 51 sec)
Heartbeat CPU 0 instructions: 10500073 cycles: 2606343 heartbeat IPC: 4.033 cumulative IPC: 4.029 (Simulation time: 00 hr 00 min 53 sec)
Heartbeat CPU 0 instructions: 11000075 cycles: 2729616 heartbeat IPC: 4.056 cumulative IPC: 4.03 (Simulation time: 00 hr 00 min 56 sec)
Heartbeat CPU 0 instructions: 11500076 cycles: 2853523 heartbeat IPC: 4.035 cumulative IPC: 4.03 (Simulation time: 00 hr 00 min 58 sec)
Heartbeat CPU 0 instructions: 12000083 cycles: 2977553 heartbeat IPC: 4.031 cumulative IPC: 4.03 (Simulation time: 00 hr 01 min 01 sec)
Heartbeat CPU 0 instructions: 12500085 cycles: 3098599 heartbeat IPC: 4.131 cumulative IPC: 4.034 (Simulation time: 00 hr 01 min 03 sec)
Heartbeat CPU 0 instructions: 13000092 cycles: 3215220 heartbeat IPC: 4.287 cumulative IPC: 4.043 (Simulation time: 00 hr 01 min 06 sec)
Heartbeat CPU 0 instructions: 13500092 cycles: 3331363 heartbeat IPC: 4.305 cumulative IPC: 4.052 (Simulation time: 00 hr 01 min 08 sec)
Heartbeat CPU 0 instructions: 14000097 cycles: 3447406 heartbeat IPC: 4.309 cumulative IPC: 4.061 (Simulation time: 00 hr 01 min 11 sec)
Heartbeat CPU 0 instructions: 14500104 cycles: 3563516 heartbeat IPC: 4.306 cumulative IPC: 4.069 (Simulation time: 00 hr 01 min 13 sec)
Heartbeat CPU 0 instructions: 15000108 cycles: 3679500 heartbeat IPC: 4.311 cumulative IPC: 4.077 (Simulation time: 00 hr 01 min 15 sec)
Heartbeat CPU 0 instructions: 15500109 cycles: 3795876 heartbeat IPC: 4.296 cumulative IPC: 4.083 (Simulation time: 00 hr 01 min 18 sec)
Heartbeat CPU 0 instructions: 16000109 cycles: 3912140 heartbeat IPC: 4.301 cumulative IPC: 4.09 (Simulation time: 00 hr 01 min 20 sec)
Heartbeat CPU 0 instructions: 16500111 cycles: 4028266 heartbeat IPC: 4.306 cumulative IPC: 4.096 (Simulation time: 00 hr 01 min 23 sec)
Heartbeat CPU 0 instructions: 17000116 cycles: 4144374 heartbeat IPC: 4.306 cumulative IPC: 4.102 (Simulation time: 00 hr 01 min 25 sec)
Heartbeat CPU 0 instructions: 17500118 cycles: 4260699 heartbeat IPC: 4.298 cumulative IPC: 4.107 (Simulation time: 00 hr 01 min 28 sec)
Heartbeat CPU 0 instructions: 18000119 cycles: 4376729 heartbeat IPC: 4.309 cumulative IPC: 4.113 (Simulation time: 00 hr 01 min 30 sec)
Heartbeat CPU 0 instructions: 18500125 cycles: 4493015 heartbeat IPC: 4.3 cumulative IPC: 4.118 (Simulation time: 00 hr 01 min 32 sec)
Heartbeat CPU 0 instructions: 19000130 cycles: 4609150 heartbeat IPC: 4.305 cumulative IPC: 4.122 (Simulation time: 00 hr 01 min 35 sec)
Heartbeat CPU 0 instructions: 19500135 cycles: 4725268 heartbeat IPC: 4.306 cumulative IPC: 4.127 (Simulation time: 00 hr 01 min 37 sec)
Heartbeat CPU 0 instructions: 20000138 cycles: 4841208 heartbeat IPC: 4.313 cumulative IPC: 4.131 (Simulation time: 00 hr 01 min 40 sec)
Heartbeat CPU 0 instructions: 20500139 cycles: 4957345 heartbeat IPC: 4.305 cumulative IPC: 4.135 (Simulation time: 00 hr 01 min 42 sec)
Heartbeat CPU 0 instructions: 21000143 cycles: 5073747 heartbeat IPC: 4.295 cumulative IPC: 4.139 (Simulation time: 00 hr 01 min 44 sec)
Heartbeat CPU 0 instructions: 21500146 cycles: 5189729 heartbeat IPC: 4.311 cumulative IPC: 4.143 (Simulation time: 00 hr 01 min 47 sec)
Heartbeat CPU 0 instructions: 22000150 cycles: 5305890 heartbeat IPC: 4.304 cumulative IPC: 4.146 (Simulation time: 00 hr 01 min 49 sec)
Heartbeat CPU 0 instructions: 22500156 cycles: 5422019 heartbeat IPC: 4.306 cumulative IPC: 4.15 (Simulation time: 00 hr 01 min 52 sec)
Heartbeat CPU 0 instructions: 23000156 cycles: 5538025 heartbeat IPC: 4.31 cumulative IPC: 4.153 (Simulation time: 00 hr 01 min 54 sec)
Heartbeat CPU 0 instructions: 23500162 cycles: 5654312 heartbeat IPC: 4.3 cumulative IPC: 4.156 (Simulation time: 00 hr 01 min 56 sec)
Heartbeat CPU 0 instructions: 24000168 cycles: 5770558 heartbeat IPC: 4.301 cumulative IPC: 4.159 (Simulation time: 00 hr 01 min 59 sec)
Heartbeat CPU 0 instructions: 24500168 cycles: 5886638 heartbeat IPC: 4.307 cumulative IPC: 4.162 (Simulation time: 00 hr 02 min 01 sec)
Heartbeat CPU 0 instructions: 25000174 cycles: 6003371 heartbeat IPC: 4.283 cumulative IPC: 4.164 (Simulation time: 00 hr 02 min 04 sec)
Heartbeat CPU 0 instructions: 25500179 cycles: 6119573 heartbeat IPC: 4.303 cumulative IPC: 4.167 (Simulation time: 00 hr 02 min 06 sec)
Heartbeat CPU 0 instructions: 26000185 cycles: 6235796 heartbeat IPC: 4.302 cumulative IPC: 4.17 (Simulation time: 00 hr 02 min 08 sec)
Heartbeat CPU 0 instructions: 26500191 cycles: 6351865 heartbeat IPC: 4.308 cumulative IPC: 4.172 (Simulation time: 00 hr 02 min 11 sec)
Heartbeat CPU 0 instructions: 27000197 cycles: 6468134 heartbeat IPC: 4.3 cumulative IPC: 4.174 (Simulation time: 00 hr 02 min 13 sec)
Heartbeat CPU 0 instructions: 27500203 cycles: 6584525 heartbeat IPC: 4.296 cumulative IPC: 4.176 (Simulation time: 00 hr 02 min 16 sec)
Heartbeat CPU 0 instructions: 28000208 cycles: 6700651 heartbeat IPC: 4.306 cumulative IPC: 4.179 (Simulation time: 00 hr 02 min 18 sec)
Heartbeat CPU 0 instructions: 28500208 cycles: 6816668 heartbeat IPC: 4.31 cumulative IPC: 4.181 (Simulation time: 00 hr 02 min 21 sec)
Heartbeat CPU 0 instructions: 29000212 cycles: 6932751 heartbeat IPC: 4.307 cumulative IPC: 4.183 (Simulation time: 00 hr 02 min 23 sec)
Heartbeat CPU 0 instructions: 29500213 cycles: 7048893 heartbeat IPC: 4.305 cumulative IPC: 4.185 (Simulation time: 00 hr 02 min 25 sec)
Heartbeat CPU 0 instructions: 30000218 cycles: 7165031 heartbeat IPC: 4.305 cumulative IPC: 4.187 (Simulation time: 00 hr 02 min 28 sec)
Heartbeat CPU 0 instructions: 30500224 cycles: 7281107 heartbeat IPC: 4.308 cumulative IPC: 4.189 (Simulation time: 00 hr 02 min 30 sec)
Heartbeat CPU 0 instructions: 31000229 cycles: 7397228 heartbeat IPC: 4.306 cumulative IPC: 4.191 (Simulation time: 00 hr 02 min 33 sec)
Heartbeat CPU 0 instructions: 31500229 cycles: 7513491 heartbeat IPC: 4.301 cumulative IPC: 4.192 (Simulation time: 00 hr 02 min 35 sec)
Heartbeat CPU 0 instructions: 32000235 cycles: 7629745 heartbeat IPC: 4.301 cumulative IPC: 4.194 (Simulation time: 00 hr 02 min 37 sec)
Heartbeat CPU 0 instructions: 32500241 cycles: 7745744 heartbeat IPC: 4.31 cumulative IPC: 4.196 (Simulation time: 00 hr 02 min 40 sec)
Heartbeat CPU 0 instructions: 33000246 cycles: 7862029 heartbeat IPC: 4.3 cumulative IPC: 4.197 (Simulation time: 00 hr 02 min 42 sec)
Heartbeat CPU 0 instructions: 33500250 cycles: 7978222 heartbeat IPC: 4.303 cumulative IPC: 4.199 (Simulation time: 00 hr 02 min 45 sec)
Heartbeat CPU 0 instructions: 34000250 cycles: 8094262 heartbeat IPC: 4.309 cumulative IPC: 4.201 (Simulation time: 00 hr 02 min 47 sec)
Heartbeat CPU 0 instructions: 34500250 cycles: 8210415 heartbeat IPC: 4.305 cumulative IPC: 4.202 (Simulation time: 00 hr 02 min 49 sec)
Heartbeat CPU 0 instructions: 35000250 cycles: 8326564 heartbeat IPC: 4.305 cumulative IPC: 4.203 (Simulation time: 00 hr 02 min 52 sec)
Heartbeat CPU 0 instructions: 35500251 cycles: 8442775 heartbeat IPC: 4.303 cumulative IPC: 4.205 (Simulation time: 00 hr 02 min 54 sec)
Heartbeat CPU 0 instructions: 36000252 cycles: 8558986 heartbeat IPC: 4.303 cumulative IPC: 4.206 (Simulation time: 00 hr 02 min 57 sec)
Heartbeat CPU 0 instructions: 36500253 cycles: 8675066 heartbeat IPC: 4.307 cumulative IPC: 4.207 (Simulation time: 00 hr 02 min 59 sec)
Heartbeat CPU 0 instructions: 37000258 cycles: 8791441 heartbeat IPC: 4.296 cumulative IPC: 4.209 (Simulation time: 00 hr 03 min 01 sec)
Heartbeat CPU 0 instructions: 37500259 cycles: 8908263 heartbeat IPC: 4.28 cumulative IPC: 4.21 (Simulation time: 00 hr 03 min 04 sec)
Heartbeat CPU 0 instructions: 38000259 cycles: 9024324 heartbeat IPC: 4.308 cumulative IPC: 4.211 (Simulation time: 00 hr 03 min 06 sec)
Heartbeat CPU 0 instructions: 38500262 cycles: 9140464 heartbeat IPC: 4.305 cumulative IPC: 4.212 (Simulation time: 00 hr 03 min 09 sec)
Heartbeat CPU 0 instructions: 39000264 cycles: 9256817 heartbeat IPC: 4.297 cumulative IPC: 4.213 (Simulation time: 00 hr 03 min 11 sec)
Heartbeat CPU 0 instructions: 39500271 cycles: 9373237 heartbeat IPC: 4.295 cumulative IPC: 4.214 (Simulation time: 00 hr 03 min 13 sec)
Heartbeat CPU 0 instructions: 40000273 cycles: 9489303 heartbeat IPC: 4.308 cumulative IPC: 4.215 (Simulation time: 00 hr 03 min 16 sec)
Heartbeat CPU 0 instructions: 40500274 cycles: 9605339 heartbeat IPC: 4.309 cumulative IPC: 4.216 (Simulation time: 00 hr 03 min 18 sec)
Heartbeat CPU 0 instructions: 41000275 cycles: 9721605 heartbeat IPC: 4.3 cumulative IPC: 4.217 (Simulation time: 00 hr 03 min 21 sec)
Heartbeat CPU 0 instructions: 41500282 cycles: 9837745 heartbeat IPC: 4.305 cumulative IPC: 4.218 (Simulation time: 00 hr 03 min 23 sec)
Heartbeat CPU 0 instructions: 42000289 cycles: 9953908 heartbeat IPC: 4.304 cumulative IPC: 4.219 (Simulation time: 00 hr 03 min 26 sec)
Heartbeat CPU 0 instructions: 42500291 cycles: 10069918 heartbeat IPC: 4.31 cumulative IPC: 4.221 (Simulation time: 00 hr 03 min 28 sec)
Heartbeat CPU 0 instructions: 43000292 cycles: 10186152 heartbeat IPC: 4.302 cumulative IPC: 4.221 (Simulation time: 00 hr 03 min 30 sec)
Heartbeat CPU 0 instructions: 43500292 cycles: 10302158 heartbeat IPC: 4.31 cumulative IPC: 4.222 (Simulation time: 00 hr 03 min 33 sec)
Heartbeat CPU 0 instructions: 44000292 cycles: 10418428 heartbeat IPC: 4.3 cumulative IPC: 4.223 (Simulation time: 00 hr 03 min 35 sec)
Heartbeat CPU 0 instructions: 44500295 cycles: 10534705 heartbeat IPC: 4.3 cumulative IPC: 4.224 (Simulation time: 00 hr 03 min 37 sec)
Heartbeat CPU 0 instructions: 45000300 cycles: 10650686 heartbeat IPC: 4.311 cumulative IPC: 4.225 (Simulation time: 00 hr 03 min 40 sec)
Heartbeat CPU 0 instructions: 45500306 cycles: 10766912 heartbeat IPC: 4.302 cumulative IPC: 4.226 (Simulation time: 00 hr 03 min 42 sec)
Heartbeat CPU 0 instructions: 46000308 cycles: 10883137 heartbeat IPC: 4.302 cumulative IPC: 4.227 (Simulation time: 00 hr 03 min 45 sec)
Heartbeat CPU 0 instructions: 46500315 cycles: 10999209 heartbeat IPC: 4.308 cumulative IPC: 4.228 (Simulation time: 00 hr 03 min 47 sec)
Heartbeat CPU 0 instructions: 47000318 cycles: 11115425 heartbeat IPC: 4.302 cumulative IPC: 4.228 (Simulation time: 00 hr 03 min 49 sec)
Heartbeat CPU 0 instructions: 47500319 cycles: 11231389 heartbeat IPC: 4.312 cumulative IPC: 4.229 (Simulation time: 00 hr 03 min 52 sec)
Heartbeat CPU 0 instructions: 48000319 cycles: 11347454 heartbeat IPC: 4.308 cumulative IPC: 4.23 (Simulation time: 00 hr 03 min 54 sec)
Heartbeat CPU 0 instructions: 48500320 cycles: 11463577 heartbeat IPC: 4.306 cumulative IPC: 4.231 (Simulation time: 00 hr 03 min 57 sec)
Heartbeat CPU 0 instructions: 49000322 cycles: 11579737 heartbeat IPC: 4.304 cumulative IPC: 4.232 (Simulation time: 00 hr 03 min 59 sec)
Heartbeat CPU 0 instructions: 49500323 cycles: 11695925 heartbeat IPC: 4.303 cumulative IPC: 4.232 (Simulation time: 00 hr 04 min 01 sec)
Warmup finished CPU 0 instructions: 50000000 cycles: 11812785 cumulative IPC: 4.233 (Simulation time: 00 hr 04 min 04 sec)
Warmup complete CPU 0 instructions: 50000000 cycles: 11812785 cumulative IPC: 4.233 (Simulation time: 00 hr 04 min 04 sec)
Heartbeat CPU 0 instructions: 50000329 cycles: 11812904 heartbeat IPC: 4.274 cumulative IPC: 2.765 (Simulation time: 00 hr 04 min 04 sec)
Heartbeat CPU 0 instructions: 50500329 cycles: 11966845 heartbeat IPC: 3.248 cumulative IPC: 3.248 (Simulation time: 00 hr 04 min 06 sec)
Heartbeat CPU 0 instructions: 51000330 cycles: 12125178 heartbeat IPC: 3.158 cumulative IPC: 3.202 (Simulation time: 00 hr 04 min 09 sec)
Heartbeat CPU 0 instructions: 51500330 cycles: 12284035 heartbeat IPC: 3.147 cumulative IPC: 3.184 (Simulation time: 00 hr 04 min 11 sec)
Heartbeat CPU 0 instructions: 52000336 cycles: 12443647 heartbeat IPC: 3.133 cumulative IPC: 3.171 (Simulation time: 00 hr 04 min 14 sec)
Heartbeat CPU 0 instructions: 52500340 cycles: 12599298 heartbeat IPC: 3.212 cumulative IPC: 3.179 (Simulation time: 00 hr 04 min 16 sec)
Heartbeat CPU 0 instructions: 53000346 cycles: 12756873 heartbeat IPC: 3.173 cumulative IPC: 3.178 (Simulation time: 00 hr 04 min 19 sec)
Heartbeat CPU 0 instructions: 53500351 cycles: 12914333 heartbeat IPC: 3.175 cumulative IPC: 3.178 (Simulation time: 00 hr 04 min 22 sec)
Heartbeat CPU 0 instructions: 54000356 cycles: 13073329 heartbeat IPC: 3.145 cumulative IPC: 3.174 (Simulation time: 00 hr 04 min 24 sec)
Heartbeat CPU 0 instructions: 54500356 cycles: 13226073 heartbeat IPC: 3.273 cumulative IPC: 3.184 (Simulation time: 00 hr 04 min 27 sec)
Heartbeat CPU 0 instructions: 55000360 cycles: 13380388 heartbeat IPC: 3.24 cumulative IPC: 3.19 (Simulation time: 00 hr 04 min 29 sec)
Heartbeat CPU 0 instructions: 55500364 cycles: 13534969 heartbeat IPC: 3.235 cumulative IPC: 3.194 (Simulation time: 00 hr 04 min 32 sec)
Heartbeat CPU 0 instructions: 56000368 cycles: 13689048 heartbeat IPC: 3.245 cumulative IPC: 3.198 (Simulation time: 00 hr 04 min 34 sec)
Heartbeat CPU 0 instructions: 56500368 cycles: 13841022 heartbeat IPC: 3.29 cumulative IPC: 3.205 (Simulation time: 00 hr 04 min 36 sec)
Heartbeat CPU 0 instructions: 57000375 cycles: 13994106 heartbeat IPC: 3.266 cumulative IPC: 3.209 (Simulation time: 00 hr 04 min 39 sec)
Heartbeat CPU 0 instructions: 57500379 cycles: 14146059 heartbeat IPC: 3.291 cumulative IPC: 3.215 (Simulation time: 00 hr 04 min 41 sec)
Heartbeat CPU 0 instructions: 58000382 cycles: 14296357 heartbeat IPC: 3.327 cumulative IPC: 3.221 (Simulation time: 00 hr 04 min 44 sec)
Heartbeat CPU 0 instructions: 58500383 cycles: 14445622 heartbeat IPC: 3.35 cumulative IPC: 3.229 (Simulation time: 00 hr 04 min 46 sec)
Heartbeat CPU 0 instructions: 59000384 cycles: 14595105 heartbeat IPC: 3.345 cumulative IPC: 3.235 (Simulation time: 00 hr 04 min 49 sec)
Heartbeat CPU 0 instructions: 59500386 cycles: 14743953 heartbeat IPC: 3.359 cumulative IPC: 3.241 (Simulation time: 00 hr 04 min 51 sec)
Heartbeat CPU 0 instructions: 60000390 cycles: 14891239 heartbeat IPC: 3.395 cumulative IPC: 3.249 (Simulation time: 00 hr 04 min 53 sec)
Heartbeat CPU 0 instructions: 60500394 cycles: 15037702 heartbeat IPC: 3.414 cumulative IPC: 3.256 (Simulation time: 00 hr 04 min 56 sec)
Heartbeat CPU 0 instructions: 61000400 cycles: 15187088 heartbeat IPC: 3.347 cumulative IPC: 3.26 (Simulation time: 00 hr 04 min 58 sec)
Heartbeat CPU 0 instructions: 61500404 cycles: 15335461 heartbeat IPC: 3.37 cumulative IPC: 3.265 (Simulation time: 00 hr 05 min 01 sec)
Heartbeat CPU 0 instructions: 62000407 cycles: 15484813 heartbeat IPC: 3.348 cumulative IPC: 3.268 (Simulation time: 00 hr 05 min 03 sec)
Heartbeat CPU 0 instructions: 62500409 cycles: 15639249 heartbeat IPC: 3.238 cumulative IPC: 3.267 (Simulation time: 00 hr 05 min 06 sec)
Heartbeat CPU 0 instructions: 63000414 cycles: 15801224 heartbeat IPC: 3.087 cumulative IPC: 3.26 (Simulation time: 00 hr 05 min 08 sec)
Heartbeat CPU 0 instructions: 63500418 cycles: 15960084 heartbeat IPC: 3.147 cumulative IPC: 3.255 (Simulation time: 00 hr 05 min 11 sec)
Heartbeat CPU 0 instructions: 64000422 cycles: 16119137 heartbeat IPC: 3.144 cumulative IPC: 3.251 (Simulation time: 00 hr 05 min 13 sec)
Heartbeat CPU 0 instructions: 64500422 cycles: 16275727 heartbeat IPC: 3.193 cumulative IPC: 3.249 (Simulation time: 00 hr 05 min 16 sec)
Heartbeat CPU 0 instructions: 65000429 cycles: 16432834 heartbeat IPC: 3.183 cumulative IPC: 3.247 (Simulation time: 00 hr 05 min 18 sec)
Heartbeat CPU 0 instructions: 65500433 cycles: 16590646 heartbeat IPC: 3.168 cumulative IPC: 3.244 (Simulation time: 00 hr 05 min 21 sec)
Heartbeat CPU 0 instructions: 66000434 cycles: 16746481 heartbeat IPC: 3.209 cumulative IPC: 3.243 (Simulation time: 00 hr 05 min 23 sec)
Heartbeat CPU 0 instructions: 66500441 cycles: 16903064 heartbeat IPC: 3.193 cumulative IPC: 3.242 (Simulation time: 00 hr 05 min 26 sec)
Heartbeat CPU 0 instructions: 67000442 cycles: 17057285 heartbeat IPC: 3.242 cumulative IPC: 3.242 (Simulation time: 00 hr 05 min 28 sec)
Heartbeat CPU 0 instructions: 67500443 cycles: 17211233 heartbeat IPC: 3.248 cumulative IPC: 3.242 (Simulation time: 00 hr 05 min 31 sec)
Heartbeat CPU 0 instructions: 68000443 cycles: 17364532 heartbeat IPC: 3.262 cumulative IPC: 3.242 (Simulation time: 00 hr 05 min 33 sec)
Heartbeat CPU 0 instructions: 68500448 cycles: 17520101 heartbeat IPC: 3.214 cumulative IPC: 3.242 (Simulation time: 00 hr 05 min 36 sec)
Heartbeat CPU 0 instructions: 69000454 cycles: 17674924 heartbeat IPC: 3.23 cumulative IPC: 3.241 (Simulation time: 00 hr 05 min 38 sec)
Heartbeat CPU 0 instructions: 69500458 cycles: 17826997 heartbeat IPC: 3.288 cumulative IPC: 3.242 (Simulation time: 00 hr 05 min 41 sec)
Heartbeat CPU 0 instructions: 70000461 cycles: 17973965 heartbeat IPC: 3.402 cumulative IPC: 3.246 (Simulation time: 00 hr 05 min 43 sec)
Heartbeat CPU 0 instructions: 70500463 cycles: 18123422 heartbeat IPC: 3.345 cumulative IPC: 3.249 (Simulation time: 00 hr 05 min 46 sec)
Heartbeat CPU 0 instructions: 71000468 cycles: 18275027 heartbeat IPC: 3.298 cumulative IPC: 3.25 (Simulation time: 00 hr 05 min 48 sec)
Heartbeat CPU 0 instructions: 71500472 cycles: 18425983 heartbeat IPC: 3.312 cumulative IPC: 3.251 (Simulation time: 00 hr 05 min 50 sec)
Heartbeat CPU 0 instructions: 72000475 cycles: 18572951 heartbeat IPC: 3.402 cumulative IPC: 3.254 (Simulation time: 00 hr 05 min 53 sec)
Heartbeat CPU 0 instructions: 72500476 cycles: 18720065 heartbeat IPC: 3.399 cumulative IPC: 3.258 (Simulation time: 00 hr 05 min 55 sec)
Heartbeat CPU 0 instructions: 73000483 cycles: 18867077 heartbeat IPC: 3.401 cumulative IPC: 3.26 (Simulation time: 00 hr 05 min 58 sec)
Heartbeat CPU 0 instructions: 73500487 cycles: 19016707 heartbeat IPC: 3.342 cumulative IPC: 3.262 (Simulation time: 00 hr 06 min 00 sec)
Heartbeat CPU 0 instructions: 74000490 cycles: 19166031 heartbeat IPC: 3.348 cumulative IPC: 3.264 (Simulation time: 00 hr 06 min 02 sec)
Heartbeat CPU 0 instructions: 74500495 cycles: 19318432 heartbeat IPC: 3.281 cumulative IPC: 3.264 (Simulation time: 00 hr 06 min 05 sec)
Heartbeat CPU 0 instructions: 75000498 cycles: 19469950 heartbeat IPC: 3.3 cumulative IPC: 3.265 (Simulation time: 00 hr 06 min 07 sec)
Heartbeat CPU 0 instructions: 75500498 cycles: 19629740 heartbeat IPC: 3.129 cumulative IPC: 3.262 (Simulation time: 00 hr 06 min 10 sec)
Heartbeat CPU 0 instructions: 76000499 cycles: 19785529 heartbeat IPC: 3.209 cumulative IPC: 3.261 (Simulation time: 00 hr 06 min 12 sec)
Heartbeat CPU 0 instructions: 76500502 cycles: 19943828 heartbeat IPC: 3.159 cumulative IPC: 3.259 (Simulation time: 00 hr 06 min 15 sec)
Heartbeat CPU 0 instructions: 77000508 cycles: 20102939 heartbeat IPC: 3.142 cumulative IPC: 3.257 (Simulation time: 00 hr 06 min 17 sec)
Heartbeat CPU 0 instructions: 77500513 cycles: 20260874 heartbeat IPC: 3.166 cumulative IPC: 3.255 (Simulation time: 00 hr 06 min 20 sec)
Heartbeat CPU 0 instructions: 78000513 cycles: 20414544 heartbeat IPC: 3.254 cumulative IPC: 3.255 (Simulation time: 00 hr 06 min 22 sec)
Heartbeat CPU 0 instructions: 78500517 cycles: 20571681 heartbeat IPC: 3.182 cumulative IPC: 3.254 (Simulation time: 00 hr 06 min 25 sec)
Heartbeat CPU 0 instructions: 79000522 cycles: 20727506 heartbeat IPC: 3.209 cumulative IPC: 3.253 (Simulation time: 00 hr 06 min 28 sec)
Heartbeat CPU 0 instructions: 79500526 cycles: 20882249 heartbeat IPC: 3.231 cumulative IPC: 3.253 (Simulation time: 00 hr 06 min 30 sec)
Heartbeat CPU 0 instructions: 80000529 cycles: 21033394 heartbeat IPC: 3.308 cumulative IPC: 3.254 (Simulation time: 00 hr 06 min 32 sec)
Heartbeat CPU 0 instructions: 80500534 cycles: 21187251 heartbeat IPC: 3.25 cumulative IPC: 3.254 (Simulation time: 00 hr 06 min 35 sec)
Heartbeat CPU 0 instructions: 81000537 cycles: 21341989 heartbeat IPC: 3.231 cumulative IPC: 3.253 (Simulation time: 00 hr 06 min 37 sec)
Heartbeat CPU 0 instructions: 81500541 cycles: 21496762 heartbeat IPC: 3.231 cumulative IPC: 3.253 (Simulation time: 00 hr 06 min 40 sec)
Heartbeat CPU 0 instructions: 82000544 cycles: 21644818 heartbeat IPC: 3.377 cumulative IPC: 3.255 (Simulation time: 00 hr 06 min 42 sec)
Heartbeat CPU 0 instructions: 82500549 cycles: 21794512 heartbeat IPC: 3.34 cumulative IPC: 3.256 (Simulation time: 00 hr 06 min 45 sec)
Heartbeat CPU 0 instructions: 83000550 cycles: 21944976 heartbeat IPC: 3.323 cumulative IPC: 3.257 (Simulation time: 00 hr 06 min 47 sec)
Heartbeat CPU 0 instructions: 83500551 cycles: 22096372 heartbeat IPC: 3.303 cumulative IPC: 3.258 (Simulation time: 00 hr 06 min 50 sec)
Heartbeat CPU 0 instructions: 84000553 cycles: 22244024 heartbeat IPC: 3.386 cumulative IPC: 3.259 (Simulation time: 00 hr 06 min 52 sec)
Heartbeat CPU 0 instructions: 84500556 cycles: 22393832 heartbeat IPC: 3.338 cumulative IPC: 3.261 (Simulation time: 00 hr 06 min 54 sec)
Heartbeat CPU 0 instructions: 85000556 cycles: 22542843 heartbeat IPC: 3.355 cumulative IPC: 3.262 (Simulation time: 00 hr 06 min 57 sec)
Heartbeat CPU 0 instructions: 85500561 cycles: 22693535 heartbeat IPC: 3.318 cumulative IPC: 3.263 (Simulation time: 00 hr 06 min 59 sec)
Heartbeat CPU 0 instructions: 86000561 cycles: 22841644 heartbeat IPC: 3.376 cumulative IPC: 3.264 (Simulation time: 00 hr 07 min 02 sec)
Heartbeat CPU 0 instructions: 86500561 cycles: 22992366 heartbeat IPC: 3.317 cumulative IPC: 3.265 (Simulation time: 00 hr 07 min 04 sec)
Heartbeat CPU 0 instructions: 87000568 cycles: 23147081 heartbeat IPC: 3.232 cumulative IPC: 3.264 (Simulation time: 00 hr 07 min 07 sec)
Heartbeat CPU 0 instructions: 87500572 cycles: 23304344 heartbeat IPC: 3.179 cumulative IPC: 3.263 (Simulation time: 00 hr 07 min 09 sec)
Heartbeat CPU 0 instructions: 88000575 cycles: 23458453 heartbeat IPC: 3.244 cumulative IPC: 3.263 (Simulation time: 00 hr 07 min 12 sec)
Heartbeat CPU 0 instructions: 88500578 cycles: 23615044 heartbeat IPC: 3.193 cumulative IPC: 3.262 (Simulation time: 00 hr 07 min 14 sec)
Heartbeat CPU 0 instructions: 89000583 cycles: 23773513 heartbeat IPC: 3.155 cumulative IPC: 3.261 (Simulation time: 00 hr 07 min 17 sec)
Heartbeat CPU 0 instructions: 89500587 cycles: 23932696 heartbeat IPC: 3.141 cumulative IPC: 3.259 (Simulation time: 00 hr 07 min 19 sec)
Heartbeat CPU 0 instructions: 90000590 cycles: 24086405 heartbeat IPC: 3.253 cumulative IPC: 3.259 (Simulation time: 00 hr 07 min 22 sec)
Heartbeat CPU 0 instructions: 90500595 cycles: 24243526 heartbeat IPC: 3.182 cumulative IPC: 3.258 (Simulation time: 00 hr 07 min 24 sec)
Heartbeat CPU 0 instructions: 91000600 cycles: 24400783 heartbeat IPC: 3.18 cumulative IPC: 3.257 (Simulation time: 00 hr 07 min 27 sec)
Heartbeat CPU 0 instructions: 91500600 cycles: 24557228 heartbeat IPC: 3.196 cumulative IPC: 3.256 (Simulation time: 00 hr 07 min 29 sec)
Heartbeat CPU 0 instructions: 92000607 cycles: 24708656 heartbeat IPC: 3.302 cumulative IPC: 3.257 (Simulation time: 00 hr 07 min 32 sec)
Heartbeat CPU 0 instructions: 92500610 cycles: 24862319 heartbeat IPC: 3.254 cumulative IPC: 3.257 (Simulation time: 00 hr 07 min 34 sec)
Heartbeat CPU 0 instructions: 93000616 cycles: 25017256 heartbeat IPC: 3.227 cumulative IPC: 3.257 (Simulation time: 00 hr 07 min 37 sec)
Heartbeat CPU 0 instructions: 93500621 cycles: 25171212 heartbeat IPC: 3.248 cumulative IPC: 3.256 (Simulation time: 00 hr 07 min 39 sec)
Heartbeat CPU 0 instructions: 94000621 cycles: 25323946 heartbeat IPC: 3.274 cumulative IPC: 3.257 (Simulation time: 00 hr 07 min 42 sec)
Heartbeat CPU 0 instructions: 94500625 cycles: 25475722 heartbeat IPC: 3.294 cumulative IPC: 3.257 (Simulation time: 00 hr 07 min 44 sec)
Heartbeat CPU 0 instructions: 95000630 cycles: 25625396 heartbeat IPC: 3.341 cumulative IPC: 3.258 (Simulation time: 00 hr 07 min 46 sec)
Heartbeat CPU 0 instructions: 95500635 cycles: 25776911 heartbeat IPC: 3.3 cumulative IPC: 3.258 (Simulation time: 00 hr 07 min 49 sec)
Heartbeat CPU 0 instructions: 96000637 cycles: 25926181 heartbeat IPC: 3.35 cumulative IPC: 3.259 (Simulation time: 00 hr 07 min 51 sec)
Heartbeat CPU 0 instructions: 96500638 cycles: 26076280 heartbeat IPC: 3.331 cumulative IPC: 3.26 (Simulation time: 00 hr 07 min 54 sec)
Heartbeat CPU 0 instructions: 97000645 cycles: 26225326 heartbeat IPC: 3.355 cumulative IPC: 3.261 (Simulation time: 00 hr 07 min 56 sec)
Heartbeat CPU 0 instructions: 97500650 cycles: 26374582 heartbeat IPC: 3.35 cumulative IPC: 3.262 (Simulation time: 00 hr 07 min 59 sec)
Heartbeat CPU 0 instructions: 98000652 cycles: 26522219 heartbeat IPC: 3.387 cumulative IPC: 3.263 (Simulation time: 00 hr 08 min 01 sec)
Heartbeat CPU 0 instructions: 98500653 cycles: 26671217 heartbeat IPC: 3.356 cumulative IPC: 3.264 (Simulation time: 00 hr 08 min 03 sec)
Heartbeat CPU 0 instructions: 99000654 cycles: 26820368 heartbeat IPC: 3.352 cumulative IPC: 3.265 (Simulation time: 00 hr 08 min 06 sec)
Heartbeat CPU 0 instructions: 99500656 cycles: 26975422 heartbeat IPC: 3.225 cumulative IPC: 3.265 (Simulation time: 00 hr 08 min 08 sec)
Heartbeat CPU 0 instructions: 100000661 cycles: 27128712 heartbeat IPC: 3.262 cumulative IPC: 3.265 (Simulation time: 00 hr 08 min 11 sec)
Heartbeat CPU 0 instructions: 100500664 cycles: 27289945 heartbeat IPC: 3.101 cumulative IPC: 3.263 (Simulation time: 00 hr 08 min 13 sec)
Heartbeat CPU 0 instructions: 101000670 cycles: 27447587 heartbeat IPC: 3.172 cumulative IPC: 3.262 (Simulation time: 00 hr 08 min 16 sec)
Heartbeat CPU 0 instructions: 101500672 cycles: 27603874 heartbeat IPC: 3.199 cumulative IPC: 3.261 (Simulation time: 00 hr 08 min 18 sec)
Heartbeat CPU 0 instructions: 102000672 cycles: 27762054 heartbeat IPC: 3.161 cumulative IPC: 3.26 (Simulation time: 00 hr 08 min 21 sec)
Heartbeat CPU 0 instructions: 102500679 cycles: 27919146 heartbeat IPC: 3.183 cumulative IPC: 3.26 (Simulation time: 00 hr 08 min 23 sec)
Heartbeat CPU 0 instructions: 103000684 cycles: 28075943 heartbeat IPC: 3.189 cumulative IPC: 3.259 (Simulation time: 00 hr 08 min 26 sec)
Heartbeat CPU 0 instructions: 103500684 cycles: 28231571 heartbeat IPC: 3.213 cumulative IPC: 3.259 (Simulation time: 00 hr 08 min 28 sec)
Heartbeat CPU 0 instructions: 104000691 cycles: 28385843 heartbeat IPC: 3.241 cumulative IPC: 3.258 (Simulation time: 00 hr 08 min 31 sec)
Heartbeat CPU 0 instructions: 104500692 cycles: 28539179 heartbeat IPC: 3.261 cumulative IPC: 3.258 (Simulation time: 00 hr 08 min 33 sec)
Heartbeat CPU 0 instructions: 105000699 cycles: 28693651 heartbeat IPC: 3.237 cumulative IPC: 3.258 (Simulation time: 00 hr 08 min 36 sec)
Heartbeat CPU 0 instructions: 105500703 cycles: 28844941 heartbeat IPC: 3.305 cumulative IPC: 3.259 (Simulation time: 00 hr 08 min 38 sec)
Heartbeat CPU 0 instructions: 106000706 cycles: 28998800 heartbeat IPC: 3.25 cumulative IPC: 3.259 (Simulation time: 00 hr 08 min 41 sec)
Heartbeat CPU 0 instructions: 106500707 cycles: 29150857 heartbeat IPC: 3.288 cumulative IPC: 3.259 (Simulation time: 00 hr 08 min 43 sec)
Heartbeat CPU 0 instructions: 107000708 cycles: 29302342 heartbeat IPC: 3.301 cumulative IPC: 3.259 (Simulation time: 00 hr 08 min 46 sec)
Heartbeat CPU 0 instructions: 107500711 cycles: 29451660 heartbeat IPC: 3.349 cumulative IPC: 3.26 (Simulation time: 00 hr 08 min 48 sec)
Heartbeat CPU 0 instructions: 108000715 cycles: 29602997 heartbeat IPC: 3.304 cumulative IPC: 3.26 (Simulation time: 00 hr 08 min 50 sec)
Heartbeat CPU 0 instructions: 108500718 cycles: 29753884 heartbeat IPC: 3.314 cumulative IPC: 3.261 (Simulation time: 00 hr 08 min 53 sec)
Heartbeat CPU 0 instructions: 109000724 cycles: 29901187 heartbeat IPC: 3.394 cumulative IPC: 3.262 (Simulation time: 00 hr 08 min 55 sec)
Heartbeat CPU 0 instructions: 109500727 cycles: 30046823 heartbeat IPC: 3.433 cumulative IPC: 3.263 (Simulation time: 00 hr 08 min 58 sec)
Heartbeat CPU 0 instructions: 110000728 cycles: 30196782 heartbeat IPC: 3.334 cumulative IPC: 3.264 (Simulation time: 00 hr 09 min 00 sec)
Heartbeat CPU 0 instructions: 110500733 cycles: 30346084 heartbeat IPC: 3.349 cumulative IPC: 3.264 (Simulation time: 00 hr 09 min 03 sec)
Heartbeat CPU 0 instructions: 111000738 cycles: 30496119 heartbeat IPC: 3.333 cumulative IPC: 3.265 (Simulation time: 00 hr 09 min 05 sec)
Heartbeat CPU 0 instructions: 111500743 cycles: 30645827 heartbeat IPC: 3.34 cumulative IPC: 3.266 (Simulation time: 00 hr 09 min 07 sec)
Heartbeat CPU 0 instructions: 112000745 cycles: 30800985 heartbeat IPC: 3.223 cumulative IPC: 3.265 (Simulation time: 00 hr 09 min 10 sec)
Heartbeat CPU 0 instructions: 112500746 cycles: 30957479 heartbeat IPC: 3.195 cumulative IPC: 3.265 (Simulation time: 00 hr 09 min 12 sec)
Heartbeat CPU 0 instructions: 113000753 cycles: 31115559 heartbeat IPC: 3.163 cumulative IPC: 3.264 (Simulation time: 00 hr 09 min 15 sec)
Heartbeat CPU 0 instructions: 113500757 cycles: 31271496 heartbeat IPC: 3.206 cumulative IPC: 3.263 (Simulation time: 00 hr 09 min 17 sec)
Heartbeat CPU 0 instructions: 114000760 cycles: 31430526 heartbeat IPC: 3.144 cumulative IPC: 3.262 (Simulation time: 00 hr 09 min 20 sec)
Heartbeat CPU 0 instructions: 114500761 cycles: 31589751 heartbeat IPC: 3.14 cumulative IPC: 3.261 (Simulation time: 00 hr 09 min 23 sec)
Heartbeat CPU 0 instructions: 115000762 cycles: 31746701 heartbeat IPC: 3.186 cumulative IPC: 3.261 (Simulation time: 00 hr 09 min 25 sec)
Heartbeat CPU 0 instructions: 115500765 cycles: 31900343 heartbeat IPC: 3.254 cumulative IPC: 3.261 (Simulation time: 00 hr 09 min 28 sec)
Heartbeat CPU 0 instructions: 116000769 cycles: 32057737 heartbeat IPC: 3.177 cumulative IPC: 3.26 (Simulation time: 00 hr 09 min 30 sec)
Heartbeat CPU 0 instructions: 116500772 cycles: 32213110 heartbeat IPC: 3.218 cumulative IPC: 3.26 (Simulation time: 00 hr 09 min 33 sec)
Heartbeat CPU 0 instructions: 117000778 cycles: 32367350 heartbeat IPC: 3.242 cumulative IPC: 3.26 (Simulation time: 00 hr 09 min 35 sec)
Heartbeat CPU 0 instructions: 117500781 cycles: 32519742 heartbeat IPC: 3.281 cumulative IPC: 3.26 (Simulation time: 00 hr 09 min 37 sec)
Heartbeat CPU 0 instructions: 118000782 cycles: 32674644 heartbeat IPC: 3.228 cumulative IPC: 3.26 (Simulation time: 00 hr 09 min 40 sec)
Heartbeat CPU 0 instructions: 118500787 cycles: 32828735 heartbeat IPC: 3.245 cumulative IPC: 3.259 (Simulation time: 00 hr 09 min 42 sec)
Heartbeat CPU 0 instructions: 119000792 cycles: 32979054 heartbeat IPC: 3.326 cumulative IPC: 3.26 (Simulation time: 00 hr 09 min 45 sec)
Heartbeat CPU 0 instructions: 119500797 cycles: 33128508 heartbeat IPC: 3.346 cumulative IPC: 3.261 (Simulation time: 00 hr 09 min 47 sec)
Heartbeat CPU 0 instructions: 120000799 cycles: 33278441 heartbeat IPC: 3.335 cumulative IPC: 3.261 (Simulation time: 00 hr 09 min 50 sec)
Heartbeat CPU 0 instructions: 120500802 cycles: 33429768 heartbeat IPC: 3.304 cumulative IPC: 3.261 (Simulation time: 00 hr 09 min 52 sec)
Heartbeat CPU 0 instructions: 121000807 cycles: 33578228 heartbeat IPC: 3.368 cumulative IPC: 3.262 (Simulation time: 00 hr 09 min 55 sec)
Heartbeat CPU 0 instructions: 121500811 cycles: 33726650 heartbeat IPC: 3.369 cumulative IPC: 3.263 (Simulation time: 00 hr 09 min 57 sec)
Heartbeat CPU 0 instructions: 122000814 cycles: 33875512 heartbeat IPC: 3.359 cumulative IPC: 3.263 (Simulation time: 00 hr 09 min 59 sec)
Heartbeat CPU 0 instructions: 122500815 cycles: 34026643 heartbeat IPC: 3.308 cumulative IPC: 3.264 (Simulation time: 00 hr 10 min 02 sec)
Heartbeat CPU 0 instructions: 123000816 cycles: 34176727 heartbeat IPC: 3.331 cumulative IPC: 3.264 (Simulation time: 00 hr 10 min 04 sec)
Heartbeat CPU 0 instructions: 123500819 cycles: 34325798 heartbeat IPC: 3.354 cumulative IPC: 3.265 (Simulation time: 00 hr 10 min 07 sec)
Heartbeat CPU 0 instructions: 124000823 cycles: 34474638 heartbeat IPC: 3.359 cumulative IPC: 3.265 (Simulation time: 00 hr 10 min 09 sec)
Heartbeat CPU 0 instructions: 124500824 cycles: 34673288 heartbeat IPC: 2.517 cumulative IPC: 3.259 (Simulation time: 00 hr 10 min 12 sec)
Heartbeat CPU 0 instructions: 125000827 cycles: 34879696 heartbeat IPC: 2.422 cumulative IPC: 3.251 (Simulation time: 00 hr 10 min 15 sec)
Heartbeat CPU 0 instructions: 125500833 cycles: 35082687 heartbeat IPC: 2.463 cumulative IPC: 3.245 (Simulation time: 00 hr 10 min 18 sec)
Heartbeat CPU 0 instructions: 126000838 cycles: 35278817 heartbeat IPC: 2.549 cumulative IPC: 3.239 (Simulation time: 00 hr 10 min 21 sec)
Heartbeat CPU 0 instructions: 126500840 cycles: 35466565 heartbeat IPC: 2.663 cumulative IPC: 3.234 (Simulation time: 00 hr 10 min 24 sec)
Heartbeat CPU 0 instructions: 127000846 cycles: 35653642 heartbeat IPC: 2.673 cumulative IPC: 3.23 (Simulation time: 00 hr 10 min 27 sec)
Heartbeat CPU 0 instructions: 127500849 cycles: 35837368 heartbeat IPC: 2.721 cumulative IPC: 3.226 (Simulation time: 00 hr 10 min 30 sec)
Heartbeat CPU 0 instructions: 128000852 cycles: 36071730 heartbeat IPC: 2.133 cumulative IPC: 3.215 (Simulation time: 00 hr 10 min 33 sec)
Heartbeat CPU 0 instructions: 128500853 cycles: 36403240 heartbeat IPC: 1.508 cumulative IPC: 3.192 (Simulation time: 00 hr 10 min 38 sec)
Heartbeat CPU 0 instructions: 129000854 cycles: 36718694 heartbeat IPC: 1.585 cumulative IPC: 3.172 (Simulation time: 00 hr 10 min 42 sec)
Heartbeat CPU 0 instructions: 129500855 cycles: 37036366 heartbeat IPC: 1.574 cumulative IPC: 3.152 (Simulation time: 00 hr 10 min 47 sec)
Heartbeat CPU 0 instructions: 130000855 cycles: 37354325 heartbeat IPC: 1.573 cumulative IPC: 3.132 (Simulation time: 00 hr 10 min 51 sec)
Heartbeat CPU 0 instructions: 130500856 cycles: 37668305 heartbeat IPC: 1.592 cumulative IPC: 3.113 (Simulation time: 00 hr 10 min 56 sec)
Heartbeat CPU 0 instructions: 131000857 cycles: 37982302 heartbeat IPC: 1.592 cumulative IPC: 3.095 (Simulation time: 00 hr 11 min 00 sec)
Heartbeat CPU 0 instructions: 131500858 cycles: 38294573 heartbeat IPC: 1.601 cumulative IPC: 3.078 (Simulation time: 00 hr 11 min 04 sec)
Heartbeat CPU 0 instructions: 132000859 cycles: 38607325 heartbeat IPC: 1.599 cumulative IPC: 3.06 (Simulation time: 00 hr 11 min 09 sec)
Heartbeat CPU 0 instructions: 132500860 cycles: 38919853 heartbeat IPC: 1.6 cumulative IPC: 3.044 (Simulation time: 00 hr 11 min 13 sec)
Heartbeat CPU 0 instructions: 133000861 cycles: 39235204 heartbeat IPC: 1.586 cumulative IPC: 3.027 (Simulation time: 00 hr 11 min 18 sec)
Heartbeat CPU 0 instructions: 133500866 cycles: 39549144 heartbeat IPC: 1.593 cumulative IPC: 3.011 (Simulation time: 00 hr 11 min 22 sec)
Heartbeat CPU 0 instructions: 134000867 cycles: 39862438 heartbeat IPC: 1.596 cumulative IPC: 2.995 (Simulation time: 00 hr 11 min 27 sec)
Heartbeat CPU 0 instructions: 134500868 cycles: 40175187 heartbeat IPC: 1.599 cumulative IPC: 2.979 (Simulation time: 00 hr 11 min 31 sec)
Heartbeat CPU 0 instructions: 135000869 cycles: 40489136 heartbeat IPC: 1.593 cumulative IPC: 2.964 (Simulation time: 00 hr 11 min 36 sec)
Heartbeat CPU 0 instructions: 135500870 cycles: 40801522 heartbeat IPC: 1.601 cumulative IPC: 2.949 (Simulation time: 00 hr 11 min 40 sec)
Heartbeat CPU 0 instructions: 136000871 cycles: 41113930 heartbeat IPC: 1.6 cumulative IPC: 2.935 (Simulation time: 00 hr 11 min 44 sec)
Heartbeat CPU 0 instructions: 136500872 cycles: 41426528 heartbeat IPC: 1.6 cumulative IPC: 2.921 (Simulation time: 00 hr 11 min 49 sec)
Heartbeat CPU 0 instructions: 137000872 cycles: 41738872 heartbeat IPC: 1.601 cumulative IPC: 2.907 (Simulation time: 00 hr 11 min 53 sec)
Heartbeat CPU 0 instructions: 137500873 cycles: 42054332 heartbeat IPC: 1.585 cumulative IPC: 2.893 (Simulation time: 00 hr 11 min 58 sec)
Heartbeat CPU 0 instructions: 138000874 cycles: 42366321 heartbeat IPC: 1.603 cumulative IPC: 2.88 (Simulation time: 00 hr 12 min 02 sec)
Heartbeat CPU 0 instructions: 138500875 cycles: 42678877 heartbeat IPC: 1.6 cumulative IPC: 2.867 (Simulation time: 00 hr 12 min 06 sec)
Heartbeat CPU 0 instructions: 139000876 cycles: 42991323 heartbeat IPC: 1.6 cumulative IPC: 2.855 (Simulation time: 00 hr 12 min 11 sec)
Heartbeat CPU 0 instructions: 139500877 cycles: 43304040 heartbeat IPC: 1.599 cumulative IPC: 2.842 (Simulation time: 00 hr 12 min 15 sec)
Heartbeat CPU 0 instructions: 140000882 cycles: 43616149 heartbeat IPC: 1.602 cumulative IPC: 2.83 (Simulation time: 00 hr 12 min 20 sec)
Heartbeat CPU 0 instructions: 140500883 cycles: 43928621 heartbeat IPC: 1.6 cumulative IPC: 2.818 (Simulation time: 00 hr 12 min 24 sec)
Heartbeat CPU 0 instructions: 141000884 cycles: 44241055 heartbeat IPC: 1.6 cumulative IPC: 2.806 (Simulation time: 00 hr 12 min 29 sec)
Heartbeat CPU 0 instructions: 141500885 cycles: 44553525 heartbeat IPC: 1.6 cumulative IPC: 2.795 (Simulation time: 00 hr 12 min 33 sec)
Heartbeat CPU 0 instructions: 142000886 cycles: 44866224 heartbeat IPC: 1.599 cumulative IPC: 2.783 (Simulation time: 00 hr 12 min 38 sec)
Heartbeat CPU 0 instructions: 142500887 cycles: 45178474 heartbeat IPC: 1.601 cumulative IPC: 2.772 (Simulation time: 00 hr 12 min 42 sec)
Heartbeat CPU 0 instructions: 143000888 cycles: 45490969 heartbeat IPC: 1.6 cumulative IPC: 2.761 (Simulation time: 00 hr 12 min 46 sec)
Heartbeat CPU 0 instructions: 143500888 cycles: 45803422 heartbeat IPC: 1.6 cumulative IPC: 2.751 (Simulation time: 00 hr 12 min 51 sec)
Heartbeat CPU 0 instructions: 144000889 cycles: 46115867 heartbeat IPC: 1.6 cumulative IPC: 2.74 (Simulation time: 00 hr 12 min 55 sec)
Heartbeat CPU 0 instructions: 144500890 cycles: 46428364 heartbeat IPC: 1.6 cumulative IPC: 2.73 (Simulation time: 00 hr 13 min 00 sec)
Heartbeat CPU 0 instructions: 145000891 cycles: 46741037 heartbeat IPC: 1.599 cumulative IPC: 2.72 (Simulation time: 00 hr 13 min 05 sec)
Heartbeat CPU 0 instructions: 145500892 cycles: 47053494 heartbeat IPC: 1.6 cumulative IPC: 2.71 (Simulation time: 00 hr 13 min 09 sec)
Heartbeat CPU 0 instructions: 146000893 cycles: 47365776 heartbeat IPC: 1.601 cumulative IPC: 2.7 (Simulation time: 00 hr 13 min 14 sec)
Heartbeat CPU 0 instructions: 146500894 cycles: 47678235 heartbeat IPC: 1.6 cumulative IPC: 2.691 (Simulation time: 00 hr 13 min 18 sec)
Heartbeat CPU 0 instructions: 147000899 cycles: 47990746 heartbeat IPC: 1.6 cumulative IPC: 2.681 (Simulation time: 00 hr 13 min 23 sec)
Heartbeat CPU 0 instructions: 147500900 cycles: 48303186 heartbeat IPC: 1.6 cumulative IPC: 2.672 (Simulation time: 00 hr 13 min 27 sec)
Heartbeat CPU 0 instructions: 148000901 cycles: 48615662 heartbeat IPC: 1.6 cumulative IPC: 2.663 (Simulation time: 00 hr 13 min 32 sec)
Heartbeat CPU 0 instructions: 148500901 cycles: 50109919 heartbeat IPC: 0.3346 cumulative IPC: 2.572 (Simulation time: 00 hr 13 min 52 sec)
Heartbeat CPU 0 instructions: 149000901 cycles: 51577018 heartbeat IPC: 0.3408 cumulative IPC: 2.49 (Simulation time: 00 hr 14 min 13 sec)
Heartbeat CPU 0 instructions: 149500903 cycles: 52006037 heartbeat IPC: 1.165 cumulative IPC: 2.476 (Simulation time: 00 hr 14 min 19 sec)
Heartbeat CPU 0 instructions: 150000907 cycles: 52229859 heartbeat IPC: 2.234 cumulative IPC: 2.474 (Simulation time: 00 hr 14 min 23 sec)
Heartbeat CPU 0 instructions: 150500913 cycles: 52423613 heartbeat IPC: 2.581 cumulative IPC: 2.475 (Simulation time: 00 hr 14 min 27 sec)
Heartbeat CPU 0 instructions: 151000916 cycles: 52627845 heartbeat IPC: 2.448 cumulative IPC: 2.475 (Simulation time: 00 hr 14 min 30 sec)
Heartbeat CPU 0 instructions: 151500921 cycles: 52840671 heartbeat IPC: 2.349 cumulative IPC: 2.474 (Simulation time: 00 hr 14 min 34 sec)
Heartbeat CPU 0 instructions: 152000921 cycles: 53035349 heartbeat IPC: 2.568 cumulative IPC: 2.474 (Simulation time: 00 hr 14 min 37 sec)
Heartbeat CPU 0 instructions: 152500928 cycles: 53248230 heartbeat IPC: 2.349 cumulative IPC: 2.474 (Simulation time: 00 hr 14 min 41 sec)
Heartbeat CPU 0 instructions: 153000930 cycles: 53439225 heartbeat IPC: 2.618 cumulative IPC: 2.474 (Simulation time: 00 hr 14 min 44 sec)
Heartbeat CPU 0 instructions: 153500935 cycles: 53633668 heartbeat IPC: 2.571 cumulative IPC: 2.475 (Simulation time: 00 hr 14 min 48 sec)
Heartbeat CPU 0 instructions: 154000937 cycles: 53843807 heartbeat IPC: 2.379 cumulative IPC: 2.474 (Simulation time: 00 hr 14 min 52 sec)
Heartbeat CPU 0 instructions: 154500938 cycles: 54030063 heartbeat IPC: 2.684 cumulative IPC: 2.475 (Simulation time: 00 hr 14 min 55 sec)
Heartbeat CPU 0 instructions: 155000940 cycles: 54213002 heartbeat IPC: 2.733 cumulative IPC: 2.476 (Simulation time: 00 hr 14 min 58 sec)
Heartbeat CPU 0 instructions: 155500945 cycles: 54414508 heartbeat IPC: 2.481 cumulative IPC: 2.476 (Simulation time: 00 hr 15 min 02 sec)
Heartbeat CPU 0 instructions: 156000947 cycles: 54595558 heartbeat IPC: 2.762 cumulative IPC: 2.478 (Simulation time: 00 hr 15 min 05 sec)
Heartbeat CPU 0 instructions: 156500949 cycles: 54777719 heartbeat IPC: 2.745 cumulative IPC: 2.479 (Simulation time: 00 hr 15 min 08 sec)
Heartbeat CPU 0 instructions: 157000955 cycles: 54975081 heartbeat IPC: 2.533 cumulative IPC: 2.479 (Simulation time: 00 hr 15 min 12 sec)
Heartbeat CPU 0 instructions: 157500960 cycles: 55155866 heartbeat IPC: 2.766 cumulative IPC: 2.48 (Simulation time: 00 hr 15 min 15 sec)
Heartbeat CPU 0 instructions: 158000961 cycles: 55346722 heartbeat IPC: 2.62 cumulative IPC: 2.481 (Simulation time: 00 hr 15 min 18 sec)
Heartbeat CPU 0 instructions: 158500964 cycles: 55533192 heartbeat IPC: 2.681 cumulative IPC: 2.482 (Simulation time: 00 hr 15 min 22 sec)
Heartbeat CPU 0 instructions: 159000969 cycles: 55713052 heartbeat IPC: 2.78 cumulative IPC: 2.483 (Simulation time: 00 hr 15 min 25 sec)
Heartbeat CPU 0 instructions: 159500976 cycles: 55914543 heartbeat IPC: 2.482 cumulative IPC: 2.483 (Simulation time: 00 hr 15 min 28 sec)
Heartbeat CPU 0 instructions: 160000979 cycles: 56085571 heartbeat IPC: 2.924 cumulative IPC: 2.485 (Simulation time: 00 hr 15 min 32 sec)
Heartbeat CPU 0 instructions: 160500985 cycles: 56255135 heartbeat IPC: 2.949 cumulative IPC: 2.486 (Simulation time: 00 hr 15 min 35 sec)
Heartbeat CPU 0 instructions: 161000992 cycles: 56434725 heartbeat IPC: 2.784 cumulative IPC: 2.488 (Simulation time: 00 hr 15 min 38 sec)
Heartbeat CPU 0 instructions: 161500996 cycles: 56605464 heartbeat IPC: 2.928 cumulative IPC: 2.489 (Simulation time: 00 hr 15 min 41 sec)
Heartbeat CPU 0 instructions: 162000996 cycles: 56774918 heartbeat IPC: 2.951 cumulative IPC: 2.491 (Simulation time: 00 hr 15 min 44 sec)
Heartbeat CPU 0 instructions: 162500996 cycles: 56954478 heartbeat IPC: 2.785 cumulative IPC: 2.492 (Simulation time: 00 hr 15 min 48 sec)
Heartbeat CPU 0 instructions: 163000999 cycles: 57124410 heartbeat IPC: 2.942 cumulative IPC: 2.494 (Simulation time: 00 hr 15 min 51 sec)
Heartbeat CPU 0 instructions: 163501003 cycles: 57294365 heartbeat IPC: 2.942 cumulative IPC: 2.496 (Simulation time: 00 hr 15 min 54 sec)
Heartbeat CPU 0 instructions: 164001004 cycles: 57475105 heartbeat IPC: 2.766 cumulative IPC: 2.497 (Simulation time: 00 hr 15 min 57 sec)
Heartbeat CPU 0 instructions: 164501006 cycles: 57645864 heartbeat IPC: 2.928 cumulative IPC: 2.498 (Simulation time: 00 hr 16 min 00 sec)
Heartbeat CPU 0 instructions: 165001008 cycles: 57825025 heartbeat IPC: 2.791 cumulative IPC: 2.499 (Simulation time: 00 hr 16 min 04 sec)
Heartbeat CPU 0 instructions: 165501009 cycles: 57994208 heartbeat IPC: 2.955 cumulative IPC: 2.501 (Simulation time: 00 hr 16 min 07 sec)
Heartbeat CPU 0 instructions: 166001013 cycles: 58163578 heartbeat IPC: 2.952 cumulative IPC: 2.503 (Simulation time: 00 hr 16 min 10 sec)
Heartbeat CPU 0 instructions: 166501013 cycles: 58345928 heartbeat IPC: 2.742 cumulative IPC: 2.504 (Simulation time: 00 hr 16 min 13 sec)
Heartbeat CPU 0 instructions: 167001018 cycles: 58515597 heartbeat IPC: 2.947 cumulative IPC: 2.505 (Simulation time: 00 hr 16 min 16 sec)
Heartbeat CPU 0 instructions: 167501020 cycles: 58685298 heartbeat IPC: 2.946 cumulative IPC: 2.507 (Simulation time: 00 hr 16 min 19 sec)
Heartbeat CPU 0 instructions: 168001022 cycles: 58866470 heartbeat IPC: 2.76 cumulative IPC: 2.508 (Simulation time: 00 hr 16 min 23 sec)
Heartbeat CPU 0 instructions: 168501023 cycles: 59036065 heartbeat IPC: 2.948 cumulative IPC: 2.509 (Simulation time: 00 hr 16 min 26 sec)
Heartbeat CPU 0 instructions: 169001025 cycles: 59205431 heartbeat IPC: 2.952 cumulative IPC: 2.511 (Simulation time: 00 hr 16 min 29 sec)
Heartbeat CPU 0 instructions: 169501026 cycles: 59390469 heartbeat IPC: 2.702 cumulative IPC: 2.512 (Simulation time: 00 hr 16 min 32 sec)
Heartbeat CPU 0 instructions: 170001028 cycles: 59569775 heartbeat IPC: 2.789 cumulative IPC: 2.513 (Simulation time: 00 hr 16 min 36 sec)
Heartbeat CPU 0 instructions: 170501031 cycles: 59739193 heartbeat IPC: 2.951 cumulative IPC: 2.514 (Simulation time: 00 hr 16 min 39 sec)
Heartbeat CPU 0 instructions: 171001035 cycles: 59919491 heartbeat IPC: 2.773 cumulative IPC: 2.515 (Simulation time: 00 hr 16 min 42 sec)
Heartbeat CPU 0 instructions: 171501037 cycles: 60088377 heartbeat IPC: 2.961 cumulative IPC: 2.517 (Simulation time: 00 hr 16 min 45 sec)
Heartbeat CPU 0 instructions: 172001037 cycles: 60268779 heartbeat IPC: 2.772 cumulative IPC: 2.518 (Simulation time: 00 hr 16 min 48 sec)
Heartbeat CPU 0 instructions: 172501038 cycles: 60438513 heartbeat IPC: 2.946 cumulative IPC: 2.519 (Simulation time: 00 hr 16 min 51 sec)
Heartbeat CPU 0 instructions: 173001045 cycles: 60607984 heartbeat IPC: 2.95 cumulative IPC: 2.521 (Simulation time: 00 hr 16 min 55 sec)
Heartbeat CPU 0 instructions: 173501051 cycles: 60787495 heartbeat IPC: 2.785 cumulative IPC: 2.522 (Simulation time: 00 hr 16 min 58 sec)
Heartbeat CPU 0 instructions: 174001051 cycles: 60956275 heartbeat IPC: 2.962 cumulative IPC: 2.523 (Simulation time: 00 hr 17 min 01 sec)
Heartbeat CPU 0 instructions: 174501057 cycles: 61126435 heartbeat IPC: 2.938 cumulative IPC: 2.525 (Simulation time: 00 hr 17 min 04 sec)
Heartbeat CPU 0 instructions: 175001063 cycles: 61306454 heartbeat IPC: 2.778 cumulative IPC: 2.526 (Simulation time: 00 hr 17 min 07 sec)
Heartbeat CPU 0 instructions: 175501065 cycles: 61475579 heartbeat IPC: 2.956 cumulative IPC: 2.527 (Simulation time: 00 hr 17 min 10 sec)
Heartbeat CPU 0 instructions: 176001067 cycles: 61645951 heartbeat IPC: 2.935 cumulative IPC: 2.528 (Simulation time: 00 hr 17 min 14 sec)
Heartbeat CPU 0 instructions: 176501074 cycles: 61825322 heartbeat IPC: 2.788 cumulative IPC: 2.529 (Simulation time: 00 hr 17 min 17 sec)
Heartbeat CPU 0 instructions: 177001078 cycles: 61994668 heartbeat IPC: 2.953 cumulative IPC: 2.531 (Simulation time: 00 hr 17 min 20 sec)
Heartbeat CPU 0 instructions: 177501085 cycles: 62167721 heartbeat IPC: 2.889 cumulative IPC: 2.532 (Simulation time: 00 hr 17 min 23 sec)
Heartbeat CPU 0 instructions: 178001086 cycles: 62344972 heartbeat IPC: 2.821 cumulative IPC: 2.533 (Simulation time: 00 hr 17 min 26 sec)
Heartbeat CPU 0 instructions: 178501091 cycles: 62514931 heartbeat IPC: 2.942 cumulative IPC: 2.534 (Simulation time: 00 hr 17 min 30 sec)
Heartbeat CPU 0 instructions: 179001093 cycles: 62695671 heartbeat IPC: 2.766 cumulative IPC: 2.535 (Simulation time: 00 hr 17 min 33 sec)
Heartbeat CPU 0 instructions: 179501095 cycles: 62865475 heartbeat IPC: 2.945 cumulative IPC: 2.537 (Simulation time: 00 hr 17 min 36 sec)
Heartbeat CPU 0 instructions: 180001100 cycles: 63047003 heartbeat IPC: 2.754 cumulative IPC: 2.537 (Simulation time: 00 hr 17 min 39 sec)
Heartbeat CPU 0 instructions: 180501105 cycles: 63225945 heartbeat IPC: 2.794 cumulative IPC: 2.538 (Simulation time: 00 hr 17 min 43 sec)
Heartbeat CPU 0 instructions: 181001108 cycles: 63396989 heartbeat IPC: 2.923 cumulative IPC: 2.54 (Simulation time: 00 hr 17 min 46 sec)
Heartbeat CPU 0 instructions: 181501110 cycles: 63565688 heartbeat IPC: 2.964 cumulative IPC: 2.541 (Simulation time: 00 hr 17 min 49 sec)
Heartbeat CPU 0 instructions: 182001113 cycles: 63744929 heartbeat IPC: 2.79 cumulative IPC: 2.542 (Simulation time: 00 hr 17 min 52 sec)
Heartbeat CPU 0 instructions: 182501116 cycles: 63913789 heartbeat IPC: 2.961 cumulative IPC: 2.543 (Simulation time: 00 hr 17 min 55 sec)
Heartbeat CPU 0 instructions: 183001119 cycles: 64084400 heartbeat IPC: 2.931 cumulative IPC: 2.544 (Simulation time: 00 hr 17 min 58 sec)
Heartbeat CPU 0 instructions: 183501120 cycles: 64263252 heartbeat IPC: 2.796 cumulative IPC: 2.545 (Simulation time: 00 hr 18 min 02 sec)
Heartbeat CPU 0 instructions: 184001123 cycles: 64431981 heartbeat IPC: 2.963 cumulative IPC: 2.547 (Simulation time: 00 hr 18 min 05 sec)
Heartbeat CPU 0 instructions: 184501124 cycles: 64608315 heartbeat IPC: 2.836 cumulative IPC: 2.548 (Simulation time: 00 hr 18 min 08 sec)
Heartbeat CPU 0 instructions: 185001127 cycles: 64782098 heartbeat IPC: 2.877 cumulative IPC: 2.549 (Simulation time: 00 hr 18 min 11 sec)
Heartbeat CPU 0 instructions: 185501130 cycles: 64951709 heartbeat IPC: 2.948 cumulative IPC: 2.55 (Simulation time: 00 hr 18 min 14 sec)
Heartbeat CPU 0 instructions: 186001130 cycles: 65132987 heartbeat IPC: 2.758 cumulative IPC: 2.551 (Simulation time: 00 hr 18 min 17 sec)
Heartbeat CPU 0 instructions: 186501132 cycles: 65302795 heartbeat IPC: 2.945 cumulative IPC: 2.552 (Simulation time: 00 hr 18 min 21 sec)
Heartbeat CPU 0 instructions: 187001132 cycles: 65472359 heartbeat IPC: 2.949 cumulative IPC: 2.553 (Simulation time: 00 hr 18 min 24 sec)
Heartbeat CPU 0 instructions: 187501134 cycles: 65653568 heartbeat IPC: 2.759 cumulative IPC: 2.554 (Simulation time: 00 hr 18 min 27 sec)
Heartbeat CPU 0 instructions: 188001136 cycles: 65823674 heartbeat IPC: 2.939 cumulative IPC: 2.555 (Simulation time: 00 hr 18 min 30 sec)
Heartbeat CPU 0 instructions: 188501138 cycles: 65993334 heartbeat IPC: 2.947 cumulative IPC: 2.556 (Simulation time: 00 hr 18 min 33 sec)
Heartbeat CPU 0 instructions: 189001141 cycles: 66174649 heartbeat IPC: 2.758 cumulative IPC: 2.557 (Simulation time: 00 hr 18 min 37 sec)
Heartbeat CPU 0 instructions: 189501148 cycles: 66344540 heartbeat IPC: 2.943 cumulative IPC: 2.558 (Simulation time: 00 hr 18 min 40 sec)
Heartbeat CPU 0 instructions: 190001148 cycles: 66526537 heartbeat IPC: 2.747 cumulative IPC: 2.559 (Simulation time: 00 hr 18 min 43 sec)
Heartbeat CPU 0 instructions: 190501150 cycles: 66707205 heartbeat IPC: 2.768 cumulative IPC: 2.559 (Simulation time: 00 hr 18 min 46 sec)
Heartbeat CPU 0 instructions: 191001151 cycles: 66876829 heartbeat IPC: 2.948 cumulative IPC: 2.561 (Simulation time: 00 hr 18 min 49 sec)
Heartbeat CPU 0 instructions: 191501155 cycles: 67055209 heartbeat IPC: 2.803 cumulative IPC: 2.561 (Simulation time: 00 hr 18 min 53 sec)
Heartbeat CPU 0 instructions: 192001161 cycles: 67225099 heartbeat IPC: 2.943 cumulative IPC: 2.563 (Simulation time: 00 hr 18 min 56 sec)
Heartbeat CPU 0 instructions: 192501168 cycles: 67395187 heartbeat IPC: 2.94 cumulative IPC: 2.564 (Simulation time: 00 hr 18 min 59 sec)
Heartbeat CPU 0 instructions: 193001168 cycles: 67575161 heartbeat IPC: 2.778 cumulative IPC: 2.564 (Simulation time: 00 hr 19 min 02 sec)
Heartbeat CPU 0 instructions: 193501170 cycles: 67744029 heartbeat IPC: 2.961 cumulative IPC: 2.566 (Simulation time: 00 hr 19 min 05 sec)
Heartbeat CPU 0 instructions: 194001171 cycles: 67913391 heartbeat IPC: 2.952 cumulative IPC: 2.567 (Simulation time: 00 hr 19 min 08 sec)
Heartbeat CPU 0 instructions: 194501175 cycles: 68094128 heartbeat IPC: 2.766 cumulative IPC: 2.567 (Simulation time: 00 hr 19 min 12 sec)
Heartbeat CPU 0 instructions: 195001176 cycles: 68263648 heartbeat IPC: 2.95 cumulative IPC: 2.569 (Simulation time: 00 hr 19 min 15 sec)
Heartbeat CPU 0 instructions: 195501181 cycles: 68433302 heartbeat IPC: 2.947 cumulative IPC: 2.57 (Simulation time: 00 hr 19 min 18 sec)
Heartbeat CPU 0 instructions: 196001186 cycles: 68614116 heartbeat IPC: 2.765 cumulative IPC: 2.57 (Simulation time: 00 hr 19 min 21 sec)
Heartbeat CPU 0 instructions: 196501192 cycles: 68783800 heartbeat IPC: 2.947 cumulative IPC: 2.572 (Simulation time: 00 hr 19 min 24 sec)
Heartbeat CPU 0 instructions: 197001199 cycles: 68953252 heartbeat IPC: 2.951 cumulative IPC: 2.573 (Simulation time: 00 hr 19 min 28 sec)
Heartbeat CPU 0 instructions: 197501205 cycles: 69134447 heartbeat IPC: 2.759 cumulative IPC: 2.573 (Simulation time: 00 hr 19 min 31 sec)
Heartbeat CPU 0 instructions: 198001206 cycles: 69304010 heartbeat IPC: 2.949 cumulative IPC: 2.574 (Simulation time: 00 hr 19 min 34 sec)
Heartbeat CPU 0 instructions: 198501207 cycles: 69484476 heartbeat IPC: 2.771 cumulative IPC: 2.575 (Simulation time: 00 hr 19 min 37 sec)
Heartbeat CPU 0 instructions: 199001211 cycles: 69655450 heartbeat IPC: 2.924 cumulative IPC: 2.576 (Simulation time: 00 hr 19 min 40 sec)
Heartbeat CPU 0 instructions: 199501213 cycles: 69824823 heartbeat IPC: 2.952 cumulative IPC: 2.577 (Simulation time: 00 hr 19 min 44 sec)
Heartbeat CPU 0 instructions: 200001216 cycles: 70006676 heartbeat IPC: 2.749 cumulative IPC: 2.578 (Simulation time: 00 hr 19 min 47 sec)
Heartbeat CPU 0 instructions: 200501218 cycles: 70187828 heartbeat IPC: 2.76 cumulative IPC: 2.578 (Simulation time: 00 hr 19 min 50 sec)
Heartbeat CPU 0 instructions: 201001225 cycles: 70356377 heartbeat IPC: 2.967 cumulative IPC: 2.579 (Simulation time: 00 hr 19 min 53 sec)
Heartbeat CPU 0 instructions: 201501228 cycles: 70536361 heartbeat IPC: 2.778 cumulative IPC: 2.58 (Simulation time: 00 hr 19 min 56 sec)
Heartbeat CPU 0 instructions: 202001233 cycles: 70705129 heartbeat IPC: 2.963 cumulative IPC: 2.581 (Simulation time: 00 hr 20 min 00 sec)
Heartbeat CPU 0 instructions: 202501235 cycles: 70875271 heartbeat IPC: 2.939 cumulative IPC: 2.582 (Simulation time: 00 hr 20 min 03 sec)
Heartbeat CPU 0 instructions: 203001236 cycles: 71054457 heartbeat IPC: 2.79 cumulative IPC: 2.583 (Simulation time: 00 hr 20 min 06 sec)
Heartbeat CPU 0 instructions: 203501238 cycles: 71223070 heartbeat IPC: 2.965 cumulative IPC: 2.584 (Simulation time: 00 hr 20 min 09 sec)
Heartbeat CPU 0 instructions: 204001240 cycles: 71396319 heartbeat IPC: 2.886 cumulative IPC: 2.585 (Simulation time: 00 hr 20 min 12 sec)
Heartbeat CPU 0 instructions: 204501243 cycles: 71573121 heartbeat IPC: 2.828 cumulative IPC: 2.585 (Simulation time: 00 hr 20 min 16 sec)
Heartbeat CPU 0 instructions: 205001245 cycles: 71742386 heartbeat IPC: 2.954 cumulative IPC: 2.586 (Simulation time: 00 hr 20 min 19 sec)
Heartbeat CPU 0 instructions: 205501245 cycles: 71922169 heartbeat IPC: 2.781 cumulative IPC: 2.587 (Simulation time: 00 hr 20 min 22 sec)
Heartbeat CPU 0 instructions: 206001251 cycles: 72092563 heartbeat IPC: 2.934 cumulative IPC: 2.588 (Simulation time: 00 hr 20 min 25 sec)
Heartbeat CPU 0 instructions: 206501255 cycles: 72261290 heartbeat IPC: 2.963 cumulative IPC: 2.589 (Simulation time: 00 hr 20 min 28 sec)
Heartbeat CPU 0 instructions: 207001261 cycles: 72441550 heartbeat IPC: 2.774 cumulative IPC: 2.59 (Simulation time: 00 hr 20 min 31 sec)
Heartbeat CPU 0 instructions: 207501264 cycles: 72612298 heartbeat IPC: 2.928 cumulative IPC: 2.591 (Simulation time: 00 hr 20 min 35 sec)
Heartbeat CPU 0 instructions: 208001271 cycles: 72781157 heartbeat IPC: 2.961 cumulative IPC: 2.592 (Simulation time: 00 hr 20 min 38 sec)
Heartbeat CPU 0 instructions: 208501278 cycles: 72961217 heartbeat IPC: 2.777 cumulative IPC: 2.592 (Simulation time: 00 hr 20 min 41 sec)
Heartbeat CPU 0 instructions: 209001285 cycles: 73129993 heartbeat IPC: 2.963 cumulative IPC: 2.593 (Simulation time: 00 hr 20 min 44 sec)
Heartbeat CPU 0 instructions: 209501288 cycles: 73300835 heartbeat IPC: 2.927 cumulative IPC: 2.594 (Simulation time: 00 hr 20 min 47 sec)
Heartbeat CPU 0 instructions: 210001290 cycles: 73480404 heartbeat IPC: 2.784 cumulative IPC: 2.595 (Simulation time: 00 hr 20 min 51 sec)
Heartbeat CPU 0 instructions: 210501290 cycles: 73661560 heartbeat IPC: 2.76 cumulative IPC: 2.595 (Simulation time: 00 hr 20 min 54 sec)
Heartbeat CPU 0 instructions: 211001292 cycles: 73836782 heartbeat IPC: 2.854 cumulative IPC: 2.596 (Simulation time: 00 hr 20 min 57 sec)
Heartbeat CPU 0 instructions: 211501296 cycles: 74010304 heartbeat IPC: 2.882 cumulative IPC: 2.597 (Simulation time: 00 hr 21 min 00 sec)
Heartbeat CPU 0 instructions: 212001298 cycles: 74179523 heartbeat IPC: 2.955 cumulative IPC: 2.598 (Simulation time: 00 hr 21 min 03 sec)
Heartbeat CPU 0 instructions: 212501303 cycles: 74359218 heartbeat IPC: 2.783 cumulative IPC: 2.598 (Simulation time: 00 hr 21 min 07 sec)
Heartbeat CPU 0 instructions: 213001305 cycles: 74529796 heartbeat IPC: 2.931 cumulative IPC: 2.599 (Simulation time: 00 hr 21 min 10 sec)
Heartbeat CPU 0 instructions: 213501310 cycles: 74698527 heartbeat IPC: 2.963 cumulative IPC: 2.6 (Simulation time: 00 hr 21 min 13 sec)
Heartbeat CPU 0 instructions: 214001314 cycles: 74878023 heartbeat IPC: 2.786 cumulative IPC: 2.601 (Simulation time: 00 hr 21 min 16 sec)
Heartbeat CPU 0 instructions: 214501318 cycles: 75046758 heartbeat IPC: 2.963 cumulative IPC: 2.601 (Simulation time: 00 hr 21 min 19 sec)
Heartbeat CPU 0 instructions: 215001322 cycles: 75216802 heartbeat IPC: 2.94 cumulative IPC: 2.602 (Simulation time: 00 hr 21 min 22 sec)
Heartbeat CPU 0 instructions: 215501325 cycles: 75395868 heartbeat IPC: 2.792 cumulative IPC: 2.603 (Simulation time: 00 hr 21 min 26 sec)
Heartbeat CPU 0 instructions: 216001325 cycles: 75564714 heartbeat IPC: 2.961 cumulative IPC: 2.604 (Simulation time: 00 hr 21 min 29 sec)
Heartbeat CPU 0 instructions: 216501328 cycles: 75734348 heartbeat IPC: 2.948 cumulative IPC: 2.605 (Simulation time: 00 hr 21 min 32 sec)
Heartbeat CPU 0 instructions: 217001335 cycles: 75915440 heartbeat IPC: 2.761 cumulative IPC: 2.605 (Simulation time: 00 hr 21 min 35 sec)
Heartbeat CPU 0 instructions: 217501340 cycles: 76085407 heartbeat IPC: 2.942 cumulative IPC: 2.606 (Simulation time: 00 hr 21 min 38 sec)
Heartbeat CPU 0 instructions: 218001340 cycles: 76264356 heartbeat IPC: 2.794 cumulative IPC: 2.607 (Simulation time: 00 hr 21 min 42 sec)
Heartbeat CPU 0 instructions: 218501342 cycles: 76436538 heartbeat IPC: 2.904 cumulative IPC: 2.607 (Simulation time: 00 hr 21 min 45 sec)
Heartbeat CPU 0 instructions: 219001343 cycles: 76606182 heartbeat IPC: 2.947 cumulative IPC: 2.608 (Simulation time: 00 hr 21 min 48 sec)
Heartbeat CPU 0 instructions: 219501345 cycles: 76787370 heartbeat IPC: 2.76 cumulative IPC: 2.609 (Simulation time: 00 hr 21 min 51 sec)
Heartbeat CPU 0 instructions: 220001350 cycles: 76956747 heartbeat IPC: 2.952 cumulative IPC: 2.61 (Simulation time: 00 hr 21 min 54 sec)
Heartbeat CPU 0 instructions: 220501350 cycles: 77137542 heartbeat IPC: 2.766 cumulative IPC: 2.61 (Simulation time: 00 hr 21 min 58 sec)
Heartbeat CPU 0 instructions: 221001354 cycles: 77318113 heartbeat IPC: 2.769 cumulative IPC: 2.61 (Simulation time: 00 hr 22 min 01 sec)
Heartbeat CPU 0 instructions: 221501354 cycles: 77488098 heartbeat IPC: 2.941 cumulative IPC: 2.611 (Simulation time: 00 hr 22 min 04 sec)
Heartbeat CPU 0 instructions: 222001354 cycles: 77657397 heartbeat IPC: 2.953 cumulative IPC: 2.612 (Simulation time: 00 hr 22 min 07 sec)
Heartbeat CPU 0 instructions: 222501357 cycles: 77836436 heartbeat IPC: 2.793 cumulative IPC: 2.613 (Simulation time: 00 hr 22 min 10 sec)
Heartbeat CPU 0 instructions: 223001357 cycles: 78005352 heartbeat IPC: 2.96 cumulative IPC: 2.614 (Simulation time: 00 hr 22 min 13 sec)
Heartbeat CPU 0 instructions: 223501361 cycles: 78175954 heartbeat IPC: 2.931 cumulative IPC: 2.614 (Simulation time: 00 hr 22 min 17 sec)
Heartbeat CPU 0 instructions: 224001368 cycles: 78355899 heartbeat IPC: 2.779 cumulative IPC: 2.615 (Simulation time: 00 hr 22 min 20 sec)
Heartbeat CPU 0 instructions: 224501373 cycles: 78524847 heartbeat IPC: 2.96 cumulative IPC: 2.616 (Simulation time: 00 hr 22 min 23 sec)
Heartbeat CPU 0 instructions: 225001379 cycles: 78704927 heartbeat IPC: 2.777 cumulative IPC: 2.616 (Simulation time: 00 hr 22 min 26 sec)
Heartbeat CPU 0 instructions: 225501379 cycles: 78874011 heartbeat IPC: 2.957 cumulative IPC: 2.617 (Simulation time: 00 hr 22 min 29 sec)
Heartbeat CPU 0 instructions: 226001386 cycles: 79043000 heartbeat IPC: 2.959 cumulative IPC: 2.618 (Simulation time: 00 hr 22 min 32 sec)
Heartbeat CPU 0 instructions: 226501392 cycles: 79222554 heartbeat IPC: 2.785 cumulative IPC: 2.618 (Simulation time: 00 hr 22 min 36 sec)
Heartbeat CPU 0 instructions: 227001396 cycles: 79392901 heartbeat IPC: 2.935 cumulative IPC: 2.619 (Simulation time: 00 hr 22 min 39 sec)
Heartbeat CPU 0 instructions: 227501398 cycles: 79562126 heartbeat IPC: 2.955 cumulative IPC: 2.62 (Simulation time: 00 hr 22 min 42 sec)
Heartbeat CPU 0 instructions: 228001401 cycles: 79741785 heartbeat IPC: 2.783 cumulative IPC: 2.62 (Simulation time: 00 hr 22 min 45 sec)
Heartbeat CPU 0 instructions: 228501402 cycles: 79911932 heartbeat IPC: 2.939 cumulative IPC: 2.621 (Simulation time: 00 hr 22 min 48 sec)
Heartbeat CPU 0 instructions: 229001404 cycles: 80081604 heartbeat IPC: 2.947 cumulative IPC: 2.622 (Simulation time: 00 hr 22 min 51 sec)
Heartbeat CPU 0 instructions: 229501408 cycles: 80262210 heartbeat IPC: 2.768 cumulative IPC: 2.622 (Simulation time: 00 hr 22 min 55 sec)
Heartbeat CPU 0 instructions: 230001410 cycles: 80433093 heartbeat IPC: 2.926 cumulative IPC: 2.623 (Simulation time: 00 hr 22 min 58 sec)
Heartbeat CPU 0 instructions: 230501417 cycles: 80605582 heartbeat IPC: 2.899 cumulative IPC: 2.624 (Simulation time: 00 hr 23 min 01 sec)
Heartbeat CPU 0 instructions: 231001419 cycles: 80795799 heartbeat IPC: 2.629 cumulative IPC: 2.624 (Simulation time: 00 hr 23 min 04 sec)
Heartbeat CPU 0 instructions: 231501425 cycles: 80965309 heartbeat IPC: 2.95 cumulative IPC: 2.625 (Simulation time: 00 hr 23 min 08 sec)
Heartbeat CPU 0 instructions: 232001425 cycles: 81144981 heartbeat IPC: 2.783 cumulative IPC: 2.625 (Simulation time: 00 hr 23 min 11 sec)
Heartbeat CPU 0 instructions: 232501427 cycles: 81314108 heartbeat IPC: 2.956 cumulative IPC: 2.626 (Simulation time: 00 hr 23 min 14 sec)
Heartbeat CPU 0 instructions: 233001432 cycles: 81483135 heartbeat IPC: 2.958 cumulative IPC: 2.627 (Simulation time: 00 hr 23 min 17 sec)
Heartbeat CPU 0 instructions: 233501433 cycles: 81664194 heartbeat IPC: 2.762 cumulative IPC: 2.627 (Simulation time: 00 hr 23 min 20 sec)
Heartbeat CPU 0 instructions: 234001436 cycles: 81832832 heartbeat IPC: 2.965 cumulative IPC: 2.628 (Simulation time: 00 hr 23 min 23 sec)
Heartbeat CPU 0 instructions: 234501437 cycles: 82001741 heartbeat IPC: 2.96 cumulative IPC: 2.629 (Simulation time: 00 hr 23 min 27 sec)
Heartbeat CPU 0 instructions: 235001439 cycles: 82180335 heartbeat IPC: 2.8 cumulative IPC: 2.629 (Simulation time: 00 hr 23 min 30 sec)
Heartbeat CPU 0 instructions: 235501442 cycles: 82350577 heartbeat IPC: 2.937 cumulative IPC: 2.63 (Simulation time: 00 hr 23 min 33 sec)
Heartbeat CPU 0 instructions: 236001443 cycles: 82519710 heartbeat IPC: 2.956 cumulative IPC: 2.631 (Simulation time: 00 hr 23 min 36 sec)
Heartbeat CPU 0 instructions: 236501450 cycles: 82699280 heartbeat IPC: 2.784 cumulative IPC: 2.631 (Simulation time: 00 hr 23 min 39 sec)
Heartbeat CPU 0 instructions: 237001456 cycles: 82869222 heartbeat IPC: 2.942 cumulative IPC: 2.632 (Simulation time: 00 hr 23 min 42 sec)
Heartbeat CPU 0 instructions: 237501457 cycles: 83044523 heartbeat IPC: 2.852 cumulative IPC: 2.632 (Simulation time: 00 hr 23 min 46 sec)
Heartbeat CPU 0 instructions: 238001460 cycles: 83219342 heartbeat IPC: 2.86 cumulative IPC: 2.633 (Simulation time: 00 hr 23 min 49 sec)
Heartbeat CPU 0 instructions: 238501462 cycles: 83388147 heartbeat IPC: 2.962 cumulative IPC: 2.634 (Simulation time: 00 hr 23 min 52 sec)
Heartbeat CPU 0 instructions: 239001463 cycles: 83569329 heartbeat IPC: 2.76 cumulative IPC: 2.634 (Simulation time: 00 hr 23 min 55 sec)
Heartbeat CPU 0 instructions: 239501465 cycles: 83738562 heartbeat IPC: 2.955 cumulative IPC: 2.635 (Simulation time: 00 hr 23 min 58 sec)
Heartbeat CPU 0 instructions: 240001470 cycles: 83907478 heartbeat IPC: 2.96 cumulative IPC: 2.635 (Simulation time: 00 hr 24 min 02 sec)
Heartbeat CPU 0 instructions: 240501471 cycles: 84088635 heartbeat IPC: 2.76 cumulative IPC: 2.636 (Simulation time: 00 hr 24 min 05 sec)
Heartbeat CPU 0 instructions: 241001474 cycles: 84271580 heartbeat IPC: 2.733 cumulative IPC: 2.636 (Simulation time: 00 hr 24 min 08 sec)
Heartbeat CPU 0 instructions: 241501476 cycles: 84439784 heartbeat IPC: 2.973 cumulative IPC: 2.637 (Simulation time: 00 hr 24 min 11 sec)
Heartbeat CPU 0 instructions: 242001477 cycles: 84619902 heartbeat IPC: 2.776 cumulative IPC: 2.637 (Simulation time: 00 hr 24 min 15 sec)
Heartbeat CPU 0 instructions: 242501481 cycles: 84788779 heartbeat IPC: 2.961 cumulative IPC: 2.638 (Simulation time: 00 hr 24 min 18 sec)
Heartbeat CPU 0 instructions: 243001483 cycles: 84957808 heartbeat IPC: 2.958 cumulative IPC: 2.639 (Simulation time: 00 hr 24 min 21 sec)
Heartbeat CPU 0 instructions: 243501490 cycles: 85136380 heartbeat IPC: 2.8 cumulative IPC: 2.639 (Simulation time: 00 hr 24 min 24 sec)
Heartbeat CPU 0 instructions: 244001494 cycles: 85304789 heartbeat IPC: 2.969 cumulative IPC: 2.64 (Simulation time: 00 hr 24 min 27 sec)
Heartbeat CPU 0 instructions: 244501497 cycles: 85484691 heartbeat IPC: 2.779 cumulative IPC: 2.64 (Simulation time: 00 hr 24 min 30 sec)
Heartbeat CPU 0 instructions: 245001499 cycles: 85654594 heartbeat IPC: 2.943 cumulative IPC: 2.641 (Simulation time: 00 hr 24 min 34 sec)
Heartbeat CPU 0 instructions: 245501500 cycles: 85823240 heartbeat IPC: 2.965 cumulative IPC: 2.642 (Simulation time: 00 hr 24 min 37 sec)
Heartbeat CPU 0 instructions: 246001500 cycles: 86003679 heartbeat IPC: 2.771 cumulative IPC: 2.642 (Simulation time: 00 hr 24 min 40 sec)
Heartbeat CPU 0 instructions: 246501506 cycles: 86172790 heartbeat IPC: 2.957 cumulative IPC: 2.643 (Simulation time: 00 hr 24 min 43 sec)
Heartbeat CPU 0 instructions: 247001508 cycles: 86341811 heartbeat IPC: 2.958 cumulative IPC: 2.643 (Simulation time: 00 hr 24 min 46 sec)
Heartbeat CPU 0 instructions: 247501515 cycles: 86522426 heartbeat IPC: 2.768 cumulative IPC: 2.644 (Simulation time: 00 hr 24 min 49 sec)
Heartbeat CPU 0 instructions: 248001518 cycles: 86692799 heartbeat IPC: 2.935 cumulative IPC: 2.644 (Simulation time: 00 hr 24 min 53 sec)
Heartbeat CPU 0 instructions: 248501523 cycles: 86861282 heartbeat IPC: 2.968 cumulative IPC: 2.645 (Simulation time: 00 hr 24 min 56 sec)
Heartbeat CPU 0 instructions: 249001527 cycles: 87041188 heartbeat IPC: 2.779 cumulative IPC: 2.645 (Simulation time: 00 hr 24 min 59 sec)
Heartbeat CPU 0 instructions: 249501533 cycles: 87211180 heartbeat IPC: 2.941 cumulative IPC: 2.646 (Simulation time: 00 hr 25 min 02 sec)
Simulation finished CPU 0 instructions: 200000007 cycles: 75567737 cumulative IPC: 2.647 (Simulation time: 00 hr 25 min 05 sec)
Simulation complete CPU 0 instructions: 200000007 cycles: 75567737 cumulative IPC: 2.647 (Simulation time: 00 hr 25 min 05 sec)

ChampSim completed all CPUs

=== Simulation ===
CPU 0 runs /local-ssd/ben/dpc4-traces/ai-ml/bark.cpp-bark-small.coarse_token_gen.4.champsimtrace.gz

Region of Interest Statistics

CPU 0 cumulative IPC: 2.647 instructions: 200000007 cycles: 75567737
CPU 0 Branch Prediction Accuracy: 97.24% MPKI: 2.302 Average ROB Occupancy at Mispredict: 245
Branch type MPKI
BRANCH_DIRECT_JUMP: 3e-05
BRANCH_INDIRECT: 1.5e-05
BRANCH_CONDITIONAL: 2.302
BRANCH_DIRECT_CALL: 5e-06
BRANCH_INDIRECT_CALL: 1.5e-05
BRANCH_RETURN: 1.5e-05

cpu0->cpu0_STLB TOTAL        ACCESS:      71798 HIT:      67055 MISS:       4743 MSHR_MERGE:          0
cpu0->cpu0_STLB LOAD         ACCESS:      71798 HIT:      67055 MISS:       4743 MSHR_MERGE:          0
cpu0->cpu0_STLB RFO          ACCESS:          0 HIT:          0 MISS:          0 MSHR_MERGE:          0
cpu0->cpu0_STLB PREFETCH     ACCESS:          0 HIT:          0 MISS:          0 MSHR_MERGE:          0
cpu0->cpu0_STLB WRITE        ACCESS:          0 HIT:          0 MISS:          0 MSHR_MERGE:          0
cpu0->cpu0_STLB TRANSLATION  ACCESS:          0 HIT:          0 MISS:          0 MSHR_MERGE:          0
cpu0->cpu0_STLB PREFETCH REQUESTED:          0 ISSUED:          0 USEFUL:          0 USELESS:          0
cpu0->cpu0_STLB AVERAGE MISS LATENCY: 203.3 cycles
cpu0->cpu0_L2C TOTAL        ACCESS:   23937232 HIT:   20846757 MISS:    3090475 MSHR_MERGE:     880059
cpu0->cpu0_L2C LOAD         ACCESS:   10821369 HIT:    9810476 MISS:    1010893 MSHR_MERGE:      83623
cpu0->cpu0_L2C RFO          ACCESS:     114071 HIT:      44951 MISS:      69120 MSHR_MERGE:          0
cpu0->cpu0_L2C PREFETCH     ACCESS:   12781418 HIT:   10771672 MISS:    2009746 MSHR_MERGE:     796436
cpu0->cpu0_L2C WRITE        ACCESS:     218564 HIT:     218553 MISS:         11 MSHR_MERGE:          0
cpu0->cpu0_L2C TRANSLATION  ACCESS:       1810 HIT:       1105 MISS:        705 MSHR_MERGE:          0
cpu0->cpu0_L2C PREFETCH REQUESTED:   10250506 ISSUED:    9383227 USEFUL:     144514 USELESS:        481
cpu0->cpu0_L2C AVERAGE MISS LATENCY: 152 cycles
cpu0->cpu0_L1I TOTAL        ACCESS:   31457506 HIT:   31457448 MISS:         58 MSHR_MERGE:          8
cpu0->cpu0_L1I LOAD         ACCESS:   31457506 HIT:   31457448 MISS:         58 MSHR_MERGE:          8
cpu0->cpu0_L1I RFO          ACCESS:          0 HIT:          0 MISS:          0 MSHR_MERGE:          0
cpu0->cpu0_L1I PREFETCH     ACCESS:          0 HIT:          0 MISS:          0 MSHR_MERGE:          0
cpu0->cpu0_L1I WRITE        ACCESS:          0 HIT:          0 MISS:          0 MSHR_MERGE:          0
cpu0->cpu0_L1I TRANSLATION  ACCESS:          0 HIT:          0 MISS:          0 MSHR_MERGE:          0
cpu0->cpu0_L1I PREFETCH REQUESTED:          0 ISSUED:          0 USEFUL:          0 USELESS:          0
cpu0->cpu0_L1I AVERAGE MISS LATENCY: 291.4 cycles
cpu0->cpu0_L1D TOTAL        ACCESS:   64692245 HIT:   47009574 MISS:   17682671 MSHR_MERGE:    3347095
cpu0->cpu0_L1D LOAD         ACCESS:   52251818 HIT:   39931994 MISS:   12319824 MSHR_MERGE:    1498499
cpu0->cpu0_L1D RFO          ACCESS:          0 HIT:          0 MISS:          0 MSHR_MERGE:          0
cpu0->cpu0_L1D PREFETCH     ACCESS:    8896401 HIT:    3776313 MISS:    5120088 MSHR_MERGE:    1721895
cpu0->cpu0_L1D WRITE        ACCESS:    3534534 HIT:    3293590 MISS:     240944 MSHR_MERGE:     126696
cpu0->cpu0_L1D TRANSLATION  ACCESS:       9492 HIT:       7677 MISS:       1815 MSHR_MERGE:          5
cpu0->cpu0_L1D PREFETCH REQUESTED:   13634980 ISSUED:    8896401 USEFUL:    3241543 USELESS:     156651
cpu0->cpu0_L1D AVERAGE MISS LATENCY: 23.35 cycles
cpu0->cpu0_ITLB TOTAL        ACCESS:   22414685 HIT:   22414671 MISS:         14 MSHR_MERGE:          7
cpu0->cpu0_ITLB LOAD         ACCESS:   22414685 HIT:   22414671 MISS:         14 MSHR_MERGE:          7
cpu0->cpu0_ITLB RFO          ACCESS:          0 HIT:          0 MISS:          0 MSHR_MERGE:          0
cpu0->cpu0_ITLB PREFETCH     ACCESS:          0 HIT:          0 MISS:          0 MSHR_MERGE:          0
cpu0->cpu0_ITLB WRITE        ACCESS:          0 HIT:          0 MISS:          0 MSHR_MERGE:          0
cpu0->cpu0_ITLB TRANSLATION  ACCESS:          0 HIT:          0 MISS:          0 MSHR_MERGE:          0
cpu0->cpu0_ITLB PREFETCH REQUESTED:          0 ISSUED:          0 USEFUL:          0 USELESS:          0
cpu0->cpu0_ITLB AVERAGE MISS LATENCY: 409.7 cycles
cpu0->cpu0_DTLB TOTAL        ACCESS:   56762703 HIT:   56609034 MISS:     153669 MSHR_MERGE:      81878
cpu0->cpu0_DTLB LOAD         ACCESS:   56762703 HIT:   56609034 MISS:     153669 MSHR_MERGE:      81878
cpu0->cpu0_DTLB RFO          ACCESS:          0 HIT:          0 MISS:          0 MSHR_MERGE:          0
cpu0->cpu0_DTLB PREFETCH     ACCESS:          0 HIT:          0 MISS:          0 MSHR_MERGE:          0
cpu0->cpu0_DTLB WRITE        ACCESS:          0 HIT:          0 MISS:          0 MSHR_MERGE:          0
cpu0->cpu0_DTLB TRANSLATION  ACCESS:          0 HIT:          0 MISS:          0 MSHR_MERGE:          0
cpu0->cpu0_DTLB PREFETCH REQUESTED:          0 ISSUED:          0 USEFUL:          0 USELESS:          0
cpu0->cpu0_DTLB AVERAGE MISS LATENCY: 18.46 cycles
cpu0->LLC TOTAL        ACCESS:    3743860 HIT:    1150722 MISS:    2593138 MSHR_MERGE:    1352776
cpu0->LLC LOAD         ACCESS:     927270 HIT:     252843 MISS:     674427 MSHR_MERGE:     546498
cpu0->LLC RFO          ACCESS:      69120 HIT:        179 MISS:      68941 MSHR_MERGE:          0
cpu0->LLC PREFETCH     ACCESS:    2592802 HIT:     825579 MISS:    1767223 MSHR_MERGE:     806278
cpu0->LLC WRITE        ACCESS:     153963 HIT:      72119 MISS:      81844 MSHR_MERGE:          0
cpu0->LLC TRANSLATION  ACCESS:        705 HIT:          2 MISS:        703 MSHR_MERGE:          0
cpu0->LLC PREFETCH REQUESTED:    1384387 ISSUED:    1382460 USEFUL:     658602 USELESS:     184089
cpu0->LLC AVERAGE MISS LATENCY: 158.9 cycles

DRAM Statistics

Channel 0 RQ ROW_BUFFER_HIT:     399325
  ROW_BUFFER_MISS:     759142
  AVG DBUS CONGESTED CYCLE: 6.381
Channel 0 WQ ROW_BUFFER_HIT:      13286
  ROW_BUFFER_MISS:     124348
  FULL:      20722
Channel 0 REFRESHES ISSUED:       6297
