[VMEM] WARNING: physical memory size is smaller than virtual memory size.

*** ChampSim Multicore Out-of-Order Simulator ***
Warmup Instructions: 50000000
Simulation Instructions: 200000000
Number of CPUs: 1
Page size: 4096
Core 0: /local-ssd/ben/dpc4-traces/ai-ml/whisper_trace_2.champsimtrace.gz
Initialize SIGNATURE TABLE
ST_SET: 1
ST_WAY: 256
ST_TAG_BIT: 16

Initialize PATTERN TABLE
PT_SET: 512
PT_WAY: 4
SIG_DELTA_BIT: 7
C_SIG_BIT: 4
C_DELTA_BIT: 4

Initialize PREFETCH FILTER
FILTER_SET: 1024
 L1D Berti prefetcher
Off-chip DRAM Size: 64 GiB Channels: 1 Width: 64-bit Data Rate: 4807 MT/s
Heartbeat CPU 0 instructions: 500001 cycles: 138872 heartbeat IPC: 3.6 cumulative IPC: 3.6 (Simulation time: 00 hr 00 min 03 sec)
Heartbeat CPU 0 instructions: 1000006 cycles: 272150 heartbeat IPC: 3.752 cumulative IPC: 3.674 (Simulation time: 00 hr 00 min 06 sec)
Heartbeat CPU 0 instructions: 1500007 cycles: 407020 heartbeat IPC: 3.707 cumulative IPC: 3.685 (Simulation time: 00 hr 00 min 09 sec)
Heartbeat CPU 0 instructions: 2000013 cycles: 539970 heartbeat IPC: 3.761 cumulative IPC: 3.704 (Simulation time: 00 hr 00 min 12 sec)
Heartbeat CPU 0 instructions: 2500015 cycles: 672778 heartbeat IPC: 3.765 cumulative IPC: 3.716 (Simulation time: 00 hr 00 min 14 sec)
Heartbeat CPU 0 instructions: 3000017 cycles: 805725 heartbeat IPC: 3.761 cumulative IPC: 3.723 (Simulation time: 00 hr 00 min 17 sec)
Heartbeat CPU 0 instructions: 3500021 cycles: 938731 heartbeat IPC: 3.759 cumulative IPC: 3.728 (Simulation time: 00 hr 00 min 20 sec)
Heartbeat CPU 0 instructions: 4000028 cycles: 1071841 heartbeat IPC: 3.756 cumulative IPC: 3.732 (Simulation time: 00 hr 00 min 23 sec)
Heartbeat CPU 0 instructions: 4500033 cycles: 1204665 heartbeat IPC: 3.764 cumulative IPC: 3.736 (Simulation time: 00 hr 00 min 25 sec)
Heartbeat CPU 0 instructions: 5000040 cycles: 1339638 heartbeat IPC: 3.704 cumulative IPC: 3.732 (Simulation time: 00 hr 00 min 28 sec)
Heartbeat CPU 0 instructions: 5500046 cycles: 1472656 heartbeat IPC: 3.759 cumulative IPC: 3.735 (Simulation time: 00 hr 00 min 31 sec)
Heartbeat CPU 0 instructions: 6000046 cycles: 1605735 heartbeat IPC: 3.757 cumulative IPC: 3.737 (Simulation time: 00 hr 00 min 34 sec)
Heartbeat CPU 0 instructions: 6500049 cycles: 1738867 heartbeat IPC: 3.756 cumulative IPC: 3.738 (Simulation time: 00 hr 00 min 36 sec)
Heartbeat CPU 0 instructions: 7000055 cycles: 1871758 heartbeat IPC: 3.763 cumulative IPC: 3.74 (Simulation time: 00 hr 00 min 39 sec)
Heartbeat CPU 0 instructions: 7500061 cycles: 2005075 heartbeat IPC: 3.751 cumulative IPC: 3.741 (Simulation time: 00 hr 00 min 42 sec)
Heartbeat CPU 0 instructions: 8000063 cycles: 2138041 heartbeat IPC: 3.76 cumulative IPC: 3.742 (Simulation time: 00 hr 00 min 45 sec)
Heartbeat CPU 0 instructions: 8500067 cycles: 2274021 heartbeat IPC: 3.677 cumulative IPC: 3.738 (Simulation time: 00 hr 00 min 47 sec)
Heartbeat CPU 0 instructions: 9000069 cycles: 2407629 heartbeat IPC: 3.742 cumulative IPC: 3.738 (Simulation time: 00 hr 00 min 50 sec)
Heartbeat CPU 0 instructions: 9500075 cycles: 2540571 heartbeat IPC: 3.761 cumulative IPC: 3.739 (Simulation time: 00 hr 00 min 53 sec)
Heartbeat CPU 0 instructions: 10000077 cycles: 2673178 heartbeat IPC: 3.771 cumulative IPC: 3.741 (Simulation time: 00 hr 00 min 56 sec)
Heartbeat CPU 0 instructions: 10500084 cycles: 2805954 heartbeat IPC: 3.766 cumulative IPC: 3.742 (Simulation time: 00 hr 00 min 58 sec)
Heartbeat CPU 0 instructions: 11000088 cycles: 2939020 heartbeat IPC: 3.758 cumulative IPC: 3.743 (Simulation time: 00 hr 01 min 01 sec)
Heartbeat CPU 0 instructions: 11500089 cycles: 3071938 heartbeat IPC: 3.762 cumulative IPC: 3.744 (Simulation time: 00 hr 01 min 04 sec)
Heartbeat CPU 0 instructions: 12000094 cycles: 3204864 heartbeat IPC: 3.762 cumulative IPC: 3.744 (Simulation time: 00 hr 01 min 07 sec)
Heartbeat CPU 0 instructions: 12500099 cycles: 3339589 heartbeat IPC: 3.711 cumulative IPC: 3.743 (Simulation time: 00 hr 01 min 10 sec)
Heartbeat CPU 0 instructions: 13000101 cycles: 3472757 heartbeat IPC: 3.755 cumulative IPC: 3.743 (Simulation time: 00 hr 01 min 12 sec)
Heartbeat CPU 0 instructions: 13500107 cycles: 3606171 heartbeat IPC: 3.748 cumulative IPC: 3.744 (Simulation time: 00 hr 01 min 15 sec)
Heartbeat CPU 0 instructions: 14000110 cycles: 3739310 heartbeat IPC: 3.755 cumulative IPC: 3.744 (Simulation time: 00 hr 01 min 18 sec)
Heartbeat CPU 0 instructions: 14500110 cycles: 3872174 heartbeat IPC: 3.763 cumulative IPC: 3.745 (Simulation time: 00 hr 01 min 21 sec)
Heartbeat CPU 0 instructions: 15000116 cycles: 4005088 heartbeat IPC: 3.762 cumulative IPC: 3.745 (Simulation time: 00 hr 01 min 23 sec)
Heartbeat CPU 0 instructions: 15500117 cycles: 4137787 heartbeat IPC: 3.768 cumulative IPC: 3.746 (Simulation time: 00 hr 01 min 26 sec)
Heartbeat CPU 0 instructions: 16000117 cycles: 4272499 heartbeat IPC: 3.712 cumulative IPC: 3.745 (Simulation time: 00 hr 01 min 29 sec)
Heartbeat CPU 0 instructions: 16500120 cycles: 4405689 heartbeat IPC: 3.754 cumulative IPC: 3.745 (Simulation time: 00 hr 01 min 32 sec)
Heartbeat CPU 0 instructions: 17000123 cycles: 4538462 heartbeat IPC: 3.766 cumulative IPC: 3.746 (Simulation time: 00 hr 01 min 34 sec)
Heartbeat CPU 0 instructions: 17500126 cycles: 4671270 heartbeat IPC: 3.765 cumulative IPC: 3.746 (Simulation time: 00 hr 01 min 37 sec)
Heartbeat CPU 0 instructions: 18000126 cycles: 4804452 heartbeat IPC: 3.754 cumulative IPC: 3.747 (Simulation time: 00 hr 01 min 40 sec)
Heartbeat CPU 0 instructions: 18500133 cycles: 4937443 heartbeat IPC: 3.76 cumulative IPC: 3.747 (Simulation time: 00 hr 01 min 42 sec)
Heartbeat CPU 0 instructions: 19000133 cycles: 5070373 heartbeat IPC: 3.761 cumulative IPC: 3.747 (Simulation time: 00 hr 01 min 45 sec)
Heartbeat CPU 0 instructions: 19500136 cycles: 5204854 heartbeat IPC: 3.718 cumulative IPC: 3.747 (Simulation time: 00 hr 01 min 48 sec)
Heartbeat CPU 0 instructions: 20000142 cycles: 5338668 heartbeat IPC: 3.737 cumulative IPC: 3.746 (Simulation time: 00 hr 01 min 51 sec)
Heartbeat CPU 0 instructions: 20500145 cycles: 5471681 heartbeat IPC: 3.759 cumulative IPC: 3.747 (Simulation time: 00 hr 01 min 54 sec)
Heartbeat CPU 0 instructions: 21000145 cycles: 5604267 heartbeat IPC: 3.771 cumulative IPC: 3.747 (Simulation time: 00 hr 01 min 56 sec)
Heartbeat CPU 0 instructions: 21500152 cycles: 5737219 heartbeat IPC: 3.761 cumulative IPC: 3.747 (Simulation time: 00 hr 01 min 59 sec)
Heartbeat CPU 0 instructions: 22000156 cycles: 5870355 heartbeat IPC: 3.756 cumulative IPC: 3.748 (Simulation time: 00 hr 02 min 02 sec)
Heartbeat CPU 0 instructions: 22500162 cycles: 6003010 heartbeat IPC: 3.769 cumulative IPC: 3.748 (Simulation time: 00 hr 02 min 05 sec)
Heartbeat CPU 0 instructions: 23000163 cycles: 6135523 heartbeat IPC: 3.773 cumulative IPC: 3.749 (Simulation time: 00 hr 02 min 07 sec)
Heartbeat CPU 0 instructions: 23500170 cycles: 6270334 heartbeat IPC: 3.709 cumulative IPC: 3.748 (Simulation time: 00 hr 02 min 10 sec)
Heartbeat CPU 0 instructions: 24000177 cycles: 6403123 heartbeat IPC: 3.765 cumulative IPC: 3.748 (Simulation time: 00 hr 02 min 13 sec)
Heartbeat CPU 0 instructions: 24500182 cycles: 6535856 heartbeat IPC: 3.767 cumulative IPC: 3.749 (Simulation time: 00 hr 02 min 16 sec)
Heartbeat CPU 0 instructions: 25000184 cycles: 6668692 heartbeat IPC: 3.764 cumulative IPC: 3.749 (Simulation time: 00 hr 02 min 18 sec)
Heartbeat CPU 0 instructions: 25500187 cycles: 6801784 heartbeat IPC: 3.757 cumulative IPC: 3.749 (Simulation time: 00 hr 02 min 21 sec)
Heartbeat CPU 0 instructions: 26000193 cycles: 6934662 heartbeat IPC: 3.763 cumulative IPC: 3.749 (Simulation time: 00 hr 02 min 24 sec)
Heartbeat CPU 0 instructions: 26500194 cycles: 7067527 heartbeat IPC: 3.763 cumulative IPC: 3.75 (Simulation time: 00 hr 02 min 26 sec)
Heartbeat CPU 0 instructions: 27000197 cycles: 7201942 heartbeat IPC: 3.72 cumulative IPC: 3.749 (Simulation time: 00 hr 02 min 29 sec)
Heartbeat CPU 0 instructions: 27500201 cycles: 7334930 heartbeat IPC: 3.76 cumulative IPC: 3.749 (Simulation time: 00 hr 02 min 32 sec)
Heartbeat CPU 0 instructions: 28000203 cycles: 7468043 heartbeat IPC: 3.756 cumulative IPC: 3.749 (Simulation time: 00 hr 02 min 35 sec)
Heartbeat CPU 0 instructions: 28500209 cycles: 7600954 heartbeat IPC: 3.762 cumulative IPC: 3.75 (Simulation time: 00 hr 02 min 38 sec)
Heartbeat CPU 0 instructions: 29000215 cycles: 7733889 heartbeat IPC: 3.761 cumulative IPC: 3.75 (Simulation time: 00 hr 02 min 40 sec)
Heartbeat CPU 0 instructions: 29500221 cycles: 7866915 heartbeat IPC: 3.759 cumulative IPC: 3.75 (Simulation time: 00 hr 02 min 43 sec)
Heartbeat CPU 0 instructions: 30000226 cycles: 7999983 heartbeat IPC: 3.758 cumulative IPC: 3.75 (Simulation time: 00 hr 02 min 46 sec)
Heartbeat CPU 0 instructions: 30500232 cycles: 8134315 heartbeat IPC: 3.722 cumulative IPC: 3.75 (Simulation time: 00 hr 02 min 49 sec)
Heartbeat CPU 0 instructions: 31000238 cycles: 8267888 heartbeat IPC: 3.743 cumulative IPC: 3.749 (Simulation time: 00 hr 02 min 51 sec)
Heartbeat CPU 0 instructions: 31500244 cycles: 8392101 heartbeat IPC: 4.025 cumulative IPC: 3.754 (Simulation time: 00 hr 02 min 54 sec)
Heartbeat CPU 0 instructions: 32000250 cycles: 8516452 heartbeat IPC: 4.021 cumulative IPC: 3.757 (Simulation time: 00 hr 02 min 57 sec)
Heartbeat CPU 0 instructions: 32500253 cycles: 8640501 heartbeat IPC: 4.031 cumulative IPC: 3.761 (Simulation time: 00 hr 02 min 59 sec)
Heartbeat CPU 0 instructions: 33000257 cycles: 8764573 heartbeat IPC: 4.03 cumulative IPC: 3.765 (Simulation time: 00 hr 03 min 02 sec)
Heartbeat CPU 0 instructions: 33500264 cycles: 8889220 heartbeat IPC: 4.011 cumulative IPC: 3.769 (Simulation time: 00 hr 03 min 04 sec)
Heartbeat CPU 0 instructions: 34000267 cycles: 9013378 heartbeat IPC: 4.027 cumulative IPC: 3.772 (Simulation time: 00 hr 03 min 07 sec)
Heartbeat CPU 0 instructions: 34500267 cycles: 9137405 heartbeat IPC: 4.031 cumulative IPC: 3.776 (Simulation time: 00 hr 03 min 10 sec)
Heartbeat CPU 0 instructions: 35000273 cycles: 9261348 heartbeat IPC: 4.034 cumulative IPC: 3.779 (Simulation time: 00 hr 03 min 12 sec)
Heartbeat CPU 0 instructions: 35500279 cycles: 9385569 heartbeat IPC: 4.025 cumulative IPC: 3.782 (Simulation time: 00 hr 03 min 15 sec)
Heartbeat CPU 0 instructions: 36000280 cycles: 9509727 heartbeat IPC: 4.027 cumulative IPC: 3.786 (Simulation time: 00 hr 03 min 17 sec)
Heartbeat CPU 0 instructions: 36500281 cycles: 9633783 heartbeat IPC: 4.03 cumulative IPC: 3.789 (Simulation time: 00 hr 03 min 20 sec)
Heartbeat CPU 0 instructions: 37000288 cycles: 9758117 heartbeat IPC: 4.021 cumulative IPC: 3.792 (Simulation time: 00 hr 03 min 23 sec)
Heartbeat CPU 0 instructions: 37500295 cycles: 9882331 heartbeat IPC: 4.025 cumulative IPC: 3.795 (Simulation time: 00 hr 03 min 25 sec)
Heartbeat CPU 0 instructions: 38000297 cycles: 10006284 heartbeat IPC: 4.034 cumulative IPC: 3.798 (Simulation time: 00 hr 03 min 28 sec)
Heartbeat CPU 0 instructions: 38500304 cycles: 10130536 heartbeat IPC: 4.024 cumulative IPC: 3.8 (Simulation time: 00 hr 03 min 31 sec)
Heartbeat CPU 0 instructions: 39000304 cycles: 10254706 heartbeat IPC: 4.027 cumulative IPC: 3.803 (Simulation time: 00 hr 03 min 33 sec)
Heartbeat CPU 0 instructions: 39500310 cycles: 10379585 heartbeat IPC: 4.004 cumulative IPC: 3.806 (Simulation time: 00 hr 03 min 36 sec)
Heartbeat CPU 0 instructions: 40000314 cycles: 10504611 heartbeat IPC: 3.999 cumulative IPC: 3.808 (Simulation time: 00 hr 03 min 39 sec)
Heartbeat CPU 0 instructions: 40500319 cycles: 10628884 heartbeat IPC: 4.023 cumulative IPC: 3.81 (Simulation time: 00 hr 03 min 41 sec)
Heartbeat CPU 0 instructions: 41000322 cycles: 10753498 heartbeat IPC: 4.012 cumulative IPC: 3.813 (Simulation time: 00 hr 03 min 44 sec)
Heartbeat CPU 0 instructions: 41500323 cycles: 10877501 heartbeat IPC: 4.032 cumulative IPC: 3.815 (Simulation time: 00 hr 03 min 46 sec)
Heartbeat CPU 0 instructions: 42000328 cycles: 11001662 heartbeat IPC: 4.027 cumulative IPC: 3.818 (Simulation time: 00 hr 03 min 49 sec)
Heartbeat CPU 0 instructions: 42500329 cycles: 11125926 heartbeat IPC: 4.024 cumulative IPC: 3.82 (Simulation time: 00 hr 03 min 52 sec)
Heartbeat CPU 0 instructions: 43000331 cycles: 11250042 heartbeat IPC: 4.029 cumulative IPC: 3.822 (Simulation time: 00 hr 03 min 54 sec)
Heartbeat CPU 0 instructions: 43500338 cycles: 11374085 heartbeat IPC: 4.031 cumulative IPC: 3.825 (Simulation time: 00 hr 03 min 57 sec)
Heartbeat CPU 0 instructions: 44000338 cycles: 11498553 heartbeat IPC: 4.017 cumulative IPC: 3.827 (Simulation time: 00 hr 04 min 00 sec)
Heartbeat CPU 0 instructions: 44500344 cycles: 11622527 heartbeat IPC: 4.033 cumulative IPC: 3.829 (Simulation time: 00 hr 04 min 02 sec)
Heartbeat CPU 0 instructions: 45000350 cycles: 11746869 heartbeat IPC: 4.021 cumulative IPC: 3.831 (Simulation time: 00 hr 04 min 05 sec)
Heartbeat CPU 0 instructions: 45500351 cycles: 11871112 heartbeat IPC: 4.024 cumulative IPC: 3.833 (Simulation time: 00 hr 04 min 07 sec)
Heartbeat CPU 0 instructions: 46000351 cycles: 11995593 heartbeat IPC: 4.017 cumulative IPC: 3.835 (Simulation time: 00 hr 04 min 10 sec)
Heartbeat CPU 0 instructions: 46500353 cycles: 12119903 heartbeat IPC: 4.022 cumulative IPC: 3.837 (Simulation time: 00 hr 04 min 13 sec)
Heartbeat CPU 0 instructions: 47000354 cycles: 12243959 heartbeat IPC: 4.03 cumulative IPC: 3.839 (Simulation time: 00 hr 04 min 15 sec)
Heartbeat CPU 0 instructions: 47500355 cycles: 12368500 heartbeat IPC: 4.015 cumulative IPC: 3.84 (Simulation time: 00 hr 04 min 18 sec)
Heartbeat CPU 0 instructions: 48000361 cycles: 12492870 heartbeat IPC: 4.02 cumulative IPC: 3.842 (Simulation time: 00 hr 04 min 21 sec)
Heartbeat CPU 0 instructions: 48500363 cycles: 12616983 heartbeat IPC: 4.029 cumulative IPC: 3.844 (Simulation time: 00 hr 04 min 23 sec)
Heartbeat CPU 0 instructions: 49000365 cycles: 12740923 heartbeat IPC: 4.034 cumulative IPC: 3.846 (Simulation time: 00 hr 04 min 26 sec)
Heartbeat CPU 0 instructions: 49500365 cycles: 12865199 heartbeat IPC: 4.023 cumulative IPC: 3.848 (Simulation time: 00 hr 04 min 28 sec)
Warmup finished CPU 0 instructions: 50000000 cycles: 12989132 cumulative IPC: 3.849 (Simulation time: 00 hr 04 min 31 sec)
Warmup complete CPU 0 instructions: 50000000 cycles: 12989132 cumulative IPC: 3.849 (Simulation time: 00 hr 04 min 31 sec)
Heartbeat CPU 0 instructions: 50000365 cycles: 12989277 heartbeat IPC: 4.03 cumulative IPC: 2.517 (Simulation time: 00 hr 04 min 31 sec)
Heartbeat CPU 0 instructions: 50500369 cycles: 13157142 heartbeat IPC: 2.979 cumulative IPC: 2.978 (Simulation time: 00 hr 04 min 34 sec)
Heartbeat CPU 0 instructions: 51000369 cycles: 13326285 heartbeat IPC: 2.956 cumulative IPC: 2.967 (Simulation time: 00 hr 04 min 37 sec)
Heartbeat CPU 0 instructions: 51500375 cycles: 13494505 heartbeat IPC: 2.972 cumulative IPC: 2.969 (Simulation time: 00 hr 04 min 39 sec)
Heartbeat CPU 0 instructions: 52000378 cycles: 13663284 heartbeat IPC: 2.962 cumulative IPC: 2.967 (Simulation time: 00 hr 04 min 42 sec)
Heartbeat CPU 0 instructions: 52500381 cycles: 13835432 heartbeat IPC: 2.904 cumulative IPC: 2.954 (Simulation time: 00 hr 04 min 45 sec)
Heartbeat CPU 0 instructions: 53000387 cycles: 14003684 heartbeat IPC: 2.972 cumulative IPC: 2.957 (Simulation time: 00 hr 04 min 48 sec)
Heartbeat CPU 0 instructions: 53500394 cycles: 14172605 heartbeat IPC: 2.96 cumulative IPC: 2.958 (Simulation time: 00 hr 04 min 51 sec)
Heartbeat CPU 0 instructions: 54000397 cycles: 14341692 heartbeat IPC: 2.957 cumulative IPC: 2.958 (Simulation time: 00 hr 04 min 53 sec)
Heartbeat CPU 0 instructions: 54500399 cycles: 14510270 heartbeat IPC: 2.966 cumulative IPC: 2.959 (Simulation time: 00 hr 04 min 56 sec)
Heartbeat CPU 0 instructions: 55000405 cycles: 14678957 heartbeat IPC: 2.964 cumulative IPC: 2.959 (Simulation time: 00 hr 04 min 59 sec)
Heartbeat CPU 0 instructions: 55500409 cycles: 14847339 heartbeat IPC: 2.969 cumulative IPC: 2.96 (Simulation time: 00 hr 05 min 02 sec)
Heartbeat CPU 0 instructions: 56000409 cycles: 15016960 heartbeat IPC: 2.948 cumulative IPC: 2.959 (Simulation time: 00 hr 05 min 05 sec)
Heartbeat CPU 0 instructions: 56500410 cycles: 15190510 heartbeat IPC: 2.881 cumulative IPC: 2.953 (Simulation time: 00 hr 05 min 07 sec)
Heartbeat CPU 0 instructions: 57000413 cycles: 15360084 heartbeat IPC: 2.949 cumulative IPC: 2.953 (Simulation time: 00 hr 05 min 10 sec)
Heartbeat CPU 0 instructions: 57500418 cycles: 15529021 heartbeat IPC: 2.96 cumulative IPC: 2.953 (Simulation time: 00 hr 05 min 13 sec)
Heartbeat CPU 0 instructions: 58000419 cycles: 15697095 heartbeat IPC: 2.975 cumulative IPC: 2.954 (Simulation time: 00 hr 05 min 16 sec)
Heartbeat CPU 0 instructions: 58500420 cycles: 15865709 heartbeat IPC: 2.965 cumulative IPC: 2.955 (Simulation time: 00 hr 05 min 19 sec)
Heartbeat CPU 0 instructions: 59000425 cycles: 16035061 heartbeat IPC: 2.952 cumulative IPC: 2.955 (Simulation time: 00 hr 05 min 21 sec)
Heartbeat CPU 0 instructions: 59500430 cycles: 16204923 heartbeat IPC: 2.944 cumulative IPC: 2.954 (Simulation time: 00 hr 05 min 24 sec)
Heartbeat CPU 0 instructions: 60000432 cycles: 16379758 heartbeat IPC: 2.86 cumulative IPC: 2.949 (Simulation time: 00 hr 05 min 27 sec)
Heartbeat CPU 0 instructions: 60500437 cycles: 16549564 heartbeat IPC: 2.945 cumulative IPC: 2.949 (Simulation time: 00 hr 05 min 30 sec)
Heartbeat CPU 0 instructions: 61000438 cycles: 16718970 heartbeat IPC: 2.951 cumulative IPC: 2.949 (Simulation time: 00 hr 05 min 33 sec)
Heartbeat CPU 0 instructions: 61500439 cycles: 16888437 heartbeat IPC: 2.95 cumulative IPC: 2.949 (Simulation time: 00 hr 05 min 35 sec)
Heartbeat CPU 0 instructions: 62000444 cycles: 17057276 heartbeat IPC: 2.961 cumulative IPC: 2.95 (Simulation time: 00 hr 05 min 38 sec)
Heartbeat CPU 0 instructions: 62500445 cycles: 17224567 heartbeat IPC: 2.989 cumulative IPC: 2.951 (Simulation time: 00 hr 05 min 41 sec)
Heartbeat CPU 0 instructions: 63000448 cycles: 17393851 heartbeat IPC: 2.954 cumulative IPC: 2.951 (Simulation time: 00 hr 05 min 44 sec)
Heartbeat CPU 0 instructions: 63500450 cycles: 17567157 heartbeat IPC: 2.885 cumulative IPC: 2.949 (Simulation time: 00 hr 05 min 47 sec)
Heartbeat CPU 0 instructions: 64000454 cycles: 17738406 heartbeat IPC: 2.92 cumulative IPC: 2.948 (Simulation time: 00 hr 05 min 50 sec)
Heartbeat CPU 0 instructions: 64500454 cycles: 17908178 heartbeat IPC: 2.945 cumulative IPC: 2.948 (Simulation time: 00 hr 05 min 52 sec)
Heartbeat CPU 0 instructions: 65000460 cycles: 18077060 heartbeat IPC: 2.961 cumulative IPC: 2.948 (Simulation time: 00 hr 05 min 55 sec)
Heartbeat CPU 0 instructions: 65500463 cycles: 18246127 heartbeat IPC: 2.957 cumulative IPC: 2.949 (Simulation time: 00 hr 05 min 58 sec)
Heartbeat CPU 0 instructions: 66000466 cycles: 18414813 heartbeat IPC: 2.964 cumulative IPC: 2.949 (Simulation time: 00 hr 06 min 01 sec)
Heartbeat CPU 0 instructions: 66500469 cycles: 18583284 heartbeat IPC: 2.968 cumulative IPC: 2.95 (Simulation time: 00 hr 06 min 03 sec)
Heartbeat CPU 0 instructions: 67000471 cycles: 18752540 heartbeat IPC: 2.954 cumulative IPC: 2.95 (Simulation time: 00 hr 06 min 06 sec)
Heartbeat CPU 0 instructions: 67500474 cycles: 18927189 heartbeat IPC: 2.863 cumulative IPC: 2.947 (Simulation time: 00 hr 06 min 09 sec)
Heartbeat CPU 0 instructions: 68000477 cycles: 19095937 heartbeat IPC: 2.963 cumulative IPC: 2.948 (Simulation time: 00 hr 06 min 12 sec)
Heartbeat CPU 0 instructions: 68500480 cycles: 19266190 heartbeat IPC: 2.937 cumulative IPC: 2.947 (Simulation time: 00 hr 06 min 15 sec)
Heartbeat CPU 0 instructions: 69000483 cycles: 19435545 heartbeat IPC: 2.952 cumulative IPC: 2.947 (Simulation time: 00 hr 06 min 17 sec)
Heartbeat CPU 0 instructions: 69500484 cycles: 19605589 heartbeat IPC: 2.94 cumulative IPC: 2.947 (Simulation time: 00 hr 06 min 20 sec)
Heartbeat CPU 0 instructions: 70000489 cycles: 19773655 heartbeat IPC: 2.975 cumulative IPC: 2.948 (Simulation time: 00 hr 06 min 23 sec)
Heartbeat CPU 0 instructions: 70500492 cycles: 19943312 heartbeat IPC: 2.947 cumulative IPC: 2.948 (Simulation time: 00 hr 06 min 26 sec)
Heartbeat CPU 0 instructions: 71000495 cycles: 20128128 heartbeat IPC: 2.705 cumulative IPC: 2.942 (Simulation time: 00 hr 06 min 29 sec)
Heartbeat CPU 0 instructions: 71500496 cycles: 20297230 heartbeat IPC: 2.957 cumulative IPC: 2.942 (Simulation time: 00 hr 06 min 32 sec)
Heartbeat CPU 0 instructions: 72000501 cycles: 20466246 heartbeat IPC: 2.958 cumulative IPC: 2.942 (Simulation time: 00 hr 06 min 34 sec)
Heartbeat CPU 0 instructions: 72500506 cycles: 20635409 heartbeat IPC: 2.956 cumulative IPC: 2.943 (Simulation time: 00 hr 06 min 37 sec)
Heartbeat CPU 0 instructions: 73000513 cycles: 20804645 heartbeat IPC: 2.954 cumulative IPC: 2.943 (Simulation time: 00 hr 06 min 40 sec)
Heartbeat CPU 0 instructions: 73500519 cycles: 20974414 heartbeat IPC: 2.945 cumulative IPC: 2.943 (Simulation time: 00 hr 06 min 43 sec)
Heartbeat CPU 0 instructions: 74000525 cycles: 21143321 heartbeat IPC: 2.96 cumulative IPC: 2.943 (Simulation time: 00 hr 06 min 46 sec)
Heartbeat CPU 0 instructions: 74500525 cycles: 21317067 heartbeat IPC: 2.878 cumulative IPC: 2.942 (Simulation time: 00 hr 06 min 48 sec)
Heartbeat CPU 0 instructions: 75000529 cycles: 21487103 heartbeat IPC: 2.941 cumulative IPC: 2.942 (Simulation time: 00 hr 06 min 51 sec)
Heartbeat CPU 0 instructions: 75500535 cycles: 21656017 heartbeat IPC: 2.96 cumulative IPC: 2.942 (Simulation time: 00 hr 06 min 54 sec)
Heartbeat CPU 0 instructions: 76000538 cycles: 21824873 heartbeat IPC: 2.961 cumulative IPC: 2.943 (Simulation time: 00 hr 06 min 57 sec)
Heartbeat CPU 0 instructions: 76500541 cycles: 21993986 heartbeat IPC: 2.957 cumulative IPC: 2.943 (Simulation time: 00 hr 07 min 00 sec)
Heartbeat CPU 0 instructions: 77000547 cycles: 22163255 heartbeat IPC: 2.954 cumulative IPC: 2.943 (Simulation time: 00 hr 07 min 02 sec)
Heartbeat CPU 0 instructions: 77500547 cycles: 22331040 heartbeat IPC: 2.98 cumulative IPC: 2.944 (Simulation time: 00 hr 07 min 05 sec)
Heartbeat CPU 0 instructions: 78000554 cycles: 22499407 heartbeat IPC: 2.97 cumulative IPC: 2.944 (Simulation time: 00 hr 07 min 08 sec)
Heartbeat CPU 0 instructions: 78500561 cycles: 22673481 heartbeat IPC: 2.872 cumulative IPC: 2.943 (Simulation time: 00 hr 07 min 11 sec)
Heartbeat CPU 0 instructions: 79000562 cycles: 22842268 heartbeat IPC: 2.962 cumulative IPC: 2.943 (Simulation time: 00 hr 07 min 14 sec)
Heartbeat CPU 0 instructions: 79500565 cycles: 23010829 heartbeat IPC: 2.966 cumulative IPC: 2.944 (Simulation time: 00 hr 07 min 16 sec)
Heartbeat CPU 0 instructions: 80000568 cycles: 23179798 heartbeat IPC: 2.959 cumulative IPC: 2.944 (Simulation time: 00 hr 07 min 19 sec)
Heartbeat CPU 0 instructions: 80500568 cycles: 23348511 heartbeat IPC: 2.964 cumulative IPC: 2.944 (Simulation time: 00 hr 07 min 22 sec)
Heartbeat CPU 0 instructions: 81000571 cycles: 23516945 heartbeat IPC: 2.969 cumulative IPC: 2.945 (Simulation time: 00 hr 07 min 25 sec)
Heartbeat CPU 0 instructions: 81500571 cycles: 23685807 heartbeat IPC: 2.961 cumulative IPC: 2.945 (Simulation time: 00 hr 07 min 28 sec)
Heartbeat CPU 0 instructions: 82000575 cycles: 23860049 heartbeat IPC: 2.87 cumulative IPC: 2.944 (Simulation time: 00 hr 07 min 30 sec)
Heartbeat CPU 0 instructions: 82500575 cycles: 24027521 heartbeat IPC: 2.986 cumulative IPC: 2.944 (Simulation time: 00 hr 07 min 33 sec)
Heartbeat CPU 0 instructions: 83000582 cycles: 24195601 heartbeat IPC: 2.975 cumulative IPC: 2.945 (Simulation time: 00 hr 07 min 36 sec)
Heartbeat CPU 0 instructions: 83500588 cycles: 24363650 heartbeat IPC: 2.975 cumulative IPC: 2.945 (Simulation time: 00 hr 07 min 39 sec)
Heartbeat CPU 0 instructions: 84000595 cycles: 24531181 heartbeat IPC: 2.985 cumulative IPC: 2.946 (Simulation time: 00 hr 07 min 42 sec)
Heartbeat CPU 0 instructions: 84500596 cycles: 24699631 heartbeat IPC: 2.968 cumulative IPC: 2.946 (Simulation time: 00 hr 07 min 44 sec)
Heartbeat CPU 0 instructions: 85000600 cycles: 24867975 heartbeat IPC: 2.97 cumulative IPC: 2.946 (Simulation time: 00 hr 07 min 47 sec)
Heartbeat CPU 0 instructions: 85500602 cycles: 25039454 heartbeat IPC: 2.916 cumulative IPC: 2.946 (Simulation time: 00 hr 07 min 50 sec)
Heartbeat CPU 0 instructions: 86000603 cycles: 25209209 heartbeat IPC: 2.945 cumulative IPC: 2.946 (Simulation time: 00 hr 07 min 53 sec)
Heartbeat CPU 0 instructions: 86500604 cycles: 25376887 heartbeat IPC: 2.982 cumulative IPC: 2.947 (Simulation time: 00 hr 07 min 55 sec)
Heartbeat CPU 0 instructions: 87000606 cycles: 25544222 heartbeat IPC: 2.988 cumulative IPC: 2.947 (Simulation time: 00 hr 07 min 58 sec)
Heartbeat CPU 0 instructions: 87500610 cycles: 25712841 heartbeat IPC: 2.965 cumulative IPC: 2.947 (Simulation time: 00 hr 08 min 01 sec)
Heartbeat CPU 0 instructions: 88000613 cycles: 25882468 heartbeat IPC: 2.948 cumulative IPC: 2.947 (Simulation time: 00 hr 08 min 04 sec)
Heartbeat CPU 0 instructions: 88500618 cycles: 26050099 heartbeat IPC: 2.983 cumulative IPC: 2.948 (Simulation time: 00 hr 08 min 07 sec)
Heartbeat CPU 0 instructions: 89000620 cycles: 26219805 heartbeat IPC: 2.946 cumulative IPC: 2.948 (Simulation time: 00 hr 08 min 09 sec)
Heartbeat CPU 0 instructions: 89500625 cycles: 26393950 heartbeat IPC: 2.871 cumulative IPC: 2.947 (Simulation time: 00 hr 08 min 12 sec)
Heartbeat CPU 0 instructions: 90000626 cycles: 26562072 heartbeat IPC: 2.974 cumulative IPC: 2.947 (Simulation time: 00 hr 08 min 15 sec)
Heartbeat CPU 0 instructions: 90500626 cycles: 26730856 heartbeat IPC: 2.962 cumulative IPC: 2.947 (Simulation time: 00 hr 08 min 18 sec)
Heartbeat CPU 0 instructions: 91000627 cycles: 26900243 heartbeat IPC: 2.952 cumulative IPC: 2.947 (Simulation time: 00 hr 08 min 21 sec)
Heartbeat CPU 0 instructions: 91500627 cycles: 27069531 heartbeat IPC: 2.954 cumulative IPC: 2.947 (Simulation time: 00 hr 08 min 23 sec)
Heartbeat CPU 0 instructions: 92000630 cycles: 27237179 heartbeat IPC: 2.982 cumulative IPC: 2.948 (Simulation time: 00 hr 08 min 26 sec)
Heartbeat CPU 0 instructions: 92500631 cycles: 27405275 heartbeat IPC: 2.974 cumulative IPC: 2.948 (Simulation time: 00 hr 08 min 29 sec)
Heartbeat CPU 0 instructions: 93000638 cycles: 27578288 heartbeat IPC: 2.89 cumulative IPC: 2.947 (Simulation time: 00 hr 08 min 32 sec)
Heartbeat CPU 0 instructions: 93500645 cycles: 27744917 heartbeat IPC: 3.001 cumulative IPC: 2.948 (Simulation time: 00 hr 08 min 35 sec)
Heartbeat CPU 0 instructions: 94000645 cycles: 27909701 heartbeat IPC: 3.034 cumulative IPC: 2.949 (Simulation time: 00 hr 08 min 37 sec)
Heartbeat CPU 0 instructions: 94500651 cycles: 28074151 heartbeat IPC: 3.04 cumulative IPC: 2.95 (Simulation time: 00 hr 08 min 40 sec)
Heartbeat CPU 0 instructions: 95000655 cycles: 28237548 heartbeat IPC: 3.06 cumulative IPC: 2.951 (Simulation time: 00 hr 08 min 43 sec)
Heartbeat CPU 0 instructions: 95500655 cycles: 28400406 heartbeat IPC: 3.07 cumulative IPC: 2.952 (Simulation time: 00 hr 08 min 45 sec)
Heartbeat CPU 0 instructions: 96000660 cycles: 28564178 heartbeat IPC: 3.053 cumulative IPC: 2.953 (Simulation time: 00 hr 08 min 48 sec)
Heartbeat CPU 0 instructions: 96500667 cycles: 28731068 heartbeat IPC: 2.996 cumulative IPC: 2.954 (Simulation time: 00 hr 08 min 51 sec)
Heartbeat CPU 0 instructions: 97000673 cycles: 28892835 heartbeat IPC: 3.091 cumulative IPC: 2.955 (Simulation time: 00 hr 08 min 54 sec)
Heartbeat CPU 0 instructions: 97500678 cycles: 29053492 heartbeat IPC: 3.112 cumulative IPC: 2.957 (Simulation time: 00 hr 08 min 56 sec)
Heartbeat CPU 0 instructions: 98000679 cycles: 29212948 heartbeat IPC: 3.136 cumulative IPC: 2.959 (Simulation time: 00 hr 08 min 59 sec)
Heartbeat CPU 0 instructions: 98500685 cycles: 29371215 heartbeat IPC: 3.159 cumulative IPC: 2.961 (Simulation time: 00 hr 09 min 02 sec)
Heartbeat CPU 0 instructions: 99000688 cycles: 29528555 heartbeat IPC: 3.178 cumulative IPC: 2.963 (Simulation time: 00 hr 09 min 04 sec)
Heartbeat CPU 0 instructions: 99500690 cycles: 29686828 heartbeat IPC: 3.159 cumulative IPC: 2.965 (Simulation time: 00 hr 09 min 07 sec)
Heartbeat CPU 0 instructions: 100000695 cycles: 29845490 heartbeat IPC: 3.151 cumulative IPC: 2.966 (Simulation time: 00 hr 09 min 10 sec)
Heartbeat CPU 0 instructions: 100500700 cycles: 30015190 heartbeat IPC: 2.946 cumulative IPC: 2.966 (Simulation time: 00 hr 09 min 12 sec)
Heartbeat CPU 0 instructions: 101000702 cycles: 30183056 heartbeat IPC: 2.979 cumulative IPC: 2.966 (Simulation time: 00 hr 09 min 15 sec)
Heartbeat CPU 0 instructions: 101500708 cycles: 30352677 heartbeat IPC: 2.948 cumulative IPC: 2.966 (Simulation time: 00 hr 09 min 18 sec)
Heartbeat CPU 0 instructions: 102000709 cycles: 30531616 heartbeat IPC: 2.794 cumulative IPC: 2.964 (Simulation time: 00 hr 09 min 21 sec)
Heartbeat CPU 0 instructions: 102500709 cycles: 30699599 heartbeat IPC: 2.976 cumulative IPC: 2.964 (Simulation time: 00 hr 09 min 24 sec)
Heartbeat CPU 0 instructions: 103000712 cycles: 30868051 heartbeat IPC: 2.968 cumulative IPC: 2.964 (Simulation time: 00 hr 09 min 27 sec)
Heartbeat CPU 0 instructions: 103500712 cycles: 31037298 heartbeat IPC: 2.954 cumulative IPC: 2.964 (Simulation time: 00 hr 09 min 29 sec)
Heartbeat CPU 0 instructions: 104000713 cycles: 31210596 heartbeat IPC: 2.885 cumulative IPC: 2.964 (Simulation time: 00 hr 09 min 32 sec)
Heartbeat CPU 0 instructions: 104500720 cycles: 31380096 heartbeat IPC: 2.95 cumulative IPC: 2.963 (Simulation time: 00 hr 09 min 35 sec)
Heartbeat CPU 0 instructions: 105000721 cycles: 31548418 heartbeat IPC: 2.971 cumulative IPC: 2.964 (Simulation time: 00 hr 09 min 38 sec)
Heartbeat CPU 0 instructions: 105500723 cycles: 31716343 heartbeat IPC: 2.978 cumulative IPC: 2.964 (Simulation time: 00 hr 09 min 41 sec)
Heartbeat CPU 0 instructions: 106000724 cycles: 31885850 heartbeat IPC: 2.95 cumulative IPC: 2.964 (Simulation time: 00 hr 09 min 43 sec)
Heartbeat CPU 0 instructions: 106500730 cycles: 32055073 heartbeat IPC: 2.955 cumulative IPC: 2.963 (Simulation time: 00 hr 09 min 46 sec)
Heartbeat CPU 0 instructions: 107000733 cycles: 32223876 heartbeat IPC: 2.962 cumulative IPC: 2.963 (Simulation time: 00 hr 09 min 49 sec)
Heartbeat CPU 0 instructions: 107500735 cycles: 32397043 heartbeat IPC: 2.887 cumulative IPC: 2.963 (Simulation time: 00 hr 09 min 52 sec)
Heartbeat CPU 0 instructions: 108000736 cycles: 32567149 heartbeat IPC: 2.939 cumulative IPC: 2.963 (Simulation time: 00 hr 09 min 55 sec)
Heartbeat CPU 0 instructions: 108500737 cycles: 32735721 heartbeat IPC: 2.966 cumulative IPC: 2.963 (Simulation time: 00 hr 09 min 57 sec)
Heartbeat CPU 0 instructions: 109000742 cycles: 32903301 heartbeat IPC: 2.984 cumulative IPC: 2.963 (Simulation time: 00 hr 10 min 00 sec)
Heartbeat CPU 0 instructions: 109500743 cycles: 33072332 heartbeat IPC: 2.958 cumulative IPC: 2.963 (Simulation time: 00 hr 10 min 03 sec)
Heartbeat CPU 0 instructions: 110000746 cycles: 33241940 heartbeat IPC: 2.948 cumulative IPC: 2.963 (Simulation time: 00 hr 10 min 06 sec)
Heartbeat CPU 0 instructions: 110500747 cycles: 33410156 heartbeat IPC: 2.972 cumulative IPC: 2.963 (Simulation time: 00 hr 10 min 08 sec)
Heartbeat CPU 0 instructions: 111000747 cycles: 33580330 heartbeat IPC: 2.938 cumulative IPC: 2.962 (Simulation time: 00 hr 10 min 11 sec)
Heartbeat CPU 0 instructions: 111500750 cycles: 33752540 heartbeat IPC: 2.903 cumulative IPC: 2.962 (Simulation time: 00 hr 10 min 14 sec)
Heartbeat CPU 0 instructions: 112000755 cycles: 33921599 heartbeat IPC: 2.958 cumulative IPC: 2.962 (Simulation time: 00 hr 10 min 17 sec)
Heartbeat CPU 0 instructions: 112500757 cycles: 34089805 heartbeat IPC: 2.973 cumulative IPC: 2.962 (Simulation time: 00 hr 10 min 20 sec)
Heartbeat CPU 0 instructions: 113000760 cycles: 34258767 heartbeat IPC: 2.959 cumulative IPC: 2.962 (Simulation time: 00 hr 10 min 22 sec)
Heartbeat CPU 0 instructions: 113500760 cycles: 34426126 heartbeat IPC: 2.988 cumulative IPC: 2.962 (Simulation time: 00 hr 10 min 25 sec)
Heartbeat CPU 0 instructions: 114000761 cycles: 34593181 heartbeat IPC: 2.993 cumulative IPC: 2.962 (Simulation time: 00 hr 10 min 28 sec)
Heartbeat CPU 0 instructions: 114500761 cycles: 34762181 heartbeat IPC: 2.959 cumulative IPC: 2.962 (Simulation time: 00 hr 10 min 31 sec)
Heartbeat CPU 0 instructions: 115000763 cycles: 34936679 heartbeat IPC: 2.865 cumulative IPC: 2.962 (Simulation time: 00 hr 10 min 34 sec)
Heartbeat CPU 0 instructions: 115500770 cycles: 35103052 heartbeat IPC: 3.005 cumulative IPC: 2.962 (Simulation time: 00 hr 10 min 36 sec)
Heartbeat CPU 0 instructions: 116000770 cycles: 35271191 heartbeat IPC: 2.974 cumulative IPC: 2.962 (Simulation time: 00 hr 10 min 39 sec)
Heartbeat CPU 0 instructions: 116500774 cycles: 35438799 heartbeat IPC: 2.983 cumulative IPC: 2.962 (Simulation time: 00 hr 10 min 42 sec)
Heartbeat CPU 0 instructions: 117000776 cycles: 35606249 heartbeat IPC: 2.986 cumulative IPC: 2.962 (Simulation time: 00 hr 10 min 45 sec)
Heartbeat CPU 0 instructions: 117500780 cycles: 35774633 heartbeat IPC: 2.969 cumulative IPC: 2.962 (Simulation time: 00 hr 10 min 47 sec)
Heartbeat CPU 0 instructions: 118000785 cycles: 35943769 heartbeat IPC: 2.956 cumulative IPC: 2.962 (Simulation time: 00 hr 10 min 50 sec)
Heartbeat CPU 0 instructions: 118500792 cycles: 36116933 heartbeat IPC: 2.887 cumulative IPC: 2.962 (Simulation time: 00 hr 10 min 53 sec)
Heartbeat CPU 0 instructions: 119000798 cycles: 36286244 heartbeat IPC: 2.953 cumulative IPC: 2.962 (Simulation time: 00 hr 10 min 56 sec)
Heartbeat CPU 0 instructions: 119500801 cycles: 36455050 heartbeat IPC: 2.962 cumulative IPC: 2.962 (Simulation time: 00 hr 10 min 59 sec)
Heartbeat CPU 0 instructions: 120000806 cycles: 36623530 heartbeat IPC: 2.968 cumulative IPC: 2.962 (Simulation time: 00 hr 11 min 01 sec)
Heartbeat CPU 0 instructions: 120500810 cycles: 36792437 heartbeat IPC: 2.96 cumulative IPC: 2.962 (Simulation time: 00 hr 11 min 04 sec)
Heartbeat CPU 0 instructions: 121000813 cycles: 36961621 heartbeat IPC: 2.955 cumulative IPC: 2.962 (Simulation time: 00 hr 11 min 07 sec)
Heartbeat CPU 0 instructions: 121500819 cycles: 37130580 heartbeat IPC: 2.959 cumulative IPC: 2.962 (Simulation time: 00 hr 11 min 10 sec)
Heartbeat CPU 0 instructions: 122000822 cycles: 37300508 heartbeat IPC: 2.942 cumulative IPC: 2.962 (Simulation time: 00 hr 11 min 13 sec)
Heartbeat CPU 0 instructions: 122500827 cycles: 37473375 heartbeat IPC: 2.892 cumulative IPC: 2.961 (Simulation time: 00 hr 11 min 15 sec)
Heartbeat CPU 0 instructions: 123000828 cycles: 37641784 heartbeat IPC: 2.969 cumulative IPC: 2.961 (Simulation time: 00 hr 11 min 18 sec)
Heartbeat CPU 0 instructions: 123500833 cycles: 37809952 heartbeat IPC: 2.973 cumulative IPC: 2.961 (Simulation time: 00 hr 11 min 21 sec)
Heartbeat CPU 0 instructions: 124000834 cycles: 37978369 heartbeat IPC: 2.969 cumulative IPC: 2.961 (Simulation time: 00 hr 11 min 24 sec)
Heartbeat CPU 0 instructions: 124500839 cycles: 38143729 heartbeat IPC: 3.024 cumulative IPC: 2.962 (Simulation time: 00 hr 11 min 27 sec)
Heartbeat CPU 0 instructions: 125000840 cycles: 38309622 heartbeat IPC: 3.014 cumulative IPC: 2.962 (Simulation time: 00 hr 11 min 29 sec)
Heartbeat CPU 0 instructions: 125500841 cycles: 38474857 heartbeat IPC: 3.026 cumulative IPC: 2.962 (Simulation time: 00 hr 11 min 32 sec)
Heartbeat CPU 0 instructions: 126000841 cycles: 38643312 heartbeat IPC: 2.968 cumulative IPC: 2.963 (Simulation time: 00 hr 11 min 35 sec)
Heartbeat CPU 0 instructions: 126500845 cycles: 38806348 heartbeat IPC: 3.067 cumulative IPC: 2.963 (Simulation time: 00 hr 11 min 38 sec)
Heartbeat CPU 0 instructions: 127000851 cycles: 38968964 heartbeat IPC: 3.075 cumulative IPC: 2.964 (Simulation time: 00 hr 11 min 40 sec)
Heartbeat CPU 0 instructions: 127500854 cycles: 39132445 heartbeat IPC: 3.058 cumulative IPC: 2.964 (Simulation time: 00 hr 11 min 43 sec)
Heartbeat CPU 0 instructions: 128000854 cycles: 39294310 heartbeat IPC: 3.089 cumulative IPC: 2.965 (Simulation time: 00 hr 11 min 46 sec)
Heartbeat CPU 0 instructions: 128500855 cycles: 39455071 heartbeat IPC: 3.11 cumulative IPC: 2.966 (Simulation time: 00 hr 11 min 48 sec)
Heartbeat CPU 0 instructions: 129000858 cycles: 39616945 heartbeat IPC: 3.089 cumulative IPC: 2.967 (Simulation time: 00 hr 11 min 51 sec)
Heartbeat CPU 0 instructions: 129500860 cycles: 39779541 heartbeat IPC: 3.075 cumulative IPC: 2.968 (Simulation time: 00 hr 11 min 54 sec)
Heartbeat CPU 0 instructions: 130000861 cycles: 39936393 heartbeat IPC: 3.188 cumulative IPC: 2.969 (Simulation time: 00 hr 11 min 56 sec)
Heartbeat CPU 0 instructions: 130500862 cycles: 40095821 heartbeat IPC: 3.136 cumulative IPC: 2.97 (Simulation time: 00 hr 11 min 59 sec)
Heartbeat CPU 0 instructions: 131000865 cycles: 40255444 heartbeat IPC: 3.132 cumulative IPC: 2.971 (Simulation time: 00 hr 12 min 02 sec)
Heartbeat CPU 0 instructions: 131500868 cycles: 40416567 heartbeat IPC: 3.103 cumulative IPC: 2.972 (Simulation time: 00 hr 12 min 05 sec)
Heartbeat CPU 0 instructions: 132000871 cycles: 40586836 heartbeat IPC: 2.937 cumulative IPC: 2.971 (Simulation time: 00 hr 12 min 07 sec)
Heartbeat CPU 0 instructions: 132500871 cycles: 40758089 heartbeat IPC: 2.92 cumulative IPC: 2.971 (Simulation time: 00 hr 12 min 10 sec)
Heartbeat CPU 0 instructions: 133000872 cycles: 40936992 heartbeat IPC: 2.795 cumulative IPC: 2.97 (Simulation time: 00 hr 12 min 13 sec)
Heartbeat CPU 0 instructions: 133500875 cycles: 41110340 heartbeat IPC: 2.884 cumulative IPC: 2.969 (Simulation time: 00 hr 12 min 16 sec)
Heartbeat CPU 0 instructions: 134000877 cycles: 41278960 heartbeat IPC: 2.965 cumulative IPC: 2.969 (Simulation time: 00 hr 12 min 19 sec)
Heartbeat CPU 0 instructions: 134500882 cycles: 41447275 heartbeat IPC: 2.971 cumulative IPC: 2.969 (Simulation time: 00 hr 12 min 21 sec)
Heartbeat CPU 0 instructions: 135000883 cycles: 41615510 heartbeat IPC: 2.972 cumulative IPC: 2.969 (Simulation time: 00 hr 12 min 24 sec)
Heartbeat CPU 0 instructions: 135500885 cycles: 41784841 heartbeat IPC: 2.953 cumulative IPC: 2.969 (Simulation time: 00 hr 12 min 27 sec)
Heartbeat CPU 0 instructions: 136000886 cycles: 41954136 heartbeat IPC: 2.953 cumulative IPC: 2.969 (Simulation time: 00 hr 12 min 30 sec)
Heartbeat CPU 0 instructions: 136500892 cycles: 42121885 heartbeat IPC: 2.981 cumulative IPC: 2.969 (Simulation time: 00 hr 12 min 33 sec)
Heartbeat CPU 0 instructions: 137000892 cycles: 42296276 heartbeat IPC: 2.867 cumulative IPC: 2.969 (Simulation time: 00 hr 12 min 35 sec)
Heartbeat CPU 0 instructions: 137500897 cycles: 42466171 heartbeat IPC: 2.943 cumulative IPC: 2.968 (Simulation time: 00 hr 12 min 38 sec)
Heartbeat CPU 0 instructions: 138000898 cycles: 42634214 heartbeat IPC: 2.975 cumulative IPC: 2.968 (Simulation time: 00 hr 12 min 41 sec)
Heartbeat CPU 0 instructions: 138500898 cycles: 42802477 heartbeat IPC: 2.972 cumulative IPC: 2.968 (Simulation time: 00 hr 12 min 44 sec)
Heartbeat CPU 0 instructions: 139000902 cycles: 42971640 heartbeat IPC: 2.956 cumulative IPC: 2.968 (Simulation time: 00 hr 12 min 47 sec)
Heartbeat CPU 0 instructions: 139500904 cycles: 43141048 heartbeat IPC: 2.951 cumulative IPC: 2.968 (Simulation time: 00 hr 12 min 49 sec)
Heartbeat CPU 0 instructions: 140000908 cycles: 43308627 heartbeat IPC: 2.984 cumulative IPC: 2.968 (Simulation time: 00 hr 12 min 52 sec)
Heartbeat CPU 0 instructions: 140500909 cycles: 43483040 heartbeat IPC: 2.867 cumulative IPC: 2.968 (Simulation time: 00 hr 12 min 55 sec)
Heartbeat CPU 0 instructions: 141000911 cycles: 43652046 heartbeat IPC: 2.958 cumulative IPC: 2.968 (Simulation time: 00 hr 12 min 58 sec)
Heartbeat CPU 0 instructions: 141500918 cycles: 43820113 heartbeat IPC: 2.975 cumulative IPC: 2.968 (Simulation time: 00 hr 13 min 01 sec)
Heartbeat CPU 0 instructions: 142000921 cycles: 43989032 heartbeat IPC: 2.96 cumulative IPC: 2.968 (Simulation time: 00 hr 13 min 03 sec)
Heartbeat CPU 0 instructions: 142500927 cycles: 44156787 heartbeat IPC: 2.981 cumulative IPC: 2.968 (Simulation time: 00 hr 13 min 06 sec)
Heartbeat CPU 0 instructions: 143000930 cycles: 44324600 heartbeat IPC: 2.98 cumulative IPC: 2.968 (Simulation time: 00 hr 13 min 09 sec)
Heartbeat CPU 0 instructions: 143500936 cycles: 44492392 heartbeat IPC: 2.98 cumulative IPC: 2.968 (Simulation time: 00 hr 13 min 12 sec)
Heartbeat CPU 0 instructions: 144000938 cycles: 44661243 heartbeat IPC: 2.961 cumulative IPC: 2.968 (Simulation time: 00 hr 13 min 14 sec)
Heartbeat CPU 0 instructions: 144500939 cycles: 44832311 heartbeat IPC: 2.923 cumulative IPC: 2.968 (Simulation time: 00 hr 13 min 17 sec)
Heartbeat CPU 0 instructions: 145000945 cycles: 45000148 heartbeat IPC: 2.979 cumulative IPC: 2.968 (Simulation time: 00 hr 13 min 20 sec)
Heartbeat CPU 0 instructions: 145500947 cycles: 45166621 heartbeat IPC: 3.004 cumulative IPC: 2.968 (Simulation time: 00 hr 13 min 23 sec)
Heartbeat CPU 0 instructions: 146000951 cycles: 45334251 heartbeat IPC: 2.983 cumulative IPC: 2.968 (Simulation time: 00 hr 13 min 26 sec)
Heartbeat CPU 0 instructions: 146500954 cycles: 45502192 heartbeat IPC: 2.977 cumulative IPC: 2.968 (Simulation time: 00 hr 13 min 28 sec)
Heartbeat CPU 0 instructions: 147000957 cycles: 45669558 heartbeat IPC: 2.987 cumulative IPC: 2.968 (Simulation time: 00 hr 13 min 31 sec)
Heartbeat CPU 0 instructions: 147500960 cycles: 45837257 heartbeat IPC: 2.982 cumulative IPC: 2.968 (Simulation time: 00 hr 13 min 34 sec)
Heartbeat CPU 0 instructions: 148000967 cycles: 46010480 heartbeat IPC: 2.886 cumulative IPC: 2.968 (Simulation time: 00 hr 13 min 37 sec)
Heartbeat CPU 0 instructions: 148500970 cycles: 46178999 heartbeat IPC: 2.967 cumulative IPC: 2.968 (Simulation time: 00 hr 13 min 40 sec)
Heartbeat CPU 0 instructions: 149000970 cycles: 46346304 heartbeat IPC: 2.989 cumulative IPC: 2.968 (Simulation time: 00 hr 13 min 42 sec)
Heartbeat CPU 0 instructions: 149500971 cycles: 46513766 heartbeat IPC: 2.986 cumulative IPC: 2.968 (Simulation time: 00 hr 13 min 45 sec)
Heartbeat CPU 0 instructions: 150000971 cycles: 46682579 heartbeat IPC: 2.962 cumulative IPC: 2.968 (Simulation time: 00 hr 13 min 48 sec)
Heartbeat CPU 0 instructions: 150500972 cycles: 46851724 heartbeat IPC: 2.956 cumulative IPC: 2.968 (Simulation time: 00 hr 13 min 51 sec)
Heartbeat CPU 0 instructions: 151000975 cycles: 47020975 heartbeat IPC: 2.954 cumulative IPC: 2.968 (Simulation time: 00 hr 13 min 54 sec)
Heartbeat CPU 0 instructions: 151500975 cycles: 47194308 heartbeat IPC: 2.885 cumulative IPC: 2.967 (Simulation time: 00 hr 13 min 56 sec)
Heartbeat CPU 0 instructions: 152000975 cycles: 47363684 heartbeat IPC: 2.952 cumulative IPC: 2.967 (Simulation time: 00 hr 13 min 59 sec)
Heartbeat CPU 0 instructions: 152500981 cycles: 47533219 heartbeat IPC: 2.949 cumulative IPC: 2.967 (Simulation time: 00 hr 14 min 02 sec)
Heartbeat CPU 0 instructions: 153000981 cycles: 47701669 heartbeat IPC: 2.968 cumulative IPC: 2.967 (Simulation time: 00 hr 14 min 05 sec)
Heartbeat CPU 0 instructions: 153500984 cycles: 47869923 heartbeat IPC: 2.972 cumulative IPC: 2.967 (Simulation time: 00 hr 14 min 08 sec)
Heartbeat CPU 0 instructions: 154000988 cycles: 48038676 heartbeat IPC: 2.963 cumulative IPC: 2.967 (Simulation time: 00 hr 14 min 10 sec)
Heartbeat CPU 0 instructions: 154500989 cycles: 48207691 heartbeat IPC: 2.958 cumulative IPC: 2.967 (Simulation time: 00 hr 14 min 13 sec)
Heartbeat CPU 0 instructions: 155000995 cycles: 48377672 heartbeat IPC: 2.942 cumulative IPC: 2.967 (Simulation time: 00 hr 14 min 16 sec)
Heartbeat CPU 0 instructions: 155500998 cycles: 48545089 heartbeat IPC: 2.987 cumulative IPC: 2.967 (Simulation time: 00 hr 14 min 19 sec)
Heartbeat CPU 0 instructions: 156000998 cycles: 48710149 heartbeat IPC: 3.029 cumulative IPC: 2.967 (Simulation time: 00 hr 14 min 21 sec)
Heartbeat CPU 0 instructions: 156500999 cycles: 48876324 heartbeat IPC: 3.009 cumulative IPC: 2.968 (Simulation time: 00 hr 14 min 24 sec)
Heartbeat CPU 0 instructions: 157001005 cycles: 49040750 heartbeat IPC: 3.041 cumulative IPC: 2.968 (Simulation time: 00 hr 14 min 27 sec)
Heartbeat CPU 0 instructions: 157501008 cycles: 49203880 heartbeat IPC: 3.065 cumulative IPC: 2.968 (Simulation time: 00 hr 14 min 30 sec)
Heartbeat CPU 0 instructions: 158001011 cycles: 49367599 heartbeat IPC: 3.054 cumulative IPC: 2.969 (Simulation time: 00 hr 14 min 32 sec)
Heartbeat CPU 0 instructions: 158501017 cycles: 49530406 heartbeat IPC: 3.071 cumulative IPC: 2.969 (Simulation time: 00 hr 14 min 35 sec)
Heartbeat CPU 0 instructions: 159001019 cycles: 49697786 heartbeat IPC: 2.987 cumulative IPC: 2.969 (Simulation time: 00 hr 14 min 38 sec)
Heartbeat CPU 0 instructions: 159501020 cycles: 49858597 heartbeat IPC: 3.109 cumulative IPC: 2.97 (Simulation time: 00 hr 14 min 41 sec)
Heartbeat CPU 0 instructions: 160001021 cycles: 50020052 heartbeat IPC: 3.097 cumulative IPC: 2.971 (Simulation time: 00 hr 14 min 43 sec)
Heartbeat CPU 0 instructions: 160501027 cycles: 50179183 heartbeat IPC: 3.142 cumulative IPC: 2.971 (Simulation time: 00 hr 14 min 46 sec)
Heartbeat CPU 0 instructions: 161001027 cycles: 50337881 heartbeat IPC: 3.151 cumulative IPC: 2.972 (Simulation time: 00 hr 14 min 49 sec)
Heartbeat CPU 0 instructions: 161501030 cycles: 50495225 heartbeat IPC: 3.178 cumulative IPC: 2.973 (Simulation time: 00 hr 14 min 51 sec)
Heartbeat CPU 0 instructions: 162001035 cycles: 50654492 heartbeat IPC: 3.139 cumulative IPC: 2.974 (Simulation time: 00 hr 14 min 54 sec)
Heartbeat CPU 0 instructions: 162501037 cycles: 50817519 heartbeat IPC: 3.067 cumulative IPC: 2.974 (Simulation time: 00 hr 14 min 57 sec)
Heartbeat CPU 0 instructions: 163001040 cycles: 50988765 heartbeat IPC: 2.92 cumulative IPC: 2.974 (Simulation time: 00 hr 14 min 59 sec)
Heartbeat CPU 0 instructions: 163501045 cycles: 51156729 heartbeat IPC: 2.977 cumulative IPC: 2.974 (Simulation time: 00 hr 15 min 02 sec)
Heartbeat CPU 0 instructions: 164001045 cycles: 51326468 heartbeat IPC: 2.946 cumulative IPC: 2.974 (Simulation time: 00 hr 15 min 05 sec)
Heartbeat CPU 0 instructions: 164501052 cycles: 51503034 heartbeat IPC: 2.832 cumulative IPC: 2.973 (Simulation time: 00 hr 15 min 08 sec)
Heartbeat CPU 0 instructions: 165001055 cycles: 51672521 heartbeat IPC: 2.95 cumulative IPC: 2.973 (Simulation time: 00 hr 15 min 11 sec)
Heartbeat CPU 0 instructions: 165501060 cycles: 51840526 heartbeat IPC: 2.976 cumulative IPC: 2.973 (Simulation time: 00 hr 15 min 13 sec)
Heartbeat CPU 0 instructions: 166001066 cycles: 52010233 heartbeat IPC: 2.946 cumulative IPC: 2.973 (Simulation time: 00 hr 15 min 16 sec)
Heartbeat CPU 0 instructions: 166501067 cycles: 52185079 heartbeat IPC: 2.86 cumulative IPC: 2.972 (Simulation time: 00 hr 15 min 19 sec)
Heartbeat CPU 0 instructions: 167001072 cycles: 52352405 heartbeat IPC: 2.988 cumulative IPC: 2.972 (Simulation time: 00 hr 15 min 22 sec)
Heartbeat CPU 0 instructions: 167501073 cycles: 52520355 heartbeat IPC: 2.977 cumulative IPC: 2.972 (Simulation time: 00 hr 15 min 25 sec)
Heartbeat CPU 0 instructions: 168001073 cycles: 52690036 heartbeat IPC: 2.947 cumulative IPC: 2.972 (Simulation time: 00 hr 15 min 27 sec)
Heartbeat CPU 0 instructions: 168501077 cycles: 52859605 heartbeat IPC: 2.949 cumulative IPC: 2.972 (Simulation time: 00 hr 15 min 30 sec)
Heartbeat CPU 0 instructions: 169001080 cycles: 53028019 heartbeat IPC: 2.969 cumulative IPC: 2.972 (Simulation time: 00 hr 15 min 33 sec)
Heartbeat CPU 0 instructions: 169501080 cycles: 53196279 heartbeat IPC: 2.972 cumulative IPC: 2.972 (Simulation time: 00 hr 15 min 36 sec)
Heartbeat CPU 0 instructions: 170001084 cycles: 53370791 heartbeat IPC: 2.865 cumulative IPC: 2.972 (Simulation time: 00 hr 15 min 39 sec)
Heartbeat CPU 0 instructions: 170501084 cycles: 53539916 heartbeat IPC: 2.956 cumulative IPC: 2.972 (Simulation time: 00 hr 15 min 41 sec)
Heartbeat CPU 0 instructions: 171001085 cycles: 53707654 heartbeat IPC: 2.981 cumulative IPC: 2.972 (Simulation time: 00 hr 15 min 44 sec)
Heartbeat CPU 0 instructions: 171501088 cycles: 53877012 heartbeat IPC: 2.952 cumulative IPC: 2.972 (Simulation time: 00 hr 15 min 47 sec)
Heartbeat CPU 0 instructions: 172001088 cycles: 54045722 heartbeat IPC: 2.964 cumulative IPC: 2.972 (Simulation time: 00 hr 15 min 50 sec)
Heartbeat CPU 0 instructions: 172501089 cycles: 54214056 heartbeat IPC: 2.97 cumulative IPC: 2.972 (Simulation time: 00 hr 15 min 53 sec)
Heartbeat CPU 0 instructions: 173001092 cycles: 54382937 heartbeat IPC: 2.961 cumulative IPC: 2.971 (Simulation time: 00 hr 15 min 55 sec)
Heartbeat CPU 0 instructions: 173501096 cycles: 54557162 heartbeat IPC: 2.87 cumulative IPC: 2.971 (Simulation time: 00 hr 15 min 58 sec)
Heartbeat CPU 0 instructions: 174001101 cycles: 54725088 heartbeat IPC: 2.978 cumulative IPC: 2.971 (Simulation time: 00 hr 16 min 01 sec)
Heartbeat CPU 0 instructions: 174501106 cycles: 54894645 heartbeat IPC: 2.949 cumulative IPC: 2.971 (Simulation time: 00 hr 16 min 04 sec)
Heartbeat CPU 0 instructions: 175001109 cycles: 55063498 heartbeat IPC: 2.961 cumulative IPC: 2.971 (Simulation time: 00 hr 16 min 07 sec)
Heartbeat CPU 0 instructions: 175501110 cycles: 55232154 heartbeat IPC: 2.965 cumulative IPC: 2.971 (Simulation time: 00 hr 16 min 09 sec)
Heartbeat CPU 0 instructions: 176001110 cycles: 55398993 heartbeat IPC: 2.997 cumulative IPC: 2.971 (Simulation time: 00 hr 16 min 12 sec)
Heartbeat CPU 0 instructions: 176501114 cycles: 55567291 heartbeat IPC: 2.971 cumulative IPC: 2.971 (Simulation time: 00 hr 16 min 15 sec)
Heartbeat CPU 0 instructions: 177001120 cycles: 55735994 heartbeat IPC: 2.964 cumulative IPC: 2.971 (Simulation time: 00 hr 16 min 18 sec)
Heartbeat CPU 0 instructions: 177501123 cycles: 55906480 heartbeat IPC: 2.933 cumulative IPC: 2.971 (Simulation time: 00 hr 16 min 20 sec)
Heartbeat CPU 0 instructions: 178001129 cycles: 56074176 heartbeat IPC: 2.982 cumulative IPC: 2.971 (Simulation time: 00 hr 16 min 23 sec)
Heartbeat CPU 0 instructions: 178501132 cycles: 56241354 heartbeat IPC: 2.991 cumulative IPC: 2.971 (Simulation time: 00 hr 16 min 26 sec)
Heartbeat CPU 0 instructions: 179001138 cycles: 56409804 heartbeat IPC: 2.968 cumulative IPC: 2.971 (Simulation time: 00 hr 16 min 29 sec)
Heartbeat CPU 0 instructions: 179501143 cycles: 56577552 heartbeat IPC: 2.981 cumulative IPC: 2.971 (Simulation time: 00 hr 16 min 32 sec)
Heartbeat CPU 0 instructions: 180001147 cycles: 56744673 heartbeat IPC: 2.992 cumulative IPC: 2.971 (Simulation time: 00 hr 16 min 34 sec)
Heartbeat CPU 0 instructions: 180501150 cycles: 56913476 heartbeat IPC: 2.962 cumulative IPC: 2.971 (Simulation time: 00 hr 16 min 37 sec)
Heartbeat CPU 0 instructions: 181001152 cycles: 57086479 heartbeat IPC: 2.89 cumulative IPC: 2.971 (Simulation time: 00 hr 16 min 40 sec)
Heartbeat CPU 0 instructions: 181501159 cycles: 57255965 heartbeat IPC: 2.95 cumulative IPC: 2.971 (Simulation time: 00 hr 16 min 43 sec)
Heartbeat CPU 0 instructions: 182001162 cycles: 57425176 heartbeat IPC: 2.955 cumulative IPC: 2.971 (Simulation time: 00 hr 16 min 46 sec)
Heartbeat CPU 0 instructions: 182501167 cycles: 57594508 heartbeat IPC: 2.953 cumulative IPC: 2.971 (Simulation time: 00 hr 16 min 48 sec)
Heartbeat CPU 0 instructions: 183001168 cycles: 57761909 heartbeat IPC: 2.987 cumulative IPC: 2.971 (Simulation time: 00 hr 16 min 51 sec)
Heartbeat CPU 0 instructions: 183501173 cycles: 57931301 heartbeat IPC: 2.952 cumulative IPC: 2.971 (Simulation time: 00 hr 16 min 54 sec)
Heartbeat CPU 0 instructions: 184001174 cycles: 58100643 heartbeat IPC: 2.953 cumulative IPC: 2.97 (Simulation time: 00 hr 16 min 57 sec)
Heartbeat CPU 0 instructions: 184501178 cycles: 58274819 heartbeat IPC: 2.871 cumulative IPC: 2.97 (Simulation time: 00 hr 17 min 00 sec)
Heartbeat CPU 0 instructions: 185001181 cycles: 58443210 heartbeat IPC: 2.969 cumulative IPC: 2.97 (Simulation time: 00 hr 17 min 02 sec)
Heartbeat CPU 0 instructions: 185501181 cycles: 58611555 heartbeat IPC: 2.97 cumulative IPC: 2.97 (Simulation time: 00 hr 17 min 05 sec)
Heartbeat CPU 0 instructions: 186001182 cycles: 58779361 heartbeat IPC: 2.98 cumulative IPC: 2.97 (Simulation time: 00 hr 17 min 08 sec)
Heartbeat CPU 0 instructions: 186501185 cycles: 58945081 heartbeat IPC: 3.017 cumulative IPC: 2.97 (Simulation time: 00 hr 17 min 11 sec)
Heartbeat CPU 0 instructions: 187001185 cycles: 59111017 heartbeat IPC: 3.013 cumulative IPC: 2.97 (Simulation time: 00 hr 17 min 13 sec)
Heartbeat CPU 0 instructions: 187501186 cycles: 59276819 heartbeat IPC: 3.016 cumulative IPC: 2.971 (Simulation time: 00 hr 17 min 16 sec)
Heartbeat CPU 0 instructions: 188001189 cycles: 59443588 heartbeat IPC: 2.998 cumulative IPC: 2.971 (Simulation time: 00 hr 17 min 19 sec)
Heartbeat CPU 0 instructions: 188501194 cycles: 59610132 heartbeat IPC: 3.002 cumulative IPC: 2.971 (Simulation time: 00 hr 17 min 22 sec)
Heartbeat CPU 0 instructions: 189001195 cycles: 59773749 heartbeat IPC: 3.056 cumulative IPC: 2.971 (Simulation time: 00 hr 17 min 24 sec)
Heartbeat CPU 0 instructions: 189501200 cycles: 59936158 heartbeat IPC: 3.079 cumulative IPC: 2.971 (Simulation time: 00 hr 17 min 27 sec)
Heartbeat CPU 0 instructions: 190001207 cycles: 60099312 heartbeat IPC: 3.065 cumulative IPC: 2.972 (Simulation time: 00 hr 17 min 30 sec)
Heartbeat CPU 0 instructions: 190501210 cycles: 60263113 heartbeat IPC: 3.053 cumulative IPC: 2.972 (Simulation time: 00 hr 17 min 33 sec)
Heartbeat CPU 0 instructions: 191001213 cycles: 60423578 heartbeat IPC: 3.116 cumulative IPC: 2.973 (Simulation time: 00 hr 17 min 35 sec)
Heartbeat CPU 0 instructions: 191501216 cycles: 60585550 heartbeat IPC: 3.087 cumulative IPC: 2.973 (Simulation time: 00 hr 17 min 38 sec)
Heartbeat CPU 0 instructions: 192001217 cycles: 60750698 heartbeat IPC: 3.028 cumulative IPC: 2.973 (Simulation time: 00 hr 17 min 41 sec)
Heartbeat CPU 0 instructions: 192501223 cycles: 60910825 heartbeat IPC: 3.123 cumulative IPC: 2.974 (Simulation time: 00 hr 17 min 43 sec)
Heartbeat CPU 0 instructions: 193001226 cycles: 61070774 heartbeat IPC: 3.126 cumulative IPC: 2.974 (Simulation time: 00 hr 17 min 46 sec)
Heartbeat CPU 0 instructions: 193501226 cycles: 61231747 heartbeat IPC: 3.106 cumulative IPC: 2.975 (Simulation time: 00 hr 17 min 49 sec)
Heartbeat CPU 0 instructions: 194001227 cycles: 61396003 heartbeat IPC: 3.044 cumulative IPC: 2.975 (Simulation time: 00 hr 17 min 52 sec)
Heartbeat CPU 0 instructions: 194501230 cycles: 61564887 heartbeat IPC: 2.961 cumulative IPC: 2.975 (Simulation time: 00 hr 17 min 54 sec)
Heartbeat CPU 0 instructions: 195001232 cycles: 61734735 heartbeat IPC: 2.944 cumulative IPC: 2.975 (Simulation time: 00 hr 17 min 57 sec)
Heartbeat CPU 0 instructions: 195501233 cycles: 61917218 heartbeat IPC: 2.74 cumulative IPC: 2.974 (Simulation time: 00 hr 18 min 00 sec)
Heartbeat CPU 0 instructions: 196001237 cycles: 62086392 heartbeat IPC: 2.956 cumulative IPC: 2.974 (Simulation time: 00 hr 18 min 03 sec)
Heartbeat CPU 0 instructions: 196501237 cycles: 62254265 heartbeat IPC: 2.978 cumulative IPC: 2.974 (Simulation time: 00 hr 18 min 06 sec)
Heartbeat CPU 0 instructions: 197001240 cycles: 62422554 heartbeat IPC: 2.971 cumulative IPC: 2.974 (Simulation time: 00 hr 18 min 08 sec)
Heartbeat CPU 0 instructions: 197501243 cycles: 62592046 heartbeat IPC: 2.95 cumulative IPC: 2.974 (Simulation time: 00 hr 18 min 11 sec)
Heartbeat CPU 0 instructions: 198001247 cycles: 62761115 heartbeat IPC: 2.957 cumulative IPC: 2.974 (Simulation time: 00 hr 18 min 14 sec)
Heartbeat CPU 0 instructions: 198501249 cycles: 62928718 heartbeat IPC: 2.983 cumulative IPC: 2.974 (Simulation time: 00 hr 18 min 17 sec)
Heartbeat CPU 0 instructions: 199001253 cycles: 63099886 heartbeat IPC: 2.921 cumulative IPC: 2.973 (Simulation time: 00 hr 18 min 20 sec)
Heartbeat CPU 0 instructions: 199501253 cycles: 63272701 heartbeat IPC: 2.893 cumulative IPC: 2.973 (Simulation time: 00 hr 18 min 22 sec)
Heartbeat CPU 0 instructions: 200001254 cycles: 63441439 heartbeat IPC: 2.963 cumulative IPC: 2.973 (Simulation time: 00 hr 18 min 25 sec)
Heartbeat CPU 0 instructions: 200501260 cycles: 63609377 heartbeat IPC: 2.977 cumulative IPC: 2.973 (Simulation time: 00 hr 18 min 28 sec)
Heartbeat CPU 0 instructions: 201001263 cycles: 63778646 heartbeat IPC: 2.954 cumulative IPC: 2.973 (Simulation time: 00 hr 18 min 31 sec)
Heartbeat CPU 0 instructions: 201501265 cycles: 63947942 heartbeat IPC: 2.953 cumulative IPC: 2.973 (Simulation time: 00 hr 18 min 34 sec)
Heartbeat CPU 0 instructions: 202001272 cycles: 64116062 heartbeat IPC: 2.974 cumulative IPC: 2.973 (Simulation time: 00 hr 18 min 36 sec)
Heartbeat CPU 0 instructions: 202501275 cycles: 64284733 heartbeat IPC: 2.964 cumulative IPC: 2.973 (Simulation time: 00 hr 18 min 39 sec)
Heartbeat CPU 0 instructions: 203001275 cycles: 64459724 heartbeat IPC: 2.857 cumulative IPC: 2.973 (Simulation time: 00 hr 18 min 42 sec)
Heartbeat CPU 0 instructions: 203501278 cycles: 64627371 heartbeat IPC: 2.982 cumulative IPC: 2.973 (Simulation time: 00 hr 18 min 45 sec)
Heartbeat CPU 0 instructions: 204001279 cycles: 64796335 heartbeat IPC: 2.959 cumulative IPC: 2.973 (Simulation time: 00 hr 18 min 48 sec)
Heartbeat CPU 0 instructions: 204501282 cycles: 64965750 heartbeat IPC: 2.951 cumulative IPC: 2.973 (Simulation time: 00 hr 18 min 50 sec)
Heartbeat CPU 0 instructions: 205001287 cycles: 65134400 heartbeat IPC: 2.965 cumulative IPC: 2.972 (Simulation time: 00 hr 18 min 53 sec)
Heartbeat CPU 0 instructions: 205501292 cycles: 65302908 heartbeat IPC: 2.967 cumulative IPC: 2.972 (Simulation time: 00 hr 18 min 56 sec)
Heartbeat CPU 0 instructions: 206001297 cycles: 65471718 heartbeat IPC: 2.962 cumulative IPC: 2.972 (Simulation time: 00 hr 18 min 59 sec)
Heartbeat CPU 0 instructions: 206501297 cycles: 65645759 heartbeat IPC: 2.873 cumulative IPC: 2.972 (Simulation time: 00 hr 19 min 02 sec)
Heartbeat CPU 0 instructions: 207001298 cycles: 65812118 heartbeat IPC: 3.006 cumulative IPC: 2.972 (Simulation time: 00 hr 19 min 04 sec)
Heartbeat CPU 0 instructions: 207501298 cycles: 65979938 heartbeat IPC: 2.979 cumulative IPC: 2.972 (Simulation time: 00 hr 19 min 07 sec)
Heartbeat CPU 0 instructions: 208001299 cycles: 66147042 heartbeat IPC: 2.992 cumulative IPC: 2.972 (Simulation time: 00 hr 19 min 10 sec)
Heartbeat CPU 0 instructions: 208501302 cycles: 66314272 heartbeat IPC: 2.99 cumulative IPC: 2.972 (Simulation time: 00 hr 19 min 13 sec)
Heartbeat CPU 0 instructions: 209001308 cycles: 66481860 heartbeat IPC: 2.984 cumulative IPC: 2.972 (Simulation time: 00 hr 19 min 15 sec)
Heartbeat CPU 0 instructions: 209501311 cycles: 66648867 heartbeat IPC: 2.994 cumulative IPC: 2.972 (Simulation time: 00 hr 19 min 18 sec)
Heartbeat CPU 0 instructions: 210001316 cycles: 66818415 heartbeat IPC: 2.949 cumulative IPC: 2.972 (Simulation time: 00 hr 19 min 21 sec)
Heartbeat CPU 0 instructions: 210501317 cycles: 66989110 heartbeat IPC: 2.929 cumulative IPC: 2.972 (Simulation time: 00 hr 19 min 24 sec)
Heartbeat CPU 0 instructions: 211001317 cycles: 67157921 heartbeat IPC: 2.962 cumulative IPC: 2.972 (Simulation time: 00 hr 19 min 27 sec)
Heartbeat CPU 0 instructions: 211501320 cycles: 67326668 heartbeat IPC: 2.963 cumulative IPC: 2.972 (Simulation time: 00 hr 19 min 29 sec)
Heartbeat CPU 0 instructions: 212001324 cycles: 67493624 heartbeat IPC: 2.995 cumulative IPC: 2.972 (Simulation time: 00 hr 19 min 32 sec)
Heartbeat CPU 0 instructions: 212501326 cycles: 67661390 heartbeat IPC: 2.98 cumulative IPC: 2.972 (Simulation time: 00 hr 19 min 35 sec)
Heartbeat CPU 0 instructions: 213001330 cycles: 67830314 heartbeat IPC: 2.96 cumulative IPC: 2.972 (Simulation time: 00 hr 19 min 38 sec)
Heartbeat CPU 0 instructions: 213501333 cycles: 67999759 heartbeat IPC: 2.951 cumulative IPC: 2.972 (Simulation time: 00 hr 19 min 41 sec)
Heartbeat CPU 0 instructions: 214001339 cycles: 68172785 heartbeat IPC: 2.89 cumulative IPC: 2.972 (Simulation time: 00 hr 19 min 43 sec)
Heartbeat CPU 0 instructions: 214501340 cycles: 68341962 heartbeat IPC: 2.955 cumulative IPC: 2.972 (Simulation time: 00 hr 19 min 46 sec)
Heartbeat CPU 0 instructions: 215001345 cycles: 68511717 heartbeat IPC: 2.945 cumulative IPC: 2.972 (Simulation time: 00 hr 19 min 49 sec)
Heartbeat CPU 0 instructions: 215501345 cycles: 68679811 heartbeat IPC: 2.975 cumulative IPC: 2.972 (Simulation time: 00 hr 19 min 52 sec)
Heartbeat CPU 0 instructions: 216001352 cycles: 68848364 heartbeat IPC: 2.966 cumulative IPC: 2.972 (Simulation time: 00 hr 19 min 55 sec)
Heartbeat CPU 0 instructions: 216501356 cycles: 69017340 heartbeat IPC: 2.959 cumulative IPC: 2.972 (Simulation time: 00 hr 19 min 57 sec)
Heartbeat CPU 0 instructions: 217001361 cycles: 69186582 heartbeat IPC: 2.954 cumulative IPC: 2.972 (Simulation time: 00 hr 20 min 00 sec)
Heartbeat CPU 0 instructions: 217501364 cycles: 69356821 heartbeat IPC: 2.937 cumulative IPC: 2.972 (Simulation time: 00 hr 20 min 03 sec)
Heartbeat CPU 0 instructions: 218001369 cycles: 69522031 heartbeat IPC: 3.026 cumulative IPC: 2.972 (Simulation time: 00 hr 20 min 06 sec)
Heartbeat CPU 0 instructions: 218501370 cycles: 69687769 heartbeat IPC: 3.017 cumulative IPC: 2.972 (Simulation time: 00 hr 20 min 08 sec)
Heartbeat CPU 0 instructions: 219001373 cycles: 69851502 heartbeat IPC: 3.054 cumulative IPC: 2.972 (Simulation time: 00 hr 20 min 11 sec)
Heartbeat CPU 0 instructions: 219501376 cycles: 70017172 heartbeat IPC: 3.018 cumulative IPC: 2.972 (Simulation time: 00 hr 20 min 14 sec)
Heartbeat CPU 0 instructions: 220001379 cycles: 70182015 heartbeat IPC: 3.033 cumulative IPC: 2.972 (Simulation time: 00 hr 20 min 17 sec)
Heartbeat CPU 0 instructions: 220501380 cycles: 70345228 heartbeat IPC: 3.063 cumulative IPC: 2.973 (Simulation time: 00 hr 20 min 19 sec)
Heartbeat CPU 0 instructions: 221001380 cycles: 70510944 heartbeat IPC: 3.017 cumulative IPC: 2.973 (Simulation time: 00 hr 20 min 22 sec)
Heartbeat CPU 0 instructions: 221501384 cycles: 70675364 heartbeat IPC: 3.041 cumulative IPC: 2.973 (Simulation time: 00 hr 20 min 25 sec)
Heartbeat CPU 0 instructions: 222001387 cycles: 70837659 heartbeat IPC: 3.081 cumulative IPC: 2.973 (Simulation time: 00 hr 20 min 28 sec)
Heartbeat CPU 0 instructions: 222501393 cycles: 70999886 heartbeat IPC: 3.082 cumulative IPC: 2.974 (Simulation time: 00 hr 20 min 30 sec)
Heartbeat CPU 0 instructions: 223001394 cycles: 71160629 heartbeat IPC: 3.111 cumulative IPC: 2.974 (Simulation time: 00 hr 20 min 33 sec)
Heartbeat CPU 0 instructions: 223501394 cycles: 71320074 heartbeat IPC: 3.136 cumulative IPC: 2.974 (Simulation time: 00 hr 20 min 36 sec)
Heartbeat CPU 0 instructions: 224001397 cycles: 71479651 heartbeat IPC: 3.133 cumulative IPC: 2.975 (Simulation time: 00 hr 20 min 38 sec)
Heartbeat CPU 0 instructions: 224501400 cycles: 71639577 heartbeat IPC: 3.126 cumulative IPC: 2.975 (Simulation time: 00 hr 20 min 41 sec)
Heartbeat CPU 0 instructions: 225001400 cycles: 71807279 heartbeat IPC: 2.981 cumulative IPC: 2.975 (Simulation time: 00 hr 20 min 44 sec)
Heartbeat CPU 0 instructions: 225501401 cycles: 71973789 heartbeat IPC: 3.003 cumulative IPC: 2.975 (Simulation time: 00 hr 20 min 47 sec)
Heartbeat CPU 0 instructions: 226001406 cycles: 72141830 heartbeat IPC: 2.975 cumulative IPC: 2.975 (Simulation time: 00 hr 20 min 49 sec)
Heartbeat CPU 0 instructions: 226501409 cycles: 72322382 heartbeat IPC: 2.769 cumulative IPC: 2.975 (Simulation time: 00 hr 20 min 52 sec)
Heartbeat CPU 0 instructions: 227001410 cycles: 72491371 heartbeat IPC: 2.959 cumulative IPC: 2.975 (Simulation time: 00 hr 20 min 55 sec)
Heartbeat CPU 0 instructions: 227501413 cycles: 72659529 heartbeat IPC: 2.973 cumulative IPC: 2.975 (Simulation time: 00 hr 20 min 58 sec)
Heartbeat CPU 0 instructions: 228001416 cycles: 72827796 heartbeat IPC: 2.971 cumulative IPC: 2.975 (Simulation time: 00 hr 21 min 01 sec)
Heartbeat CPU 0 instructions: 228501420 cycles: 73000231 heartbeat IPC: 2.9 cumulative IPC: 2.974 (Simulation time: 00 hr 21 min 03 sec)
Heartbeat CPU 0 instructions: 229001423 cycles: 73168616 heartbeat IPC: 2.969 cumulative IPC: 2.974 (Simulation time: 00 hr 21 min 06 sec)
Heartbeat CPU 0 instructions: 229501429 cycles: 73337116 heartbeat IPC: 2.967 cumulative IPC: 2.974 (Simulation time: 00 hr 21 min 09 sec)
Heartbeat CPU 0 instructions: 230001432 cycles: 73504376 heartbeat IPC: 2.989 cumulative IPC: 2.974 (Simulation time: 00 hr 21 min 12 sec)
Heartbeat CPU 0 instructions: 230501432 cycles: 73671627 heartbeat IPC: 2.99 cumulative IPC: 2.975 (Simulation time: 00 hr 21 min 15 sec)
Heartbeat CPU 0 instructions: 231001435 cycles: 73841013 heartbeat IPC: 2.952 cumulative IPC: 2.974 (Simulation time: 00 hr 21 min 17 sec)
Heartbeat CPU 0 instructions: 231501435 cycles: 74010481 heartbeat IPC: 2.95 cumulative IPC: 2.974 (Simulation time: 00 hr 21 min 20 sec)
Heartbeat CPU 0 instructions: 232001441 cycles: 74181251 heartbeat IPC: 2.928 cumulative IPC: 2.974 (Simulation time: 00 hr 21 min 23 sec)
Heartbeat CPU 0 instructions: 232501444 cycles: 74352291 heartbeat IPC: 2.923 cumulative IPC: 2.974 (Simulation time: 00 hr 21 min 26 sec)
Heartbeat CPU 0 instructions: 233001445 cycles: 74521734 heartbeat IPC: 2.951 cumulative IPC: 2.974 (Simulation time: 00 hr 21 min 29 sec)
Heartbeat CPU 0 instructions: 233501446 cycles: 74689656 heartbeat IPC: 2.978 cumulative IPC: 2.974 (Simulation time: 00 hr 21 min 31 sec)
Heartbeat CPU 0 instructions: 234001448 cycles: 74858218 heartbeat IPC: 2.966 cumulative IPC: 2.974 (Simulation time: 00 hr 21 min 34 sec)
Heartbeat CPU 0 instructions: 234501452 cycles: 75027478 heartbeat IPC: 2.954 cumulative IPC: 2.974 (Simulation time: 00 hr 21 min 37 sec)
Heartbeat CPU 0 instructions: 235001452 cycles: 75196247 heartbeat IPC: 2.963 cumulative IPC: 2.974 (Simulation time: 00 hr 21 min 40 sec)
Heartbeat CPU 0 instructions: 235501458 cycles: 75364087 heartbeat IPC: 2.979 cumulative IPC: 2.974 (Simulation time: 00 hr 21 min 42 sec)
Heartbeat CPU 0 instructions: 236001458 cycles: 75538746 heartbeat IPC: 2.863 cumulative IPC: 2.974 (Simulation time: 00 hr 21 min 45 sec)
Heartbeat CPU 0 instructions: 236501465 cycles: 75708217 heartbeat IPC: 2.95 cumulative IPC: 2.974 (Simulation time: 00 hr 21 min 48 sec)
Heartbeat CPU 0 instructions: 237001468 cycles: 75876329 heartbeat IPC: 2.974 cumulative IPC: 2.974 (Simulation time: 00 hr 21 min 51 sec)
Heartbeat CPU 0 instructions: 237501474 cycles: 76043056 heartbeat IPC: 2.999 cumulative IPC: 2.974 (Simulation time: 00 hr 21 min 54 sec)
Heartbeat CPU 0 instructions: 238001477 cycles: 76211011 heartbeat IPC: 2.977 cumulative IPC: 2.974 (Simulation time: 00 hr 21 min 56 sec)
Heartbeat CPU 0 instructions: 238501480 cycles: 76377442 heartbeat IPC: 3.004 cumulative IPC: 2.974 (Simulation time: 00 hr 21 min 59 sec)
Heartbeat CPU 0 instructions: 239001480 cycles: 76545253 heartbeat IPC: 2.98 cumulative IPC: 2.974 (Simulation time: 00 hr 22 min 02 sec)
Heartbeat CPU 0 instructions: 239501481 cycles: 76716558 heartbeat IPC: 2.919 cumulative IPC: 2.974 (Simulation time: 00 hr 22 min 05 sec)
Heartbeat CPU 0 instructions: 240001484 cycles: 76884912 heartbeat IPC: 2.97 cumulative IPC: 2.974 (Simulation time: 00 hr 22 min 08 sec)
Heartbeat CPU 0 instructions: 240501487 cycles: 77051305 heartbeat IPC: 3.005 cumulative IPC: 2.974 (Simulation time: 00 hr 22 min 10 sec)
Heartbeat CPU 0 instructions: 241001490 cycles: 77219604 heartbeat IPC: 2.971 cumulative IPC: 2.974 (Simulation time: 00 hr 22 min 13 sec)
Heartbeat CPU 0 instructions: 241501491 cycles: 77388917 heartbeat IPC: 2.953 cumulative IPC: 2.974 (Simulation time: 00 hr 22 min 16 sec)
Heartbeat CPU 0 instructions: 242001493 cycles: 77558145 heartbeat IPC: 2.955 cumulative IPC: 2.974 (Simulation time: 00 hr 22 min 19 sec)
Heartbeat CPU 0 instructions: 242501497 cycles: 77724299 heartbeat IPC: 3.009 cumulative IPC: 2.974 (Simulation time: 00 hr 22 min 22 sec)
Heartbeat CPU 0 instructions: 243001502 cycles: 77894806 heartbeat IPC: 2.932 cumulative IPC: 2.974 (Simulation time: 00 hr 22 min 24 sec)
Heartbeat CPU 0 instructions: 243501509 cycles: 78065713 heartbeat IPC: 2.926 cumulative IPC: 2.973 (Simulation time: 00 hr 22 min 27 sec)
Heartbeat CPU 0 instructions: 244001512 cycles: 78234774 heartbeat IPC: 2.958 cumulative IPC: 2.973 (Simulation time: 00 hr 22 min 30 sec)
Heartbeat CPU 0 instructions: 244501518 cycles: 78404281 heartbeat IPC: 2.95 cumulative IPC: 2.973 (Simulation time: 00 hr 22 min 33 sec)
Heartbeat CPU 0 instructions: 245001521 cycles: 78573220 heartbeat IPC: 2.96 cumulative IPC: 2.973 (Simulation time: 00 hr 22 min 36 sec)
Heartbeat CPU 0 instructions: 245501527 cycles: 78740989 heartbeat IPC: 2.98 cumulative IPC: 2.973 (Simulation time: 00 hr 22 min 38 sec)
Heartbeat CPU 0 instructions: 246001530 cycles: 78910661 heartbeat IPC: 2.947 cumulative IPC: 2.973 (Simulation time: 00 hr 22 min 41 sec)
Heartbeat CPU 0 instructions: 246501534 cycles: 79079270 heartbeat IPC: 2.965 cumulative IPC: 2.973 (Simulation time: 00 hr 22 min 44 sec)
Heartbeat CPU 0 instructions: 247001539 cycles: 79253333 heartbeat IPC: 2.873 cumulative IPC: 2.973 (Simulation time: 00 hr 22 min 47 sec)
Heartbeat CPU 0 instructions: 247501542 cycles: 79421547 heartbeat IPC: 2.972 cumulative IPC: 2.973 (Simulation time: 00 hr 22 min 50 sec)
Heartbeat CPU 0 instructions: 248001547 cycles: 79590392 heartbeat IPC: 2.961 cumulative IPC: 2.973 (Simulation time: 00 hr 22 min 52 sec)
Heartbeat CPU 0 instructions: 248501548 cycles: 79755945 heartbeat IPC: 3.02 cumulative IPC: 2.973 (Simulation time: 00 hr 22 min 55 sec)
Heartbeat CPU 0 instructions: 249001555 cycles: 79921687 heartbeat IPC: 3.017 cumulative IPC: 2.973 (Simulation time: 00 hr 22 min 58 sec)
Heartbeat CPU 0 instructions: 249501562 cycles: 80086862 heartbeat IPC: 3.027 cumulative IPC: 2.973 (Simulation time: 00 hr 23 min 01 sec)
Simulation finished CPU 0 instructions: 200000003 cycles: 67263194 cumulative IPC: 2.973 (Simulation time: 00 hr 23 min 03 sec)
Simulation complete CPU 0 instructions: 200000003 cycles: 67263194 cumulative IPC: 2.973 (Simulation time: 00 hr 23 min 03 sec)

ChampSim completed all CPUs

=== Simulation ===
CPU 0 runs /local-ssd/ben/dpc4-traces/ai-ml/whisper_trace_2.champsimtrace.gz

Region of Interest Statistics

CPU 0 cumulative IPC: 2.973 instructions: 200000003 cycles: 67263194
CPU 0 Branch Prediction Accuracy: 96.01% MPKI: 2.804 Average ROB Occupancy at Mispredict: 234.9
Branch type MPKI
BRANCH_DIRECT_JUMP: 0
BRANCH_INDIRECT: 0
BRANCH_CONDITIONAL: 2.804
BRANCH_DIRECT_CALL: 0
BRANCH_INDIRECT_CALL: 0
BRANCH_RETURN: 0

cpu0->cpu0_STLB TOTAL        ACCESS:      28123 HIT:       6904 MISS:      21219 MSHR_MERGE:          0
cpu0->cpu0_STLB LOAD         ACCESS:      28123 HIT:       6904 MISS:      21219 MSHR_MERGE:          0
cpu0->cpu0_STLB RFO          ACCESS:          0 HIT:          0 MISS:          0 MSHR_MERGE:          0
cpu0->cpu0_STLB PREFETCH     ACCESS:          0 HIT:          0 MISS:          0 MSHR_MERGE:          0
cpu0->cpu0_STLB WRITE        ACCESS:          0 HIT:          0 MISS:          0 MSHR_MERGE:          0
cpu0->cpu0_STLB TRANSLATION  ACCESS:          0 HIT:          0 MISS:          0 MSHR_MERGE:          0
cpu0->cpu0_STLB PREFETCH REQUESTED:          0 ISSUED:          0 USEFUL:          0 USELESS:          0
cpu0->cpu0_STLB AVERAGE MISS LATENCY: 51 cycles
cpu0->cpu0_L2C TOTAL        ACCESS:    6983647 HIT:    4375794 MISS:    2607853 MSHR_MERGE:     799037
cpu0->cpu0_L2C LOAD         ACCESS:    2902037 HIT:    1818076 MISS:    1083961 MSHR_MERGE:     126316
cpu0->cpu0_L2C RFO          ACCESS:      34205 HIT:       1332 MISS:      32873 MSHR_MERGE:          0
cpu0->cpu0_L2C PREFETCH     ACCESS:    3997723 HIT:    2509626 MISS:    1488097 MSHR_MERGE:     672721
cpu0->cpu0_L2C WRITE        ACCESS:      45144 HIT:      45144 MISS:          0 MSHR_MERGE:          0
cpu0->cpu0_L2C TRANSLATION  ACCESS:       4538 HIT:       1616 MISS:       2922 MSHR_MERGE:          0
cpu0->cpu0_L2C PREFETCH REQUESTED:    2953500 ISSUED:    2881183 USEFUL:     128972 USELESS:       2245
cpu0->cpu0_L2C AVERAGE MISS LATENCY: 136.6 cycles
cpu0->cpu0_L1I TOTAL        ACCESS:   21303789 HIT:   21303789 MISS:          0 MSHR_MERGE:          0
cpu0->cpu0_L1I LOAD         ACCESS:   21303789 HIT:   21303789 MISS:          0 MSHR_MERGE:          0
cpu0->cpu0_L1I RFO          ACCESS:          0 HIT:          0 MISS:          0 MSHR_MERGE:          0
cpu0->cpu0_L1I PREFETCH     ACCESS:          0 HIT:          0 MISS:          0 MSHR_MERGE:          0
cpu0->cpu0_L1I WRITE        ACCESS:          0 HIT:          0 MISS:          0 MSHR_MERGE:          0
cpu0->cpu0_L1I TRANSLATION  ACCESS:          0 HIT:          0 MISS:          0 MSHR_MERGE:          0
cpu0->cpu0_L1I PREFETCH REQUESTED:          0 ISSUED:          0 USEFUL:          0 USELESS:          0
cpu0->cpu0_L1I AVERAGE MISS LATENCY: - cycles
cpu0->cpu0_L1D TOTAL        ACCESS:   65906200 HIT:   60890055 MISS:    5016145 MSHR_MERGE:     958559
cpu0->cpu0_L1D LOAD         ACCESS:   52127939 HIT:   48718842 MISS:    3409097 MSHR_MERGE:     506871
cpu0->cpu0_L1D RFO          ACCESS:          0 HIT:          0 MISS:          0 MSHR_MERGE:          0
cpu0->cpu0_L1D PREFETCH     ACCESS:   11264204 HIT:    9728887 MISS:    1535317 MSHR_MERGE:     418754
cpu0->cpu0_L1D WRITE        ACCESS:    2471618 HIT:    2404425 MISS:      67193 MSHR_MERGE:      32934
cpu0->cpu0_L1D TRANSLATION  ACCESS:      42439 HIT:      37901 MISS:       4538 MSHR_MERGE:          0
cpu0->cpu0_L1D PREFETCH REQUESTED:   17537650 ISSUED:   11264198 USEFUL:    1068794 USELESS:      47766
cpu0->cpu0_L1D AVERAGE MISS LATENCY: 59.79 cycles
cpu0->cpu0_ITLB TOTAL        ACCESS:   15458549 HIT:   15458549 MISS:          0 MSHR_MERGE:          0
cpu0->cpu0_ITLB LOAD         ACCESS:   15458549 HIT:   15458549 MISS:          0 MSHR_MERGE:          0
cpu0->cpu0_ITLB RFO          ACCESS:          0 HIT:          0 MISS:          0 MSHR_MERGE:          0
cpu0->cpu0_ITLB PREFETCH     ACCESS:          0 HIT:          0 MISS:          0 MSHR_MERGE:          0
cpu0->cpu0_ITLB WRITE        ACCESS:          0 HIT:          0 MISS:          0 MSHR_MERGE:          0
cpu0->cpu0_ITLB TRANSLATION  ACCESS:          0 HIT:          0 MISS:          0 MSHR_MERGE:          0
cpu0->cpu0_ITLB PREFETCH REQUESTED:          0 ISSUED:          0 USEFUL:          0 USELESS:          0
cpu0->cpu0_ITLB AVERAGE MISS LATENCY: - cycles
cpu0->cpu0_DTLB TOTAL        ACCESS:   55030637 HIT:   54859866 MISS:     170771 MSHR_MERGE:     142648
cpu0->cpu0_DTLB LOAD         ACCESS:   55030637 HIT:   54859866 MISS:     170771 MSHR_MERGE:     142648
cpu0->cpu0_DTLB RFO          ACCESS:          0 HIT:          0 MISS:          0 MSHR_MERGE:          0
cpu0->cpu0_DTLB PREFETCH     ACCESS:          0 HIT:          0 MISS:          0 MSHR_MERGE:          0
cpu0->cpu0_DTLB WRITE        ACCESS:          0 HIT:          0 MISS:          0 MSHR_MERGE:          0
cpu0->cpu0_DTLB TRANSLATION  ACCESS:          0 HIT:          0 MISS:          0 MSHR_MERGE:          0
cpu0->cpu0_DTLB PREFETCH REQUESTED:          0 ISSUED:          0 USEFUL:          0 USELESS:          0
cpu0->cpu0_DTLB AVERAGE MISS LATENCY: 44.23 cycles
cpu0->LLC TOTAL        ACCESS:    3117061 HIT:     443300 MISS:    2673761 MSHR_MERGE:    1448906
cpu0->LLC LOAD         ACCESS:     957645 HIT:     159987 MISS:     797658 MSHR_MERGE:     624667
cpu0->LLC RFO          ACCESS:      32873 HIT:          0 MISS:      32873 MSHR_MERGE:          0
cpu0->LLC PREFETCH     ACCESS:    2090730 HIT:     277652 MISS:    1813078 MSHR_MERGE:     824239
cpu0->LLC WRITE        ACCESS:      32891 HIT:       5454 MISS:      27437 MSHR_MERGE:          0
cpu0->LLC TRANSLATION  ACCESS:       2922 HIT:        207 MISS:       2715 MSHR_MERGE:          0
cpu0->LLC PREFETCH REQUESTED:    1286092 ISSUED:    1275610 USEFUL:     657654 USELESS:     221835
cpu0->LLC AVERAGE MISS LATENCY: 133.7 cycles

DRAM Statistics

Channel 0 RQ ROW_BUFFER_HIT:     503813
  ROW_BUFFER_MISS:     693605
  AVG DBUS CONGESTED CYCLE: 4.48
Channel 0 WQ ROW_BUFFER_HIT:       4959
  ROW_BUFFER_MISS:      25379
  FULL:          0
Channel 0 REFRESHES ISSUED:       5605
