[VMEM] WARNING: physical memory size is smaller than virtual memory size.

*** ChampSim Multicore Out-of-Order Simulator ***
Warmup Instructions: 50000000
Simulation Instructions: 200000000
Number of CPUs: 1
Page size: 4096
Core 0: /local-ssd/ben/dpc4-traces/Graph/GAP/sssp-14.trace.gz
Initialize SIGNATURE TABLE
ST_SET: 1
ST_WAY: 256
ST_TAG_BIT: 16

Initialize PATTERN TABLE
PT_SET: 512
PT_WAY: 4
SIG_DELTA_BIT: 7
C_SIG_BIT: 4
C_DELTA_BIT: 4

Initialize PREFETCH FILTER
FILTER_SET: 1024
 L1D Berti prefetcher
Off-chip DRAM Size: 64 GiB Channels: 1 Width: 64-bit Data Rate: 4807 MT/s
Heartbeat CPU 0 instructions: 500004 cycles: 181447 heartbeat IPC: 2.756 cumulative IPC: 2.756 (Simulation time: 00 hr 00 min 02 sec)
Heartbeat CPU 0 instructions: 1000004 cycles: 358695 heartbeat IPC: 2.821 cumulative IPC: 2.788 (Simulation time: 00 hr 00 min 04 sec)
Heartbeat CPU 0 instructions: 1500004 cycles: 511648 heartbeat IPC: 3.269 cumulative IPC: 2.932 (Simulation time: 00 hr 00 min 06 sec)
Heartbeat CPU 0 instructions: 2000010 cycles: 615121 heartbeat IPC: 4.832 cumulative IPC: 3.251 (Simulation time: 00 hr 00 min 08 sec)
Heartbeat CPU 0 instructions: 2500010 cycles: 718257 heartbeat IPC: 4.848 cumulative IPC: 3.481 (Simulation time: 00 hr 00 min 10 sec)
Heartbeat CPU 0 instructions: 3000011 cycles: 824720 heartbeat IPC: 4.696 cumulative IPC: 3.638 (Simulation time: 00 hr 00 min 12 sec)
Heartbeat CPU 0 instructions: 3500016 cycles: 931302 heartbeat IPC: 4.691 cumulative IPC: 3.758 (Simulation time: 00 hr 00 min 14 sec)
Heartbeat CPU 0 instructions: 4000019 cycles: 1036134 heartbeat IPC: 4.77 cumulative IPC: 3.861 (Simulation time: 00 hr 00 min 16 sec)
Heartbeat CPU 0 instructions: 4500019 cycles: 1142672 heartbeat IPC: 4.693 cumulative IPC: 3.938 (Simulation time: 00 hr 00 min 18 sec)
Heartbeat CPU 0 instructions: 5000026 cycles: 1247738 heartbeat IPC: 4.759 cumulative IPC: 4.007 (Simulation time: 00 hr 00 min 20 sec)
Heartbeat CPU 0 instructions: 5500032 cycles: 1355466 heartbeat IPC: 4.641 cumulative IPC: 4.058 (Simulation time: 00 hr 00 min 22 sec)
Heartbeat CPU 0 instructions: 6000038 cycles: 1462292 heartbeat IPC: 4.681 cumulative IPC: 4.103 (Simulation time: 00 hr 00 min 24 sec)
Heartbeat CPU 0 instructions: 6500040 cycles: 1568238 heartbeat IPC: 4.719 cumulative IPC: 4.145 (Simulation time: 00 hr 00 min 26 sec)
Heartbeat CPU 0 instructions: 7000041 cycles: 1674568 heartbeat IPC: 4.702 cumulative IPC: 4.18 (Simulation time: 00 hr 00 min 28 sec)
Heartbeat CPU 0 instructions: 7500044 cycles: 1781121 heartbeat IPC: 4.693 cumulative IPC: 4.211 (Simulation time: 00 hr 00 min 30 sec)
Heartbeat CPU 0 instructions: 8000051 cycles: 1887591 heartbeat IPC: 4.696 cumulative IPC: 4.238 (Simulation time: 00 hr 00 min 32 sec)
Heartbeat CPU 0 instructions: 8500052 cycles: 1995975 heartbeat IPC: 4.613 cumulative IPC: 4.259 (Simulation time: 00 hr 00 min 34 sec)
Heartbeat CPU 0 instructions: 9000058 cycles: 2102455 heartbeat IPC: 4.696 cumulative IPC: 4.281 (Simulation time: 00 hr 00 min 36 sec)
Heartbeat CPU 0 instructions: 9500061 cycles: 2208965 heartbeat IPC: 4.694 cumulative IPC: 4.301 (Simulation time: 00 hr 00 min 38 sec)
Heartbeat CPU 0 instructions: 10000061 cycles: 2315051 heartbeat IPC: 4.713 cumulative IPC: 4.32 (Simulation time: 00 hr 00 min 40 sec)
Heartbeat CPU 0 instructions: 10500062 cycles: 2422318 heartbeat IPC: 4.661 cumulative IPC: 4.335 (Simulation time: 00 hr 00 min 42 sec)
Heartbeat CPU 0 instructions: 11000062 cycles: 2527744 heartbeat IPC: 4.743 cumulative IPC: 4.352 (Simulation time: 00 hr 00 min 44 sec)
Heartbeat CPU 0 instructions: 11500068 cycles: 2635008 heartbeat IPC: 4.661 cumulative IPC: 4.364 (Simulation time: 00 hr 00 min 46 sec)
Heartbeat CPU 0 instructions: 12000069 cycles: 2740226 heartbeat IPC: 4.752 cumulative IPC: 4.379 (Simulation time: 00 hr 00 min 48 sec)
Heartbeat CPU 0 instructions: 12500069 cycles: 2847913 heartbeat IPC: 4.643 cumulative IPC: 4.389 (Simulation time: 00 hr 00 min 50 sec)
Heartbeat CPU 0 instructions: 13000074 cycles: 2952678 heartbeat IPC: 4.773 cumulative IPC: 4.403 (Simulation time: 00 hr 00 min 52 sec)
Heartbeat CPU 0 instructions: 13500075 cycles: 3058055 heartbeat IPC: 4.745 cumulative IPC: 4.415 (Simulation time: 00 hr 00 min 54 sec)
Heartbeat CPU 0 instructions: 14000077 cycles: 3164091 heartbeat IPC: 4.715 cumulative IPC: 4.425 (Simulation time: 00 hr 00 min 56 sec)
Heartbeat CPU 0 instructions: 14500081 cycles: 3271370 heartbeat IPC: 4.661 cumulative IPC: 4.432 (Simulation time: 00 hr 00 min 58 sec)
Heartbeat CPU 0 instructions: 15000084 cycles: 3378148 heartbeat IPC: 4.683 cumulative IPC: 4.44 (Simulation time: 00 hr 01 min 00 sec)
Heartbeat CPU 0 instructions: 15500091 cycles: 3485293 heartbeat IPC: 4.667 cumulative IPC: 4.447 (Simulation time: 00 hr 01 min 02 sec)
Heartbeat CPU 0 instructions: 16000093 cycles: 3593968 heartbeat IPC: 4.601 cumulative IPC: 4.452 (Simulation time: 00 hr 01 min 04 sec)
Heartbeat CPU 0 instructions: 16500095 cycles: 3699292 heartbeat IPC: 4.747 cumulative IPC: 4.46 (Simulation time: 00 hr 01 min 06 sec)
Heartbeat CPU 0 instructions: 17000096 cycles: 3804345 heartbeat IPC: 4.76 cumulative IPC: 4.469 (Simulation time: 00 hr 01 min 07 sec)
Heartbeat CPU 0 instructions: 17500097 cycles: 3909594 heartbeat IPC: 4.751 cumulative IPC: 4.476 (Simulation time: 00 hr 01 min 09 sec)
Heartbeat CPU 0 instructions: 18000104 cycles: 4015605 heartbeat IPC: 4.717 cumulative IPC: 4.483 (Simulation time: 00 hr 01 min 11 sec)
Heartbeat CPU 0 instructions: 18500104 cycles: 4120787 heartbeat IPC: 4.754 cumulative IPC: 4.489 (Simulation time: 00 hr 01 min 13 sec)
Heartbeat CPU 0 instructions: 19000109 cycles: 4226136 heartbeat IPC: 4.746 cumulative IPC: 4.496 (Simulation time: 00 hr 01 min 15 sec)
Heartbeat CPU 0 instructions: 19500110 cycles: 4332961 heartbeat IPC: 4.681 cumulative IPC: 4.5 (Simulation time: 00 hr 01 min 17 sec)
Heartbeat CPU 0 instructions: 20000116 cycles: 4438757 heartbeat IPC: 4.726 cumulative IPC: 4.506 (Simulation time: 00 hr 01 min 19 sec)
Heartbeat CPU 0 instructions: 20500117 cycles: 4546827 heartbeat IPC: 4.627 cumulative IPC: 4.509 (Simulation time: 00 hr 01 min 21 sec)
Heartbeat CPU 0 instructions: 21000124 cycles: 4652606 heartbeat IPC: 4.727 cumulative IPC: 4.514 (Simulation time: 00 hr 01 min 23 sec)
Heartbeat CPU 0 instructions: 21500130 cycles: 4760195 heartbeat IPC: 4.647 cumulative IPC: 4.517 (Simulation time: 00 hr 01 min 25 sec)
Heartbeat CPU 0 instructions: 22000133 cycles: 4866093 heartbeat IPC: 4.722 cumulative IPC: 4.521 (Simulation time: 00 hr 01 min 27 sec)
Heartbeat CPU 0 instructions: 22500134 cycles: 4972342 heartbeat IPC: 4.706 cumulative IPC: 4.525 (Simulation time: 00 hr 01 min 29 sec)
Heartbeat CPU 0 instructions: 23000136 cycles: 5080762 heartbeat IPC: 4.612 cumulative IPC: 4.527 (Simulation time: 00 hr 01 min 31 sec)
Heartbeat CPU 0 instructions: 23500141 cycles: 5186058 heartbeat IPC: 4.749 cumulative IPC: 4.531 (Simulation time: 00 hr 01 min 33 sec)
Heartbeat CPU 0 instructions: 24000144 cycles: 5292230 heartbeat IPC: 4.709 cumulative IPC: 4.535 (Simulation time: 00 hr 01 min 35 sec)
Heartbeat CPU 0 instructions: 24500145 cycles: 5397850 heartbeat IPC: 4.734 cumulative IPC: 4.539 (Simulation time: 00 hr 01 min 37 sec)
Heartbeat CPU 0 instructions: 25000152 cycles: 5503846 heartbeat IPC: 4.717 cumulative IPC: 4.542 (Simulation time: 00 hr 01 min 39 sec)
Heartbeat CPU 0 instructions: 25500159 cycles: 5612860 heartbeat IPC: 4.587 cumulative IPC: 4.543 (Simulation time: 00 hr 01 min 41 sec)
Heartbeat CPU 0 instructions: 26000162 cycles: 5717182 heartbeat IPC: 4.793 cumulative IPC: 4.548 (Simulation time: 00 hr 01 min 43 sec)
Heartbeat CPU 0 instructions: 26500162 cycles: 5822896 heartbeat IPC: 4.73 cumulative IPC: 4.551 (Simulation time: 00 hr 01 min 45 sec)
Heartbeat CPU 0 instructions: 27000169 cycles: 5928582 heartbeat IPC: 4.731 cumulative IPC: 4.554 (Simulation time: 00 hr 01 min 47 sec)
Heartbeat CPU 0 instructions: 27500171 cycles: 6035379 heartbeat IPC: 4.682 cumulative IPC: 4.556 (Simulation time: 00 hr 01 min 49 sec)
Heartbeat CPU 0 instructions: 28000171 cycles: 6143744 heartbeat IPC: 4.614 cumulative IPC: 4.558 (Simulation time: 00 hr 01 min 51 sec)
Heartbeat CPU 0 instructions: 28500174 cycles: 6250022 heartbeat IPC: 4.705 cumulative IPC: 4.56 (Simulation time: 00 hr 01 min 53 sec)
Heartbeat CPU 0 instructions: 29000176 cycles: 6355853 heartbeat IPC: 4.725 cumulative IPC: 4.563 (Simulation time: 00 hr 01 min 55 sec)
Heartbeat CPU 0 instructions: 29500176 cycles: 6463016 heartbeat IPC: 4.666 cumulative IPC: 4.564 (Simulation time: 00 hr 01 min 57 sec)
Heartbeat CPU 0 instructions: 30000179 cycles: 6567529 heartbeat IPC: 4.784 cumulative IPC: 4.568 (Simulation time: 00 hr 01 min 58 sec)
Heartbeat CPU 0 instructions: 30500184 cycles: 6674740 heartbeat IPC: 4.664 cumulative IPC: 4.569 (Simulation time: 00 hr 02 min 00 sec)
Heartbeat CPU 0 instructions: 31000185 cycles: 6779722 heartbeat IPC: 4.763 cumulative IPC: 4.572 (Simulation time: 00 hr 02 min 02 sec)
Heartbeat CPU 0 instructions: 31500186 cycles: 6885362 heartbeat IPC: 4.733 cumulative IPC: 4.575 (Simulation time: 00 hr 02 min 04 sec)
Heartbeat CPU 0 instructions: 32000193 cycles: 6994485 heartbeat IPC: 4.582 cumulative IPC: 4.575 (Simulation time: 00 hr 02 min 06 sec)
Heartbeat CPU 0 instructions: 32500193 cycles: 7099523 heartbeat IPC: 4.76 cumulative IPC: 4.578 (Simulation time: 00 hr 02 min 08 sec)
Heartbeat CPU 0 instructions: 33000199 cycles: 7205021 heartbeat IPC: 4.739 cumulative IPC: 4.58 (Simulation time: 00 hr 02 min 10 sec)
Heartbeat CPU 0 instructions: 33500199 cycles: 7310553 heartbeat IPC: 4.738 cumulative IPC: 4.582 (Simulation time: 00 hr 02 min 12 sec)
Heartbeat CPU 0 instructions: 34000203 cycles: 7416044 heartbeat IPC: 4.74 cumulative IPC: 4.585 (Simulation time: 00 hr 02 min 14 sec)
Heartbeat CPU 0 instructions: 34500204 cycles: 7521178 heartbeat IPC: 4.756 cumulative IPC: 4.587 (Simulation time: 00 hr 02 min 16 sec)
Heartbeat CPU 0 instructions: 35000204 cycles: 7628137 heartbeat IPC: 4.675 cumulative IPC: 4.588 (Simulation time: 00 hr 02 min 18 sec)
Heartbeat CPU 0 instructions: 35500211 cycles: 7736399 heartbeat IPC: 4.618 cumulative IPC: 4.589 (Simulation time: 00 hr 02 min 20 sec)
Heartbeat CPU 0 instructions: 36000218 cycles: 7840636 heartbeat IPC: 4.797 cumulative IPC: 4.591 (Simulation time: 00 hr 02 min 22 sec)
Heartbeat CPU 0 instructions: 36500218 cycles: 7946202 heartbeat IPC: 4.736 cumulative IPC: 4.593 (Simulation time: 00 hr 02 min 24 sec)
Heartbeat CPU 0 instructions: 37000224 cycles: 8055960 heartbeat IPC: 4.556 cumulative IPC: 4.593 (Simulation time: 00 hr 02 min 26 sec)
Heartbeat CPU 0 instructions: 37500224 cycles: 8162127 heartbeat IPC: 4.71 cumulative IPC: 4.594 (Simulation time: 00 hr 02 min 28 sec)
Heartbeat CPU 0 instructions: 38000231 cycles: 8268517 heartbeat IPC: 4.7 cumulative IPC: 4.596 (Simulation time: 00 hr 02 min 30 sec)
Heartbeat CPU 0 instructions: 38500233 cycles: 8374460 heartbeat IPC: 4.72 cumulative IPC: 4.597 (Simulation time: 00 hr 02 min 32 sec)
Heartbeat CPU 0 instructions: 39000233 cycles: 8481935 heartbeat IPC: 4.652 cumulative IPC: 4.598 (Simulation time: 00 hr 02 min 34 sec)
Heartbeat CPU 0 instructions: 39500240 cycles: 8587641 heartbeat IPC: 4.73 cumulative IPC: 4.6 (Simulation time: 00 hr 02 min 36 sec)
Heartbeat CPU 0 instructions: 40000247 cycles: 8695599 heartbeat IPC: 4.631 cumulative IPC: 4.6 (Simulation time: 00 hr 02 min 38 sec)
Heartbeat CPU 0 instructions: 40500248 cycles: 8801535 heartbeat IPC: 4.72 cumulative IPC: 4.601 (Simulation time: 00 hr 02 min 40 sec)
Heartbeat CPU 0 instructions: 41000254 cycles: 8906431 heartbeat IPC: 4.767 cumulative IPC: 4.603 (Simulation time: 00 hr 02 min 42 sec)
Heartbeat CPU 0 instructions: 41500257 cycles: 9013450 heartbeat IPC: 4.672 cumulative IPC: 4.604 (Simulation time: 00 hr 02 min 44 sec)
Heartbeat CPU 0 instructions: 42000264 cycles: 9123793 heartbeat IPC: 4.531 cumulative IPC: 4.603 (Simulation time: 00 hr 02 min 46 sec)
Heartbeat CPU 0 instructions: 42500264 cycles: 9229989 heartbeat IPC: 4.708 cumulative IPC: 4.605 (Simulation time: 00 hr 02 min 48 sec)
Heartbeat CPU 0 instructions: 43000271 cycles: 9335964 heartbeat IPC: 4.718 cumulative IPC: 4.606 (Simulation time: 00 hr 02 min 50 sec)
Heartbeat CPU 0 instructions: 43500278 cycles: 9440716 heartbeat IPC: 4.773 cumulative IPC: 4.608 (Simulation time: 00 hr 02 min 52 sec)
Heartbeat CPU 0 instructions: 44000281 cycles: 9548080 heartbeat IPC: 4.657 cumulative IPC: 4.608 (Simulation time: 00 hr 02 min 54 sec)
Heartbeat CPU 0 instructions: 44500282 cycles: 9653565 heartbeat IPC: 4.74 cumulative IPC: 4.61 (Simulation time: 00 hr 02 min 56 sec)
Heartbeat CPU 0 instructions: 45000284 cycles: 9760926 heartbeat IPC: 4.657 cumulative IPC: 4.61 (Simulation time: 00 hr 02 min 58 sec)
Heartbeat CPU 0 instructions: 45500287 cycles: 9866087 heartbeat IPC: 4.755 cumulative IPC: 4.612 (Simulation time: 00 hr 03 min 00 sec)
Heartbeat CPU 0 instructions: 46000289 cycles: 9972296 heartbeat IPC: 4.708 cumulative IPC: 4.613 (Simulation time: 00 hr 03 min 02 sec)
Heartbeat CPU 0 instructions: 46500294 cycles: 10082319 heartbeat IPC: 4.545 cumulative IPC: 4.612 (Simulation time: 00 hr 03 min 04 sec)
Heartbeat CPU 0 instructions: 47000299 cycles: 10188931 heartbeat IPC: 4.69 cumulative IPC: 4.613 (Simulation time: 00 hr 03 min 06 sec)
Heartbeat CPU 0 instructions: 47500306 cycles: 10295244 heartbeat IPC: 4.703 cumulative IPC: 4.614 (Simulation time: 00 hr 03 min 08 sec)
Heartbeat CPU 0 instructions: 48000311 cycles: 10400522 heartbeat IPC: 4.749 cumulative IPC: 4.615 (Simulation time: 00 hr 03 min 10 sec)
Heartbeat CPU 0 instructions: 48500315 cycles: 10510853 heartbeat IPC: 4.532 cumulative IPC: 4.614 (Simulation time: 00 hr 03 min 12 sec)
Heartbeat CPU 0 instructions: 49000318 cycles: 10617948 heartbeat IPC: 4.669 cumulative IPC: 4.615 (Simulation time: 00 hr 03 min 14 sec)
Heartbeat CPU 0 instructions: 49500318 cycles: 10724190 heartbeat IPC: 4.706 cumulative IPC: 4.616 (Simulation time: 00 hr 03 min 16 sec)
Warmup finished CPU 0 instructions: 50000006 cycles: 10830635 cumulative IPC: 4.617 (Simulation time: 00 hr 03 min 18 sec)
Warmup complete CPU 0 instructions: 50000006 cycles: 10830635 cumulative IPC: 4.617 (Simulation time: 00 hr 03 min 18 sec)
Heartbeat CPU 0 instructions: 50000319 cycles: 10831059 heartbeat IPC: 4.679 cumulative IPC: 0.7382 (Simulation time: 00 hr 03 min 18 sec)
Heartbeat CPU 0 instructions: 50500321 cycles: 11720912 heartbeat IPC: 0.5619 cumulative IPC: 0.562 (Simulation time: 00 hr 03 min 26 sec)
Heartbeat CPU 0 instructions: 51000323 cycles: 12604528 heartbeat IPC: 0.5659 cumulative IPC: 0.5639 (Simulation time: 00 hr 03 min 34 sec)
Heartbeat CPU 0 instructions: 51500326 cycles: 13458310 heartbeat IPC: 0.5856 cumulative IPC: 0.571 (Simulation time: 00 hr 03 min 42 sec)
Heartbeat CPU 0 instructions: 52000329 cycles: 14332472 heartbeat IPC: 0.572 cumulative IPC: 0.5712 (Simulation time: 00 hr 03 min 50 sec)
Heartbeat CPU 0 instructions: 52500331 cycles: 15190605 heartbeat IPC: 0.5827 cumulative IPC: 0.5735 (Simulation time: 00 hr 03 min 57 sec)
Heartbeat CPU 0 instructions: 53000334 cycles: 16071595 heartbeat IPC: 0.5675 cumulative IPC: 0.5725 (Simulation time: 00 hr 04 min 05 sec)
Heartbeat CPU 0 instructions: 53500334 cycles: 16924387 heartbeat IPC: 0.5863 cumulative IPC: 0.5744 (Simulation time: 00 hr 04 min 13 sec)
Heartbeat CPU 0 instructions: 54000339 cycles: 17789313 heartbeat IPC: 0.5781 cumulative IPC: 0.5749 (Simulation time: 00 hr 04 min 21 sec)
Heartbeat CPU 0 instructions: 54500345 cycles: 18624018 heartbeat IPC: 0.599 cumulative IPC: 0.5775 (Simulation time: 00 hr 04 min 29 sec)
Heartbeat CPU 0 instructions: 55000346 cycles: 19481996 heartbeat IPC: 0.5828 cumulative IPC: 0.578 (Simulation time: 00 hr 04 min 37 sec)
Heartbeat CPU 0 instructions: 55500347 cycles: 20307976 heartbeat IPC: 0.6053 cumulative IPC: 0.5804 (Simulation time: 00 hr 04 min 44 sec)
Heartbeat CPU 0 instructions: 56000348 cycles: 21135152 heartbeat IPC: 0.6045 cumulative IPC: 0.5823 (Simulation time: 00 hr 04 min 52 sec)
Heartbeat CPU 0 instructions: 56500352 cycles: 21966479 heartbeat IPC: 0.6015 cumulative IPC: 0.5837 (Simulation time: 00 hr 05 min 00 sec)
Heartbeat CPU 0 instructions: 57000352 cycles: 22830929 heartbeat IPC: 0.5784 cumulative IPC: 0.5833 (Simulation time: 00 hr 05 min 08 sec)
Heartbeat CPU 0 instructions: 57500357 cycles: 23659704 heartbeat IPC: 0.6033 cumulative IPC: 0.5846 (Simulation time: 00 hr 05 min 15 sec)
Heartbeat CPU 0 instructions: 58000361 cycles: 24471190 heartbeat IPC: 0.6162 cumulative IPC: 0.5865 (Simulation time: 00 hr 05 min 23 sec)
Heartbeat CPU 0 instructions: 58500362 cycles: 25344943 heartbeat IPC: 0.5722 cumulative IPC: 0.5857 (Simulation time: 00 hr 05 min 31 sec)
Heartbeat CPU 0 instructions: 59000363 cycles: 26172344 heartbeat IPC: 0.6043 cumulative IPC: 0.5867 (Simulation time: 00 hr 05 min 39 sec)
Heartbeat CPU 0 instructions: 59500364 cycles: 26962067 heartbeat IPC: 0.6331 cumulative IPC: 0.5889 (Simulation time: 00 hr 05 min 46 sec)
Heartbeat CPU 0 instructions: 60000370 cycles: 27786245 heartbeat IPC: 0.6067 cumulative IPC: 0.5898 (Simulation time: 00 hr 05 min 54 sec)
Heartbeat CPU 0 instructions: 60500372 cycles: 28603788 heartbeat IPC: 0.6116 cumulative IPC: 0.5908 (Simulation time: 00 hr 06 min 01 sec)
Heartbeat CPU 0 instructions: 61000373 cycles: 29432225 heartbeat IPC: 0.6035 cumulative IPC: 0.5914 (Simulation time: 00 hr 06 min 09 sec)
Heartbeat CPU 0 instructions: 61500377 cycles: 30245752 heartbeat IPC: 0.6146 cumulative IPC: 0.5923 (Simulation time: 00 hr 06 min 16 sec)
Heartbeat CPU 0 instructions: 62000378 cycles: 31080787 heartbeat IPC: 0.5988 cumulative IPC: 0.5926 (Simulation time: 00 hr 06 min 24 sec)
Heartbeat CPU 0 instructions: 62500378 cycles: 31869070 heartbeat IPC: 0.6343 cumulative IPC: 0.5942 (Simulation time: 00 hr 06 min 31 sec)
Heartbeat CPU 0 instructions: 63000379 cycles: 32714076 heartbeat IPC: 0.5917 cumulative IPC: 0.5941 (Simulation time: 00 hr 06 min 39 sec)
Heartbeat CPU 0 instructions: 63500381 cycles: 33521612 heartbeat IPC: 0.6192 cumulative IPC: 0.595 (Simulation time: 00 hr 06 min 47 sec)
Heartbeat CPU 0 instructions: 64000384 cycles: 34361193 heartbeat IPC: 0.5955 cumulative IPC: 0.595 (Simulation time: 00 hr 06 min 55 sec)
Heartbeat CPU 0 instructions: 64500384 cycles: 35161206 heartbeat IPC: 0.625 cumulative IPC: 0.596 (Simulation time: 00 hr 07 min 02 sec)
Heartbeat CPU 0 instructions: 65000384 cycles: 36023169 heartbeat IPC: 0.5801 cumulative IPC: 0.5954 (Simulation time: 00 hr 07 min 10 sec)
Heartbeat CPU 0 instructions: 65500385 cycles: 36852680 heartbeat IPC: 0.6028 cumulative IPC: 0.5957 (Simulation time: 00 hr 07 min 18 sec)
Heartbeat CPU 0 instructions: 66000391 cycles: 37641928 heartbeat IPC: 0.6335 cumulative IPC: 0.5968 (Simulation time: 00 hr 07 min 26 sec)
Heartbeat CPU 0 instructions: 66500396 cycles: 38444288 heartbeat IPC: 0.6232 cumulative IPC: 0.5975 (Simulation time: 00 hr 07 min 33 sec)
Heartbeat CPU 0 instructions: 67000397 cycles: 39247219 heartbeat IPC: 0.6227 cumulative IPC: 0.5983 (Simulation time: 00 hr 07 min 40 sec)
Heartbeat CPU 0 instructions: 67500402 cycles: 40122035 heartbeat IPC: 0.5716 cumulative IPC: 0.5975 (Simulation time: 00 hr 07 min 49 sec)
Heartbeat CPU 0 instructions: 68000405 cycles: 40939637 heartbeat IPC: 0.6115 cumulative IPC: 0.5978 (Simulation time: 00 hr 07 min 56 sec)
Heartbeat CPU 0 instructions: 68500405 cycles: 41757785 heartbeat IPC: 0.6111 cumulative IPC: 0.5982 (Simulation time: 00 hr 08 min 04 sec)
Heartbeat CPU 0 instructions: 69000408 cycles: 42577991 heartbeat IPC: 0.6096 cumulative IPC: 0.5985 (Simulation time: 00 hr 08 min 12 sec)
Heartbeat CPU 0 instructions: 69500410 cycles: 43379872 heartbeat IPC: 0.6235 cumulative IPC: 0.5991 (Simulation time: 00 hr 08 min 19 sec)
Heartbeat CPU 0 instructions: 70000415 cycles: 44196718 heartbeat IPC: 0.6121 cumulative IPC: 0.5994 (Simulation time: 00 hr 08 min 27 sec)
Heartbeat CPU 0 instructions: 70500417 cycles: 45012918 heartbeat IPC: 0.6126 cumulative IPC: 0.5997 (Simulation time: 00 hr 08 min 34 sec)
Heartbeat CPU 0 instructions: 71000418 cycles: 45846248 heartbeat IPC: 0.6 cumulative IPC: 0.5997 (Simulation time: 00 hr 08 min 42 sec)
Heartbeat CPU 0 instructions: 71500419 cycles: 46643686 heartbeat IPC: 0.627 cumulative IPC: 0.6004 (Simulation time: 00 hr 08 min 49 sec)
Heartbeat CPU 0 instructions: 72000425 cycles: 47502397 heartbeat IPC: 0.5823 cumulative IPC: 0.5999 (Simulation time: 00 hr 08 min 57 sec)
Heartbeat CPU 0 instructions: 72500428 cycles: 48344384 heartbeat IPC: 0.5938 cumulative IPC: 0.5998 (Simulation time: 00 hr 09 min 05 sec)
Heartbeat CPU 0 instructions: 73000430 cycles: 49158586 heartbeat IPC: 0.6141 cumulative IPC: 0.6001 (Simulation time: 00 hr 09 min 13 sec)
Heartbeat CPU 0 instructions: 73500430 cycles: 49986731 heartbeat IPC: 0.6038 cumulative IPC: 0.6002 (Simulation time: 00 hr 09 min 20 sec)
Heartbeat CPU 0 instructions: 74000432 cycles: 50796319 heartbeat IPC: 0.6176 cumulative IPC: 0.6005 (Simulation time: 00 hr 09 min 28 sec)
Heartbeat CPU 0 instructions: 74500436 cycles: 51627210 heartbeat IPC: 0.6018 cumulative IPC: 0.6006 (Simulation time: 00 hr 09 min 36 sec)
Heartbeat CPU 0 instructions: 75000440 cycles: 52439220 heartbeat IPC: 0.6158 cumulative IPC: 0.6008 (Simulation time: 00 hr 09 min 44 sec)
Heartbeat CPU 0 instructions: 75500440 cycles: 53264277 heartbeat IPC: 0.606 cumulative IPC: 0.6009 (Simulation time: 00 hr 09 min 52 sec)
Heartbeat CPU 0 instructions: 76000441 cycles: 54108790 heartbeat IPC: 0.5921 cumulative IPC: 0.6008 (Simulation time: 00 hr 10 min 00 sec)
Heartbeat CPU 0 instructions: 76500446 cycles: 54898000 heartbeat IPC: 0.6336 cumulative IPC: 0.6014 (Simulation time: 00 hr 10 min 07 sec)
Heartbeat CPU 0 instructions: 77000451 cycles: 55673709 heartbeat IPC: 0.6446 cumulative IPC: 0.6021 (Simulation time: 00 hr 10 min 14 sec)
Heartbeat CPU 0 instructions: 77500452 cycles: 56471289 heartbeat IPC: 0.6269 cumulative IPC: 0.6025 (Simulation time: 00 hr 10 min 22 sec)
Heartbeat CPU 0 instructions: 78000454 cycles: 57266943 heartbeat IPC: 0.6284 cumulative IPC: 0.603 (Simulation time: 00 hr 10 min 29 sec)
Heartbeat CPU 0 instructions: 78500454 cycles: 58094256 heartbeat IPC: 0.6044 cumulative IPC: 0.603 (Simulation time: 00 hr 10 min 37 sec)
Heartbeat CPU 0 instructions: 79000459 cycles: 58901525 heartbeat IPC: 0.6194 cumulative IPC: 0.6033 (Simulation time: 00 hr 10 min 45 sec)
Heartbeat CPU 0 instructions: 79500466 cycles: 59720206 heartbeat IPC: 0.6107 cumulative IPC: 0.6034 (Simulation time: 00 hr 10 min 53 sec)
Heartbeat CPU 0 instructions: 80000472 cycles: 60521270 heartbeat IPC: 0.6242 cumulative IPC: 0.6037 (Simulation time: 00 hr 11 min 00 sec)
Heartbeat CPU 0 instructions: 80500475 cycles: 61344647 heartbeat IPC: 0.6073 cumulative IPC: 0.6038 (Simulation time: 00 hr 11 min 08 sec)
Heartbeat CPU 0 instructions: 81000481 cycles: 62165300 heartbeat IPC: 0.6093 cumulative IPC: 0.6039 (Simulation time: 00 hr 11 min 16 sec)
Heartbeat CPU 0 instructions: 81500484 cycles: 62972178 heartbeat IPC: 0.6197 cumulative IPC: 0.6041 (Simulation time: 00 hr 11 min 24 sec)
Heartbeat CPU 0 instructions: 82000485 cycles: 63778290 heartbeat IPC: 0.6203 cumulative IPC: 0.6044 (Simulation time: 00 hr 11 min 31 sec)
Heartbeat CPU 0 instructions: 82500487 cycles: 64600309 heartbeat IPC: 0.6083 cumulative IPC: 0.6044 (Simulation time: 00 hr 11 min 39 sec)
Heartbeat CPU 0 instructions: 83000490 cycles: 65423776 heartbeat IPC: 0.6072 cumulative IPC: 0.6045 (Simulation time: 00 hr 11 min 47 sec)
Heartbeat CPU 0 instructions: 83500492 cycles: 66255118 heartbeat IPC: 0.6014 cumulative IPC: 0.6044 (Simulation time: 00 hr 11 min 55 sec)
Heartbeat CPU 0 instructions: 84000493 cycles: 67066142 heartbeat IPC: 0.6165 cumulative IPC: 0.6046 (Simulation time: 00 hr 12 min 03 sec)
Heartbeat CPU 0 instructions: 84500496 cycles: 67873119 heartbeat IPC: 0.6196 cumulative IPC: 0.6048 (Simulation time: 00 hr 12 min 11 sec)
Heartbeat CPU 0 instructions: 85000499 cycles: 68682021 heartbeat IPC: 0.6181 cumulative IPC: 0.605 (Simulation time: 00 hr 12 min 19 sec)
Heartbeat CPU 0 instructions: 85500503 cycles: 69463224 heartbeat IPC: 0.64 cumulative IPC: 0.6055 (Simulation time: 00 hr 12 min 26 sec)
Heartbeat CPU 0 instructions: 86000508 cycles: 70218001 heartbeat IPC: 0.6625 cumulative IPC: 0.6062 (Simulation time: 00 hr 12 min 33 sec)
Heartbeat CPU 0 instructions: 86500510 cycles: 71000902 heartbeat IPC: 0.6387 cumulative IPC: 0.6066 (Simulation time: 00 hr 12 min 41 sec)
Heartbeat CPU 0 instructions: 87000516 cycles: 71791588 heartbeat IPC: 0.6324 cumulative IPC: 0.607 (Simulation time: 00 hr 12 min 48 sec)
Heartbeat CPU 0 instructions: 87500520 cycles: 72576957 heartbeat IPC: 0.6366 cumulative IPC: 0.6073 (Simulation time: 00 hr 12 min 56 sec)
Heartbeat CPU 0 instructions: 88000524 cycles: 73400350 heartbeat IPC: 0.6072 cumulative IPC: 0.6073 (Simulation time: 00 hr 13 min 04 sec)
Heartbeat CPU 0 instructions: 88500524 cycles: 74200619 heartbeat IPC: 0.6248 cumulative IPC: 0.6076 (Simulation time: 00 hr 13 min 11 sec)
Heartbeat CPU 0 instructions: 89000525 cycles: 74980172 heartbeat IPC: 0.6414 cumulative IPC: 0.608 (Simulation time: 00 hr 13 min 19 sec)
Heartbeat CPU 0 instructions: 89500528 cycles: 75775429 heartbeat IPC: 0.6287 cumulative IPC: 0.6082 (Simulation time: 00 hr 13 min 26 sec)
Heartbeat CPU 0 instructions: 90000531 cycles: 76587255 heartbeat IPC: 0.6159 cumulative IPC: 0.6083 (Simulation time: 00 hr 13 min 34 sec)
Heartbeat CPU 0 instructions: 90500531 cycles: 77375166 heartbeat IPC: 0.6346 cumulative IPC: 0.6086 (Simulation time: 00 hr 13 min 41 sec)
Heartbeat CPU 0 instructions: 91000535 cycles: 78162585 heartbeat IPC: 0.635 cumulative IPC: 0.6089 (Simulation time: 00 hr 13 min 49 sec)
Heartbeat CPU 0 instructions: 91500538 cycles: 78957522 heartbeat IPC: 0.629 cumulative IPC: 0.6092 (Simulation time: 00 hr 13 min 57 sec)
Heartbeat CPU 0 instructions: 92000541 cycles: 79754760 heartbeat IPC: 0.6272 cumulative IPC: 0.6094 (Simulation time: 00 hr 14 min 04 sec)
Heartbeat CPU 0 instructions: 92500544 cycles: 80559061 heartbeat IPC: 0.6217 cumulative IPC: 0.6095 (Simulation time: 00 hr 14 min 12 sec)
Heartbeat CPU 0 instructions: 93000545 cycles: 81340068 heartbeat IPC: 0.6402 cumulative IPC: 0.6099 (Simulation time: 00 hr 14 min 20 sec)
Heartbeat CPU 0 instructions: 93500552 cycles: 82165438 heartbeat IPC: 0.6058 cumulative IPC: 0.6098 (Simulation time: 00 hr 14 min 28 sec)
Heartbeat CPU 0 instructions: 94000553 cycles: 82961157 heartbeat IPC: 0.6284 cumulative IPC: 0.61 (Simulation time: 00 hr 14 min 36 sec)
Heartbeat CPU 0 instructions: 94500556 cycles: 83753610 heartbeat IPC: 0.631 cumulative IPC: 0.6102 (Simulation time: 00 hr 14 min 43 sec)
Heartbeat CPU 0 instructions: 95000560 cycles: 84551428 heartbeat IPC: 0.6267 cumulative IPC: 0.6104 (Simulation time: 00 hr 14 min 51 sec)
Heartbeat CPU 0 instructions: 95500567 cycles: 85319859 heartbeat IPC: 0.6507 cumulative IPC: 0.6108 (Simulation time: 00 hr 14 min 58 sec)
Heartbeat CPU 0 instructions: 96000570 cycles: 86090333 heartbeat IPC: 0.649 cumulative IPC: 0.6112 (Simulation time: 00 hr 15 min 06 sec)
Heartbeat CPU 0 instructions: 96500573 cycles: 86897054 heartbeat IPC: 0.6198 cumulative IPC: 0.6113 (Simulation time: 00 hr 15 min 14 sec)
Heartbeat CPU 0 instructions: 97000573 cycles: 87675713 heartbeat IPC: 0.6421 cumulative IPC: 0.6116 (Simulation time: 00 hr 15 min 21 sec)
Heartbeat CPU 0 instructions: 97500575 cycles: 88449108 heartbeat IPC: 0.6465 cumulative IPC: 0.612 (Simulation time: 00 hr 15 min 29 sec)
Heartbeat CPU 0 instructions: 98000575 cycles: 89251474 heartbeat IPC: 0.6232 cumulative IPC: 0.6121 (Simulation time: 00 hr 15 min 36 sec)
Heartbeat CPU 0 instructions: 98500575 cycles: 90064281 heartbeat IPC: 0.6152 cumulative IPC: 0.6121 (Simulation time: 00 hr 15 min 44 sec)
Heartbeat CPU 0 instructions: 99000581 cycles: 90881173 heartbeat IPC: 0.6121 cumulative IPC: 0.6121 (Simulation time: 00 hr 15 min 52 sec)
Heartbeat CPU 0 instructions: 99500587 cycles: 91696655 heartbeat IPC: 0.6131 cumulative IPC: 0.6121 (Simulation time: 00 hr 16 min 00 sec)
Heartbeat CPU 0 instructions: 100000589 cycles: 92494193 heartbeat IPC: 0.6269 cumulative IPC: 0.6123 (Simulation time: 00 hr 16 min 08 sec)
Heartbeat CPU 0 instructions: 100500590 cycles: 93257845 heartbeat IPC: 0.6547 cumulative IPC: 0.6127 (Simulation time: 00 hr 16 min 15 sec)
Heartbeat CPU 0 instructions: 101000592 cycles: 94033393 heartbeat IPC: 0.6447 cumulative IPC: 0.613 (Simulation time: 00 hr 16 min 22 sec)
Heartbeat CPU 0 instructions: 101500593 cycles: 94806016 heartbeat IPC: 0.6471 cumulative IPC: 0.6133 (Simulation time: 00 hr 16 min 30 sec)
Heartbeat CPU 0 instructions: 102000593 cycles: 95579110 heartbeat IPC: 0.6468 cumulative IPC: 0.6136 (Simulation time: 00 hr 16 min 37 sec)
Heartbeat CPU 0 instructions: 102500594 cycles: 96361410 heartbeat IPC: 0.6391 cumulative IPC: 0.6138 (Simulation time: 00 hr 16 min 45 sec)
Heartbeat CPU 0 instructions: 103000597 cycles: 97115223 heartbeat IPC: 0.6633 cumulative IPC: 0.6143 (Simulation time: 00 hr 16 min 52 sec)
Heartbeat CPU 0 instructions: 103500597 cycles: 97872465 heartbeat IPC: 0.6603 cumulative IPC: 0.6147 (Simulation time: 00 hr 16 min 59 sec)
Heartbeat CPU 0 instructions: 104000598 cycles: 98665858 heartbeat IPC: 0.6302 cumulative IPC: 0.6148 (Simulation time: 00 hr 17 min 07 sec)
Heartbeat CPU 0 instructions: 104500602 cycles: 99444174 heartbeat IPC: 0.6424 cumulative IPC: 0.615 (Simulation time: 00 hr 17 min 15 sec)
Heartbeat CPU 0 instructions: 105000602 cycles: 100234852 heartbeat IPC: 0.6324 cumulative IPC: 0.6152 (Simulation time: 00 hr 17 min 22 sec)
Heartbeat CPU 0 instructions: 105500604 cycles: 101020771 heartbeat IPC: 0.6362 cumulative IPC: 0.6154 (Simulation time: 00 hr 17 min 30 sec)
Heartbeat CPU 0 instructions: 106000604 cycles: 101778174 heartbeat IPC: 0.6602 cumulative IPC: 0.6157 (Simulation time: 00 hr 17 min 37 sec)
Heartbeat CPU 0 instructions: 106500606 cycles: 102567966 heartbeat IPC: 0.6331 cumulative IPC: 0.6159 (Simulation time: 00 hr 17 min 45 sec)
Heartbeat CPU 0 instructions: 107000610 cycles: 103370168 heartbeat IPC: 0.6233 cumulative IPC: 0.616 (Simulation time: 00 hr 17 min 53 sec)
Heartbeat CPU 0 instructions: 107500610 cycles: 104140612 heartbeat IPC: 0.649 cumulative IPC: 0.6162 (Simulation time: 00 hr 18 min 01 sec)
Heartbeat CPU 0 instructions: 108000613 cycles: 104873792 heartbeat IPC: 0.682 cumulative IPC: 0.6167 (Simulation time: 00 hr 18 min 08 sec)
Heartbeat CPU 0 instructions: 108500616 cycles: 105647202 heartbeat IPC: 0.6465 cumulative IPC: 0.617 (Simulation time: 00 hr 18 min 15 sec)
Heartbeat CPU 0 instructions: 109000617 cycles: 106400553 heartbeat IPC: 0.6637 cumulative IPC: 0.6174 (Simulation time: 00 hr 18 min 23 sec)
Heartbeat CPU 0 instructions: 109500618 cycles: 107137671 heartbeat IPC: 0.6783 cumulative IPC: 0.6178 (Simulation time: 00 hr 18 min 30 sec)
Heartbeat CPU 0 instructions: 110000624 cycles: 107920426 heartbeat IPC: 0.6388 cumulative IPC: 0.618 (Simulation time: 00 hr 18 min 37 sec)
Heartbeat CPU 0 instructions: 110500625 cycles: 108690556 heartbeat IPC: 0.6492 cumulative IPC: 0.6182 (Simulation time: 00 hr 18 min 45 sec)
Heartbeat CPU 0 instructions: 111000627 cycles: 109449953 heartbeat IPC: 0.6584 cumulative IPC: 0.6185 (Simulation time: 00 hr 18 min 52 sec)
Heartbeat CPU 0 instructions: 111500630 cycles: 110217559 heartbeat IPC: 0.6514 cumulative IPC: 0.6188 (Simulation time: 00 hr 19 min 00 sec)
Heartbeat CPU 0 instructions: 112000630 cycles: 110975140 heartbeat IPC: 0.66 cumulative IPC: 0.6191 (Simulation time: 00 hr 19 min 07 sec)
Heartbeat CPU 0 instructions: 112500634 cycles: 111725190 heartbeat IPC: 0.6666 cumulative IPC: 0.6195 (Simulation time: 00 hr 19 min 14 sec)
Heartbeat CPU 0 instructions: 113000636 cycles: 112521188 heartbeat IPC: 0.6281 cumulative IPC: 0.6195 (Simulation time: 00 hr 19 min 22 sec)
Heartbeat CPU 0 instructions: 113500641 cycles: 113297422 heartbeat IPC: 0.6441 cumulative IPC: 0.6197 (Simulation time: 00 hr 19 min 30 sec)
Heartbeat CPU 0 instructions: 114000642 cycles: 114068728 heartbeat IPC: 0.6483 cumulative IPC: 0.6199 (Simulation time: 00 hr 19 min 37 sec)
Heartbeat CPU 0 instructions: 114500649 cycles: 114818681 heartbeat IPC: 0.6667 cumulative IPC: 0.6203 (Simulation time: 00 hr 19 min 44 sec)
Heartbeat CPU 0 instructions: 115000653 cycles: 115599066 heartbeat IPC: 0.6407 cumulative IPC: 0.6204 (Simulation time: 00 hr 19 min 52 sec)
Heartbeat CPU 0 instructions: 115500656 cycles: 116367051 heartbeat IPC: 0.6511 cumulative IPC: 0.6206 (Simulation time: 00 hr 20 min 00 sec)
Heartbeat CPU 0 instructions: 116000662 cycles: 117169375 heartbeat IPC: 0.6232 cumulative IPC: 0.6207 (Simulation time: 00 hr 20 min 08 sec)
Heartbeat CPU 0 instructions: 116500668 cycles: 117937715 heartbeat IPC: 0.6508 cumulative IPC: 0.6209 (Simulation time: 00 hr 20 min 15 sec)
Heartbeat CPU 0 instructions: 117000669 cycles: 118713279 heartbeat IPC: 0.6447 cumulative IPC: 0.6211 (Simulation time: 00 hr 20 min 23 sec)
Heartbeat CPU 0 instructions: 117500672 cycles: 119467326 heartbeat IPC: 0.6631 cumulative IPC: 0.6213 (Simulation time: 00 hr 20 min 30 sec)
Heartbeat CPU 0 instructions: 118000672 cycles: 120232084 heartbeat IPC: 0.6538 cumulative IPC: 0.6216 (Simulation time: 00 hr 20 min 38 sec)
Heartbeat CPU 0 instructions: 118500672 cycles: 120981910 heartbeat IPC: 0.6668 cumulative IPC: 0.6219 (Simulation time: 00 hr 20 min 45 sec)
Heartbeat CPU 0 instructions: 119000673 cycles: 121734323 heartbeat IPC: 0.6645 cumulative IPC: 0.6222 (Simulation time: 00 hr 20 min 52 sec)
Heartbeat CPU 0 instructions: 119500673 cycles: 122505594 heartbeat IPC: 0.6483 cumulative IPC: 0.6223 (Simulation time: 00 hr 21 min 00 sec)
Heartbeat CPU 0 instructions: 120000673 cycles: 123268848 heartbeat IPC: 0.6551 cumulative IPC: 0.6226 (Simulation time: 00 hr 21 min 07 sec)
Heartbeat CPU 0 instructions: 120500673 cycles: 124022100 heartbeat IPC: 0.6638 cumulative IPC: 0.6228 (Simulation time: 00 hr 21 min 15 sec)
Heartbeat CPU 0 instructions: 121000673 cycles: 124785204 heartbeat IPC: 0.6552 cumulative IPC: 0.6231 (Simulation time: 00 hr 21 min 23 sec)
Heartbeat CPU 0 instructions: 121500675 cycles: 125532240 heartbeat IPC: 0.6693 cumulative IPC: 0.6234 (Simulation time: 00 hr 21 min 30 sec)
Heartbeat CPU 0 instructions: 122000676 cycles: 126334306 heartbeat IPC: 0.6234 cumulative IPC: 0.6234 (Simulation time: 00 hr 21 min 38 sec)
Heartbeat CPU 0 instructions: 122500683 cycles: 127087540 heartbeat IPC: 0.6638 cumulative IPC: 0.6236 (Simulation time: 00 hr 21 min 45 sec)
Heartbeat CPU 0 instructions: 123000685 cycles: 127840096 heartbeat IPC: 0.6644 cumulative IPC: 0.6239 (Simulation time: 00 hr 21 min 53 sec)
Heartbeat CPU 0 instructions: 123500688 cycles: 128603536 heartbeat IPC: 0.6549 cumulative IPC: 0.6241 (Simulation time: 00 hr 22 min 00 sec)
Heartbeat CPU 0 instructions: 124000694 cycles: 129383707 heartbeat IPC: 0.6409 cumulative IPC: 0.6242 (Simulation time: 00 hr 22 min 08 sec)
Heartbeat CPU 0 instructions: 124500694 cycles: 130146373 heartbeat IPC: 0.6556 cumulative IPC: 0.6244 (Simulation time: 00 hr 22 min 15 sec)
Heartbeat CPU 0 instructions: 125000694 cycles: 130906189 heartbeat IPC: 0.6581 cumulative IPC: 0.6246 (Simulation time: 00 hr 22 min 23 sec)
Heartbeat CPU 0 instructions: 125500694 cycles: 131675234 heartbeat IPC: 0.6502 cumulative IPC: 0.6248 (Simulation time: 00 hr 22 min 30 sec)
Heartbeat CPU 0 instructions: 126000699 cycles: 132461357 heartbeat IPC: 0.636 cumulative IPC: 0.6248 (Simulation time: 00 hr 22 min 38 sec)
Heartbeat CPU 0 instructions: 126500701 cycles: 133218842 heartbeat IPC: 0.6601 cumulative IPC: 0.6251 (Simulation time: 00 hr 22 min 45 sec)
Heartbeat CPU 0 instructions: 127000703 cycles: 133996433 heartbeat IPC: 0.643 cumulative IPC: 0.6252 (Simulation time: 00 hr 22 min 52 sec)
Heartbeat CPU 0 instructions: 127500703 cycles: 134766576 heartbeat IPC: 0.6492 cumulative IPC: 0.6253 (Simulation time: 00 hr 23 min 00 sec)
Heartbeat CPU 0 instructions: 128000705 cycles: 135530339 heartbeat IPC: 0.6547 cumulative IPC: 0.6255 (Simulation time: 00 hr 23 min 07 sec)
Heartbeat CPU 0 instructions: 128500706 cycles: 136287234 heartbeat IPC: 0.6606 cumulative IPC: 0.6257 (Simulation time: 00 hr 23 min 15 sec)
Heartbeat CPU 0 instructions: 129000709 cycles: 137062629 heartbeat IPC: 0.6448 cumulative IPC: 0.6258 (Simulation time: 00 hr 23 min 22 sec)
Heartbeat CPU 0 instructions: 129500711 cycles: 137825836 heartbeat IPC: 0.6551 cumulative IPC: 0.626 (Simulation time: 00 hr 23 min 30 sec)
Heartbeat CPU 0 instructions: 130000715 cycles: 138603248 heartbeat IPC: 0.6432 cumulative IPC: 0.6261 (Simulation time: 00 hr 23 min 37 sec)
Heartbeat CPU 0 instructions: 130500716 cycles: 139367883 heartbeat IPC: 0.6539 cumulative IPC: 0.6263 (Simulation time: 00 hr 23 min 45 sec)
Heartbeat CPU 0 instructions: 131000719 cycles: 140134459 heartbeat IPC: 0.6523 cumulative IPC: 0.6264 (Simulation time: 00 hr 23 min 53 sec)
Heartbeat CPU 0 instructions: 131500723 cycles: 140931869 heartbeat IPC: 0.627 cumulative IPC: 0.6264 (Simulation time: 00 hr 24 min 01 sec)
Heartbeat CPU 0 instructions: 132000723 cycles: 141683933 heartbeat IPC: 0.6648 cumulative IPC: 0.6267 (Simulation time: 00 hr 24 min 08 sec)
Heartbeat CPU 0 instructions: 132500725 cycles: 142450939 heartbeat IPC: 0.6519 cumulative IPC: 0.6268 (Simulation time: 00 hr 24 min 16 sec)
Heartbeat CPU 0 instructions: 133000727 cycles: 143175280 heartbeat IPC: 0.6903 cumulative IPC: 0.6272 (Simulation time: 00 hr 24 min 23 sec)
Heartbeat CPU 0 instructions: 133500728 cycles: 143905517 heartbeat IPC: 0.6847 cumulative IPC: 0.6275 (Simulation time: 00 hr 24 min 30 sec)
Heartbeat CPU 0 instructions: 134000728 cycles: 144687216 heartbeat IPC: 0.6396 cumulative IPC: 0.6275 (Simulation time: 00 hr 24 min 38 sec)
Heartbeat CPU 0 instructions: 134500734 cycles: 145443823 heartbeat IPC: 0.6609 cumulative IPC: 0.6277 (Simulation time: 00 hr 24 min 46 sec)
Heartbeat CPU 0 instructions: 135000739 cycles: 146161291 heartbeat IPC: 0.6969 cumulative IPC: 0.6281 (Simulation time: 00 hr 24 min 53 sec)
Heartbeat CPU 0 instructions: 135500742 cycles: 146889554 heartbeat IPC: 0.6866 cumulative IPC: 0.6284 (Simulation time: 00 hr 25 min 00 sec)
Heartbeat CPU 0 instructions: 136000743 cycles: 147628611 heartbeat IPC: 0.6765 cumulative IPC: 0.6287 (Simulation time: 00 hr 25 min 07 sec)
Heartbeat CPU 0 instructions: 136500744 cycles: 148364374 heartbeat IPC: 0.6796 cumulative IPC: 0.6289 (Simulation time: 00 hr 25 min 15 sec)
Heartbeat CPU 0 instructions: 137000746 cycles: 149105258 heartbeat IPC: 0.6749 cumulative IPC: 0.6292 (Simulation time: 00 hr 25 min 22 sec)
Heartbeat CPU 0 instructions: 137500751 cycles: 149865490 heartbeat IPC: 0.6577 cumulative IPC: 0.6293 (Simulation time: 00 hr 25 min 30 sec)
Heartbeat CPU 0 instructions: 138000758 cycles: 150621319 heartbeat IPC: 0.6615 cumulative IPC: 0.6295 (Simulation time: 00 hr 25 min 37 sec)
Heartbeat CPU 0 instructions: 138500762 cycles: 151349910 heartbeat IPC: 0.6863 cumulative IPC: 0.6298 (Simulation time: 00 hr 25 min 44 sec)
Heartbeat CPU 0 instructions: 139000767 cycles: 152096567 heartbeat IPC: 0.6697 cumulative IPC: 0.63 (Simulation time: 00 hr 25 min 52 sec)
Heartbeat CPU 0 instructions: 139500768 cycles: 152824066 heartbeat IPC: 0.6873 cumulative IPC: 0.6303 (Simulation time: 00 hr 25 min 59 sec)
Heartbeat CPU 0 instructions: 140000773 cycles: 153571889 heartbeat IPC: 0.6686 cumulative IPC: 0.6305 (Simulation time: 00 hr 26 min 06 sec)
Heartbeat CPU 0 instructions: 140500775 cycles: 154326421 heartbeat IPC: 0.6627 cumulative IPC: 0.6307 (Simulation time: 00 hr 26 min 14 sec)
Heartbeat CPU 0 instructions: 141000775 cycles: 155075448 heartbeat IPC: 0.6675 cumulative IPC: 0.6309 (Simulation time: 00 hr 26 min 22 sec)
Heartbeat CPU 0 instructions: 141500778 cycles: 155813904 heartbeat IPC: 0.6771 cumulative IPC: 0.6311 (Simulation time: 00 hr 26 min 29 sec)
Heartbeat CPU 0 instructions: 142000783 cycles: 156563220 heartbeat IPC: 0.6673 cumulative IPC: 0.6313 (Simulation time: 00 hr 26 min 36 sec)
Heartbeat CPU 0 instructions: 142500785 cycles: 157308450 heartbeat IPC: 0.6709 cumulative IPC: 0.6315 (Simulation time: 00 hr 26 min 44 sec)
Heartbeat CPU 0 instructions: 143000786 cycles: 158070585 heartbeat IPC: 0.6561 cumulative IPC: 0.6316 (Simulation time: 00 hr 26 min 51 sec)
Heartbeat CPU 0 instructions: 143500790 cycles: 158859300 heartbeat IPC: 0.6339 cumulative IPC: 0.6316 (Simulation time: 00 hr 26 min 59 sec)
Heartbeat CPU 0 instructions: 144000790 cycles: 159650320 heartbeat IPC: 0.6321 cumulative IPC: 0.6316 (Simulation time: 00 hr 27 min 07 sec)
Heartbeat CPU 0 instructions: 144500794 cycles: 160460087 heartbeat IPC: 0.6175 cumulative IPC: 0.6316 (Simulation time: 00 hr 27 min 15 sec)
Heartbeat CPU 0 instructions: 145000800 cycles: 161226208 heartbeat IPC: 0.6526 cumulative IPC: 0.6317 (Simulation time: 00 hr 27 min 22 sec)
Heartbeat CPU 0 instructions: 145500806 cycles: 162041955 heartbeat IPC: 0.6129 cumulative IPC: 0.6316 (Simulation time: 00 hr 27 min 30 sec)
Heartbeat CPU 0 instructions: 146000806 cycles: 162831612 heartbeat IPC: 0.6332 cumulative IPC: 0.6316 (Simulation time: 00 hr 27 min 38 sec)
Heartbeat CPU 0 instructions: 146500809 cycles: 163610576 heartbeat IPC: 0.6419 cumulative IPC: 0.6316 (Simulation time: 00 hr 27 min 46 sec)
Heartbeat CPU 0 instructions: 147000812 cycles: 164375999 heartbeat IPC: 0.6532 cumulative IPC: 0.6317 (Simulation time: 00 hr 27 min 53 sec)
Heartbeat CPU 0 instructions: 147500818 cycles: 165120981 heartbeat IPC: 0.6712 cumulative IPC: 0.6319 (Simulation time: 00 hr 28 min 01 sec)
Heartbeat CPU 0 instructions: 148000819 cycles: 165866476 heartbeat IPC: 0.6707 cumulative IPC: 0.6321 (Simulation time: 00 hr 28 min 08 sec)
Heartbeat CPU 0 instructions: 148500826 cycles: 166617768 heartbeat IPC: 0.6655 cumulative IPC: 0.6323 (Simulation time: 00 hr 28 min 16 sec)
Heartbeat CPU 0 instructions: 149000831 cycles: 167379687 heartbeat IPC: 0.6562 cumulative IPC: 0.6324 (Simulation time: 00 hr 28 min 23 sec)
Heartbeat CPU 0 instructions: 149500832 cycles: 168154514 heartbeat IPC: 0.6453 cumulative IPC: 0.6325 (Simulation time: 00 hr 28 min 31 sec)
Heartbeat CPU 0 instructions: 150000838 cycles: 168913618 heartbeat IPC: 0.6587 cumulative IPC: 0.6326 (Simulation time: 00 hr 28 min 39 sec)
Heartbeat CPU 0 instructions: 150500842 cycles: 169633273 heartbeat IPC: 0.6948 cumulative IPC: 0.6329 (Simulation time: 00 hr 28 min 46 sec)
Heartbeat CPU 0 instructions: 151000844 cycles: 170383191 heartbeat IPC: 0.6667 cumulative IPC: 0.633 (Simulation time: 00 hr 28 min 53 sec)
Heartbeat CPU 0 instructions: 151500846 cycles: 171117791 heartbeat IPC: 0.6806 cumulative IPC: 0.6332 (Simulation time: 00 hr 29 min 01 sec)
Heartbeat CPU 0 instructions: 152000847 cycles: 171850392 heartbeat IPC: 0.6825 cumulative IPC: 0.6335 (Simulation time: 00 hr 29 min 08 sec)
Heartbeat CPU 0 instructions: 152500848 cycles: 172595076 heartbeat IPC: 0.6714 cumulative IPC: 0.6336 (Simulation time: 00 hr 29 min 15 sec)
Heartbeat CPU 0 instructions: 153000852 cycles: 173331177 heartbeat IPC: 0.6793 cumulative IPC: 0.6338 (Simulation time: 00 hr 29 min 22 sec)
Heartbeat CPU 0 instructions: 153500857 cycles: 174080574 heartbeat IPC: 0.6672 cumulative IPC: 0.634 (Simulation time: 00 hr 29 min 29 sec)
Heartbeat CPU 0 instructions: 154000859 cycles: 174806295 heartbeat IPC: 0.689 cumulative IPC: 0.6342 (Simulation time: 00 hr 29 min 37 sec)
Heartbeat CPU 0 instructions: 154500860 cycles: 175566718 heartbeat IPC: 0.6575 cumulative IPC: 0.6344 (Simulation time: 00 hr 29 min 44 sec)
Heartbeat CPU 0 instructions: 155000864 cycles: 176298783 heartbeat IPC: 0.683 cumulative IPC: 0.6346 (Simulation time: 00 hr 29 min 51 sec)
Heartbeat CPU 0 instructions: 155500864 cycles: 177047397 heartbeat IPC: 0.6679 cumulative IPC: 0.6347 (Simulation time: 00 hr 29 min 59 sec)
Heartbeat CPU 0 instructions: 156000868 cycles: 177785346 heartbeat IPC: 0.6776 cumulative IPC: 0.6349 (Simulation time: 00 hr 30 min 06 sec)
Heartbeat CPU 0 instructions: 156500873 cycles: 178514930 heartbeat IPC: 0.6853 cumulative IPC: 0.6351 (Simulation time: 00 hr 30 min 13 sec)
Heartbeat CPU 0 instructions: 157000879 cycles: 179218959 heartbeat IPC: 0.7102 cumulative IPC: 0.6354 (Simulation time: 00 hr 30 min 20 sec)
Heartbeat CPU 0 instructions: 157500880 cycles: 179950665 heartbeat IPC: 0.6833 cumulative IPC: 0.6356 (Simulation time: 00 hr 30 min 27 sec)
Heartbeat CPU 0 instructions: 158000885 cycles: 180702424 heartbeat IPC: 0.6651 cumulative IPC: 0.6358 (Simulation time: 00 hr 30 min 35 sec)
Heartbeat CPU 0 instructions: 158500886 cycles: 181447175 heartbeat IPC: 0.6714 cumulative IPC: 0.6359 (Simulation time: 00 hr 30 min 42 sec)
Heartbeat CPU 0 instructions: 159000890 cycles: 182190063 heartbeat IPC: 0.6731 cumulative IPC: 0.6361 (Simulation time: 00 hr 30 min 49 sec)
Heartbeat CPU 0 instructions: 159500890 cycles: 182927829 heartbeat IPC: 0.6777 cumulative IPC: 0.6363 (Simulation time: 00 hr 30 min 57 sec)
Heartbeat CPU 0 instructions: 160000897 cycles: 183664618 heartbeat IPC: 0.6786 cumulative IPC: 0.6365 (Simulation time: 00 hr 31 min 04 sec)
Heartbeat CPU 0 instructions: 160500899 cycles: 184410273 heartbeat IPC: 0.6706 cumulative IPC: 0.6366 (Simulation time: 00 hr 31 min 11 sec)
Heartbeat CPU 0 instructions: 161000904 cycles: 185147148 heartbeat IPC: 0.6785 cumulative IPC: 0.6368 (Simulation time: 00 hr 31 min 18 sec)
Heartbeat CPU 0 instructions: 161500908 cycles: 185875576 heartbeat IPC: 0.6864 cumulative IPC: 0.637 (Simulation time: 00 hr 31 min 25 sec)
Heartbeat CPU 0 instructions: 162000911 cycles: 186619264 heartbeat IPC: 0.6723 cumulative IPC: 0.6371 (Simulation time: 00 hr 31 min 32 sec)
Heartbeat CPU 0 instructions: 162500913 cycles: 187381934 heartbeat IPC: 0.6556 cumulative IPC: 0.6372 (Simulation time: 00 hr 31 min 39 sec)
Heartbeat CPU 0 instructions: 163000919 cycles: 188120879 heartbeat IPC: 0.6766 cumulative IPC: 0.6374 (Simulation time: 00 hr 31 min 47 sec)
Heartbeat CPU 0 instructions: 163500921 cycles: 188869729 heartbeat IPC: 0.6677 cumulative IPC: 0.6375 (Simulation time: 00 hr 31 min 54 sec)
Heartbeat CPU 0 instructions: 164000922 cycles: 189623981 heartbeat IPC: 0.6629 cumulative IPC: 0.6376 (Simulation time: 00 hr 32 min 01 sec)
Heartbeat CPU 0 instructions: 164500922 cycles: 190383208 heartbeat IPC: 0.6586 cumulative IPC: 0.6377 (Simulation time: 00 hr 32 min 08 sec)
Heartbeat CPU 0 instructions: 165000925 cycles: 191131098 heartbeat IPC: 0.6686 cumulative IPC: 0.6378 (Simulation time: 00 hr 32 min 15 sec)
Heartbeat CPU 0 instructions: 165500926 cycles: 191856552 heartbeat IPC: 0.6892 cumulative IPC: 0.638 (Simulation time: 00 hr 32 min 22 sec)
Heartbeat CPU 0 instructions: 166000929 cycles: 192612055 heartbeat IPC: 0.6618 cumulative IPC: 0.6381 (Simulation time: 00 hr 32 min 29 sec)
Heartbeat CPU 0 instructions: 166500930 cycles: 193365125 heartbeat IPC: 0.664 cumulative IPC: 0.6382 (Simulation time: 00 hr 32 min 36 sec)
Heartbeat CPU 0 instructions: 167000937 cycles: 194118715 heartbeat IPC: 0.6635 cumulative IPC: 0.6383 (Simulation time: 00 hr 32 min 43 sec)
Heartbeat CPU 0 instructions: 167500937 cycles: 194897635 heartbeat IPC: 0.6419 cumulative IPC: 0.6384 (Simulation time: 00 hr 32 min 50 sec)
Heartbeat CPU 0 instructions: 168000939 cycles: 195619128 heartbeat IPC: 0.693 cumulative IPC: 0.6386 (Simulation time: 00 hr 32 min 57 sec)
Heartbeat CPU 0 instructions: 168500939 cycles: 196328439 heartbeat IPC: 0.7049 cumulative IPC: 0.6388 (Simulation time: 00 hr 33 min 04 sec)
Heartbeat CPU 0 instructions: 169000939 cycles: 197089892 heartbeat IPC: 0.6566 cumulative IPC: 0.6389 (Simulation time: 00 hr 33 min 11 sec)
Heartbeat CPU 0 instructions: 169500939 cycles: 197821968 heartbeat IPC: 0.683 cumulative IPC: 0.6391 (Simulation time: 00 hr 33 min 18 sec)
Heartbeat CPU 0 instructions: 170000943 cycles: 198550069 heartbeat IPC: 0.6867 cumulative IPC: 0.6393 (Simulation time: 00 hr 33 min 25 sec)
Heartbeat CPU 0 instructions: 170500943 cycles: 199268109 heartbeat IPC: 0.6963 cumulative IPC: 0.6395 (Simulation time: 00 hr 33 min 32 sec)
Heartbeat CPU 0 instructions: 171000944 cycles: 200010420 heartbeat IPC: 0.6736 cumulative IPC: 0.6396 (Simulation time: 00 hr 33 min 39 sec)
Heartbeat CPU 0 instructions: 171500950 cycles: 200756807 heartbeat IPC: 0.6699 cumulative IPC: 0.6397 (Simulation time: 00 hr 33 min 46 sec)
Heartbeat CPU 0 instructions: 172000951 cycles: 201495463 heartbeat IPC: 0.6769 cumulative IPC: 0.6399 (Simulation time: 00 hr 33 min 53 sec)
Heartbeat CPU 0 instructions: 172500951 cycles: 202217483 heartbeat IPC: 0.6925 cumulative IPC: 0.6401 (Simulation time: 00 hr 34 min 00 sec)
Heartbeat CPU 0 instructions: 173000954 cycles: 202951408 heartbeat IPC: 0.6813 cumulative IPC: 0.6402 (Simulation time: 00 hr 34 min 07 sec)
Heartbeat CPU 0 instructions: 173500959 cycles: 203672893 heartbeat IPC: 0.693 cumulative IPC: 0.6404 (Simulation time: 00 hr 34 min 14 sec)
Heartbeat CPU 0 instructions: 174000959 cycles: 204433363 heartbeat IPC: 0.6575 cumulative IPC: 0.6405 (Simulation time: 00 hr 34 min 21 sec)
Heartbeat CPU 0 instructions: 174500959 cycles: 205164566 heartbeat IPC: 0.6838 cumulative IPC: 0.6407 (Simulation time: 00 hr 34 min 28 sec)
Heartbeat CPU 0 instructions: 175000959 cycles: 205896290 heartbeat IPC: 0.6833 cumulative IPC: 0.6408 (Simulation time: 00 hr 34 min 35 sec)
Heartbeat CPU 0 instructions: 175500961 cycles: 206637759 heartbeat IPC: 0.6743 cumulative IPC: 0.6409 (Simulation time: 00 hr 34 min 42 sec)
Heartbeat CPU 0 instructions: 176000961 cycles: 207378023 heartbeat IPC: 0.6754 cumulative IPC: 0.6411 (Simulation time: 00 hr 34 min 49 sec)
Heartbeat CPU 0 instructions: 176500964 cycles: 208107414 heartbeat IPC: 0.6855 cumulative IPC: 0.6412 (Simulation time: 00 hr 34 min 56 sec)
Heartbeat CPU 0 instructions: 177000964 cycles: 208852392 heartbeat IPC: 0.6712 cumulative IPC: 0.6413 (Simulation time: 00 hr 35 min 03 sec)
Heartbeat CPU 0 instructions: 177500964 cycles: 209590308 heartbeat IPC: 0.6776 cumulative IPC: 0.6415 (Simulation time: 00 hr 35 min 10 sec)
Heartbeat CPU 0 instructions: 178000965 cycles: 210354310 heartbeat IPC: 0.6544 cumulative IPC: 0.6415 (Simulation time: 00 hr 35 min 17 sec)
Heartbeat CPU 0 instructions: 178500967 cycles: 211103248 heartbeat IPC: 0.6676 cumulative IPC: 0.6416 (Simulation time: 00 hr 35 min 24 sec)
Heartbeat CPU 0 instructions: 179000973 cycles: 211822480 heartbeat IPC: 0.6952 cumulative IPC: 0.6418 (Simulation time: 00 hr 35 min 31 sec)
Heartbeat CPU 0 instructions: 179500973 cycles: 212567422 heartbeat IPC: 0.6712 cumulative IPC: 0.6419 (Simulation time: 00 hr 35 min 38 sec)
Heartbeat CPU 0 instructions: 180000978 cycles: 213310036 heartbeat IPC: 0.6733 cumulative IPC: 0.642 (Simulation time: 00 hr 35 min 45 sec)
Heartbeat CPU 0 instructions: 180500981 cycles: 214038289 heartbeat IPC: 0.6866 cumulative IPC: 0.6422 (Simulation time: 00 hr 35 min 52 sec)
Heartbeat CPU 0 instructions: 181000987 cycles: 214757089 heartbeat IPC: 0.6956 cumulative IPC: 0.6424 (Simulation time: 00 hr 35 min 59 sec)
Heartbeat CPU 0 instructions: 181500989 cycles: 215479484 heartbeat IPC: 0.6921 cumulative IPC: 0.6426 (Simulation time: 00 hr 36 min 05 sec)
Heartbeat CPU 0 instructions: 182000991 cycles: 216208991 heartbeat IPC: 0.6854 cumulative IPC: 0.6427 (Simulation time: 00 hr 36 min 12 sec)
Heartbeat CPU 0 instructions: 182500996 cycles: 216969022 heartbeat IPC: 0.6579 cumulative IPC: 0.6428 (Simulation time: 00 hr 36 min 19 sec)
Heartbeat CPU 0 instructions: 183000998 cycles: 217712271 heartbeat IPC: 0.6727 cumulative IPC: 0.6429 (Simulation time: 00 hr 36 min 26 sec)
Heartbeat CPU 0 instructions: 183500999 cycles: 218450304 heartbeat IPC: 0.6775 cumulative IPC: 0.643 (Simulation time: 00 hr 36 min 33 sec)
Heartbeat CPU 0 instructions: 184000999 cycles: 219208355 heartbeat IPC: 0.6596 cumulative IPC: 0.6431 (Simulation time: 00 hr 36 min 40 sec)
Heartbeat CPU 0 instructions: 184500999 cycles: 219931550 heartbeat IPC: 0.6914 cumulative IPC: 0.6432 (Simulation time: 00 hr 36 min 47 sec)
Heartbeat CPU 0 instructions: 185001004 cycles: 220664291 heartbeat IPC: 0.6824 cumulative IPC: 0.6434 (Simulation time: 00 hr 36 min 54 sec)
Heartbeat CPU 0 instructions: 185501006 cycles: 221380238 heartbeat IPC: 0.6984 cumulative IPC: 0.6436 (Simulation time: 00 hr 37 min 00 sec)
Heartbeat CPU 0 instructions: 186001013 cycles: 222106068 heartbeat IPC: 0.6889 cumulative IPC: 0.6437 (Simulation time: 00 hr 37 min 07 sec)
Heartbeat CPU 0 instructions: 186501019 cycles: 222877797 heartbeat IPC: 0.6479 cumulative IPC: 0.6437 (Simulation time: 00 hr 37 min 14 sec)
Heartbeat CPU 0 instructions: 187001020 cycles: 223634266 heartbeat IPC: 0.661 cumulative IPC: 0.6438 (Simulation time: 00 hr 37 min 21 sec)
Heartbeat CPU 0 instructions: 187501024 cycles: 224384671 heartbeat IPC: 0.6663 cumulative IPC: 0.6439 (Simulation time: 00 hr 37 min 28 sec)
Heartbeat CPU 0 instructions: 188001027 cycles: 225131091 heartbeat IPC: 0.6699 cumulative IPC: 0.644 (Simulation time: 00 hr 37 min 35 sec)
Heartbeat CPU 0 instructions: 188501029 cycles: 225849884 heartbeat IPC: 0.6956 cumulative IPC: 0.6441 (Simulation time: 00 hr 37 min 42 sec)
Heartbeat CPU 0 instructions: 189001032 cycles: 226603001 heartbeat IPC: 0.6639 cumulative IPC: 0.6442 (Simulation time: 00 hr 37 min 49 sec)
Heartbeat CPU 0 instructions: 189501033 cycles: 227341702 heartbeat IPC: 0.6769 cumulative IPC: 0.6443 (Simulation time: 00 hr 37 min 56 sec)
Heartbeat CPU 0 instructions: 190001033 cycles: 228076229 heartbeat IPC: 0.6807 cumulative IPC: 0.6444 (Simulation time: 00 hr 38 min 03 sec)
Heartbeat CPU 0 instructions: 190501039 cycles: 228806608 heartbeat IPC: 0.6846 cumulative IPC: 0.6446 (Simulation time: 00 hr 38 min 09 sec)
Heartbeat CPU 0 instructions: 191001040 cycles: 229533210 heartbeat IPC: 0.6881 cumulative IPC: 0.6447 (Simulation time: 00 hr 38 min 16 sec)
Heartbeat CPU 0 instructions: 191501043 cycles: 230274536 heartbeat IPC: 0.6745 cumulative IPC: 0.6448 (Simulation time: 00 hr 38 min 23 sec)
Heartbeat CPU 0 instructions: 192001045 cycles: 231081720 heartbeat IPC: 0.6194 cumulative IPC: 0.6447 (Simulation time: 00 hr 38 min 30 sec)
Heartbeat CPU 0 instructions: 192501046 cycles: 231843060 heartbeat IPC: 0.6567 cumulative IPC: 0.6448 (Simulation time: 00 hr 38 min 37 sec)
Heartbeat CPU 0 instructions: 193001048 cycles: 232567428 heartbeat IPC: 0.6903 cumulative IPC: 0.6449 (Simulation time: 00 hr 38 min 44 sec)
Heartbeat CPU 0 instructions: 193501048 cycles: 233284498 heartbeat IPC: 0.6973 cumulative IPC: 0.6451 (Simulation time: 00 hr 38 min 51 sec)
Heartbeat CPU 0 instructions: 194001052 cycles: 234002352 heartbeat IPC: 0.6965 cumulative IPC: 0.6452 (Simulation time: 00 hr 38 min 57 sec)
Heartbeat CPU 0 instructions: 194501056 cycles: 234735106 heartbeat IPC: 0.6824 cumulative IPC: 0.6454 (Simulation time: 00 hr 39 min 04 sec)
Heartbeat CPU 0 instructions: 195001061 cycles: 235458075 heartbeat IPC: 0.6916 cumulative IPC: 0.6455 (Simulation time: 00 hr 39 min 11 sec)
Heartbeat CPU 0 instructions: 195501063 cycles: 236201828 heartbeat IPC: 0.6723 cumulative IPC: 0.6456 (Simulation time: 00 hr 39 min 18 sec)
Heartbeat CPU 0 instructions: 196001064 cycles: 236936236 heartbeat IPC: 0.6808 cumulative IPC: 0.6457 (Simulation time: 00 hr 39 min 24 sec)
Heartbeat CPU 0 instructions: 196501064 cycles: 237673851 heartbeat IPC: 0.6779 cumulative IPC: 0.6458 (Simulation time: 00 hr 39 min 31 sec)
Heartbeat CPU 0 instructions: 197001068 cycles: 238404027 heartbeat IPC: 0.6848 cumulative IPC: 0.646 (Simulation time: 00 hr 39 min 38 sec)
Heartbeat CPU 0 instructions: 197501074 cycles: 239142679 heartbeat IPC: 0.6769 cumulative IPC: 0.6461 (Simulation time: 00 hr 39 min 45 sec)
Heartbeat CPU 0 instructions: 198001074 cycles: 239875118 heartbeat IPC: 0.6827 cumulative IPC: 0.6462 (Simulation time: 00 hr 39 min 51 sec)
Heartbeat CPU 0 instructions: 198501074 cycles: 240620580 heartbeat IPC: 0.6707 cumulative IPC: 0.6462 (Simulation time: 00 hr 39 min 58 sec)
Heartbeat CPU 0 instructions: 199001078 cycles: 241351845 heartbeat IPC: 0.6838 cumulative IPC: 0.6464 (Simulation time: 00 hr 40 min 05 sec)
Heartbeat CPU 0 instructions: 199501078 cycles: 242105847 heartbeat IPC: 0.6631 cumulative IPC: 0.6464 (Simulation time: 00 hr 40 min 12 sec)
Heartbeat CPU 0 instructions: 200001079 cycles: 242849286 heartbeat IPC: 0.6726 cumulative IPC: 0.6465 (Simulation time: 00 hr 40 min 18 sec)
Heartbeat CPU 0 instructions: 200501081 cycles: 243581625 heartbeat IPC: 0.6827 cumulative IPC: 0.6466 (Simulation time: 00 hr 40 min 25 sec)
Heartbeat CPU 0 instructions: 201001085 cycles: 244283437 heartbeat IPC: 0.7124 cumulative IPC: 0.6468 (Simulation time: 00 hr 40 min 31 sec)
Heartbeat CPU 0 instructions: 201501086 cycles: 245037530 heartbeat IPC: 0.663 cumulative IPC: 0.6469 (Simulation time: 00 hr 40 min 38 sec)
Heartbeat CPU 0 instructions: 202001088 cycles: 245754551 heartbeat IPC: 0.6973 cumulative IPC: 0.647 (Simulation time: 00 hr 40 min 45 sec)
Heartbeat CPU 0 instructions: 202501094 cycles: 246471424 heartbeat IPC: 0.6975 cumulative IPC: 0.6472 (Simulation time: 00 hr 40 min 52 sec)
Heartbeat CPU 0 instructions: 203001097 cycles: 247208157 heartbeat IPC: 0.6787 cumulative IPC: 0.6473 (Simulation time: 00 hr 40 min 58 sec)
Heartbeat CPU 0 instructions: 203501099 cycles: 247928421 heartbeat IPC: 0.6942 cumulative IPC: 0.6474 (Simulation time: 00 hr 41 min 05 sec)
Heartbeat CPU 0 instructions: 204001099 cycles: 248636468 heartbeat IPC: 0.7062 cumulative IPC: 0.6476 (Simulation time: 00 hr 41 min 11 sec)
Heartbeat CPU 0 instructions: 204501105 cycles: 249368855 heartbeat IPC: 0.6827 cumulative IPC: 0.6477 (Simulation time: 00 hr 41 min 18 sec)
Heartbeat CPU 0 instructions: 205001112 cycles: 250095319 heartbeat IPC: 0.6883 cumulative IPC: 0.6478 (Simulation time: 00 hr 41 min 25 sec)
Heartbeat CPU 0 instructions: 205501112 cycles: 250811738 heartbeat IPC: 0.6979 cumulative IPC: 0.648 (Simulation time: 00 hr 41 min 31 sec)
Heartbeat CPU 0 instructions: 206001118 cycles: 251527446 heartbeat IPC: 0.6986 cumulative IPC: 0.6481 (Simulation time: 00 hr 41 min 37 sec)
Heartbeat CPU 0 instructions: 206501122 cycles: 252234889 heartbeat IPC: 0.7068 cumulative IPC: 0.6483 (Simulation time: 00 hr 41 min 44 sec)
Heartbeat CPU 0 instructions: 207001122 cycles: 252964357 heartbeat IPC: 0.6854 cumulative IPC: 0.6484 (Simulation time: 00 hr 41 min 50 sec)
Heartbeat CPU 0 instructions: 207501129 cycles: 253684173 heartbeat IPC: 0.6946 cumulative IPC: 0.6485 (Simulation time: 00 hr 41 min 57 sec)
Heartbeat CPU 0 instructions: 208001130 cycles: 254416286 heartbeat IPC: 0.683 cumulative IPC: 0.6486 (Simulation time: 00 hr 42 min 04 sec)
Heartbeat CPU 0 instructions: 208501132 cycles: 255109771 heartbeat IPC: 0.721 cumulative IPC: 0.6489 (Simulation time: 00 hr 42 min 10 sec)
Heartbeat CPU 0 instructions: 209001132 cycles: 255861045 heartbeat IPC: 0.6655 cumulative IPC: 0.6489 (Simulation time: 00 hr 42 min 17 sec)
Heartbeat CPU 0 instructions: 209501134 cycles: 256566741 heartbeat IPC: 0.7085 cumulative IPC: 0.6491 (Simulation time: 00 hr 42 min 24 sec)
Heartbeat CPU 0 instructions: 210001137 cycles: 257279431 heartbeat IPC: 0.7016 cumulative IPC: 0.6492 (Simulation time: 00 hr 42 min 30 sec)
Heartbeat CPU 0 instructions: 210501144 cycles: 258005718 heartbeat IPC: 0.6884 cumulative IPC: 0.6493 (Simulation time: 00 hr 42 min 36 sec)
Heartbeat CPU 0 instructions: 211001147 cycles: 258765705 heartbeat IPC: 0.6579 cumulative IPC: 0.6494 (Simulation time: 00 hr 42 min 43 sec)
Heartbeat CPU 0 instructions: 211501147 cycles: 259483899 heartbeat IPC: 0.6962 cumulative IPC: 0.6495 (Simulation time: 00 hr 42 min 49 sec)
Heartbeat CPU 0 instructions: 212001154 cycles: 260216590 heartbeat IPC: 0.6824 cumulative IPC: 0.6496 (Simulation time: 00 hr 42 min 56 sec)
Heartbeat CPU 0 instructions: 212501158 cycles: 260941334 heartbeat IPC: 0.6899 cumulative IPC: 0.6497 (Simulation time: 00 hr 43 min 03 sec)
Heartbeat CPU 0 instructions: 213001162 cycles: 261655140 heartbeat IPC: 0.7005 cumulative IPC: 0.6499 (Simulation time: 00 hr 43 min 09 sec)
Heartbeat CPU 0 instructions: 213501166 cycles: 262377768 heartbeat IPC: 0.6919 cumulative IPC: 0.65 (Simulation time: 00 hr 43 min 15 sec)
Heartbeat CPU 0 instructions: 214001170 cycles: 263090108 heartbeat IPC: 0.7019 cumulative IPC: 0.6501 (Simulation time: 00 hr 43 min 22 sec)
Heartbeat CPU 0 instructions: 214501174 cycles: 263807264 heartbeat IPC: 0.6972 cumulative IPC: 0.6503 (Simulation time: 00 hr 43 min 28 sec)
Heartbeat CPU 0 instructions: 215001176 cycles: 264536408 heartbeat IPC: 0.6857 cumulative IPC: 0.6504 (Simulation time: 00 hr 43 min 35 sec)
Heartbeat CPU 0 instructions: 215501179 cycles: 265260752 heartbeat IPC: 0.6903 cumulative IPC: 0.6505 (Simulation time: 00 hr 43 min 41 sec)
Heartbeat CPU 0 instructions: 216001184 cycles: 265978800 heartbeat IPC: 0.6963 cumulative IPC: 0.6506 (Simulation time: 00 hr 43 min 48 sec)
Heartbeat CPU 0 instructions: 216501188 cycles: 266701992 heartbeat IPC: 0.6914 cumulative IPC: 0.6507 (Simulation time: 00 hr 43 min 54 sec)
Heartbeat CPU 0 instructions: 217001188 cycles: 267455408 heartbeat IPC: 0.6636 cumulative IPC: 0.6508 (Simulation time: 00 hr 44 min 01 sec)
Heartbeat CPU 0 instructions: 217501192 cycles: 268162645 heartbeat IPC: 0.707 cumulative IPC: 0.6509 (Simulation time: 00 hr 44 min 07 sec)
Heartbeat CPU 0 instructions: 218001193 cycles: 268894274 heartbeat IPC: 0.6834 cumulative IPC: 0.651 (Simulation time: 00 hr 44 min 14 sec)
Heartbeat CPU 0 instructions: 218501193 cycles: 269628324 heartbeat IPC: 0.6812 cumulative IPC: 0.6511 (Simulation time: 00 hr 44 min 20 sec)
Heartbeat CPU 0 instructions: 219001194 cycles: 270392237 heartbeat IPC: 0.6545 cumulative IPC: 0.6511 (Simulation time: 00 hr 44 min 27 sec)
Heartbeat CPU 0 instructions: 219501194 cycles: 271147507 heartbeat IPC: 0.662 cumulative IPC: 0.6511 (Simulation time: 00 hr 44 min 34 sec)
Heartbeat CPU 0 instructions: 220001195 cycles: 271881771 heartbeat IPC: 0.681 cumulative IPC: 0.6512 (Simulation time: 00 hr 44 min 40 sec)
Heartbeat CPU 0 instructions: 220501196 cycles: 272631183 heartbeat IPC: 0.6672 cumulative IPC: 0.6513 (Simulation time: 00 hr 44 min 47 sec)
Heartbeat CPU 0 instructions: 221001196 cycles: 273341487 heartbeat IPC: 0.7039 cumulative IPC: 0.6514 (Simulation time: 00 hr 44 min 53 sec)
Heartbeat CPU 0 instructions: 221501198 cycles: 274058652 heartbeat IPC: 0.6972 cumulative IPC: 0.6515 (Simulation time: 00 hr 44 min 59 sec)
Heartbeat CPU 0 instructions: 222001202 cycles: 274787038 heartbeat IPC: 0.6865 cumulative IPC: 0.6516 (Simulation time: 00 hr 45 min 06 sec)
Heartbeat CPU 0 instructions: 222501207 cycles: 275520380 heartbeat IPC: 0.6818 cumulative IPC: 0.6517 (Simulation time: 00 hr 45 min 12 sec)
Heartbeat CPU 0 instructions: 223001212 cycles: 276259146 heartbeat IPC: 0.6768 cumulative IPC: 0.6518 (Simulation time: 00 hr 45 min 19 sec)
Heartbeat CPU 0 instructions: 223501217 cycles: 276975704 heartbeat IPC: 0.6978 cumulative IPC: 0.6519 (Simulation time: 00 hr 45 min 25 sec)
Heartbeat CPU 0 instructions: 224001224 cycles: 277678380 heartbeat IPC: 0.7116 cumulative IPC: 0.6521 (Simulation time: 00 hr 45 min 31 sec)
Heartbeat CPU 0 instructions: 224501230 cycles: 278398736 heartbeat IPC: 0.6941 cumulative IPC: 0.6522 (Simulation time: 00 hr 45 min 38 sec)
Heartbeat CPU 0 instructions: 225001233 cycles: 279122057 heartbeat IPC: 0.6913 cumulative IPC: 0.6523 (Simulation time: 00 hr 45 min 44 sec)
Heartbeat CPU 0 instructions: 225501240 cycles: 279855440 heartbeat IPC: 0.6818 cumulative IPC: 0.6524 (Simulation time: 00 hr 45 min 50 sec)
Heartbeat CPU 0 instructions: 226001240 cycles: 280558606 heartbeat IPC: 0.7111 cumulative IPC: 0.6525 (Simulation time: 00 hr 45 min 56 sec)
Heartbeat CPU 0 instructions: 226501244 cycles: 281268598 heartbeat IPC: 0.7042 cumulative IPC: 0.6526 (Simulation time: 00 hr 46 min 02 sec)
Heartbeat CPU 0 instructions: 227001248 cycles: 281977188 heartbeat IPC: 0.7056 cumulative IPC: 0.6528 (Simulation time: 00 hr 46 min 09 sec)
Heartbeat CPU 0 instructions: 227501249 cycles: 282688079 heartbeat IPC: 0.7033 cumulative IPC: 0.6529 (Simulation time: 00 hr 46 min 15 sec)
Heartbeat CPU 0 instructions: 228001250 cycles: 283417387 heartbeat IPC: 0.6856 cumulative IPC: 0.653 (Simulation time: 00 hr 46 min 21 sec)
Heartbeat CPU 0 instructions: 228501252 cycles: 284136320 heartbeat IPC: 0.6955 cumulative IPC: 0.6531 (Simulation time: 00 hr 46 min 27 sec)
Heartbeat CPU 0 instructions: 229001254 cycles: 284850007 heartbeat IPC: 0.7006 cumulative IPC: 0.6532 (Simulation time: 00 hr 46 min 33 sec)
Heartbeat CPU 0 instructions: 229501260 cycles: 285575325 heartbeat IPC: 0.6894 cumulative IPC: 0.6533 (Simulation time: 00 hr 46 min 39 sec)
Heartbeat CPU 0 instructions: 230001262 cycles: 286300605 heartbeat IPC: 0.6894 cumulative IPC: 0.6534 (Simulation time: 00 hr 46 min 45 sec)
Heartbeat CPU 0 instructions: 230501264 cycles: 287055774 heartbeat IPC: 0.6621 cumulative IPC: 0.6535 (Simulation time: 00 hr 46 min 52 sec)
Heartbeat CPU 0 instructions: 231001268 cycles: 287792182 heartbeat IPC: 0.679 cumulative IPC: 0.6535 (Simulation time: 00 hr 46 min 58 sec)
Heartbeat CPU 0 instructions: 231501270 cycles: 288504056 heartbeat IPC: 0.7024 cumulative IPC: 0.6537 (Simulation time: 00 hr 47 min 04 sec)
Heartbeat CPU 0 instructions: 232001275 cycles: 289229116 heartbeat IPC: 0.6896 cumulative IPC: 0.6537 (Simulation time: 00 hr 47 min 11 sec)
Heartbeat CPU 0 instructions: 232501278 cycles: 289970805 heartbeat IPC: 0.6741 cumulative IPC: 0.6538 (Simulation time: 00 hr 47 min 17 sec)
Heartbeat CPU 0 instructions: 233001282 cycles: 290709663 heartbeat IPC: 0.6767 cumulative IPC: 0.6539 (Simulation time: 00 hr 47 min 23 sec)
Heartbeat CPU 0 instructions: 233501284 cycles: 291435124 heartbeat IPC: 0.6892 cumulative IPC: 0.6539 (Simulation time: 00 hr 47 min 30 sec)
Heartbeat CPU 0 instructions: 234001285 cycles: 292212041 heartbeat IPC: 0.6436 cumulative IPC: 0.6539 (Simulation time: 00 hr 47 min 37 sec)
Heartbeat CPU 0 instructions: 234501287 cycles: 292979112 heartbeat IPC: 0.6518 cumulative IPC: 0.6539 (Simulation time: 00 hr 47 min 43 sec)
Heartbeat CPU 0 instructions: 235001292 cycles: 293732958 heartbeat IPC: 0.6633 cumulative IPC: 0.6539 (Simulation time: 00 hr 47 min 50 sec)
Heartbeat CPU 0 instructions: 235501298 cycles: 294462113 heartbeat IPC: 0.6857 cumulative IPC: 0.654 (Simulation time: 00 hr 47 min 56 sec)
Heartbeat CPU 0 instructions: 236001298 cycles: 295198841 heartbeat IPC: 0.6787 cumulative IPC: 0.6541 (Simulation time: 00 hr 48 min 02 sec)
Heartbeat CPU 0 instructions: 236501299 cycles: 295933750 heartbeat IPC: 0.6804 cumulative IPC: 0.6542 (Simulation time: 00 hr 48 min 09 sec)
Heartbeat CPU 0 instructions: 237001300 cycles: 296639310 heartbeat IPC: 0.7087 cumulative IPC: 0.6543 (Simulation time: 00 hr 48 min 15 sec)
Heartbeat CPU 0 instructions: 237501301 cycles: 297386703 heartbeat IPC: 0.669 cumulative IPC: 0.6543 (Simulation time: 00 hr 48 min 21 sec)
Heartbeat CPU 0 instructions: 238001305 cycles: 298128482 heartbeat IPC: 0.6741 cumulative IPC: 0.6544 (Simulation time: 00 hr 48 min 28 sec)
Heartbeat CPU 0 instructions: 238501309 cycles: 298857428 heartbeat IPC: 0.6859 cumulative IPC: 0.6545 (Simulation time: 00 hr 48 min 34 sec)
Heartbeat CPU 0 instructions: 239001312 cycles: 299589446 heartbeat IPC: 0.683 cumulative IPC: 0.6545 (Simulation time: 00 hr 48 min 40 sec)
Heartbeat CPU 0 instructions: 239501317 cycles: 300318823 heartbeat IPC: 0.6855 cumulative IPC: 0.6546 (Simulation time: 00 hr 48 min 46 sec)
Heartbeat CPU 0 instructions: 240001317 cycles: 301041234 heartbeat IPC: 0.6921 cumulative IPC: 0.6547 (Simulation time: 00 hr 48 min 52 sec)
Heartbeat CPU 0 instructions: 240501319 cycles: 301773400 heartbeat IPC: 0.6829 cumulative IPC: 0.6548 (Simulation time: 00 hr 48 min 59 sec)
Heartbeat CPU 0 instructions: 241001319 cycles: 302535751 heartbeat IPC: 0.6559 cumulative IPC: 0.6548 (Simulation time: 00 hr 49 min 05 sec)
Heartbeat CPU 0 instructions: 241501321 cycles: 303273199 heartbeat IPC: 0.678 cumulative IPC: 0.6548 (Simulation time: 00 hr 49 min 11 sec)
Heartbeat CPU 0 instructions: 242001325 cycles: 303999765 heartbeat IPC: 0.6882 cumulative IPC: 0.6549 (Simulation time: 00 hr 49 min 17 sec)
Heartbeat CPU 0 instructions: 242501327 cycles: 304713938 heartbeat IPC: 0.7001 cumulative IPC: 0.655 (Simulation time: 00 hr 49 min 23 sec)
Heartbeat CPU 0 instructions: 243001330 cycles: 305434822 heartbeat IPC: 0.6936 cumulative IPC: 0.6551 (Simulation time: 00 hr 49 min 29 sec)
Heartbeat CPU 0 instructions: 243501337 cycles: 306142649 heartbeat IPC: 0.7064 cumulative IPC: 0.6552 (Simulation time: 00 hr 49 min 36 sec)
Heartbeat CPU 0 instructions: 244001343 cycles: 306881822 heartbeat IPC: 0.6764 cumulative IPC: 0.6553 (Simulation time: 00 hr 49 min 42 sec)
Heartbeat CPU 0 instructions: 244501347 cycles: 307601331 heartbeat IPC: 0.6949 cumulative IPC: 0.6554 (Simulation time: 00 hr 49 min 48 sec)
Heartbeat CPU 0 instructions: 245001348 cycles: 308344075 heartbeat IPC: 0.6732 cumulative IPC: 0.6554 (Simulation time: 00 hr 49 min 54 sec)
Heartbeat CPU 0 instructions: 245501352 cycles: 309061646 heartbeat IPC: 0.6968 cumulative IPC: 0.6555 (Simulation time: 00 hr 50 min 00 sec)
Heartbeat CPU 0 instructions: 246001352 cycles: 309774490 heartbeat IPC: 0.7014 cumulative IPC: 0.6556 (Simulation time: 00 hr 50 min 06 sec)
Heartbeat CPU 0 instructions: 246501356 cycles: 310501536 heartbeat IPC: 0.6877 cumulative IPC: 0.6557 (Simulation time: 00 hr 50 min 12 sec)
Heartbeat CPU 0 instructions: 247001358 cycles: 311230168 heartbeat IPC: 0.6862 cumulative IPC: 0.6558 (Simulation time: 00 hr 50 min 18 sec)
Heartbeat CPU 0 instructions: 247501360 cycles: 311968567 heartbeat IPC: 0.6771 cumulative IPC: 0.6559 (Simulation time: 00 hr 50 min 24 sec)
Heartbeat CPU 0 instructions: 248001360 cycles: 312684020 heartbeat IPC: 0.6989 cumulative IPC: 0.656 (Simulation time: 00 hr 50 min 30 sec)
Heartbeat CPU 0 instructions: 248501367 cycles: 313423819 heartbeat IPC: 0.6759 cumulative IPC: 0.656 (Simulation time: 00 hr 50 min 37 sec)
Heartbeat CPU 0 instructions: 249001368 cycles: 314175363 heartbeat IPC: 0.6653 cumulative IPC: 0.656 (Simulation time: 00 hr 50 min 43 sec)
Heartbeat CPU 0 instructions: 249501373 cycles: 314916112 heartbeat IPC: 0.675 cumulative IPC: 0.6561 (Simulation time: 00 hr 50 min 50 sec)
Simulation finished CPU 0 instructions: 200000007 cycles: 304809058 cumulative IPC: 0.6561 (Simulation time: 00 hr 50 min 56 sec)
Simulation complete CPU 0 instructions: 200000007 cycles: 304809058 cumulative IPC: 0.6561 (Simulation time: 00 hr 50 min 56 sec)

ChampSim completed all CPUs

=== Simulation ===
CPU 0 runs /local-ssd/ben/dpc4-traces/Graph/GAP/sssp-14.trace.gz

Region of Interest Statistics

CPU 0 cumulative IPC: 0.6561 instructions: 200000007 cycles: 304809058
CPU 0 Branch Prediction Accuracy: 97.77% MPKI: 3.312 Average ROB Occupancy at Mispredict: 170.5
Branch type MPKI
BRANCH_DIRECT_JUMP: 5e-06
BRANCH_INDIRECT: 0
BRANCH_CONDITIONAL: 3.312
BRANCH_DIRECT_CALL: 0
BRANCH_INDIRECT_CALL: 0
BRANCH_RETURN: 0

cpu0->cpu0_STLB TOTAL        ACCESS:    4656990 HIT:    4595969 MISS:      61021 MSHR_MERGE:          0
cpu0->cpu0_STLB LOAD         ACCESS:    4656990 HIT:    4595969 MISS:      61021 MSHR_MERGE:          0
cpu0->cpu0_STLB RFO          ACCESS:          0 HIT:          0 MISS:          0 MSHR_MERGE:          0
cpu0->cpu0_STLB PREFETCH     ACCESS:          0 HIT:          0 MISS:          0 MSHR_MERGE:          0
cpu0->cpu0_STLB WRITE        ACCESS:          0 HIT:          0 MISS:          0 MSHR_MERGE:          0
cpu0->cpu0_STLB TRANSLATION  ACCESS:          0 HIT:          0 MISS:          0 MSHR_MERGE:          0
cpu0->cpu0_STLB PREFETCH REQUESTED:          0 ISSUED:          0 USEFUL:          0 USELESS:          0
cpu0->cpu0_STLB AVERAGE MISS LATENCY: 264.6 cycles
cpu0->cpu0_L2C TOTAL        ACCESS:   27411471 HIT:   15709884 MISS:   11701587 MSHR_MERGE:    4724610
cpu0->cpu0_L2C LOAD         ACCESS:    9060691 HIT:    5753224 MISS:    3307467 MSHR_MERGE:      20118
cpu0->cpu0_L2C RFO          ACCESS:     534327 HIT:     429811 MISS:     104516 MSHR_MERGE:          0
cpu0->cpu0_L2C PREFETCH     ACCESS:   16333802 HIT:    8080128 MISS:    8253674 MSHR_MERGE:    4704492
cpu0->cpu0_L2C WRITE        ACCESS:    1426149 HIT:    1426037 MISS:        112 MSHR_MERGE:          0
cpu0->cpu0_L2C TRANSLATION  ACCESS:      56502 HIT:      20684 MISS:      35818 MSHR_MERGE:          0
cpu0->cpu0_L2C PREFETCH REQUESTED:   12517239 ISSUED:   12517093 USEFUL:     317021 USELESS:      70059
cpu0->cpu0_L2C AVERAGE MISS LATENCY: 141.3 cycles
cpu0->cpu0_L1I TOTAL        ACCESS:   17565264 HIT:   17565264 MISS:          0 MSHR_MERGE:          0
cpu0->cpu0_L1I LOAD         ACCESS:   17565264 HIT:   17565264 MISS:          0 MSHR_MERGE:          0
cpu0->cpu0_L1I RFO          ACCESS:          0 HIT:          0 MISS:          0 MSHR_MERGE:          0
cpu0->cpu0_L1I PREFETCH     ACCESS:          0 HIT:          0 MISS:          0 MSHR_MERGE:          0
cpu0->cpu0_L1I WRITE        ACCESS:          0 HIT:          0 MISS:          0 MSHR_MERGE:          0
cpu0->cpu0_L1I TRANSLATION  ACCESS:          0 HIT:          0 MISS:          0 MSHR_MERGE:          0
cpu0->cpu0_L1I PREFETCH REQUESTED:          0 ISSUED:          0 USEFUL:          0 USELESS:          0
cpu0->cpu0_L1I AVERAGE MISS LATENCY: - cycles
cpu0->cpu0_L1D TOTAL        ACCESS:   56070762 HIT:   41498720 MISS:   14572042 MSHR_MERGE:    1103809
cpu0->cpu0_L1D LOAD         ACCESS:   49262320 HIT:   39371404 MISS:    9890916 MSHR_MERGE:     830223
cpu0->cpu0_L1D RFO          ACCESS:          0 HIT:          0 MISS:          0 MSHR_MERGE:          0
cpu0->cpu0_L1D PREFETCH     ACCESS:    4445757 HIT:     538657 MISS:    3907100 MSHR_MERGE:      90392
cpu0->cpu0_L1D WRITE        ACCESS:    2230154 HIT:    1512837 MISS:     717317 MSHR_MERGE:     182987
cpu0->cpu0_L1D TRANSLATION  ACCESS:     132531 HIT:      75822 MISS:      56709 MSHR_MERGE:        207
cpu0->cpu0_L1D PREFETCH REQUESTED:    4481901 ISSUED:    4445749 USEFUL:    1332889 USELESS:    2483796
cpu0->cpu0_L1D AVERAGE MISS LATENCY: 59.5 cycles
cpu0->cpu0_ITLB TOTAL        ACCESS:   17560571 HIT:   17560571 MISS:          0 MSHR_MERGE:          0
cpu0->cpu0_ITLB LOAD         ACCESS:   17560571 HIT:   17560571 MISS:          0 MSHR_MERGE:          0
cpu0->cpu0_ITLB RFO          ACCESS:          0 HIT:          0 MISS:          0 MSHR_MERGE:          0
cpu0->cpu0_ITLB PREFETCH     ACCESS:          0 HIT:          0 MISS:          0 MSHR_MERGE:          0
cpu0->cpu0_ITLB WRITE        ACCESS:          0 HIT:          0 MISS:          0 MSHR_MERGE:          0
cpu0->cpu0_ITLB TRANSLATION  ACCESS:          0 HIT:          0 MISS:          0 MSHR_MERGE:          0
cpu0->cpu0_ITLB PREFETCH REQUESTED:          0 ISSUED:          0 USEFUL:          0 USELESS:          0
cpu0->cpu0_ITLB AVERAGE MISS LATENCY: - cycles
cpu0->cpu0_DTLB TOTAL        ACCESS:   54290550 HIT:   48197218 MISS:    6093332 MSHR_MERGE:    1436342
cpu0->cpu0_DTLB LOAD         ACCESS:   54290550 HIT:   48197218 MISS:    6093332 MSHR_MERGE:    1436342
cpu0->cpu0_DTLB RFO          ACCESS:          0 HIT:          0 MISS:          0 MSHR_MERGE:          0
cpu0->cpu0_DTLB PREFETCH     ACCESS:          0 HIT:          0 MISS:          0 MSHR_MERGE:          0
cpu0->cpu0_DTLB WRITE        ACCESS:          0 HIT:          0 MISS:          0 MSHR_MERGE:          0
cpu0->cpu0_DTLB TRANSLATION  ACCESS:          0 HIT:          0 MISS:          0 MSHR_MERGE:          0
cpu0->cpu0_DTLB PREFETCH REQUESTED:          0 ISSUED:          0 USEFUL:          0 USELESS:          0
cpu0->cpu0_DTLB AVERAGE MISS LATENCY: 8.489 cycles
cpu0->LLC TOTAL        ACCESS:   14038500 HIT:    6739457 MISS:    7299043 MSHR_MERGE:     329391
cpu0->LLC LOAD         ACCESS:    3287348 HIT:    1703047 MISS:    1584301 MSHR_MERGE:      35018
cpu0->LLC RFO          ACCESS:     104516 HIT:       9977 MISS:      94539 MSHR_MERGE:          0
cpu0->LLC PREFETCH     ACCESS:    9886182 HIT:    4695316 MISS:    5190866 MSHR_MERGE:     294373
cpu0->LLC WRITE        ACCESS:     724636 HIT:     330995 MISS:     393641 MSHR_MERGE:          0
cpu0->LLC TRANSLATION  ACCESS:      35818 HIT:        122 MISS:      35696 MSHR_MERGE:          0
cpu0->LLC PREFETCH REQUESTED:    6378174 ISSUED:    6337008 USEFUL:    1058846 USELESS:    2512200
cpu0->LLC AVERAGE MISS LATENCY: 196.2 cycles

DRAM Statistics

Channel 0 RQ ROW_BUFFER_HIT:     161709
  ROW_BUFFER_MISS:    6408693
  AVG DBUS CONGESTED CYCLE: 15.24
Channel 0 WQ ROW_BUFFER_HIT:     154081
  ROW_BUFFER_MISS:     403278
  FULL:          0
Channel 0 REFRESHES ISSUED:      25399
