[VMEM] WARNING: physical memory size is smaller than virtual memory size.

*** ChampSim Multicore Out-of-Order Simulator ***
Warmup Instructions: 50000000
Simulation Instructions: 200000000
Number of CPUs: 1
Page size: 4096
Core 0: /local-ssd/ben/dpc4-traces/gtraces_v2/charlie_0004.champsim.gz
Initialize SIGNATURE TABLE
ST_SET: 1
ST_WAY: 256
ST_TAG_BIT: 16

Initialize PATTERN TABLE
PT_SET: 512
PT_WAY: 4
SIG_DELTA_BIT: 7
C_SIG_BIT: 4
C_DELTA_BIT: 4

Initialize PREFETCH FILTER
FILTER_SET: 1024
 L1D Berti prefetcher
Off-chip DRAM Size: 64 GiB Channels: 1 Width: 64-bit Data Rate: 4807 MT/s
[BTB] WARNING: target of return is a lower address than the corresponding call. This is usually a problem with your trace.
[BTB] WARNING: target of return is a lower address than the corresponding call. This is usually a problem with your trace.
[BTB] WARNING: target of return is a lower address than the corresponding call. This is usually a problem with your trace.
[BTB] WARNING: target of return is a lower address than the corresponding call. This is usually a problem with your trace.
[BTB] WARNING: target of return is a lower address than the corresponding call. This is usually a problem with your trace.
[BTB] WARNING: target of return is a lower address than the corresponding call. This is usually a problem with your trace.
[BTB] WARNING: target of return is a lower address than the corresponding call. This is usually a problem with your trace.
[BTB] WARNING: target of return is a lower address than the corresponding call. This is usually a problem with your trace.
[BTB] WARNING: target of return is a lower address than the corresponding call. This is usually a problem with your trace.
[BTB] WARNING: target of return is a lower address than the corresponding call. This is usually a problem with your trace.
Heartbeat CPU 0 instructions: 500006 cycles: 216601 heartbeat IPC: 2.308 cumulative IPC: 2.308 (Simulation time: 00 hr 00 min 06 sec)
Heartbeat CPU 0 instructions: 1000009 cycles: 327641 heartbeat IPC: 4.503 cumulative IPC: 3.052 (Simulation time: 00 hr 00 min 09 sec)
Heartbeat CPU 0 instructions: 1500015 cycles: 500897 heartbeat IPC: 2.886 cumulative IPC: 2.995 (Simulation time: 00 hr 00 min 13 sec)
Heartbeat CPU 0 instructions: 2000021 cycles: 619557 heartbeat IPC: 4.214 cumulative IPC: 3.228 (Simulation time: 00 hr 00 min 16 sec)
Heartbeat CPU 0 instructions: 2500024 cycles: 726418 heartbeat IPC: 4.679 cumulative IPC: 3.442 (Simulation time: 00 hr 00 min 19 sec)
Heartbeat CPU 0 instructions: 3000024 cycles: 836688 heartbeat IPC: 4.534 cumulative IPC: 3.586 (Simulation time: 00 hr 00 min 22 sec)
Heartbeat CPU 0 instructions: 3500026 cycles: 943333 heartbeat IPC: 4.688 cumulative IPC: 3.71 (Simulation time: 00 hr 00 min 24 sec)
Heartbeat CPU 0 instructions: 4000032 cycles: 1053106 heartbeat IPC: 4.555 cumulative IPC: 3.798 (Simulation time: 00 hr 00 min 27 sec)
Heartbeat CPU 0 instructions: 4500039 cycles: 1157815 heartbeat IPC: 4.775 cumulative IPC: 3.887 (Simulation time: 00 hr 00 min 29 sec)
Heartbeat CPU 0 instructions: 5000039 cycles: 1262808 heartbeat IPC: 4.762 cumulative IPC: 3.959 (Simulation time: 00 hr 00 min 31 sec)
Heartbeat CPU 0 instructions: 5500041 cycles: 1369042 heartbeat IPC: 4.707 cumulative IPC: 4.017 (Simulation time: 00 hr 00 min 33 sec)
Heartbeat CPU 0 instructions: 6000042 cycles: 1474648 heartbeat IPC: 4.735 cumulative IPC: 4.069 (Simulation time: 00 hr 00 min 35 sec)
Heartbeat CPU 0 instructions: 6500043 cycles: 1577784 heartbeat IPC: 4.848 cumulative IPC: 4.12 (Simulation time: 00 hr 00 min 37 sec)
Heartbeat CPU 0 instructions: 7000043 cycles: 1683474 heartbeat IPC: 4.731 cumulative IPC: 4.158 (Simulation time: 00 hr 00 min 38 sec)
Heartbeat CPU 0 instructions: 7500043 cycles: 1838801 heartbeat IPC: 3.219 cumulative IPC: 4.079 (Simulation time: 00 hr 00 min 41 sec)
Heartbeat CPU 0 instructions: 8000049 cycles: 1957786 heartbeat IPC: 4.202 cumulative IPC: 4.086 (Simulation time: 00 hr 00 min 43 sec)
Heartbeat CPU 0 instructions: 8500053 cycles: 2068544 heartbeat IPC: 4.514 cumulative IPC: 4.109 (Simulation time: 00 hr 00 min 45 sec)
Heartbeat CPU 0 instructions: 9000053 cycles: 2182305 heartbeat IPC: 4.395 cumulative IPC: 4.124 (Simulation time: 00 hr 00 min 47 sec)
Heartbeat CPU 0 instructions: 9500059 cycles: 2373443 heartbeat IPC: 2.616 cumulative IPC: 4.003 (Simulation time: 00 hr 00 min 50 sec)
Heartbeat CPU 0 instructions: 10000061 cycles: 2487800 heartbeat IPC: 4.372 cumulative IPC: 4.02 (Simulation time: 00 hr 00 min 52 sec)
Heartbeat CPU 0 instructions: 10500062 cycles: 2600817 heartbeat IPC: 4.424 cumulative IPC: 4.037 (Simulation time: 00 hr 00 min 54 sec)
Heartbeat CPU 0 instructions: 11000064 cycles: 2716652 heartbeat IPC: 4.317 cumulative IPC: 4.049 (Simulation time: 00 hr 00 min 56 sec)
Heartbeat CPU 0 instructions: 11500065 cycles: 2826534 heartbeat IPC: 4.55 cumulative IPC: 4.069 (Simulation time: 00 hr 00 min 58 sec)
Heartbeat CPU 0 instructions: 12000070 cycles: 2945141 heartbeat IPC: 4.216 cumulative IPC: 4.075 (Simulation time: 00 hr 01 min 00 sec)
Heartbeat CPU 0 instructions: 12500070 cycles: 3057229 heartbeat IPC: 4.461 cumulative IPC: 4.089 (Simulation time: 00 hr 01 min 02 sec)
Heartbeat CPU 0 instructions: 13000072 cycles: 3170042 heartbeat IPC: 4.432 cumulative IPC: 4.101 (Simulation time: 00 hr 01 min 04 sec)
Heartbeat CPU 0 instructions: 13500077 cycles: 3280055 heartbeat IPC: 4.545 cumulative IPC: 4.116 (Simulation time: 00 hr 01 min 06 sec)
Heartbeat CPU 0 instructions: 14000080 cycles: 3389721 heartbeat IPC: 4.559 cumulative IPC: 4.13 (Simulation time: 00 hr 01 min 08 sec)
Heartbeat CPU 0 instructions: 14500083 cycles: 3496544 heartbeat IPC: 4.681 cumulative IPC: 4.147 (Simulation time: 00 hr 01 min 10 sec)
Heartbeat CPU 0 instructions: 15000088 cycles: 3615127 heartbeat IPC: 4.216 cumulative IPC: 4.149 (Simulation time: 00 hr 01 min 12 sec)
Heartbeat CPU 0 instructions: 15500095 cycles: 3724685 heartbeat IPC: 4.564 cumulative IPC: 4.161 (Simulation time: 00 hr 01 min 14 sec)
Heartbeat CPU 0 instructions: 16000097 cycles: 3834495 heartbeat IPC: 4.553 cumulative IPC: 4.173 (Simulation time: 00 hr 01 min 15 sec)
Heartbeat CPU 0 instructions: 16500097 cycles: 3945163 heartbeat IPC: 4.518 cumulative IPC: 4.182 (Simulation time: 00 hr 01 min 17 sec)
Heartbeat CPU 0 instructions: 17000102 cycles: 4084338 heartbeat IPC: 3.593 cumulative IPC: 4.162 (Simulation time: 00 hr 01 min 20 sec)
Heartbeat CPU 0 instructions: 17500104 cycles: 4278096 heartbeat IPC: 2.581 cumulative IPC: 4.091 (Simulation time: 00 hr 01 min 23 sec)
Heartbeat CPU 0 instructions: 18000106 cycles: 4490902 heartbeat IPC: 2.35 cumulative IPC: 4.008 (Simulation time: 00 hr 01 min 27 sec)
Heartbeat CPU 0 instructions: 18500110 cycles: 4598673 heartbeat IPC: 4.64 cumulative IPC: 4.023 (Simulation time: 00 hr 01 min 29 sec)
Heartbeat CPU 0 instructions: 19000114 cycles: 4708668 heartbeat IPC: 4.546 cumulative IPC: 4.035 (Simulation time: 00 hr 01 min 31 sec)
Heartbeat CPU 0 instructions: 19500118 cycles: 4811015 heartbeat IPC: 4.885 cumulative IPC: 4.053 (Simulation time: 00 hr 01 min 32 sec)
Heartbeat CPU 0 instructions: 20000123 cycles: 4915822 heartbeat IPC: 4.771 cumulative IPC: 4.069 (Simulation time: 00 hr 01 min 34 sec)
Heartbeat CPU 0 instructions: 20500128 cycles: 5025365 heartbeat IPC: 4.564 cumulative IPC: 4.079 (Simulation time: 00 hr 01 min 37 sec)
Heartbeat CPU 0 instructions: 21000132 cycles: 5131615 heartbeat IPC: 4.706 cumulative IPC: 4.092 (Simulation time: 00 hr 01 min 39 sec)
Heartbeat CPU 0 instructions: 21500136 cycles: 5242551 heartbeat IPC: 4.507 cumulative IPC: 4.101 (Simulation time: 00 hr 01 min 41 sec)
Heartbeat CPU 0 instructions: 22000137 cycles: 5346035 heartbeat IPC: 4.832 cumulative IPC: 4.115 (Simulation time: 00 hr 01 min 43 sec)
Heartbeat CPU 0 instructions: 22500142 cycles: 5450097 heartbeat IPC: 4.805 cumulative IPC: 4.128 (Simulation time: 00 hr 01 min 45 sec)
Heartbeat CPU 0 instructions: 23000149 cycles: 5556452 heartbeat IPC: 4.701 cumulative IPC: 4.139 (Simulation time: 00 hr 01 min 47 sec)
Heartbeat CPU 0 instructions: 23500155 cycles: 5659630 heartbeat IPC: 4.846 cumulative IPC: 4.152 (Simulation time: 00 hr 01 min 48 sec)
Heartbeat CPU 0 instructions: 24000158 cycles: 5763106 heartbeat IPC: 4.832 cumulative IPC: 4.164 (Simulation time: 00 hr 01 min 50 sec)
Heartbeat CPU 0 instructions: 24500165 cycles: 5867236 heartbeat IPC: 4.802 cumulative IPC: 4.176 (Simulation time: 00 hr 01 min 52 sec)
Heartbeat CPU 0 instructions: 25000170 cycles: 5969598 heartbeat IPC: 4.885 cumulative IPC: 4.188 (Simulation time: 00 hr 01 min 54 sec)
Heartbeat CPU 0 instructions: 25500176 cycles: 6073608 heartbeat IPC: 4.807 cumulative IPC: 4.199 (Simulation time: 00 hr 01 min 56 sec)
Heartbeat CPU 0 instructions: 26000178 cycles: 6180309 heartbeat IPC: 4.686 cumulative IPC: 4.207 (Simulation time: 00 hr 01 min 57 sec)
Heartbeat CPU 0 instructions: 26500178 cycles: 6284646 heartbeat IPC: 4.792 cumulative IPC: 4.217 (Simulation time: 00 hr 01 min 59 sec)
Heartbeat CPU 0 instructions: 27000178 cycles: 6389978 heartbeat IPC: 4.747 cumulative IPC: 4.225 (Simulation time: 00 hr 02 min 01 sec)
Heartbeat CPU 0 instructions: 27500180 cycles: 6493868 heartbeat IPC: 4.813 cumulative IPC: 4.235 (Simulation time: 00 hr 02 min 03 sec)
Heartbeat CPU 0 instructions: 28000182 cycles: 6598421 heartbeat IPC: 4.782 cumulative IPC: 4.243 (Simulation time: 00 hr 02 min 05 sec)
Heartbeat CPU 0 instructions: 28500187 cycles: 6703120 heartbeat IPC: 4.776 cumulative IPC: 4.252 (Simulation time: 00 hr 02 min 06 sec)
Heartbeat CPU 0 instructions: 29000191 cycles: 6806127 heartbeat IPC: 4.854 cumulative IPC: 4.261 (Simulation time: 00 hr 02 min 08 sec)
Heartbeat CPU 0 instructions: 29500193 cycles: 6909975 heartbeat IPC: 4.815 cumulative IPC: 4.269 (Simulation time: 00 hr 02 min 10 sec)
Heartbeat CPU 0 instructions: 30000200 cycles: 7014006 heartbeat IPC: 4.806 cumulative IPC: 4.277 (Simulation time: 00 hr 02 min 12 sec)
Heartbeat CPU 0 instructions: 30500206 cycles: 7117279 heartbeat IPC: 4.842 cumulative IPC: 4.285 (Simulation time: 00 hr 02 min 14 sec)
Heartbeat CPU 0 instructions: 31000208 cycles: 7219610 heartbeat IPC: 4.886 cumulative IPC: 4.294 (Simulation time: 00 hr 02 min 15 sec)
Heartbeat CPU 0 instructions: 31500213 cycles: 7336056 heartbeat IPC: 4.294 cumulative IPC: 4.294 (Simulation time: 00 hr 02 min 17 sec)
Heartbeat CPU 0 instructions: 32000216 cycles: 7439907 heartbeat IPC: 4.815 cumulative IPC: 4.301 (Simulation time: 00 hr 02 min 19 sec)
Heartbeat CPU 0 instructions: 32500219 cycles: 7543743 heartbeat IPC: 4.815 cumulative IPC: 4.308 (Simulation time: 00 hr 02 min 21 sec)
Heartbeat CPU 0 instructions: 33000222 cycles: 7646445 heartbeat IPC: 4.868 cumulative IPC: 4.316 (Simulation time: 00 hr 02 min 23 sec)
Heartbeat CPU 0 instructions: 33500228 cycles: 7750317 heartbeat IPC: 4.814 cumulative IPC: 4.322 (Simulation time: 00 hr 02 min 25 sec)
Heartbeat CPU 0 instructions: 34000231 cycles: 7853540 heartbeat IPC: 4.844 cumulative IPC: 4.329 (Simulation time: 00 hr 02 min 26 sec)
Heartbeat CPU 0 instructions: 34500236 cycles: 7956230 heartbeat IPC: 4.869 cumulative IPC: 4.336 (Simulation time: 00 hr 02 min 28 sec)
Heartbeat CPU 0 instructions: 35000242 cycles: 8060473 heartbeat IPC: 4.797 cumulative IPC: 4.342 (Simulation time: 00 hr 02 min 30 sec)
Heartbeat CPU 0 instructions: 35500245 cycles: 8163237 heartbeat IPC: 4.866 cumulative IPC: 4.349 (Simulation time: 00 hr 02 min 32 sec)
Heartbeat CPU 0 instructions: 36000250 cycles: 8266957 heartbeat IPC: 4.821 cumulative IPC: 4.355 (Simulation time: 00 hr 02 min 34 sec)
Heartbeat CPU 0 instructions: 36500254 cycles: 8371178 heartbeat IPC: 4.798 cumulative IPC: 4.36 (Simulation time: 00 hr 02 min 35 sec)
Heartbeat CPU 0 instructions: 37000259 cycles: 8474336 heartbeat IPC: 4.847 cumulative IPC: 4.366 (Simulation time: 00 hr 02 min 37 sec)
Heartbeat CPU 0 instructions: 37500265 cycles: 8577939 heartbeat IPC: 4.826 cumulative IPC: 4.372 (Simulation time: 00 hr 02 min 39 sec)
Heartbeat CPU 0 instructions: 38000268 cycles: 8684278 heartbeat IPC: 4.702 cumulative IPC: 4.376 (Simulation time: 00 hr 02 min 41 sec)
Heartbeat CPU 0 instructions: 38500274 cycles: 8787125 heartbeat IPC: 4.862 cumulative IPC: 4.381 (Simulation time: 00 hr 02 min 43 sec)
Heartbeat CPU 0 instructions: 39000276 cycles: 8889980 heartbeat IPC: 4.861 cumulative IPC: 4.387 (Simulation time: 00 hr 02 min 44 sec)
Heartbeat CPU 0 instructions: 39500283 cycles: 8994512 heartbeat IPC: 4.783 cumulative IPC: 4.392 (Simulation time: 00 hr 02 min 46 sec)
Heartbeat CPU 0 instructions: 40000285 cycles: 9102714 heartbeat IPC: 4.621 cumulative IPC: 4.394 (Simulation time: 00 hr 02 min 48 sec)
Heartbeat CPU 0 instructions: 40500289 cycles: 9207447 heartbeat IPC: 4.774 cumulative IPC: 4.399 (Simulation time: 00 hr 02 min 50 sec)
Heartbeat CPU 0 instructions: 41000294 cycles: 9310937 heartbeat IPC: 4.831 cumulative IPC: 4.403 (Simulation time: 00 hr 02 min 52 sec)
Heartbeat CPU 0 instructions: 41500297 cycles: 9425003 heartbeat IPC: 4.383 cumulative IPC: 4.403 (Simulation time: 00 hr 02 min 54 sec)
Heartbeat CPU 0 instructions: 42000297 cycles: 9529696 heartbeat IPC: 4.776 cumulative IPC: 4.407 (Simulation time: 00 hr 02 min 56 sec)
Heartbeat CPU 0 instructions: 42500301 cycles: 9632756 heartbeat IPC: 4.852 cumulative IPC: 4.412 (Simulation time: 00 hr 02 min 57 sec)
Heartbeat CPU 0 instructions: 43000306 cycles: 9736577 heartbeat IPC: 4.816 cumulative IPC: 4.416 (Simulation time: 00 hr 02 min 59 sec)
Heartbeat CPU 0 instructions: 43500313 cycles: 9841370 heartbeat IPC: 4.771 cumulative IPC: 4.42 (Simulation time: 00 hr 03 min 01 sec)
Heartbeat CPU 0 instructions: 44000320 cycles: 9945538 heartbeat IPC: 4.8 cumulative IPC: 4.424 (Simulation time: 00 hr 03 min 03 sec)
Heartbeat CPU 0 instructions: 44500322 cycles: 10048996 heartbeat IPC: 4.833 cumulative IPC: 4.428 (Simulation time: 00 hr 03 min 05 sec)
Heartbeat CPU 0 instructions: 45000323 cycles: 10154737 heartbeat IPC: 4.729 cumulative IPC: 4.431 (Simulation time: 00 hr 03 min 07 sec)
Heartbeat CPU 0 instructions: 45500325 cycles: 10257981 heartbeat IPC: 4.843 cumulative IPC: 4.436 (Simulation time: 00 hr 03 min 08 sec)
Heartbeat CPU 0 instructions: 46000326 cycles: 10363996 heartbeat IPC: 4.716 cumulative IPC: 4.438 (Simulation time: 00 hr 03 min 10 sec)
Heartbeat CPU 0 instructions: 46500328 cycles: 10465897 heartbeat IPC: 4.907 cumulative IPC: 4.443 (Simulation time: 00 hr 03 min 12 sec)
Heartbeat CPU 0 instructions: 47000332 cycles: 10569107 heartbeat IPC: 4.845 cumulative IPC: 4.447 (Simulation time: 00 hr 03 min 14 sec)
Heartbeat CPU 0 instructions: 47500338 cycles: 10671902 heartbeat IPC: 4.864 cumulative IPC: 4.451 (Simulation time: 00 hr 03 min 16 sec)
Heartbeat CPU 0 instructions: 48000340 cycles: 10837677 heartbeat IPC: 3.016 cumulative IPC: 4.429 (Simulation time: 00 hr 03 min 18 sec)
Heartbeat CPU 0 instructions: 48500340 cycles: 10977402 heartbeat IPC: 3.578 cumulative IPC: 4.418 (Simulation time: 00 hr 03 min 21 sec)
Heartbeat CPU 0 instructions: 49000342 cycles: 11114822 heartbeat IPC: 3.638 cumulative IPC: 4.409 (Simulation time: 00 hr 03 min 23 sec)
Heartbeat CPU 0 instructions: 49500344 cycles: 11275373 heartbeat IPC: 3.114 cumulative IPC: 4.39 (Simulation time: 00 hr 03 min 25 sec)
Warmup finished CPU 0 instructions: 50000000 cycles: 11439994 cumulative IPC: 4.371 (Simulation time: 00 hr 03 min 28 sec)
Warmup complete CPU 0 instructions: 50000000 cycles: 11439994 cumulative IPC: 4.371 (Simulation time: 00 hr 03 min 28 sec)
Heartbeat CPU 0 instructions: 50000349 cycles: 11440078 heartbeat IPC: 3.036 cumulative IPC: 4.155 (Simulation time: 00 hr 03 min 28 sec)
Heartbeat CPU 0 instructions: 50500353 cycles: 12324474 heartbeat IPC: 0.5654 cumulative IPC: 0.5657 (Simulation time: 00 hr 03 min 36 sec)
Heartbeat CPU 0 instructions: 51000353 cycles: 13415774 heartbeat IPC: 0.4582 cumulative IPC: 0.5063 (Simulation time: 00 hr 03 min 45 sec)
Heartbeat CPU 0 instructions: 51500354 cycles: 14588247 heartbeat IPC: 0.4264 cumulative IPC: 0.4766 (Simulation time: 00 hr 03 min 54 sec)
Heartbeat CPU 0 instructions: 52000361 cycles: 14978981 heartbeat IPC: 1.28 cumulative IPC: 0.5652 (Simulation time: 00 hr 03 min 58 sec)
Heartbeat CPU 0 instructions: 52500366 cycles: 19053539 heartbeat IPC: 0.1227 cumulative IPC: 0.3284 (Simulation time: 00 hr 04 min 25 sec)
Heartbeat CPU 0 instructions: 53000366 cycles: 22089944 heartbeat IPC: 0.1647 cumulative IPC: 0.2817 (Simulation time: 00 hr 04 min 47 sec)
Heartbeat CPU 0 instructions: 53500368 cycles: 24538290 heartbeat IPC: 0.2042 cumulative IPC: 0.2672 (Simulation time: 00 hr 05 min 05 sec)
Heartbeat CPU 0 instructions: 54000368 cycles: 25720541 heartbeat IPC: 0.4229 cumulative IPC: 0.2801 (Simulation time: 00 hr 05 min 14 sec)
Heartbeat CPU 0 instructions: 54500375 cycles: 26935209 heartbeat IPC: 0.4116 cumulative IPC: 0.2904 (Simulation time: 00 hr 05 min 24 sec)
Heartbeat CPU 0 instructions: 55000375 cycles: 27972396 heartbeat IPC: 0.4821 cumulative IPC: 0.3025 (Simulation time: 00 hr 05 min 33 sec)
Heartbeat CPU 0 instructions: 55500377 cycles: 29006897 heartbeat IPC: 0.4833 cumulative IPC: 0.3131 (Simulation time: 00 hr 05 min 42 sec)
Heartbeat CPU 0 instructions: 56000379 cycles: 29667226 heartbeat IPC: 0.7572 cumulative IPC: 0.3292 (Simulation time: 00 hr 05 min 48 sec)
Heartbeat CPU 0 instructions: 56500380 cycles: 30653912 heartbeat IPC: 0.5067 cumulative IPC: 0.3383 (Simulation time: 00 hr 05 min 56 sec)
Heartbeat CPU 0 instructions: 57000380 cycles: 31686803 heartbeat IPC: 0.4841 cumulative IPC: 0.3458 (Simulation time: 00 hr 06 min 04 sec)
Heartbeat CPU 0 instructions: 57500381 cycles: 32553905 heartbeat IPC: 0.5766 cumulative IPC: 0.3552 (Simulation time: 00 hr 06 min 11 sec)
Heartbeat CPU 0 instructions: 58000381 cycles: 33534344 heartbeat IPC: 0.51 cumulative IPC: 0.3621 (Simulation time: 00 hr 06 min 19 sec)
Heartbeat CPU 0 instructions: 58500381 cycles: 34738023 heartbeat IPC: 0.4154 cumulative IPC: 0.3649 (Simulation time: 00 hr 06 min 28 sec)
Heartbeat CPU 0 instructions: 59000384 cycles: 35196816 heartbeat IPC: 1.09 cumulative IPC: 0.3789 (Simulation time: 00 hr 06 min 32 sec)
Heartbeat CPU 0 instructions: 59500384 cycles: 36018353 heartbeat IPC: 0.6086 cumulative IPC: 0.3865 (Simulation time: 00 hr 06 min 39 sec)
Heartbeat CPU 0 instructions: 60000390 cycles: 36947508 heartbeat IPC: 0.5381 cumulative IPC: 0.3921 (Simulation time: 00 hr 06 min 46 sec)
Heartbeat CPU 0 instructions: 60500393 cycles: 38337165 heartbeat IPC: 0.3598 cumulative IPC: 0.3904 (Simulation time: 00 hr 06 min 56 sec)
Heartbeat CPU 0 instructions: 61000394 cycles: 38707762 heartbeat IPC: 1.349 cumulative IPC: 0.4034 (Simulation time: 00 hr 06 min 59 sec)
Heartbeat CPU 0 instructions: 61500399 cycles: 40086203 heartbeat IPC: 0.3627 cumulative IPC: 0.4015 (Simulation time: 00 hr 07 min 10 sec)
Heartbeat CPU 0 instructions: 62000405 cycles: 41589540 heartbeat IPC: 0.3326 cumulative IPC: 0.398 (Simulation time: 00 hr 07 min 21 sec)
Heartbeat CPU 0 instructions: 62500407 cycles: 43093233 heartbeat IPC: 0.3325 cumulative IPC: 0.3949 (Simulation time: 00 hr 07 min 32 sec)
Heartbeat CPU 0 instructions: 63000411 cycles: 43408207 heartbeat IPC: 1.587 cumulative IPC: 0.4067 (Simulation time: 00 hr 07 min 35 sec)
Heartbeat CPU 0 instructions: 63500412 cycles: 44544964 heartbeat IPC: 0.4398 cumulative IPC: 0.4078 (Simulation time: 00 hr 07 min 46 sec)
Heartbeat CPU 0 instructions: 64000415 cycles: 45704869 heartbeat IPC: 0.4311 cumulative IPC: 0.4086 (Simulation time: 00 hr 07 min 57 sec)
Heartbeat CPU 0 instructions: 64500417 cycles: 46325735 heartbeat IPC: 0.8053 cumulative IPC: 0.4157 (Simulation time: 00 hr 08 min 03 sec)
Heartbeat CPU 0 instructions: 65000418 cycles: 46975671 heartbeat IPC: 0.7693 cumulative IPC: 0.4221 (Simulation time: 00 hr 08 min 10 sec)
Heartbeat CPU 0 instructions: 65500419 cycles: 47797521 heartbeat IPC: 0.6084 cumulative IPC: 0.4263 (Simulation time: 00 hr 08 min 16 sec)
Heartbeat CPU 0 instructions: 66000423 cycles: 49855224 heartbeat IPC: 0.243 cumulative IPC: 0.4165 (Simulation time: 00 hr 08 min 30 sec)
Heartbeat CPU 0 instructions: 66500429 cycles: 50927569 heartbeat IPC: 0.4663 cumulative IPC: 0.4179 (Simulation time: 00 hr 08 min 37 sec)
Heartbeat CPU 0 instructions: 67000432 cycles: 51317372 heartbeat IPC: 1.283 cumulative IPC: 0.4263 (Simulation time: 00 hr 08 min 41 sec)
Heartbeat CPU 0 instructions: 67500433 cycles: 51592414 heartbeat IPC: 1.818 cumulative IPC: 0.4359 (Simulation time: 00 hr 08 min 45 sec)
Heartbeat CPU 0 instructions: 68000433 cycles: 51893961 heartbeat IPC: 1.658 cumulative IPC: 0.445 (Simulation time: 00 hr 08 min 48 sec)
Heartbeat CPU 0 instructions: 68500436 cycles: 52158571 heartbeat IPC: 1.89 cumulative IPC: 0.4543 (Simulation time: 00 hr 08 min 52 sec)
Heartbeat CPU 0 instructions: 69000443 cycles: 52428251 heartbeat IPC: 1.854 cumulative IPC: 0.4636 (Simulation time: 00 hr 08 min 55 sec)
Heartbeat CPU 0 instructions: 69500443 cycles: 52714875 heartbeat IPC: 1.744 cumulative IPC: 0.4725 (Simulation time: 00 hr 08 min 59 sec)
Heartbeat CPU 0 instructions: 70000444 cycles: 52993121 heartbeat IPC: 1.797 cumulative IPC: 0.4813 (Simulation time: 00 hr 09 min 02 sec)
Heartbeat CPU 0 instructions: 70500447 cycles: 53283490 heartbeat IPC: 1.722 cumulative IPC: 0.4899 (Simulation time: 00 hr 09 min 06 sec)
Heartbeat CPU 0 instructions: 71000449 cycles: 53540101 heartbeat IPC: 1.948 cumulative IPC: 0.4988 (Simulation time: 00 hr 09 min 09 sec)
Heartbeat CPU 0 instructions: 71500449 cycles: 53817637 heartbeat IPC: 1.802 cumulative IPC: 0.5074 (Simulation time: 00 hr 09 min 12 sec)
Heartbeat CPU 0 instructions: 72000451 cycles: 54085647 heartbeat IPC: 1.866 cumulative IPC: 0.5159 (Simulation time: 00 hr 09 min 16 sec)
Heartbeat CPU 0 instructions: 72500458 cycles: 54368323 heartbeat IPC: 1.769 cumulative IPC: 0.5241 (Simulation time: 00 hr 09 min 19 sec)
Heartbeat CPU 0 instructions: 73000458 cycles: 54648816 heartbeat IPC: 1.783 cumulative IPC: 0.5323 (Simulation time: 00 hr 09 min 23 sec)
Heartbeat CPU 0 instructions: 73500461 cycles: 54919927 heartbeat IPC: 1.844 cumulative IPC: 0.5405 (Simulation time: 00 hr 09 min 26 sec)
Heartbeat CPU 0 instructions: 74000463 cycles: 55177466 heartbeat IPC: 1.941 cumulative IPC: 0.5487 (Simulation time: 00 hr 09 min 29 sec)
Heartbeat CPU 0 instructions: 74500466 cycles: 55452648 heartbeat IPC: 1.817 cumulative IPC: 0.5567 (Simulation time: 00 hr 09 min 33 sec)
Heartbeat CPU 0 instructions: 75000472 cycles: 55714349 heartbeat IPC: 1.911 cumulative IPC: 0.5647 (Simulation time: 00 hr 09 min 36 sec)
Heartbeat CPU 0 instructions: 75500474 cycles: 55974321 heartbeat IPC: 1.923 cumulative IPC: 0.5726 (Simulation time: 00 hr 09 min 40 sec)
Heartbeat CPU 0 instructions: 76000477 cycles: 56245569 heartbeat IPC: 1.843 cumulative IPC: 0.5803 (Simulation time: 00 hr 09 min 43 sec)
Heartbeat CPU 0 instructions: 76500480 cycles: 56542086 heartbeat IPC: 1.686 cumulative IPC: 0.5876 (Simulation time: 00 hr 09 min 47 sec)
Heartbeat CPU 0 instructions: 77000480 cycles: 56723375 heartbeat IPC: 2.758 cumulative IPC: 0.5963 (Simulation time: 00 hr 09 min 49 sec)
Heartbeat CPU 0 instructions: 77500487 cycles: 57726484 heartbeat IPC: 0.4985 cumulative IPC: 0.5941 (Simulation time: 00 hr 09 min 57 sec)
Heartbeat CPU 0 instructions: 78000492 cycles: 58009102 heartbeat IPC: 1.769 cumulative IPC: 0.6013 (Simulation time: 00 hr 10 min 00 sec)
Heartbeat CPU 0 instructions: 78500495 cycles: 58252180 heartbeat IPC: 2.057 cumulative IPC: 0.6088 (Simulation time: 00 hr 10 min 03 sec)
Heartbeat CPU 0 instructions: 79000496 cycles: 58489303 heartbeat IPC: 2.109 cumulative IPC: 0.6164 (Simulation time: 00 hr 10 min 06 sec)
Heartbeat CPU 0 instructions: 79500500 cycles: 58703306 heartbeat IPC: 2.336 cumulative IPC: 0.6242 (Simulation time: 00 hr 10 min 08 sec)
Heartbeat CPU 0 instructions: 80000501 cycles: 58935566 heartbeat IPC: 2.153 cumulative IPC: 0.6316 (Simulation time: 00 hr 10 min 11 sec)
Heartbeat CPU 0 instructions: 80500502 cycles: 59170723 heartbeat IPC: 2.126 cumulative IPC: 0.639 (Simulation time: 00 hr 10 min 14 sec)
Heartbeat CPU 0 instructions: 81000509 cycles: 59400791 heartbeat IPC: 2.173 cumulative IPC: 0.6464 (Simulation time: 00 hr 10 min 16 sec)
Heartbeat CPU 0 instructions: 81500514 cycles: 59615830 heartbeat IPC: 2.325 cumulative IPC: 0.6539 (Simulation time: 00 hr 10 min 19 sec)
Heartbeat CPU 0 instructions: 82000515 cycles: 59841058 heartbeat IPC: 2.22 cumulative IPC: 0.6612 (Simulation time: 00 hr 10 min 22 sec)
Heartbeat CPU 0 instructions: 82500516 cycles: 60061633 heartbeat IPC: 2.267 cumulative IPC: 0.6684 (Simulation time: 00 hr 10 min 24 sec)
Heartbeat CPU 0 instructions: 83000518 cycles: 60308616 heartbeat IPC: 2.024 cumulative IPC: 0.6753 (Simulation time: 00 hr 10 min 27 sec)
Heartbeat CPU 0 instructions: 83500519 cycles: 60543171 heartbeat IPC: 2.132 cumulative IPC: 0.6822 (Simulation time: 00 hr 10 min 30 sec)
Heartbeat CPU 0 instructions: 84000520 cycles: 60764111 heartbeat IPC: 2.263 cumulative IPC: 0.6893 (Simulation time: 00 hr 10 min 33 sec)
Heartbeat CPU 0 instructions: 84500524 cycles: 61015237 heartbeat IPC: 1.991 cumulative IPC: 0.6959 (Simulation time: 00 hr 10 min 35 sec)
Heartbeat CPU 0 instructions: 85000524 cycles: 61303890 heartbeat IPC: 1.732 cumulative IPC: 0.7019 (Simulation time: 00 hr 10 min 38 sec)
Heartbeat CPU 0 instructions: 85500527 cycles: 61512656 heartbeat IPC: 2.395 cumulative IPC: 0.709 (Simulation time: 00 hr 10 min 41 sec)
Heartbeat CPU 0 instructions: 86000527 cycles: 61728542 heartbeat IPC: 2.316 cumulative IPC: 0.7159 (Simulation time: 00 hr 10 min 44 sec)
Heartbeat CPU 0 instructions: 86500530 cycles: 61943425 heartbeat IPC: 2.327 cumulative IPC: 0.7227 (Simulation time: 00 hr 10 min 46 sec)
Heartbeat CPU 0 instructions: 87000534 cycles: 62143946 heartbeat IPC: 2.494 cumulative IPC: 0.7297 (Simulation time: 00 hr 10 min 49 sec)
Heartbeat CPU 0 instructions: 87500539 cycles: 62367602 heartbeat IPC: 2.236 cumulative IPC: 0.7363 (Simulation time: 00 hr 10 min 52 sec)
Heartbeat CPU 0 instructions: 88000539 cycles: 62565968 heartbeat IPC: 2.521 cumulative IPC: 0.7433 (Simulation time: 00 hr 10 min 54 sec)
Heartbeat CPU 0 instructions: 88500542 cycles: 62765434 heartbeat IPC: 2.507 cumulative IPC: 0.7501 (Simulation time: 00 hr 10 min 57 sec)
Heartbeat CPU 0 instructions: 89000547 cycles: 62967278 heartbeat IPC: 2.477 cumulative IPC: 0.7569 (Simulation time: 00 hr 10 min 59 sec)
Heartbeat CPU 0 instructions: 89500553 cycles: 63185223 heartbeat IPC: 2.294 cumulative IPC: 0.7634 (Simulation time: 00 hr 11 min 02 sec)
Heartbeat CPU 0 instructions: 90000554 cycles: 63388540 heartbeat IPC: 2.459 cumulative IPC: 0.77 (Simulation time: 00 hr 11 min 04 sec)
Heartbeat CPU 0 instructions: 90500560 cycles: 63603354 heartbeat IPC: 2.328 cumulative IPC: 0.7764 (Simulation time: 00 hr 11 min 07 sec)
Heartbeat CPU 0 instructions: 91000562 cycles: 63808599 heartbeat IPC: 2.436 cumulative IPC: 0.7829 (Simulation time: 00 hr 11 min 10 sec)
Heartbeat CPU 0 instructions: 91500563 cycles: 64036902 heartbeat IPC: 2.19 cumulative IPC: 0.789 (Simulation time: 00 hr 11 min 12 sec)
Heartbeat CPU 0 instructions: 92000567 cycles: 64230647 heartbeat IPC: 2.581 cumulative IPC: 0.7956 (Simulation time: 00 hr 11 min 15 sec)
Heartbeat CPU 0 instructions: 92500570 cycles: 64447154 heartbeat IPC: 2.309 cumulative IPC: 0.8018 (Simulation time: 00 hr 11 min 18 sec)
Heartbeat CPU 0 instructions: 93000572 cycles: 64680410 heartbeat IPC: 2.144 cumulative IPC: 0.8077 (Simulation time: 00 hr 11 min 20 sec)
Heartbeat CPU 0 instructions: 93500578 cycles: 64873187 heartbeat IPC: 2.594 cumulative IPC: 0.8141 (Simulation time: 00 hr 11 min 23 sec)
Heartbeat CPU 0 instructions: 94000584 cycles: 65074158 heartbeat IPC: 2.488 cumulative IPC: 0.8204 (Simulation time: 00 hr 11 min 25 sec)
Heartbeat CPU 0 instructions: 94500585 cycles: 65292130 heartbeat IPC: 2.294 cumulative IPC: 0.8263 (Simulation time: 00 hr 11 min 28 sec)
Heartbeat CPU 0 instructions: 95000586 cycles: 65936691 heartbeat IPC: 0.7757 cumulative IPC: 0.8257 (Simulation time: 00 hr 11 min 33 sec)
Heartbeat CPU 0 instructions: 95500591 cycles: 66149572 heartbeat IPC: 2.349 cumulative IPC: 0.8317 (Simulation time: 00 hr 11 min 36 sec)
Heartbeat CPU 0 instructions: 96000596 cycles: 66374373 heartbeat IPC: 2.224 cumulative IPC: 0.8374 (Simulation time: 00 hr 11 min 39 sec)
Heartbeat CPU 0 instructions: 96500596 cycles: 66623469 heartbeat IPC: 2.007 cumulative IPC: 0.8427 (Simulation time: 00 hr 11 min 41 sec)
Heartbeat CPU 0 instructions: 97000603 cycles: 66837840 heartbeat IPC: 2.332 cumulative IPC: 0.8484 (Simulation time: 00 hr 11 min 44 sec)
Heartbeat CPU 0 instructions: 97500609 cycles: 67048655 heartbeat IPC: 2.372 cumulative IPC: 0.8542 (Simulation time: 00 hr 11 min 47 sec)
Heartbeat CPU 0 instructions: 98000613 cycles: 67261864 heartbeat IPC: 2.345 cumulative IPC: 0.8599 (Simulation time: 00 hr 11 min 49 sec)
Heartbeat CPU 0 instructions: 98500617 cycles: 67463782 heartbeat IPC: 2.476 cumulative IPC: 0.8657 (Simulation time: 00 hr 11 min 52 sec)
Heartbeat CPU 0 instructions: 99000624 cycles: 67677069 heartbeat IPC: 2.344 cumulative IPC: 0.8713 (Simulation time: 00 hr 11 min 55 sec)
Heartbeat CPU 0 instructions: 99500631 cycles: 67899840 heartbeat IPC: 2.244 cumulative IPC: 0.8767 (Simulation time: 00 hr 11 min 57 sec)
Heartbeat CPU 0 instructions: 100000631 cycles: 68109764 heartbeat IPC: 2.382 cumulative IPC: 0.8823 (Simulation time: 00 hr 12 min 00 sec)
Heartbeat CPU 0 instructions: 100500631 cycles: 68321334 heartbeat IPC: 2.363 cumulative IPC: 0.8878 (Simulation time: 00 hr 12 min 03 sec)
Heartbeat CPU 0 instructions: 101000632 cycles: 68521563 heartbeat IPC: 2.497 cumulative IPC: 0.8935 (Simulation time: 00 hr 12 min 05 sec)
Heartbeat CPU 0 instructions: 101500632 cycles: 68731810 heartbeat IPC: 2.378 cumulative IPC: 0.8989 (Simulation time: 00 hr 12 min 08 sec)
Heartbeat CPU 0 instructions: 102000639 cycles: 68932496 heartbeat IPC: 2.491 cumulative IPC: 0.9045 (Simulation time: 00 hr 12 min 10 sec)
Heartbeat CPU 0 instructions: 102500639 cycles: 69144646 heartbeat IPC: 2.357 cumulative IPC: 0.9098 (Simulation time: 00 hr 12 min 13 sec)
Heartbeat CPU 0 instructions: 103000645 cycles: 69346898 heartbeat IPC: 2.472 cumulative IPC: 0.9153 (Simulation time: 00 hr 12 min 15 sec)
Heartbeat CPU 0 instructions: 103500649 cycles: 69553675 heartbeat IPC: 2.418 cumulative IPC: 0.9206 (Simulation time: 00 hr 12 min 18 sec)
Heartbeat CPU 0 instructions: 104000649 cycles: 69759211 heartbeat IPC: 2.433 cumulative IPC: 0.9259 (Simulation time: 00 hr 12 min 21 sec)
Heartbeat CPU 0 instructions: 104500656 cycles: 71254591 heartbeat IPC: 0.3344 cumulative IPC: 0.9112 (Simulation time: 00 hr 12 min 30 sec)
Heartbeat CPU 0 instructions: 105000658 cycles: 72507080 heartbeat IPC: 0.3992 cumulative IPC: 0.9007 (Simulation time: 00 hr 12 min 39 sec)
Heartbeat CPU 0 instructions: 105500658 cycles: 73273548 heartbeat IPC: 0.6523 cumulative IPC: 0.8976 (Simulation time: 00 hr 12 min 45 sec)
Heartbeat CPU 0 instructions: 106000659 cycles: 73461757 heartbeat IPC: 2.657 cumulative IPC: 0.9029 (Simulation time: 00 hr 12 min 47 sec)
Heartbeat CPU 0 instructions: 106500666 cycles: 73866515 heartbeat IPC: 1.235 cumulative IPC: 0.9051 (Simulation time: 00 hr 12 min 51 sec)
Heartbeat CPU 0 instructions: 107000673 cycles: 75164030 heartbeat IPC: 0.3854 cumulative IPC: 0.8945 (Simulation time: 00 hr 13 min 00 sec)
Heartbeat CPU 0 instructions: 107500675 cycles: 75524111 heartbeat IPC: 1.389 cumulative IPC: 0.8973 (Simulation time: 00 hr 13 min 04 sec)
Heartbeat CPU 0 instructions: 108000680 cycles: 75882777 heartbeat IPC: 1.394 cumulative IPC: 0.9 (Simulation time: 00 hr 13 min 09 sec)
Heartbeat CPU 0 instructions: 108500685 cycles: 76428570 heartbeat IPC: 0.9161 cumulative IPC: 0.9002 (Simulation time: 00 hr 13 min 16 sec)
Heartbeat CPU 0 instructions: 109000688 cycles: 77809285 heartbeat IPC: 0.3621 cumulative IPC: 0.889 (Simulation time: 00 hr 13 min 26 sec)
Heartbeat CPU 0 instructions: 109500690 cycles: 78158359 heartbeat IPC: 1.432 cumulative IPC: 0.8918 (Simulation time: 00 hr 13 min 29 sec)
Heartbeat CPU 0 instructions: 110000692 cycles: 78624302 heartbeat IPC: 1.073 cumulative IPC: 0.8931 (Simulation time: 00 hr 13 min 34 sec)
Heartbeat CPU 0 instructions: 110500694 cycles: 78845031 heartbeat IPC: 2.265 cumulative IPC: 0.8976 (Simulation time: 00 hr 13 min 37 sec)
Heartbeat CPU 0 instructions: 111000694 cycles: 79331342 heartbeat IPC: 1.028 cumulative IPC: 0.8985 (Simulation time: 00 hr 13 min 41 sec)
Heartbeat CPU 0 instructions: 111500698 cycles: 80147867 heartbeat IPC: 0.6124 cumulative IPC: 0.8951 (Simulation time: 00 hr 13 min 47 sec)
Heartbeat CPU 0 instructions: 112000700 cycles: 81910823 heartbeat IPC: 0.2836 cumulative IPC: 0.8798 (Simulation time: 00 hr 13 min 59 sec)
Heartbeat CPU 0 instructions: 112500700 cycles: 83199820 heartbeat IPC: 0.3879 cumulative IPC: 0.871 (Simulation time: 00 hr 14 min 09 sec)
Heartbeat CPU 0 instructions: 113000701 cycles: 83895669 heartbeat IPC: 0.7185 cumulative IPC: 0.8695 (Simulation time: 00 hr 14 min 15 sec)
Heartbeat CPU 0 instructions: 113500703 cycles: 84204332 heartbeat IPC: 1.62 cumulative IPC: 0.8727 (Simulation time: 00 hr 14 min 18 sec)
Heartbeat CPU 0 instructions: 114000708 cycles: 84462656 heartbeat IPC: 1.936 cumulative IPC: 0.8764 (Simulation time: 00 hr 14 min 21 sec)
Heartbeat CPU 0 instructions: 114500709 cycles: 84705408 heartbeat IPC: 2.06 cumulative IPC: 0.8804 (Simulation time: 00 hr 14 min 24 sec)
Heartbeat CPU 0 instructions: 115000715 cycles: 85036980 heartbeat IPC: 1.508 cumulative IPC: 0.8832 (Simulation time: 00 hr 14 min 27 sec)
Heartbeat CPU 0 instructions: 115500720 cycles: 85279748 heartbeat IPC: 2.06 cumulative IPC: 0.8871 (Simulation time: 00 hr 14 min 30 sec)
Heartbeat CPU 0 instructions: 116000726 cycles: 85546152 heartbeat IPC: 1.877 cumulative IPC: 0.8906 (Simulation time: 00 hr 14 min 33 sec)
Heartbeat CPU 0 instructions: 116500730 cycles: 85821778 heartbeat IPC: 1.814 cumulative IPC: 0.894 (Simulation time: 00 hr 14 min 36 sec)
Heartbeat CPU 0 instructions: 117000730 cycles: 86088356 heartbeat IPC: 1.876 cumulative IPC: 0.8976 (Simulation time: 00 hr 14 min 39 sec)
Heartbeat CPU 0 instructions: 117500736 cycles: 86367668 heartbeat IPC: 1.79 cumulative IPC: 0.9009 (Simulation time: 00 hr 14 min 42 sec)
Heartbeat CPU 0 instructions: 118000736 cycles: 86589978 heartbeat IPC: 2.249 cumulative IPC: 0.9049 (Simulation time: 00 hr 14 min 44 sec)
Heartbeat CPU 0 instructions: 118500738 cycles: 86943656 heartbeat IPC: 1.414 cumulative IPC: 0.9073 (Simulation time: 00 hr 14 min 48 sec)
Heartbeat CPU 0 instructions: 119000741 cycles: 88046148 heartbeat IPC: 0.4535 cumulative IPC: 0.9007 (Simulation time: 00 hr 14 min 56 sec)
Heartbeat CPU 0 instructions: 119500748 cycles: 88363626 heartbeat IPC: 1.575 cumulative IPC: 0.9035 (Simulation time: 00 hr 15 min 00 sec)
Heartbeat CPU 0 instructions: 120000748 cycles: 88651873 heartbeat IPC: 1.735 cumulative IPC: 0.9066 (Simulation time: 00 hr 15 min 03 sec)
Heartbeat CPU 0 instructions: 120500749 cycles: 88929168 heartbeat IPC: 1.803 cumulative IPC: 0.9098 (Simulation time: 00 hr 15 min 06 sec)
Heartbeat CPU 0 instructions: 121000749 cycles: 89223353 heartbeat IPC: 1.7 cumulative IPC: 0.9128 (Simulation time: 00 hr 15 min 09 sec)
Heartbeat CPU 0 instructions: 121500751 cycles: 89508700 heartbeat IPC: 1.752 cumulative IPC: 0.9159 (Simulation time: 00 hr 15 min 12 sec)
Heartbeat CPU 0 instructions: 122000757 cycles: 90551766 heartbeat IPC: 0.4794 cumulative IPC: 0.9101 (Simulation time: 00 hr 15 min 20 sec)
Heartbeat CPU 0 instructions: 122500758 cycles: 91166659 heartbeat IPC: 0.8132 cumulative IPC: 0.9094 (Simulation time: 00 hr 15 min 25 sec)
Heartbeat CPU 0 instructions: 123000759 cycles: 91726944 heartbeat IPC: 0.8924 cumulative IPC: 0.9092 (Simulation time: 00 hr 15 min 29 sec)
Heartbeat CPU 0 instructions: 123500760 cycles: 92414025 heartbeat IPC: 0.7277 cumulative IPC: 0.9077 (Simulation time: 00 hr 15 min 36 sec)
Heartbeat CPU 0 instructions: 124000760 cycles: 92854519 heartbeat IPC: 1.135 cumulative IPC: 0.9089 (Simulation time: 00 hr 15 min 40 sec)
Heartbeat CPU 0 instructions: 124500764 cycles: 93360086 heartbeat IPC: 0.989 cumulative IPC: 0.9094 (Simulation time: 00 hr 15 min 45 sec)
Heartbeat CPU 0 instructions: 125000771 cycles: 93739349 heartbeat IPC: 1.318 cumulative IPC: 0.9113 (Simulation time: 00 hr 15 min 48 sec)
Heartbeat CPU 0 instructions: 125500774 cycles: 94000899 heartbeat IPC: 1.912 cumulative IPC: 0.9145 (Simulation time: 00 hr 15 min 51 sec)
Heartbeat CPU 0 instructions: 126000776 cycles: 94252412 heartbeat IPC: 1.988 cumulative IPC: 0.9177 (Simulation time: 00 hr 15 min 54 sec)
Heartbeat CPU 0 instructions: 126500778 cycles: 94521366 heartbeat IPC: 1.859 cumulative IPC: 0.9208 (Simulation time: 00 hr 15 min 57 sec)
Heartbeat CPU 0 instructions: 127000781 cycles: 94787392 heartbeat IPC: 1.88 cumulative IPC: 0.9239 (Simulation time: 00 hr 15 min 59 sec)
Heartbeat CPU 0 instructions: 127500781 cycles: 95056974 heartbeat IPC: 1.855 cumulative IPC: 0.9269 (Simulation time: 00 hr 16 min 02 sec)
Heartbeat CPU 0 instructions: 128000781 cycles: 95345974 heartbeat IPC: 1.73 cumulative IPC: 0.9296 (Simulation time: 00 hr 16 min 06 sec)
Heartbeat CPU 0 instructions: 128500782 cycles: 95609383 heartbeat IPC: 1.898 cumulative IPC: 0.9327 (Simulation time: 00 hr 16 min 08 sec)
Heartbeat CPU 0 instructions: 129000784 cycles: 96163977 heartbeat IPC: 0.9016 cumulative IPC: 0.9324 (Simulation time: 00 hr 16 min 13 sec)
Heartbeat CPU 0 instructions: 129500790 cycles: 96425628 heartbeat IPC: 1.911 cumulative IPC: 0.9355 (Simulation time: 00 hr 16 min 16 sec)
Heartbeat CPU 0 instructions: 130000790 cycles: 96767431 heartbeat IPC: 1.463 cumulative IPC: 0.9376 (Simulation time: 00 hr 16 min 20 sec)
Heartbeat CPU 0 instructions: 130500791 cycles: 97098654 heartbeat IPC: 1.51 cumulative IPC: 0.9398 (Simulation time: 00 hr 16 min 23 sec)
Heartbeat CPU 0 instructions: 131000798 cycles: 97396229 heartbeat IPC: 1.68 cumulative IPC: 0.9423 (Simulation time: 00 hr 16 min 26 sec)
Heartbeat CPU 0 instructions: 131500799 cycles: 97671543 heartbeat IPC: 1.816 cumulative IPC: 0.9451 (Simulation time: 00 hr 16 min 29 sec)
Heartbeat CPU 0 instructions: 132000802 cycles: 97944846 heartbeat IPC: 1.829 cumulative IPC: 0.9479 (Simulation time: 00 hr 16 min 32 sec)
Heartbeat CPU 0 instructions: 132500806 cycles: 98229026 heartbeat IPC: 1.759 cumulative IPC: 0.9506 (Simulation time: 00 hr 16 min 35 sec)
Heartbeat CPU 0 instructions: 133000806 cycles: 98512735 heartbeat IPC: 1.762 cumulative IPC: 0.9532 (Simulation time: 00 hr 16 min 38 sec)
Heartbeat CPU 0 instructions: 133500810 cycles: 99027671 heartbeat IPC: 0.971 cumulative IPC: 0.9533 (Simulation time: 00 hr 16 min 43 sec)
Heartbeat CPU 0 instructions: 134000811 cycles: 99799826 heartbeat IPC: 0.6475 cumulative IPC: 0.9507 (Simulation time: 00 hr 16 min 50 sec)
Heartbeat CPU 0 instructions: 134500818 cycles: 100012429 heartbeat IPC: 2.352 cumulative IPC: 0.954 (Simulation time: 00 hr 16 min 53 sec)
Heartbeat CPU 0 instructions: 135000820 cycles: 100215935 heartbeat IPC: 2.457 cumulative IPC: 0.9575 (Simulation time: 00 hr 16 min 56 sec)
Heartbeat CPU 0 instructions: 135500821 cycles: 100516995 heartbeat IPC: 1.661 cumulative IPC: 0.9599 (Simulation time: 00 hr 16 min 59 sec)
Heartbeat CPU 0 instructions: 136000821 cycles: 100890043 heartbeat IPC: 1.34 cumulative IPC: 0.9614 (Simulation time: 00 hr 17 min 04 sec)
Heartbeat CPU 0 instructions: 136500821 cycles: 101252065 heartbeat IPC: 1.381 cumulative IPC: 0.9631 (Simulation time: 00 hr 17 min 09 sec)
Heartbeat CPU 0 instructions: 137000827 cycles: 102414823 heartbeat IPC: 0.43 cumulative IPC: 0.9563 (Simulation time: 00 hr 17 min 17 sec)
Heartbeat CPU 0 instructions: 137500828 cycles: 103837380 heartbeat IPC: 0.3515 cumulative IPC: 0.947 (Simulation time: 00 hr 17 min 27 sec)
Heartbeat CPU 0 instructions: 138000828 cycles: 104905187 heartbeat IPC: 0.4682 cumulative IPC: 0.9415 (Simulation time: 00 hr 17 min 36 sec)
Heartbeat CPU 0 instructions: 138500829 cycles: 106093590 heartbeat IPC: 0.4207 cumulative IPC: 0.935 (Simulation time: 00 hr 17 min 44 sec)
Heartbeat CPU 0 instructions: 139000831 cycles: 107151047 heartbeat IPC: 0.4728 cumulative IPC: 0.9299 (Simulation time: 00 hr 17 min 51 sec)
Heartbeat CPU 0 instructions: 139500831 cycles: 107653095 heartbeat IPC: 0.9959 cumulative IPC: 0.9302 (Simulation time: 00 hr 17 min 56 sec)
Heartbeat CPU 0 instructions: 140000831 cycles: 108323483 heartbeat IPC: 0.7458 cumulative IPC: 0.929 (Simulation time: 00 hr 18 min 01 sec)
Heartbeat CPU 0 instructions: 140500835 cycles: 108852487 heartbeat IPC: 0.9452 cumulative IPC: 0.929 (Simulation time: 00 hr 18 min 05 sec)
Heartbeat CPU 0 instructions: 141000841 cycles: 109382714 heartbeat IPC: 0.943 cumulative IPC: 0.9291 (Simulation time: 00 hr 18 min 10 sec)
Heartbeat CPU 0 instructions: 141500848 cycles: 109852177 heartbeat IPC: 1.065 cumulative IPC: 0.9298 (Simulation time: 00 hr 18 min 14 sec)
Heartbeat CPU 0 instructions: 142000850 cycles: 110283458 heartbeat IPC: 1.159 cumulative IPC: 0.9308 (Simulation time: 00 hr 18 min 18 sec)
Heartbeat CPU 0 instructions: 142500855 cycles: 110787860 heartbeat IPC: 0.9913 cumulative IPC: 0.9311 (Simulation time: 00 hr 18 min 23 sec)
Heartbeat CPU 0 instructions: 143000857 cycles: 111227046 heartbeat IPC: 1.138 cumulative IPC: 0.932 (Simulation time: 00 hr 18 min 27 sec)
Heartbeat CPU 0 instructions: 143500857 cycles: 111766466 heartbeat IPC: 0.9269 cumulative IPC: 0.932 (Simulation time: 00 hr 18 min 32 sec)
Heartbeat CPU 0 instructions: 144000857 cycles: 112310028 heartbeat IPC: 0.9199 cumulative IPC: 0.9319 (Simulation time: 00 hr 18 min 36 sec)
Heartbeat CPU 0 instructions: 144500857 cycles: 112828948 heartbeat IPC: 0.9635 cumulative IPC: 0.9321 (Simulation time: 00 hr 18 min 41 sec)
Heartbeat CPU 0 instructions: 145000857 cycles: 113305600 heartbeat IPC: 1.049 cumulative IPC: 0.9326 (Simulation time: 00 hr 18 min 45 sec)
Heartbeat CPU 0 instructions: 145500857 cycles: 113935462 heartbeat IPC: 0.7938 cumulative IPC: 0.9318 (Simulation time: 00 hr 18 min 50 sec)
Heartbeat CPU 0 instructions: 146000857 cycles: 114593620 heartbeat IPC: 0.7597 cumulative IPC: 0.9307 (Simulation time: 00 hr 18 min 55 sec)
Heartbeat CPU 0 instructions: 146500858 cycles: 115045926 heartbeat IPC: 1.105 cumulative IPC: 0.9314 (Simulation time: 00 hr 18 min 59 sec)
Heartbeat CPU 0 instructions: 147000859 cycles: 115534202 heartbeat IPC: 1.024 cumulative IPC: 0.9319 (Simulation time: 00 hr 19 min 03 sec)
Heartbeat CPU 0 instructions: 147500859 cycles: 116027017 heartbeat IPC: 1.015 cumulative IPC: 0.9322 (Simulation time: 00 hr 19 min 07 sec)
Heartbeat CPU 0 instructions: 148000864 cycles: 116507551 heartbeat IPC: 1.041 cumulative IPC: 0.9327 (Simulation time: 00 hr 19 min 11 sec)
Heartbeat CPU 0 instructions: 148500864 cycles: 116996832 heartbeat IPC: 1.022 cumulative IPC: 0.9332 (Simulation time: 00 hr 19 min 15 sec)
Heartbeat CPU 0 instructions: 149000866 cycles: 117602440 heartbeat IPC: 0.8256 cumulative IPC: 0.9325 (Simulation time: 00 hr 19 min 20 sec)
Heartbeat CPU 0 instructions: 149500872 cycles: 118224293 heartbeat IPC: 0.8041 cumulative IPC: 0.9318 (Simulation time: 00 hr 19 min 25 sec)
Heartbeat CPU 0 instructions: 150000879 cycles: 118738640 heartbeat IPC: 0.9721 cumulative IPC: 0.932 (Simulation time: 00 hr 19 min 29 sec)
Heartbeat CPU 0 instructions: 150500882 cycles: 119270771 heartbeat IPC: 0.9396 cumulative IPC: 0.932 (Simulation time: 00 hr 19 min 34 sec)
Heartbeat CPU 0 instructions: 151000885 cycles: 120129571 heartbeat IPC: 0.5822 cumulative IPC: 0.9293 (Simulation time: 00 hr 19 min 40 sec)
Heartbeat CPU 0 instructions: 151500885 cycles: 121740108 heartbeat IPC: 0.3105 cumulative IPC: 0.9202 (Simulation time: 00 hr 19 min 52 sec)
Heartbeat CPU 0 instructions: 152000889 cycles: 122279849 heartbeat IPC: 0.9264 cumulative IPC: 0.9203 (Simulation time: 00 hr 19 min 57 sec)
Heartbeat CPU 0 instructions: 152500894 cycles: 122579489 heartbeat IPC: 1.669 cumulative IPC: 0.9223 (Simulation time: 00 hr 20 min 01 sec)
Heartbeat CPU 0 instructions: 153000897 cycles: 122937312 heartbeat IPC: 1.397 cumulative IPC: 0.9238 (Simulation time: 00 hr 20 min 05 sec)
Heartbeat CPU 0 instructions: 153500902 cycles: 123347126 heartbeat IPC: 1.22 cumulative IPC: 0.9249 (Simulation time: 00 hr 20 min 08 sec)
Heartbeat CPU 0 instructions: 154000902 cycles: 123600850 heartbeat IPC: 1.971 cumulative IPC: 0.9272 (Simulation time: 00 hr 20 min 11 sec)
Heartbeat CPU 0 instructions: 154500908 cycles: 123856680 heartbeat IPC: 1.954 cumulative IPC: 0.9296 (Simulation time: 00 hr 20 min 14 sec)
Heartbeat CPU 0 instructions: 155000908 cycles: 124095455 heartbeat IPC: 2.094 cumulative IPC: 0.9321 (Simulation time: 00 hr 20 min 17 sec)
Heartbeat CPU 0 instructions: 155500908 cycles: 124389821 heartbeat IPC: 1.699 cumulative IPC: 0.9341 (Simulation time: 00 hr 20 min 19 sec)
Heartbeat CPU 0 instructions: 156000909 cycles: 124638026 heartbeat IPC: 2.014 cumulative IPC: 0.9364 (Simulation time: 00 hr 20 min 22 sec)
Heartbeat CPU 0 instructions: 156500913 cycles: 124909109 heartbeat IPC: 1.844 cumulative IPC: 0.9386 (Simulation time: 00 hr 20 min 25 sec)
Heartbeat CPU 0 instructions: 157000918 cycles: 125191496 heartbeat IPC: 1.771 cumulative IPC: 0.9407 (Simulation time: 00 hr 20 min 28 sec)
Heartbeat CPU 0 instructions: 157500921 cycles: 125458410 heartbeat IPC: 1.873 cumulative IPC: 0.9428 (Simulation time: 00 hr 20 min 31 sec)
Heartbeat CPU 0 instructions: 158000922 cycles: 125682966 heartbeat IPC: 2.227 cumulative IPC: 0.9454 (Simulation time: 00 hr 20 min 33 sec)
Heartbeat CPU 0 instructions: 158500922 cycles: 126302236 heartbeat IPC: 0.8074 cumulative IPC: 0.9446 (Simulation time: 00 hr 20 min 38 sec)
Heartbeat CPU 0 instructions: 159000922 cycles: 126917058 heartbeat IPC: 0.8132 cumulative IPC: 0.9439 (Simulation time: 00 hr 20 min 44 sec)
Heartbeat CPU 0 instructions: 159500926 cycles: 128132436 heartbeat IPC: 0.4114 cumulative IPC: 0.9384 (Simulation time: 00 hr 20 min 52 sec)
Heartbeat CPU 0 instructions: 160000927 cycles: 128438658 heartbeat IPC: 1.633 cumulative IPC: 0.9402 (Simulation time: 00 hr 20 min 56 sec)
Heartbeat CPU 0 instructions: 160500928 cycles: 128705178 heartbeat IPC: 1.876 cumulative IPC: 0.9423 (Simulation time: 00 hr 20 min 59 sec)
Heartbeat CPU 0 instructions: 161000933 cycles: 128953427 heartbeat IPC: 2.014 cumulative IPC: 0.9446 (Simulation time: 00 hr 21 min 02 sec)
Heartbeat CPU 0 instructions: 161500935 cycles: 129232569 heartbeat IPC: 1.791 cumulative IPC: 0.9466 (Simulation time: 00 hr 21 min 05 sec)
Heartbeat CPU 0 instructions: 162000939 cycles: 129432489 heartbeat IPC: 2.501 cumulative IPC: 0.9492 (Simulation time: 00 hr 21 min 07 sec)
Heartbeat CPU 0 instructions: 162500944 cycles: 129598829 heartbeat IPC: 3.006 cumulative IPC: 0.9521 (Simulation time: 00 hr 21 min 10 sec)
Heartbeat CPU 0 instructions: 163000945 cycles: 129888049 heartbeat IPC: 1.729 cumulative IPC: 0.954 (Simulation time: 00 hr 21 min 13 sec)
Heartbeat CPU 0 instructions: 163500947 cycles: 130656176 heartbeat IPC: 0.6509 cumulative IPC: 0.9521 (Simulation time: 00 hr 21 min 19 sec)
Heartbeat CPU 0 instructions: 164000947 cycles: 132021853 heartbeat IPC: 0.3661 cumulative IPC: 0.9454 (Simulation time: 00 hr 21 min 28 sec)
Heartbeat CPU 0 instructions: 164500947 cycles: 133034043 heartbeat IPC: 0.494 cumulative IPC: 0.9417 (Simulation time: 00 hr 21 min 35 sec)
Heartbeat CPU 0 instructions: 165000949 cycles: 134417600 heartbeat IPC: 0.3614 cumulative IPC: 0.9351 (Simulation time: 00 hr 21 min 46 sec)
Heartbeat CPU 0 instructions: 165500949 cycles: 135515525 heartbeat IPC: 0.4554 cumulative IPC: 0.9309 (Simulation time: 00 hr 21 min 53 sec)
Heartbeat CPU 0 instructions: 166000950 cycles: 135894082 heartbeat IPC: 1.321 cumulative IPC: 0.9321 (Simulation time: 00 hr 21 min 57 sec)
Heartbeat CPU 0 instructions: 166500956 cycles: 136243053 heartbeat IPC: 1.433 cumulative IPC: 0.9335 (Simulation time: 00 hr 22 min 00 sec)
Heartbeat CPU 0 instructions: 167000962 cycles: 136442005 heartbeat IPC: 2.513 cumulative IPC: 0.936 (Simulation time: 00 hr 22 min 02 sec)
Heartbeat CPU 0 instructions: 167500968 cycles: 137749185 heartbeat IPC: 0.3825 cumulative IPC: 0.9303 (Simulation time: 00 hr 22 min 12 sec)
Heartbeat CPU 0 instructions: 168000973 cycles: 139245323 heartbeat IPC: 0.3342 cumulative IPC: 0.9233 (Simulation time: 00 hr 22 min 23 sec)
Heartbeat CPU 0 instructions: 168500976 cycles: 139727669 heartbeat IPC: 1.037 cumulative IPC: 0.9237 (Simulation time: 00 hr 22 min 27 sec)
Heartbeat CPU 0 instructions: 169000980 cycles: 140188085 heartbeat IPC: 1.086 cumulative IPC: 0.9243 (Simulation time: 00 hr 22 min 32 sec)
Heartbeat CPU 0 instructions: 169500984 cycles: 140919823 heartbeat IPC: 0.6833 cumulative IPC: 0.9229 (Simulation time: 00 hr 22 min 38 sec)
Heartbeat CPU 0 instructions: 170000985 cycles: 141399327 heartbeat IPC: 1.043 cumulative IPC: 0.9234 (Simulation time: 00 hr 22 min 42 sec)
Heartbeat CPU 0 instructions: 170500985 cycles: 141857252 heartbeat IPC: 1.092 cumulative IPC: 0.924 (Simulation time: 00 hr 22 min 47 sec)
Heartbeat CPU 0 instructions: 171000988 cycles: 142331925 heartbeat IPC: 1.053 cumulative IPC: 0.9244 (Simulation time: 00 hr 22 min 52 sec)
Heartbeat CPU 0 instructions: 171500989 cycles: 142796850 heartbeat IPC: 1.075 cumulative IPC: 0.925 (Simulation time: 00 hr 22 min 56 sec)
Heartbeat CPU 0 instructions: 172000989 cycles: 143323763 heartbeat IPC: 0.9489 cumulative IPC: 0.9251 (Simulation time: 00 hr 23 min 01 sec)
Heartbeat CPU 0 instructions: 172500991 cycles: 143808388 heartbeat IPC: 1.032 cumulative IPC: 0.9255 (Simulation time: 00 hr 23 min 06 sec)
Heartbeat CPU 0 instructions: 173000997 cycles: 144299520 heartbeat IPC: 1.018 cumulative IPC: 0.9258 (Simulation time: 00 hr 23 min 11 sec)
Heartbeat CPU 0 instructions: 173500999 cycles: 145430023 heartbeat IPC: 0.4423 cumulative IPC: 0.9217 (Simulation time: 00 hr 23 min 21 sec)
Heartbeat CPU 0 instructions: 174001004 cycles: 146110708 heartbeat IPC: 0.7346 cumulative IPC: 0.9208 (Simulation time: 00 hr 23 min 26 sec)
Heartbeat CPU 0 instructions: 174501004 cycles: 146509799 heartbeat IPC: 1.253 cumulative IPC: 0.9218 (Simulation time: 00 hr 23 min 30 sec)
Heartbeat CPU 0 instructions: 175001007 cycles: 146858516 heartbeat IPC: 1.434 cumulative IPC: 0.9231 (Simulation time: 00 hr 23 min 33 sec)
Heartbeat CPU 0 instructions: 175501011 cycles: 147191924 heartbeat IPC: 1.5 cumulative IPC: 0.9245 (Simulation time: 00 hr 23 min 36 sec)
Heartbeat CPU 0 instructions: 176001012 cycles: 148285106 heartbeat IPC: 0.4574 cumulative IPC: 0.9208 (Simulation time: 00 hr 23 min 44 sec)
Heartbeat CPU 0 instructions: 176501015 cycles: 148818783 heartbeat IPC: 0.9369 cumulative IPC: 0.9208 (Simulation time: 00 hr 23 min 49 sec)
Heartbeat CPU 0 instructions: 177001022 cycles: 149222087 heartbeat IPC: 1.24 cumulative IPC: 0.9218 (Simulation time: 00 hr 23 min 52 sec)
Heartbeat CPU 0 instructions: 177501025 cycles: 149924369 heartbeat IPC: 0.712 cumulative IPC: 0.9207 (Simulation time: 00 hr 23 min 57 sec)
Heartbeat CPU 0 instructions: 178001028 cycles: 150451301 heartbeat IPC: 0.9489 cumulative IPC: 0.9208 (Simulation time: 00 hr 24 min 02 sec)
Heartbeat CPU 0 instructions: 178501031 cycles: 151010205 heartbeat IPC: 0.8946 cumulative IPC: 0.9207 (Simulation time: 00 hr 24 min 06 sec)
Heartbeat CPU 0 instructions: 179001031 cycles: 152577529 heartbeat IPC: 0.319 cumulative IPC: 0.914 (Simulation time: 00 hr 24 min 16 sec)
Heartbeat CPU 0 instructions: 179501031 cycles: 154657770 heartbeat IPC: 0.2404 cumulative IPC: 0.9042 (Simulation time: 00 hr 24 min 31 sec)
Heartbeat CPU 0 instructions: 180001037 cycles: 155368195 heartbeat IPC: 0.7038 cumulative IPC: 0.9032 (Simulation time: 00 hr 24 min 37 sec)
Heartbeat CPU 0 instructions: 180501038 cycles: 156000323 heartbeat IPC: 0.791 cumulative IPC: 0.9027 (Simulation time: 00 hr 24 min 43 sec)
Heartbeat CPU 0 instructions: 181001040 cycles: 156650425 heartbeat IPC: 0.7691 cumulative IPC: 0.9021 (Simulation time: 00 hr 24 min 49 sec)
Heartbeat CPU 0 instructions: 181501044 cycles: 157263589 heartbeat IPC: 0.8154 cumulative IPC: 0.9018 (Simulation time: 00 hr 24 min 55 sec)
Heartbeat CPU 0 instructions: 182001045 cycles: 157931826 heartbeat IPC: 0.7482 cumulative IPC: 0.9011 (Simulation time: 00 hr 25 min 01 sec)
Heartbeat CPU 0 instructions: 182501052 cycles: 158580234 heartbeat IPC: 0.7711 cumulative IPC: 0.9005 (Simulation time: 00 hr 25 min 07 sec)
Heartbeat CPU 0 instructions: 183001054 cycles: 159229971 heartbeat IPC: 0.7695 cumulative IPC: 0.8999 (Simulation time: 00 hr 25 min 13 sec)
Heartbeat CPU 0 instructions: 183501054 cycles: 159879018 heartbeat IPC: 0.7704 cumulative IPC: 0.8994 (Simulation time: 00 hr 25 min 20 sec)
Heartbeat CPU 0 instructions: 184001060 cycles: 160537473 heartbeat IPC: 0.7594 cumulative IPC: 0.8987 (Simulation time: 00 hr 25 min 26 sec)
Heartbeat CPU 0 instructions: 184501060 cycles: 161148704 heartbeat IPC: 0.818 cumulative IPC: 0.8984 (Simulation time: 00 hr 25 min 32 sec)
Heartbeat CPU 0 instructions: 185001060 cycles: 161936714 heartbeat IPC: 0.6345 cumulative IPC: 0.897 (Simulation time: 00 hr 25 min 39 sec)
Heartbeat CPU 0 instructions: 185501060 cycles: 162547351 heartbeat IPC: 0.8188 cumulative IPC: 0.8967 (Simulation time: 00 hr 25 min 45 sec)
Heartbeat CPU 0 instructions: 186001061 cycles: 163066484 heartbeat IPC: 0.9631 cumulative IPC: 0.8969 (Simulation time: 00 hr 25 min 49 sec)
Heartbeat CPU 0 instructions: 186501066 cycles: 163529113 heartbeat IPC: 1.081 cumulative IPC: 0.8975 (Simulation time: 00 hr 25 min 53 sec)
Heartbeat CPU 0 instructions: 187001066 cycles: 163963005 heartbeat IPC: 1.152 cumulative IPC: 0.8982 (Simulation time: 00 hr 25 min 57 sec)
Heartbeat CPU 0 instructions: 187501066 cycles: 164403798 heartbeat IPC: 1.134 cumulative IPC: 0.8989 (Simulation time: 00 hr 26 min 02 sec)
Heartbeat CPU 0 instructions: 188001069 cycles: 164860868 heartbeat IPC: 1.094 cumulative IPC: 0.8995 (Simulation time: 00 hr 26 min 06 sec)
Heartbeat CPU 0 instructions: 188501071 cycles: 165285188 heartbeat IPC: 1.178 cumulative IPC: 0.9003 (Simulation time: 00 hr 26 min 10 sec)
Heartbeat CPU 0 instructions: 189001071 cycles: 165717107 heartbeat IPC: 1.158 cumulative IPC: 0.901 (Simulation time: 00 hr 26 min 14 sec)
Heartbeat CPU 0 instructions: 189501073 cycles: 166774442 heartbeat IPC: 0.4729 cumulative IPC: 0.8981 (Simulation time: 00 hr 26 min 21 sec)
Heartbeat CPU 0 instructions: 190001073 cycles: 167405265 heartbeat IPC: 0.7926 cumulative IPC: 0.8976 (Simulation time: 00 hr 26 min 26 sec)
Heartbeat CPU 0 instructions: 190501079 cycles: 167999471 heartbeat IPC: 0.8415 cumulative IPC: 0.8974 (Simulation time: 00 hr 26 min 31 sec)
Heartbeat CPU 0 instructions: 191001080 cycles: 168519938 heartbeat IPC: 0.9607 cumulative IPC: 0.8976 (Simulation time: 00 hr 26 min 35 sec)
Heartbeat CPU 0 instructions: 191501084 cycles: 169045103 heartbeat IPC: 0.9521 cumulative IPC: 0.8978 (Simulation time: 00 hr 26 min 40 sec)
Heartbeat CPU 0 instructions: 192001089 cycles: 169654299 heartbeat IPC: 0.8208 cumulative IPC: 0.8975 (Simulation time: 00 hr 26 min 45 sec)
Heartbeat CPU 0 instructions: 192501095 cycles: 170253355 heartbeat IPC: 0.8347 cumulative IPC: 0.8973 (Simulation time: 00 hr 26 min 50 sec)
Heartbeat CPU 0 instructions: 193001099 cycles: 170834967 heartbeat IPC: 0.8597 cumulative IPC: 0.8971 (Simulation time: 00 hr 26 min 55 sec)
Heartbeat CPU 0 instructions: 193501102 cycles: 171876240 heartbeat IPC: 0.4802 cumulative IPC: 0.8944 (Simulation time: 00 hr 27 min 02 sec)
Heartbeat CPU 0 instructions: 194001108 cycles: 172966208 heartbeat IPC: 0.4587 cumulative IPC: 0.8915 (Simulation time: 00 hr 27 min 09 sec)
Heartbeat CPU 0 instructions: 194501113 cycles: 173269484 heartbeat IPC: 1.649 cumulative IPC: 0.8929 (Simulation time: 00 hr 27 min 12 sec)
Heartbeat CPU 0 instructions: 195001114 cycles: 173550335 heartbeat IPC: 1.78 cumulative IPC: 0.8945 (Simulation time: 00 hr 27 min 15 sec)
Heartbeat CPU 0 instructions: 195501119 cycles: 173846437 heartbeat IPC: 1.689 cumulative IPC: 0.8959 (Simulation time: 00 hr 27 min 18 sec)
Heartbeat CPU 0 instructions: 196001119 cycles: 174631635 heartbeat IPC: 0.6368 cumulative IPC: 0.8947 (Simulation time: 00 hr 27 min 23 sec)
Heartbeat CPU 0 instructions: 196501121 cycles: 174922129 heartbeat IPC: 1.721 cumulative IPC: 0.8961 (Simulation time: 00 hr 27 min 26 sec)
Heartbeat CPU 0 instructions: 197001127 cycles: 175207162 heartbeat IPC: 1.754 cumulative IPC: 0.8976 (Simulation time: 00 hr 27 min 29 sec)
Heartbeat CPU 0 instructions: 197501128 cycles: 175493781 heartbeat IPC: 1.744 cumulative IPC: 0.8991 (Simulation time: 00 hr 27 min 32 sec)
Heartbeat CPU 0 instructions: 198001135 cycles: 175773132 heartbeat IPC: 1.79 cumulative IPC: 0.9006 (Simulation time: 00 hr 27 min 35 sec)
Heartbeat CPU 0 instructions: 198501136 cycles: 176069137 heartbeat IPC: 1.689 cumulative IPC: 0.902 (Simulation time: 00 hr 27 min 38 sec)
Heartbeat CPU 0 instructions: 199001137 cycles: 176360369 heartbeat IPC: 1.717 cumulative IPC: 0.9035 (Simulation time: 00 hr 27 min 41 sec)
Heartbeat CPU 0 instructions: 199501137 cycles: 176645557 heartbeat IPC: 1.753 cumulative IPC: 0.9049 (Simulation time: 00 hr 27 min 44 sec)
Heartbeat CPU 0 instructions: 200001137 cycles: 176923163 heartbeat IPC: 1.801 cumulative IPC: 0.9064 (Simulation time: 00 hr 27 min 47 sec)
Heartbeat CPU 0 instructions: 200501139 cycles: 177195096 heartbeat IPC: 1.839 cumulative IPC: 0.908 (Simulation time: 00 hr 27 min 50 sec)
Heartbeat CPU 0 instructions: 201001139 cycles: 177467321 heartbeat IPC: 1.837 cumulative IPC: 0.9095 (Simulation time: 00 hr 27 min 53 sec)
Heartbeat CPU 0 instructions: 201501140 cycles: 177758785 heartbeat IPC: 1.715 cumulative IPC: 0.9109 (Simulation time: 00 hr 27 min 56 sec)
Heartbeat CPU 0 instructions: 202001141 cycles: 178031574 heartbeat IPC: 1.833 cumulative IPC: 0.9124 (Simulation time: 00 hr 27 min 59 sec)
Heartbeat CPU 0 instructions: 202501141 cycles: 178320402 heartbeat IPC: 1.731 cumulative IPC: 0.9138 (Simulation time: 00 hr 28 min 02 sec)
Heartbeat CPU 0 instructions: 203001142 cycles: 178588115 heartbeat IPC: 1.868 cumulative IPC: 0.9154 (Simulation time: 00 hr 28 min 05 sec)
Heartbeat CPU 0 instructions: 203501142 cycles: 178881362 heartbeat IPC: 1.705 cumulative IPC: 0.9167 (Simulation time: 00 hr 28 min 08 sec)
Heartbeat CPU 0 instructions: 204001146 cycles: 179148533 heartbeat IPC: 1.871 cumulative IPC: 0.9183 (Simulation time: 00 hr 28 min 10 sec)
Heartbeat CPU 0 instructions: 204501148 cycles: 179416131 heartbeat IPC: 1.868 cumulative IPC: 0.9198 (Simulation time: 00 hr 28 min 13 sec)
Heartbeat CPU 0 instructions: 205001149 cycles: 180678350 heartbeat IPC: 0.3961 cumulative IPC: 0.9159 (Simulation time: 00 hr 28 min 21 sec)
Heartbeat CPU 0 instructions: 205501153 cycles: 181403760 heartbeat IPC: 0.6893 cumulative IPC: 0.9149 (Simulation time: 00 hr 28 min 26 sec)
Heartbeat CPU 0 instructions: 206001153 cycles: 181819748 heartbeat IPC: 1.202 cumulative IPC: 0.9156 (Simulation time: 00 hr 28 min 29 sec)
Heartbeat CPU 0 instructions: 206501154 cycles: 183118285 heartbeat IPC: 0.385 cumulative IPC: 0.9116 (Simulation time: 00 hr 28 min 36 sec)
Heartbeat CPU 0 instructions: 207001156 cycles: 183647782 heartbeat IPC: 0.9443 cumulative IPC: 0.9117 (Simulation time: 00 hr 28 min 40 sec)
Heartbeat CPU 0 instructions: 207501160 cycles: 183978972 heartbeat IPC: 1.51 cumulative IPC: 0.9128 (Simulation time: 00 hr 28 min 43 sec)
Heartbeat CPU 0 instructions: 208001162 cycles: 184265849 heartbeat IPC: 1.743 cumulative IPC: 0.9142 (Simulation time: 00 hr 28 min 46 sec)
Heartbeat CPU 0 instructions: 208501162 cycles: 184584387 heartbeat IPC: 1.57 cumulative IPC: 0.9154 (Simulation time: 00 hr 28 min 49 sec)
Heartbeat CPU 0 instructions: 209001162 cycles: 184873796 heartbeat IPC: 1.728 cumulative IPC: 0.9168 (Simulation time: 00 hr 28 min 52 sec)
Heartbeat CPU 0 instructions: 209501167 cycles: 185150018 heartbeat IPC: 1.81 cumulative IPC: 0.9182 (Simulation time: 00 hr 28 min 55 sec)
Heartbeat CPU 0 instructions: 210001167 cycles: 185428953 heartbeat IPC: 1.793 cumulative IPC: 0.9196 (Simulation time: 00 hr 28 min 58 sec)
Heartbeat CPU 0 instructions: 210501169 cycles: 185719881 heartbeat IPC: 1.719 cumulative IPC: 0.9209 (Simulation time: 00 hr 29 min 01 sec)
Heartbeat CPU 0 instructions: 211001175 cycles: 186025927 heartbeat IPC: 1.634 cumulative IPC: 0.9222 (Simulation time: 00 hr 29 min 04 sec)
Heartbeat CPU 0 instructions: 211501175 cycles: 186304614 heartbeat IPC: 1.794 cumulative IPC: 0.9236 (Simulation time: 00 hr 29 min 06 sec)
Heartbeat CPU 0 instructions: 212001175 cycles: 186586208 heartbeat IPC: 1.776 cumulative IPC: 0.9249 (Simulation time: 00 hr 29 min 09 sec)
Heartbeat CPU 0 instructions: 212501175 cycles: 186865259 heartbeat IPC: 1.792 cumulative IPC: 0.9263 (Simulation time: 00 hr 29 min 12 sec)
Heartbeat CPU 0 instructions: 213001178 cycles: 187142644 heartbeat IPC: 1.803 cumulative IPC: 0.9277 (Simulation time: 00 hr 29 min 15 sec)
Heartbeat CPU 0 instructions: 213501180 cycles: 187429082 heartbeat IPC: 1.746 cumulative IPC: 0.929 (Simulation time: 00 hr 29 min 18 sec)
Heartbeat CPU 0 instructions: 214001181 cycles: 187696337 heartbeat IPC: 1.871 cumulative IPC: 0.9305 (Simulation time: 00 hr 29 min 21 sec)
Heartbeat CPU 0 instructions: 214501181 cycles: 187976519 heartbeat IPC: 1.785 cumulative IPC: 0.9318 (Simulation time: 00 hr 29 min 24 sec)
Heartbeat CPU 0 instructions: 215001181 cycles: 188270674 heartbeat IPC: 1.7 cumulative IPC: 0.9331 (Simulation time: 00 hr 29 min 27 sec)
Heartbeat CPU 0 instructions: 215501181 cycles: 188570337 heartbeat IPC: 1.669 cumulative IPC: 0.9343 (Simulation time: 00 hr 29 min 30 sec)
Heartbeat CPU 0 instructions: 216001182 cycles: 188850226 heartbeat IPC: 1.786 cumulative IPC: 0.9357 (Simulation time: 00 hr 29 min 32 sec)
Heartbeat CPU 0 instructions: 216501182 cycles: 189130773 heartbeat IPC: 1.782 cumulative IPC: 0.937 (Simulation time: 00 hr 29 min 35 sec)
Heartbeat CPU 0 instructions: 217001182 cycles: 189411526 heartbeat IPC: 1.781 cumulative IPC: 0.9384 (Simulation time: 00 hr 29 min 38 sec)
Heartbeat CPU 0 instructions: 217501185 cycles: 189684316 heartbeat IPC: 1.833 cumulative IPC: 0.9397 (Simulation time: 00 hr 29 min 41 sec)
Heartbeat CPU 0 instructions: 218001185 cycles: 189964563 heartbeat IPC: 1.784 cumulative IPC: 0.9411 (Simulation time: 00 hr 29 min 44 sec)
Heartbeat CPU 0 instructions: 218501188 cycles: 190921426 heartbeat IPC: 0.5225 cumulative IPC: 0.9388 (Simulation time: 00 hr 29 min 50 sec)
Heartbeat CPU 0 instructions: 219001190 cycles: 192336653 heartbeat IPC: 0.3533 cumulative IPC: 0.9342 (Simulation time: 00 hr 29 min 58 sec)
Heartbeat CPU 0 instructions: 219501192 cycles: 192773284 heartbeat IPC: 1.145 cumulative IPC: 0.9347 (Simulation time: 00 hr 30 min 02 sec)
Heartbeat CPU 0 instructions: 220001198 cycles: 193065560 heartbeat IPC: 1.711 cumulative IPC: 0.936 (Simulation time: 00 hr 30 min 05 sec)
Heartbeat CPU 0 instructions: 220501201 cycles: 193347936 heartbeat IPC: 1.771 cumulative IPC: 0.9373 (Simulation time: 00 hr 30 min 08 sec)
Heartbeat CPU 0 instructions: 221001206 cycles: 193632011 heartbeat IPC: 1.76 cumulative IPC: 0.9386 (Simulation time: 00 hr 30 min 11 sec)
Heartbeat CPU 0 instructions: 221501212 cycles: 193907687 heartbeat IPC: 1.814 cumulative IPC: 0.9399 (Simulation time: 00 hr 30 min 13 sec)
Heartbeat CPU 0 instructions: 222001215 cycles: 194186387 heartbeat IPC: 1.794 cumulative IPC: 0.9412 (Simulation time: 00 hr 30 min 16 sec)
Heartbeat CPU 0 instructions: 222501215 cycles: 194464678 heartbeat IPC: 1.797 cumulative IPC: 0.9425 (Simulation time: 00 hr 30 min 19 sec)
Heartbeat CPU 0 instructions: 223001219 cycles: 194759945 heartbeat IPC: 1.693 cumulative IPC: 0.9437 (Simulation time: 00 hr 30 min 22 sec)
Heartbeat CPU 0 instructions: 223501219 cycles: 195033985 heartbeat IPC: 1.825 cumulative IPC: 0.945 (Simulation time: 00 hr 30 min 25 sec)
Heartbeat CPU 0 instructions: 224001222 cycles: 195306397 heartbeat IPC: 1.835 cumulative IPC: 0.9463 (Simulation time: 00 hr 30 min 28 sec)
Heartbeat CPU 0 instructions: 224501223 cycles: 195586778 heartbeat IPC: 1.783 cumulative IPC: 0.9476 (Simulation time: 00 hr 30 min 30 sec)
Heartbeat CPU 0 instructions: 225001224 cycles: 195873411 heartbeat IPC: 1.744 cumulative IPC: 0.9489 (Simulation time: 00 hr 30 min 33 sec)
Heartbeat CPU 0 instructions: 225501224 cycles: 196155899 heartbeat IPC: 1.77 cumulative IPC: 0.9501 (Simulation time: 00 hr 30 min 36 sec)
Heartbeat CPU 0 instructions: 226001224 cycles: 196443952 heartbeat IPC: 1.736 cumulative IPC: 0.9513 (Simulation time: 00 hr 30 min 39 sec)
Heartbeat CPU 0 instructions: 226501226 cycles: 196730952 heartbeat IPC: 1.742 cumulative IPC: 0.9526 (Simulation time: 00 hr 30 min 42 sec)
Heartbeat CPU 0 instructions: 227001230 cycles: 197008581 heartbeat IPC: 1.801 cumulative IPC: 0.9538 (Simulation time: 00 hr 30 min 45 sec)
Heartbeat CPU 0 instructions: 227501232 cycles: 197303319 heartbeat IPC: 1.696 cumulative IPC: 0.955 (Simulation time: 00 hr 30 min 48 sec)
Heartbeat CPU 0 instructions: 228001237 cycles: 197582550 heartbeat IPC: 1.791 cumulative IPC: 0.9563 (Simulation time: 00 hr 30 min 50 sec)
Heartbeat CPU 0 instructions: 228501243 cycles: 197875594 heartbeat IPC: 1.706 cumulative IPC: 0.9574 (Simulation time: 00 hr 30 min 53 sec)
Heartbeat CPU 0 instructions: 229001250 cycles: 198158969 heartbeat IPC: 1.764 cumulative IPC: 0.9587 (Simulation time: 00 hr 30 min 56 sec)
Heartbeat CPU 0 instructions: 229501253 cycles: 198659032 heartbeat IPC: 0.9999 cumulative IPC: 0.9588 (Simulation time: 00 hr 31 min 00 sec)
Heartbeat CPU 0 instructions: 230001255 cycles: 198952319 heartbeat IPC: 1.705 cumulative IPC: 0.9599 (Simulation time: 00 hr 31 min 03 sec)
Heartbeat CPU 0 instructions: 230501256 cycles: 199226540 heartbeat IPC: 1.823 cumulative IPC: 0.9612 (Simulation time: 00 hr 31 min 06 sec)
Heartbeat CPU 0 instructions: 231001256 cycles: 199513029 heartbeat IPC: 1.745 cumulative IPC: 0.9624 (Simulation time: 00 hr 31 min 09 sec)
Heartbeat CPU 0 instructions: 231501256 cycles: 199786532 heartbeat IPC: 1.828 cumulative IPC: 0.9637 (Simulation time: 00 hr 31 min 11 sec)
Heartbeat CPU 0 instructions: 232001258 cycles: 200059014 heartbeat IPC: 1.835 cumulative IPC: 0.9649 (Simulation time: 00 hr 31 min 14 sec)
Heartbeat CPU 0 instructions: 232501258 cycles: 200336919 heartbeat IPC: 1.799 cumulative IPC: 0.9661 (Simulation time: 00 hr 31 min 17 sec)
Heartbeat CPU 0 instructions: 233001265 cycles: 200613848 heartbeat IPC: 1.806 cumulative IPC: 0.9674 (Simulation time: 00 hr 31 min 20 sec)
Heartbeat CPU 0 instructions: 233501265 cycles: 200897902 heartbeat IPC: 1.76 cumulative IPC: 0.9686 (Simulation time: 00 hr 31 min 22 sec)
Heartbeat CPU 0 instructions: 234001265 cycles: 201164882 heartbeat IPC: 1.873 cumulative IPC: 0.9698 (Simulation time: 00 hr 31 min 25 sec)
Heartbeat CPU 0 instructions: 234501266 cycles: 201477793 heartbeat IPC: 1.598 cumulative IPC: 0.9709 (Simulation time: 00 hr 31 min 28 sec)
Heartbeat CPU 0 instructions: 235001272 cycles: 201750249 heartbeat IPC: 1.835 cumulative IPC: 0.9721 (Simulation time: 00 hr 31 min 31 sec)
Heartbeat CPU 0 instructions: 235501272 cycles: 202029494 heartbeat IPC: 1.791 cumulative IPC: 0.9733 (Simulation time: 00 hr 31 min 34 sec)
Heartbeat CPU 0 instructions: 236001274 cycles: 202309097 heartbeat IPC: 1.788 cumulative IPC: 0.9745 (Simulation time: 00 hr 31 min 36 sec)
Heartbeat CPU 0 instructions: 236501274 cycles: 202572473 heartbeat IPC: 1.898 cumulative IPC: 0.9758 (Simulation time: 00 hr 31 min 39 sec)
Heartbeat CPU 0 instructions: 237001279 cycles: 202858853 heartbeat IPC: 1.746 cumulative IPC: 0.9769 (Simulation time: 00 hr 31 min 42 sec)
Heartbeat CPU 0 instructions: 237501285 cycles: 203154899 heartbeat IPC: 1.689 cumulative IPC: 0.978 (Simulation time: 00 hr 31 min 45 sec)
Heartbeat CPU 0 instructions: 238001286 cycles: 203446990 heartbeat IPC: 1.712 cumulative IPC: 0.9791 (Simulation time: 00 hr 31 min 48 sec)
Heartbeat CPU 0 instructions: 238501292 cycles: 203716945 heartbeat IPC: 1.852 cumulative IPC: 0.9804 (Simulation time: 00 hr 31 min 50 sec)
Heartbeat CPU 0 instructions: 239001296 cycles: 204009282 heartbeat IPC: 1.71 cumulative IPC: 0.9815 (Simulation time: 00 hr 31 min 53 sec)
Heartbeat CPU 0 instructions: 239501299 cycles: 205375313 heartbeat IPC: 0.366 cumulative IPC: 0.9771 (Simulation time: 00 hr 32 min 01 sec)
Heartbeat CPU 0 instructions: 240001299 cycles: 206819220 heartbeat IPC: 0.3463 cumulative IPC: 0.9725 (Simulation time: 00 hr 32 min 09 sec)
Heartbeat CPU 0 instructions: 240501301 cycles: 207421131 heartbeat IPC: 0.8307 cumulative IPC: 0.972 (Simulation time: 00 hr 32 min 13 sec)
Heartbeat CPU 0 instructions: 241001303 cycles: 208274642 heartbeat IPC: 0.5858 cumulative IPC: 0.9704 (Simulation time: 00 hr 32 min 19 sec)
Heartbeat CPU 0 instructions: 241501304 cycles: 209255747 heartbeat IPC: 0.5096 cumulative IPC: 0.9681 (Simulation time: 00 hr 32 min 25 sec)
Heartbeat CPU 0 instructions: 242001304 cycles: 210711328 heartbeat IPC: 0.3435 cumulative IPC: 0.9635 (Simulation time: 00 hr 32 min 34 sec)
Heartbeat CPU 0 instructions: 242501304 cycles: 211732227 heartbeat IPC: 0.4898 cumulative IPC: 0.9611 (Simulation time: 00 hr 32 min 40 sec)
Heartbeat CPU 0 instructions: 243001304 cycles: 212020832 heartbeat IPC: 1.732 cumulative IPC: 0.9622 (Simulation time: 00 hr 32 min 43 sec)
Heartbeat CPU 0 instructions: 243501309 cycles: 212320049 heartbeat IPC: 1.671 cumulative IPC: 0.9633 (Simulation time: 00 hr 32 min 46 sec)
Heartbeat CPU 0 instructions: 244001310 cycles: 212634788 heartbeat IPC: 1.589 cumulative IPC: 0.9642 (Simulation time: 00 hr 32 min 49 sec)
Heartbeat CPU 0 instructions: 244501310 cycles: 212942331 heartbeat IPC: 1.626 cumulative IPC: 0.9653 (Simulation time: 00 hr 32 min 52 sec)
Heartbeat CPU 0 instructions: 245001310 cycles: 213243110 heartbeat IPC: 1.662 cumulative IPC: 0.9663 (Simulation time: 00 hr 32 min 54 sec)
Heartbeat CPU 0 instructions: 245501317 cycles: 213539150 heartbeat IPC: 1.689 cumulative IPC: 0.9674 (Simulation time: 00 hr 32 min 57 sec)
Heartbeat CPU 0 instructions: 246001321 cycles: 213824556 heartbeat IPC: 1.752 cumulative IPC: 0.9685 (Simulation time: 00 hr 33 min 00 sec)
Heartbeat CPU 0 instructions: 246501328 cycles: 214536546 heartbeat IPC: 0.7023 cumulative IPC: 0.9675 (Simulation time: 00 hr 33 min 05 sec)
Heartbeat CPU 0 instructions: 247001332 cycles: 215346831 heartbeat IPC: 0.6171 cumulative IPC: 0.9661 (Simulation time: 00 hr 33 min 11 sec)
Heartbeat CPU 0 instructions: 247501333 cycles: 216079105 heartbeat IPC: 0.6828 cumulative IPC: 0.9651 (Simulation time: 00 hr 33 min 16 sec)
Heartbeat CPU 0 instructions: 248001333 cycles: 216680096 heartbeat IPC: 0.832 cumulative IPC: 0.9647 (Simulation time: 00 hr 33 min 21 sec)
Heartbeat CPU 0 instructions: 248501337 cycles: 217321496 heartbeat IPC: 0.7796 cumulative IPC: 0.9642 (Simulation time: 00 hr 33 min 27 sec)
Heartbeat CPU 0 instructions: 249001339 cycles: 218105480 heartbeat IPC: 0.6378 cumulative IPC: 0.9629 (Simulation time: 00 hr 33 min 33 sec)
Heartbeat CPU 0 instructions: 249501343 cycles: 219032504 heartbeat IPC: 0.5394 cumulative IPC: 0.961 (Simulation time: 00 hr 33 min 41 sec)
Simulation finished CPU 0 instructions: 200000004 cycles: 208627256 cumulative IPC: 0.9586 (Simulation time: 00 hr 33 min 49 sec)
Simulation complete CPU 0 instructions: 200000004 cycles: 208627256 cumulative IPC: 0.9586 (Simulation time: 00 hr 33 min 49 sec)

ChampSim completed all CPUs

=== Simulation ===
CPU 0 runs /local-ssd/ben/dpc4-traces/gtraces_v2/charlie_0004.champsim.gz

Region of Interest Statistics

CPU 0 cumulative IPC: 0.9586 instructions: 200000004 cycles: 208627256
CPU 0 Branch Prediction Accuracy: 95.27% MPKI: 8.875 Average ROB Occupancy at Mispredict: 51.55
Branch type MPKI
BRANCH_DIRECT_JUMP: 0.2505
BRANCH_INDIRECT: 0.08095
BRANCH_CONDITIONAL: 7.923
BRANCH_DIRECT_CALL: 0.2287
BRANCH_INDIRECT_CALL: 0.1403
BRANCH_RETURN: 0.2513

cpu0->cpu0_STLB TOTAL        ACCESS:    1816699 HIT:    1571814 MISS:     244885 MSHR_MERGE:          0
cpu0->cpu0_STLB LOAD         ACCESS:    1816699 HIT:    1571814 MISS:     244885 MSHR_MERGE:          0
cpu0->cpu0_STLB RFO          ACCESS:          0 HIT:          0 MISS:          0 MSHR_MERGE:          0
cpu0->cpu0_STLB PREFETCH     ACCESS:          0 HIT:          0 MISS:          0 MSHR_MERGE:          0
cpu0->cpu0_STLB WRITE        ACCESS:          0 HIT:          0 MISS:          0 MSHR_MERGE:          0
cpu0->cpu0_STLB TRANSLATION  ACCESS:          0 HIT:          0 MISS:          0 MSHR_MERGE:          0
cpu0->cpu0_STLB PREFETCH REQUESTED:          0 ISSUED:          0 USEFUL:          0 USELESS:          0
cpu0->cpu0_STLB AVERAGE MISS LATENCY: 210.8 cycles
cpu0->cpu0_L2C TOTAL        ACCESS:    6447685 HIT:    3698243 MISS:    2749442 MSHR_MERGE:     536279
cpu0->cpu0_L2C LOAD         ACCESS:    1742843 HIT:    1125293 MISS:     617550 MSHR_MERGE:       6609
cpu0->cpu0_L2C RFO          ACCESS:     519633 HIT:     140517 MISS:     379116 MSHR_MERGE:         61
cpu0->cpu0_L2C PREFETCH     ACCESS:    3078297 HIT:    1431077 MISS:    1647220 MSHR_MERGE:     529609
cpu0->cpu0_L2C WRITE        ACCESS:     851527 HIT:     851448 MISS:         79 MSHR_MERGE:          0
cpu0->cpu0_L2C TRANSLATION  ACCESS:     255385 HIT:     149908 MISS:     105477 MSHR_MERGE:          0
cpu0->cpu0_L2C PREFETCH REQUESTED:    2343371 ISSUED:    2331316 USEFUL:      26807 USELESS:       4553
cpu0->cpu0_L2C AVERAGE MISS LATENCY: 215.2 cycles
cpu0->cpu0_L1I TOTAL        ACCESS:   19389275 HIT:   18426437 MISS:     962838 MSHR_MERGE:     245492
cpu0->cpu0_L1I LOAD         ACCESS:   19389275 HIT:   18426437 MISS:     962838 MSHR_MERGE:     245492
cpu0->cpu0_L1I RFO          ACCESS:          0 HIT:          0 MISS:          0 MSHR_MERGE:          0
cpu0->cpu0_L1I PREFETCH     ACCESS:          0 HIT:          0 MISS:          0 MSHR_MERGE:          0
cpu0->cpu0_L1I WRITE        ACCESS:          0 HIT:          0 MISS:          0 MSHR_MERGE:          0
cpu0->cpu0_L1I TRANSLATION  ACCESS:          0 HIT:          0 MISS:          0 MSHR_MERGE:          0
cpu0->cpu0_L1I PREFETCH REQUESTED:          0 ISSUED:          0 USEFUL:          0 USELESS:          0
cpu0->cpu0_L1I AVERAGE MISS LATENCY: 49.9 cycles
cpu0->cpu0_L1D TOTAL        ACCESS:   55606079 HIT:   51267425 MISS:    4338654 MSHR_MERGE:    1791121
cpu0->cpu0_L1D LOAD         ACCESS:   30634943 HIT:   29275526 MISS:    1359417 MSHR_MERGE:     333910
cpu0->cpu0_L1D RFO          ACCESS:          0 HIT:          0 MISS:          0 MSHR_MERGE:          0
cpu0->cpu0_L1D PREFETCH     ACCESS:    1895704 HIT:    1107208 MISS:     788496 MSHR_MERGE:      41513
cpu0->cpu0_L1D WRITE        ACCESS:   22426803 HIT:   20496597 MISS:    1930206 MSHR_MERGE:    1410548
cpu0->cpu0_L1D TRANSLATION  ACCESS:     648629 HIT:     388094 MISS:     260535 MSHR_MERGE:       5150
cpu0->cpu0_L1D PREFETCH REQUESTED:    1959377 ISSUED:    1895697 USEFUL:     401588 USELESS:     345355
cpu0->cpu0_L1D AVERAGE MISS LATENCY: 122.9 cycles
cpu0->cpu0_ITLB TOTAL        ACCESS:   15860604 HIT:   15753754 MISS:     106850 MSHR_MERGE:      49228
cpu0->cpu0_ITLB LOAD         ACCESS:   15860604 HIT:   15753754 MISS:     106850 MSHR_MERGE:      49228
cpu0->cpu0_ITLB RFO          ACCESS:          0 HIT:          0 MISS:          0 MSHR_MERGE:          0
cpu0->cpu0_ITLB PREFETCH     ACCESS:          0 HIT:          0 MISS:          0 MSHR_MERGE:          0
cpu0->cpu0_ITLB WRITE        ACCESS:          0 HIT:          0 MISS:          0 MSHR_MERGE:          0
cpu0->cpu0_ITLB TRANSLATION  ACCESS:          0 HIT:          0 MISS:          0 MSHR_MERGE:          0
cpu0->cpu0_ITLB PREFETCH REQUESTED:          0 ISSUED:          0 USEFUL:          0 USELESS:          0
cpu0->cpu0_ITLB AVERAGE MISS LATENCY: 52.66 cycles
cpu0->cpu0_DTLB TOTAL        ACCESS:   51563136 HIT:   48886604 MISS:    2676532 MSHR_MERGE:     917455
cpu0->cpu0_DTLB LOAD         ACCESS:   51563136 HIT:   48886604 MISS:    2676532 MSHR_MERGE:     917455
cpu0->cpu0_DTLB RFO          ACCESS:          0 HIT:          0 MISS:          0 MSHR_MERGE:          0
cpu0->cpu0_DTLB PREFETCH     ACCESS:          0 HIT:          0 MISS:          0 MSHR_MERGE:          0
cpu0->cpu0_DTLB WRITE        ACCESS:          0 HIT:          0 MISS:          0 MSHR_MERGE:          0
cpu0->cpu0_DTLB TRANSLATION  ACCESS:          0 HIT:          0 MISS:          0 MSHR_MERGE:          0
cpu0->cpu0_DTLB PREFETCH REQUESTED:          0 ISSUED:          0 USEFUL:          0 USELESS:          0
cpu0->cpu0_DTLB AVERAGE MISS LATENCY: 32.93 cycles
cpu0->LLC TOTAL        ACCESS:    3629476 HIT:     995181 MISS:    2634295 MSHR_MERGE:     153094
cpu0->LLC LOAD         ACCESS:     610941 HIT:     167338 MISS:     443603 MSHR_MERGE:      29759
cpu0->LLC RFO          ACCESS:     379055 HIT:      42351 MISS:     336704 MSHR_MERGE:       3173
cpu0->LLC PREFETCH     ACCESS:    1947220 HIT:     603181 MISS:    1344039 MSHR_MERGE:     120162
cpu0->LLC WRITE        ACCESS:     586783 HIT:     180823 MISS:     405960 MSHR_MERGE:          0
cpu0->LLC TRANSLATION  ACCESS:     105477 HIT:       1488 MISS:     103989 MSHR_MERGE:          0
cpu0->LLC PREFETCH REQUESTED:     858844 ISSUED:     829678 USEFUL:     186149 USELESS:     387905
cpu0->LLC AVERAGE MISS LATENCY: 168.8 cycles

DRAM Statistics

Channel 0 RQ ROW_BUFFER_HIT:      72259
  ROW_BUFFER_MISS:    2002920
  AVG DBUS CONGESTED CYCLE: 19.41
Channel 0 WQ ROW_BUFFER_HIT:     128001
  ROW_BUFFER_MISS:     443421
  FULL:        579
Channel 0 REFRESHES ISSUED:      17384
