[VMEM] WARNING: physical memory size is smaller than virtual memory size.

*** ChampSim Multicore Out-of-Order Simulator ***
Warmup Instructions: 50000000
Simulation Instructions: 200000000
Number of CPUs: 1
Page size: 4096
Core 0: /local-ssd/ben/dpc4-traces/gtraces_v2/sierra.a.6_0002.champsim.gz
Initialize SIGNATURE TABLE
ST_SET: 1
ST_WAY: 256
ST_TAG_BIT: 16

Initialize PATTERN TABLE
PT_SET: 512
PT_WAY: 4
SIG_DELTA_BIT: 7
C_SIG_BIT: 4
C_DELTA_BIT: 4

Initialize PREFETCH FILTER
FILTER_SET: 1024
 L1D Berti prefetcher
Off-chip DRAM Size: 64 GiB Channels: 1 Width: 64-bit Data Rate: 4807 MT/s
[BTB] WARNING: target of return is a lower address than the corresponding call. This is usually a problem with your trace.
[BTB] WARNING: target of return is a lower address than the corresponding call. This is usually a problem with your trace.
Heartbeat CPU 0 instructions: 500006 cycles: 248134 heartbeat IPC: 2.015 cumulative IPC: 2.015 (Simulation time: 00 hr 00 min 07 sec)
[BTB] WARNING: target of return is a lower address than the corresponding call. This is usually a problem with your trace.
[BTB] WARNING: target of return is a lower address than the corresponding call. This is usually a problem with your trace.
Heartbeat CPU 0 instructions: 1000011 cycles: 395061 heartbeat IPC: 3.403 cumulative IPC: 2.531 (Simulation time: 00 hr 00 min 09 sec)
[BTB] WARNING: target of return is a lower address than the corresponding call. This is usually a problem with your trace.
Heartbeat CPU 0 instructions: 1500012 cycles: 530822 heartbeat IPC: 3.683 cumulative IPC: 2.826 (Simulation time: 00 hr 00 min 12 sec)
Heartbeat CPU 0 instructions: 2000013 cycles: 644912 heartbeat IPC: 4.383 cumulative IPC: 3.101 (Simulation time: 00 hr 00 min 13 sec)
Heartbeat CPU 0 instructions: 2500015 cycles: 764567 heartbeat IPC: 4.179 cumulative IPC: 3.27 (Simulation time: 00 hr 00 min 15 sec)
[BTB] WARNING: target of return is a lower address than the corresponding call. This is usually a problem with your trace.
[BTB] WARNING: target of return is a lower address than the corresponding call. This is usually a problem with your trace.
[BTB] WARNING: target of return is a lower address than the corresponding call. This is usually a problem with your trace.
Heartbeat CPU 0 instructions: 3000018 cycles: 928246 heartbeat IPC: 3.055 cumulative IPC: 3.232 (Simulation time: 00 hr 00 min 18 sec)
[BTB] WARNING: target of return is a lower address than the corresponding call. This is usually a problem with your trace.
[BTB] WARNING: target of return is a lower address than the corresponding call. This is usually a problem with your trace.
Heartbeat CPU 0 instructions: 3500022 cycles: 1114170 heartbeat IPC: 2.689 cumulative IPC: 3.141 (Simulation time: 00 hr 00 min 21 sec)
Heartbeat CPU 0 instructions: 4000024 cycles: 1304616 heartbeat IPC: 2.625 cumulative IPC: 3.066 (Simulation time: 00 hr 00 min 25 sec)
Heartbeat CPU 0 instructions: 4500029 cycles: 1446416 heartbeat IPC: 3.526 cumulative IPC: 3.111 (Simulation time: 00 hr 00 min 28 sec)
Heartbeat CPU 0 instructions: 5000034 cycles: 1571279 heartbeat IPC: 4.004 cumulative IPC: 3.182 (Simulation time: 00 hr 00 min 30 sec)
Heartbeat CPU 0 instructions: 5500034 cycles: 1729167 heartbeat IPC: 3.167 cumulative IPC: 3.181 (Simulation time: 00 hr 00 min 33 sec)
Heartbeat CPU 0 instructions: 6000034 cycles: 1860324 heartbeat IPC: 3.812 cumulative IPC: 3.225 (Simulation time: 00 hr 00 min 35 sec)
Heartbeat CPU 0 instructions: 6500041 cycles: 2043153 heartbeat IPC: 2.735 cumulative IPC: 3.181 (Simulation time: 00 hr 00 min 39 sec)
Heartbeat CPU 0 instructions: 7000042 cycles: 2183711 heartbeat IPC: 3.557 cumulative IPC: 3.206 (Simulation time: 00 hr 00 min 41 sec)
Heartbeat CPU 0 instructions: 7500045 cycles: 2298698 heartbeat IPC: 4.348 cumulative IPC: 3.263 (Simulation time: 00 hr 00 min 43 sec)
Heartbeat CPU 0 instructions: 8000052 cycles: 2423375 heartbeat IPC: 4.01 cumulative IPC: 3.301 (Simulation time: 00 hr 00 min 46 sec)
Heartbeat CPU 0 instructions: 8500058 cycles: 2666778 heartbeat IPC: 2.054 cumulative IPC: 3.187 (Simulation time: 00 hr 00 min 49 sec)
Heartbeat CPU 0 instructions: 9000065 cycles: 2800809 heartbeat IPC: 3.731 cumulative IPC: 3.213 (Simulation time: 00 hr 00 min 52 sec)
Heartbeat CPU 0 instructions: 9500070 cycles: 3002802 heartbeat IPC: 2.475 cumulative IPC: 3.164 (Simulation time: 00 hr 00 min 55 sec)
Heartbeat CPU 0 instructions: 10000071 cycles: 3183367 heartbeat IPC: 2.769 cumulative IPC: 3.141 (Simulation time: 00 hr 00 min 58 sec)
Heartbeat CPU 0 instructions: 10500071 cycles: 3352066 heartbeat IPC: 2.964 cumulative IPC: 3.132 (Simulation time: 00 hr 01 min 01 sec)
Heartbeat CPU 0 instructions: 11000071 cycles: 3606081 heartbeat IPC: 1.968 cumulative IPC: 3.05 (Simulation time: 00 hr 01 min 05 sec)
Heartbeat CPU 0 instructions: 11500073 cycles: 3789878 heartbeat IPC: 2.72 cumulative IPC: 3.034 (Simulation time: 00 hr 01 min 08 sec)
Heartbeat CPU 0 instructions: 12000076 cycles: 3964733 heartbeat IPC: 2.86 cumulative IPC: 3.027 (Simulation time: 00 hr 01 min 11 sec)
Heartbeat CPU 0 instructions: 12500078 cycles: 4134929 heartbeat IPC: 2.938 cumulative IPC: 3.023 (Simulation time: 00 hr 01 min 14 sec)
Heartbeat CPU 0 instructions: 13000081 cycles: 4302555 heartbeat IPC: 2.983 cumulative IPC: 3.021 (Simulation time: 00 hr 01 min 17 sec)
Heartbeat CPU 0 instructions: 13500087 cycles: 4466561 heartbeat IPC: 3.049 cumulative IPC: 3.022 (Simulation time: 00 hr 01 min 20 sec)
Heartbeat CPU 0 instructions: 14000094 cycles: 4652490 heartbeat IPC: 2.689 cumulative IPC: 3.009 (Simulation time: 00 hr 01 min 24 sec)
Heartbeat CPU 0 instructions: 14500097 cycles: 4809265 heartbeat IPC: 3.189 cumulative IPC: 3.015 (Simulation time: 00 hr 01 min 27 sec)
Heartbeat CPU 0 instructions: 15000099 cycles: 4967588 heartbeat IPC: 3.158 cumulative IPC: 3.02 (Simulation time: 00 hr 01 min 29 sec)
Heartbeat CPU 0 instructions: 15500102 cycles: 5124640 heartbeat IPC: 3.184 cumulative IPC: 3.025 (Simulation time: 00 hr 01 min 32 sec)
Heartbeat CPU 0 instructions: 16000106 cycles: 5280047 heartbeat IPC: 3.217 cumulative IPC: 3.03 (Simulation time: 00 hr 01 min 35 sec)
Heartbeat CPU 0 instructions: 16500113 cycles: 5438880 heartbeat IPC: 3.148 cumulative IPC: 3.034 (Simulation time: 00 hr 01 min 38 sec)
Heartbeat CPU 0 instructions: 17000116 cycles: 5603114 heartbeat IPC: 3.044 cumulative IPC: 3.034 (Simulation time: 00 hr 01 min 41 sec)
Heartbeat CPU 0 instructions: 17500122 cycles: 5755285 heartbeat IPC: 3.286 cumulative IPC: 3.041 (Simulation time: 00 hr 01 min 44 sec)
Heartbeat CPU 0 instructions: 18000126 cycles: 5906330 heartbeat IPC: 3.31 cumulative IPC: 3.048 (Simulation time: 00 hr 01 min 47 sec)
Heartbeat CPU 0 instructions: 18500130 cycles: 6054165 heartbeat IPC: 3.382 cumulative IPC: 3.056 (Simulation time: 00 hr 01 min 50 sec)
Heartbeat CPU 0 instructions: 19000131 cycles: 6206981 heartbeat IPC: 3.272 cumulative IPC: 3.061 (Simulation time: 00 hr 01 min 53 sec)
Heartbeat CPU 0 instructions: 19500136 cycles: 6378422 heartbeat IPC: 2.916 cumulative IPC: 3.057 (Simulation time: 00 hr 01 min 56 sec)
Heartbeat CPU 0 instructions: 20000142 cycles: 6536654 heartbeat IPC: 3.16 cumulative IPC: 3.06 (Simulation time: 00 hr 01 min 59 sec)
Heartbeat CPU 0 instructions: 20500149 cycles: 6683863 heartbeat IPC: 3.397 cumulative IPC: 3.067 (Simulation time: 00 hr 02 min 01 sec)
Heartbeat CPU 0 instructions: 21000150 cycles: 6807446 heartbeat IPC: 4.046 cumulative IPC: 3.085 (Simulation time: 00 hr 02 min 04 sec)
Heartbeat CPU 0 instructions: 21500152 cycles: 6931568 heartbeat IPC: 4.028 cumulative IPC: 3.102 (Simulation time: 00 hr 02 min 07 sec)
Heartbeat CPU 0 instructions: 22000157 cycles: 7053589 heartbeat IPC: 4.098 cumulative IPC: 3.119 (Simulation time: 00 hr 02 min 09 sec)
Heartbeat CPU 0 instructions: 22500159 cycles: 7175181 heartbeat IPC: 4.112 cumulative IPC: 3.136 (Simulation time: 00 hr 02 min 12 sec)
Heartbeat CPU 0 instructions: 23000159 cycles: 7296470 heartbeat IPC: 4.122 cumulative IPC: 3.152 (Simulation time: 00 hr 02 min 15 sec)
Heartbeat CPU 0 instructions: 23500162 cycles: 7419313 heartbeat IPC: 4.07 cumulative IPC: 3.167 (Simulation time: 00 hr 02 min 17 sec)
Heartbeat CPU 0 instructions: 24000167 cycles: 7541861 heartbeat IPC: 4.08 cumulative IPC: 3.182 (Simulation time: 00 hr 02 min 20 sec)
Heartbeat CPU 0 instructions: 24500171 cycles: 7641859 heartbeat IPC: 5 cumulative IPC: 3.206 (Simulation time: 00 hr 02 min 21 sec)
Heartbeat CPU 0 instructions: 25000176 cycles: 7742181 heartbeat IPC: 4.984 cumulative IPC: 3.229 (Simulation time: 00 hr 02 min 23 sec)
Heartbeat CPU 0 instructions: 25500183 cycles: 7842369 heartbeat IPC: 4.991 cumulative IPC: 3.252 (Simulation time: 00 hr 02 min 24 sec)
Heartbeat CPU 0 instructions: 26000185 cycles: 7942594 heartbeat IPC: 4.989 cumulative IPC: 3.274 (Simulation time: 00 hr 02 min 26 sec)
Heartbeat CPU 0 instructions: 26500186 cycles: 8044316 heartbeat IPC: 4.915 cumulative IPC: 3.294 (Simulation time: 00 hr 02 min 28 sec)
Heartbeat CPU 0 instructions: 27000188 cycles: 8163274 heartbeat IPC: 4.203 cumulative IPC: 3.308 (Simulation time: 00 hr 02 min 30 sec)
Heartbeat CPU 0 instructions: 27500193 cycles: 8264720 heartbeat IPC: 4.929 cumulative IPC: 3.327 (Simulation time: 00 hr 02 min 31 sec)
Heartbeat CPU 0 instructions: 28000194 cycles: 8366251 heartbeat IPC: 4.925 cumulative IPC: 3.347 (Simulation time: 00 hr 02 min 33 sec)
Heartbeat CPU 0 instructions: 28500199 cycles: 8467619 heartbeat IPC: 4.933 cumulative IPC: 3.366 (Simulation time: 00 hr 02 min 35 sec)
Heartbeat CPU 0 instructions: 29000202 cycles: 8569132 heartbeat IPC: 4.926 cumulative IPC: 3.384 (Simulation time: 00 hr 02 min 37 sec)
Heartbeat CPU 0 instructions: 29500203 cycles: 8670440 heartbeat IPC: 4.935 cumulative IPC: 3.402 (Simulation time: 00 hr 02 min 38 sec)
Heartbeat CPU 0 instructions: 30000205 cycles: 8771854 heartbeat IPC: 4.93 cumulative IPC: 3.42 (Simulation time: 00 hr 02 min 40 sec)
Heartbeat CPU 0 instructions: 30500205 cycles: 8873220 heartbeat IPC: 4.933 cumulative IPC: 3.437 (Simulation time: 00 hr 02 min 42 sec)
Heartbeat CPU 0 instructions: 31000206 cycles: 8974822 heartbeat IPC: 4.921 cumulative IPC: 3.454 (Simulation time: 00 hr 02 min 43 sec)
Heartbeat CPU 0 instructions: 31500208 cycles: 9076397 heartbeat IPC: 4.922 cumulative IPC: 3.471 (Simulation time: 00 hr 02 min 45 sec)
Heartbeat CPU 0 instructions: 32000215 cycles: 9178032 heartbeat IPC: 4.92 cumulative IPC: 3.487 (Simulation time: 00 hr 02 min 47 sec)
Heartbeat CPU 0 instructions: 32500219 cycles: 9279240 heartbeat IPC: 4.94 cumulative IPC: 3.502 (Simulation time: 00 hr 02 min 49 sec)
Heartbeat CPU 0 instructions: 33000223 cycles: 9380582 heartbeat IPC: 4.934 cumulative IPC: 3.518 (Simulation time: 00 hr 02 min 50 sec)
Heartbeat CPU 0 instructions: 33500228 cycles: 9488088 heartbeat IPC: 4.651 cumulative IPC: 3.531 (Simulation time: 00 hr 02 min 52 sec)
Heartbeat CPU 0 instructions: 34000228 cycles: 9588711 heartbeat IPC: 4.969 cumulative IPC: 3.546 (Simulation time: 00 hr 02 min 54 sec)
Heartbeat CPU 0 instructions: 34500229 cycles: 9694234 heartbeat IPC: 4.738 cumulative IPC: 3.559 (Simulation time: 00 hr 02 min 56 sec)
Heartbeat CPU 0 instructions: 35000234 cycles: 9803913 heartbeat IPC: 4.559 cumulative IPC: 3.57 (Simulation time: 00 hr 02 min 58 sec)
Heartbeat CPU 0 instructions: 35500236 cycles: 9906080 heartbeat IPC: 4.894 cumulative IPC: 3.584 (Simulation time: 00 hr 03 min 00 sec)
Heartbeat CPU 0 instructions: 36000243 cycles: 10006385 heartbeat IPC: 4.985 cumulative IPC: 3.598 (Simulation time: 00 hr 03 min 01 sec)
Heartbeat CPU 0 instructions: 36500245 cycles: 10107601 heartbeat IPC: 4.94 cumulative IPC: 3.611 (Simulation time: 00 hr 03 min 03 sec)
Heartbeat CPU 0 instructions: 37000249 cycles: 10212331 heartbeat IPC: 4.774 cumulative IPC: 3.623 (Simulation time: 00 hr 03 min 05 sec)
Heartbeat CPU 0 instructions: 37500249 cycles: 10318818 heartbeat IPC: 4.695 cumulative IPC: 3.634 (Simulation time: 00 hr 03 min 07 sec)
Heartbeat CPU 0 instructions: 38000250 cycles: 10461565 heartbeat IPC: 3.503 cumulative IPC: 3.632 (Simulation time: 00 hr 03 min 09 sec)
Heartbeat CPU 0 instructions: 38500257 cycles: 10618063 heartbeat IPC: 3.195 cumulative IPC: 3.626 (Simulation time: 00 hr 03 min 12 sec)
Heartbeat CPU 0 instructions: 39000258 cycles: 10756884 heartbeat IPC: 3.602 cumulative IPC: 3.626 (Simulation time: 00 hr 03 min 15 sec)
Heartbeat CPU 0 instructions: 39500262 cycles: 10888291 heartbeat IPC: 3.805 cumulative IPC: 3.628 (Simulation time: 00 hr 03 min 18 sec)
Heartbeat CPU 0 instructions: 40000266 cycles: 11049128 heartbeat IPC: 3.109 cumulative IPC: 3.62 (Simulation time: 00 hr 03 min 21 sec)
Heartbeat CPU 0 instructions: 40500266 cycles: 11189074 heartbeat IPC: 3.573 cumulative IPC: 3.62 (Simulation time: 00 hr 03 min 23 sec)
Heartbeat CPU 0 instructions: 41000268 cycles: 11302010 heartbeat IPC: 4.427 cumulative IPC: 3.628 (Simulation time: 00 hr 03 min 25 sec)
Heartbeat CPU 0 instructions: 41500273 cycles: 11446264 heartbeat IPC: 3.466 cumulative IPC: 3.626 (Simulation time: 00 hr 03 min 27 sec)
Heartbeat CPU 0 instructions: 42000274 cycles: 11566205 heartbeat IPC: 4.169 cumulative IPC: 3.631 (Simulation time: 00 hr 03 min 29 sec)
Heartbeat CPU 0 instructions: 42500274 cycles: 11698858 heartbeat IPC: 3.769 cumulative IPC: 3.633 (Simulation time: 00 hr 03 min 32 sec)
Heartbeat CPU 0 instructions: 43000275 cycles: 11819805 heartbeat IPC: 4.134 cumulative IPC: 3.638 (Simulation time: 00 hr 03 min 34 sec)
Heartbeat CPU 0 instructions: 43500277 cycles: 11967253 heartbeat IPC: 3.391 cumulative IPC: 3.635 (Simulation time: 00 hr 03 min 37 sec)
Heartbeat CPU 0 instructions: 44000284 cycles: 12107121 heartbeat IPC: 3.575 cumulative IPC: 3.634 (Simulation time: 00 hr 03 min 39 sec)
Heartbeat CPU 0 instructions: 44500287 cycles: 12231961 heartbeat IPC: 4.005 cumulative IPC: 3.638 (Simulation time: 00 hr 03 min 41 sec)
Heartbeat CPU 0 instructions: 45000287 cycles: 12383708 heartbeat IPC: 3.295 cumulative IPC: 3.634 (Simulation time: 00 hr 03 min 44 sec)
Heartbeat CPU 0 instructions: 45500289 cycles: 12530111 heartbeat IPC: 3.415 cumulative IPC: 3.631 (Simulation time: 00 hr 03 min 47 sec)
Heartbeat CPU 0 instructions: 46000295 cycles: 12667724 heartbeat IPC: 3.633 cumulative IPC: 3.631 (Simulation time: 00 hr 03 min 50 sec)
Heartbeat CPU 0 instructions: 46500296 cycles: 12818373 heartbeat IPC: 3.319 cumulative IPC: 3.628 (Simulation time: 00 hr 03 min 53 sec)
Heartbeat CPU 0 instructions: 47000302 cycles: 12964292 heartbeat IPC: 3.427 cumulative IPC: 3.625 (Simulation time: 00 hr 03 min 56 sec)
Heartbeat CPU 0 instructions: 47500302 cycles: 13112191 heartbeat IPC: 3.381 cumulative IPC: 3.623 (Simulation time: 00 hr 03 min 58 sec)
Heartbeat CPU 0 instructions: 48000303 cycles: 13266063 heartbeat IPC: 3.249 cumulative IPC: 3.618 (Simulation time: 00 hr 04 min 01 sec)
Heartbeat CPU 0 instructions: 48500305 cycles: 13410748 heartbeat IPC: 3.456 cumulative IPC: 3.617 (Simulation time: 00 hr 04 min 04 sec)
Heartbeat CPU 0 instructions: 49000307 cycles: 13552084 heartbeat IPC: 3.538 cumulative IPC: 3.616 (Simulation time: 00 hr 04 min 07 sec)
Heartbeat CPU 0 instructions: 49500313 cycles: 13702960 heartbeat IPC: 3.314 cumulative IPC: 3.612 (Simulation time: 00 hr 04 min 10 sec)
Warmup finished CPU 0 instructions: 50000001 cycles: 13843230 cumulative IPC: 3.612 (Simulation time: 00 hr 04 min 13 sec)
Warmup complete CPU 0 instructions: 50000001 cycles: 13843230 cumulative IPC: 3.612 (Simulation time: 00 hr 04 min 13 sec)
Heartbeat CPU 0 instructions: 50000313 cycles: 13843424 heartbeat IPC: 3.56 cumulative IPC: 1.608 (Simulation time: 00 hr 04 min 13 sec)
Heartbeat CPU 0 instructions: 50500313 cycles: 15131306 heartbeat IPC: 0.3882 cumulative IPC: 0.3884 (Simulation time: 00 hr 04 min 23 sec)
Heartbeat CPU 0 instructions: 51000314 cycles: 16082812 heartbeat IPC: 0.5255 cumulative IPC: 0.4467 (Simulation time: 00 hr 04 min 31 sec)
Heartbeat CPU 0 instructions: 51500317 cycles: 17599948 heartbeat IPC: 0.3296 cumulative IPC: 0.3994 (Simulation time: 00 hr 04 min 43 sec)
Heartbeat CPU 0 instructions: 52000318 cycles: 18692518 heartbeat IPC: 0.4576 cumulative IPC: 0.4125 (Simulation time: 00 hr 04 min 51 sec)
Heartbeat CPU 0 instructions: 52500322 cycles: 19663704 heartbeat IPC: 0.5148 cumulative IPC: 0.4296 (Simulation time: 00 hr 04 min 59 sec)
Heartbeat CPU 0 instructions: 53000327 cycles: 21160160 heartbeat IPC: 0.3341 cumulative IPC: 0.4101 (Simulation time: 00 hr 05 min 10 sec)
Heartbeat CPU 0 instructions: 53500329 cycles: 21611997 heartbeat IPC: 1.107 cumulative IPC: 0.4506 (Simulation time: 00 hr 05 min 14 sec)
Heartbeat CPU 0 instructions: 54000329 cycles: 22689772 heartbeat IPC: 0.4639 cumulative IPC: 0.4522 (Simulation time: 00 hr 05 min 22 sec)
Heartbeat CPU 0 instructions: 54500330 cycles: 24151351 heartbeat IPC: 0.3421 cumulative IPC: 0.4366 (Simulation time: 00 hr 05 min 33 sec)
Heartbeat CPU 0 instructions: 55000332 cycles: 25685186 heartbeat IPC: 0.326 cumulative IPC: 0.4223 (Simulation time: 00 hr 05 min 45 sec)
Heartbeat CPU 0 instructions: 55500333 cycles: 26923155 heartbeat IPC: 0.4039 cumulative IPC: 0.4205 (Simulation time: 00 hr 05 min 55 sec)
Heartbeat CPU 0 instructions: 56000335 cycles: 27724914 heartbeat IPC: 0.6236 cumulative IPC: 0.4322 (Simulation time: 00 hr 06 min 03 sec)
Heartbeat CPU 0 instructions: 56500337 cycles: 28500023 heartbeat IPC: 0.6451 cumulative IPC: 0.4435 (Simulation time: 00 hr 06 min 11 sec)
Heartbeat CPU 0 instructions: 57000343 cycles: 29185272 heartbeat IPC: 0.7297 cumulative IPC: 0.4563 (Simulation time: 00 hr 06 min 18 sec)
Heartbeat CPU 0 instructions: 57500343 cycles: 30305278 heartbeat IPC: 0.4464 cumulative IPC: 0.4556 (Simulation time: 00 hr 06 min 28 sec)
Heartbeat CPU 0 instructions: 58000344 cycles: 31176170 heartbeat IPC: 0.5741 cumulative IPC: 0.4616 (Simulation time: 00 hr 06 min 36 sec)
Heartbeat CPU 0 instructions: 58500344 cycles: 33014221 heartbeat IPC: 0.272 cumulative IPC: 0.4434 (Simulation time: 00 hr 06 min 49 sec)
Heartbeat CPU 0 instructions: 59000344 cycles: 34044344 heartbeat IPC: 0.4854 cumulative IPC: 0.4455 (Simulation time: 00 hr 06 min 57 sec)
Heartbeat CPU 0 instructions: 59500350 cycles: 34443208 heartbeat IPC: 1.254 cumulative IPC: 0.4612 (Simulation time: 00 hr 07 min 01 sec)
Heartbeat CPU 0 instructions: 60000354 cycles: 34773164 heartbeat IPC: 1.515 cumulative IPC: 0.4778 (Simulation time: 00 hr 07 min 04 sec)
Heartbeat CPU 0 instructions: 60500356 cycles: 35249349 heartbeat IPC: 1.05 cumulative IPC: 0.4905 (Simulation time: 00 hr 07 min 09 sec)
Heartbeat CPU 0 instructions: 61000357 cycles: 36329147 heartbeat IPC: 0.4631 cumulative IPC: 0.4892 (Simulation time: 00 hr 07 min 17 sec)
Heartbeat CPU 0 instructions: 61500359 cycles: 37153572 heartbeat IPC: 0.6065 cumulative IPC: 0.4934 (Simulation time: 00 hr 07 min 24 sec)
Heartbeat CPU 0 instructions: 62000360 cycles: 38106682 heartbeat IPC: 0.5246 cumulative IPC: 0.4946 (Simulation time: 00 hr 07 min 32 sec)
Heartbeat CPU 0 instructions: 62500361 cycles: 39321143 heartbeat IPC: 0.4117 cumulative IPC: 0.4906 (Simulation time: 00 hr 07 min 42 sec)
Heartbeat CPU 0 instructions: 63000364 cycles: 40330358 heartbeat IPC: 0.4954 cumulative IPC: 0.4908 (Simulation time: 00 hr 07 min 51 sec)
Heartbeat CPU 0 instructions: 63500365 cycles: 41626101 heartbeat IPC: 0.3859 cumulative IPC: 0.4859 (Simulation time: 00 hr 08 min 01 sec)
Heartbeat CPU 0 instructions: 64000370 cycles: 43059036 heartbeat IPC: 0.3489 cumulative IPC: 0.4792 (Simulation time: 00 hr 08 min 12 sec)
Heartbeat CPU 0 instructions: 64500370 cycles: 44214692 heartbeat IPC: 0.4327 cumulative IPC: 0.4774 (Simulation time: 00 hr 08 min 21 sec)
Heartbeat CPU 0 instructions: 65000374 cycles: 45274813 heartbeat IPC: 0.4716 cumulative IPC: 0.4772 (Simulation time: 00 hr 08 min 30 sec)
Heartbeat CPU 0 instructions: 65500379 cycles: 46394725 heartbeat IPC: 0.4465 cumulative IPC: 0.4762 (Simulation time: 00 hr 08 min 39 sec)
Heartbeat CPU 0 instructions: 66000381 cycles: 47685733 heartbeat IPC: 0.3873 cumulative IPC: 0.4728 (Simulation time: 00 hr 08 min 49 sec)
Heartbeat CPU 0 instructions: 66500386 cycles: 49339015 heartbeat IPC: 0.3024 cumulative IPC: 0.4649 (Simulation time: 00 hr 09 min 02 sec)
Heartbeat CPU 0 instructions: 67000391 cycles: 50749485 heartbeat IPC: 0.3545 cumulative IPC: 0.4606 (Simulation time: 00 hr 09 min 12 sec)
Heartbeat CPU 0 instructions: 67500397 cycles: 51753007 heartbeat IPC: 0.4983 cumulative IPC: 0.4616 (Simulation time: 00 hr 09 min 21 sec)
Heartbeat CPU 0 instructions: 68000397 cycles: 52811675 heartbeat IPC: 0.4723 cumulative IPC: 0.4619 (Simulation time: 00 hr 09 min 30 sec)
Heartbeat CPU 0 instructions: 68500402 cycles: 54213365 heartbeat IPC: 0.3567 cumulative IPC: 0.4583 (Simulation time: 00 hr 09 min 40 sec)
Heartbeat CPU 0 instructions: 69000402 cycles: 55684292 heartbeat IPC: 0.3399 cumulative IPC: 0.4541 (Simulation time: 00 hr 09 min 52 sec)
Heartbeat CPU 0 instructions: 69500403 cycles: 56051235 heartbeat IPC: 1.363 cumulative IPC: 0.462 (Simulation time: 00 hr 09 min 55 sec)
Heartbeat CPU 0 instructions: 70000403 cycles: 56411285 heartbeat IPC: 1.389 cumulative IPC: 0.4698 (Simulation time: 00 hr 09 min 59 sec)
Heartbeat CPU 0 instructions: 70500406 cycles: 56802100 heartbeat IPC: 1.279 cumulative IPC: 0.4772 (Simulation time: 00 hr 10 min 03 sec)
Heartbeat CPU 0 instructions: 71000409 cycles: 58231800 heartbeat IPC: 0.3497 cumulative IPC: 0.4731 (Simulation time: 00 hr 10 min 13 sec)
Heartbeat CPU 0 instructions: 71500410 cycles: 59415199 heartbeat IPC: 0.4225 cumulative IPC: 0.4718 (Simulation time: 00 hr 10 min 22 sec)
Heartbeat CPU 0 instructions: 72000410 cycles: 60543470 heartbeat IPC: 0.4432 cumulative IPC: 0.4711 (Simulation time: 00 hr 10 min 31 sec)
Heartbeat CPU 0 instructions: 72500410 cycles: 61551138 heartbeat IPC: 0.4962 cumulative IPC: 0.4716 (Simulation time: 00 hr 10 min 39 sec)
Heartbeat CPU 0 instructions: 73000411 cycles: 63491383 heartbeat IPC: 0.2577 cumulative IPC: 0.4633 (Simulation time: 00 hr 10 min 53 sec)
Heartbeat CPU 0 instructions: 73500411 cycles: 64535188 heartbeat IPC: 0.479 cumulative IPC: 0.4636 (Simulation time: 00 hr 11 min 02 sec)
Heartbeat CPU 0 instructions: 74000411 cycles: 65287018 heartbeat IPC: 0.665 cumulative IPC: 0.4665 (Simulation time: 00 hr 11 min 08 sec)
Heartbeat CPU 0 instructions: 74500418 cycles: 66188525 heartbeat IPC: 0.5546 cumulative IPC: 0.4681 (Simulation time: 00 hr 11 min 16 sec)
Heartbeat CPU 0 instructions: 75000420 cycles: 67390154 heartbeat IPC: 0.4161 cumulative IPC: 0.4669 (Simulation time: 00 hr 11 min 25 sec)
Heartbeat CPU 0 instructions: 75500427 cycles: 68416076 heartbeat IPC: 0.4874 cumulative IPC: 0.4673 (Simulation time: 00 hr 11 min 33 sec)
Heartbeat CPU 0 instructions: 76000427 cycles: 69505935 heartbeat IPC: 0.4588 cumulative IPC: 0.4671 (Simulation time: 00 hr 11 min 42 sec)
Heartbeat CPU 0 instructions: 76500427 cycles: 70488472 heartbeat IPC: 0.5089 cumulative IPC: 0.4678 (Simulation time: 00 hr 11 min 50 sec)
Heartbeat CPU 0 instructions: 77000431 cycles: 71365482 heartbeat IPC: 0.5701 cumulative IPC: 0.4694 (Simulation time: 00 hr 11 min 57 sec)
Heartbeat CPU 0 instructions: 77500433 cycles: 72502429 heartbeat IPC: 0.4398 cumulative IPC: 0.4688 (Simulation time: 00 hr 12 min 05 sec)
Heartbeat CPU 0 instructions: 78000433 cycles: 73590313 heartbeat IPC: 0.4596 cumulative IPC: 0.4686 (Simulation time: 00 hr 12 min 14 sec)
Heartbeat CPU 0 instructions: 78500438 cycles: 74812842 heartbeat IPC: 0.409 cumulative IPC: 0.4675 (Simulation time: 00 hr 12 min 23 sec)
Heartbeat CPU 0 instructions: 79000441 cycles: 76031105 heartbeat IPC: 0.4104 cumulative IPC: 0.4663 (Simulation time: 00 hr 12 min 33 sec)
Heartbeat CPU 0 instructions: 79500442 cycles: 77075553 heartbeat IPC: 0.4787 cumulative IPC: 0.4665 (Simulation time: 00 hr 12 min 41 sec)
Heartbeat CPU 0 instructions: 80000443 cycles: 78716154 heartbeat IPC: 0.3048 cumulative IPC: 0.4624 (Simulation time: 00 hr 12 min 53 sec)
Heartbeat CPU 0 instructions: 80500445 cycles: 79916720 heartbeat IPC: 0.4165 cumulative IPC: 0.4616 (Simulation time: 00 hr 13 min 02 sec)
Heartbeat CPU 0 instructions: 81000450 cycles: 80757030 heartbeat IPC: 0.595 cumulative IPC: 0.4633 (Simulation time: 00 hr 13 min 09 sec)
Heartbeat CPU 0 instructions: 81500451 cycles: 82067581 heartbeat IPC: 0.3815 cumulative IPC: 0.4617 (Simulation time: 00 hr 13 min 18 sec)
Heartbeat CPU 0 instructions: 82000452 cycles: 82984466 heartbeat IPC: 0.5453 cumulative IPC: 0.4628 (Simulation time: 00 hr 13 min 26 sec)
Heartbeat CPU 0 instructions: 82500454 cycles: 83996818 heartbeat IPC: 0.4939 cumulative IPC: 0.4633 (Simulation time: 00 hr 13 min 34 sec)
Heartbeat CPU 0 instructions: 83000460 cycles: 85212449 heartbeat IPC: 0.4113 cumulative IPC: 0.4624 (Simulation time: 00 hr 13 min 43 sec)
Heartbeat CPU 0 instructions: 83500461 cycles: 86219240 heartbeat IPC: 0.4966 cumulative IPC: 0.4629 (Simulation time: 00 hr 13 min 50 sec)
Heartbeat CPU 0 instructions: 84000463 cycles: 87429196 heartbeat IPC: 0.4132 cumulative IPC: 0.4621 (Simulation time: 00 hr 13 min 59 sec)
Heartbeat CPU 0 instructions: 84500468 cycles: 88429772 heartbeat IPC: 0.4997 cumulative IPC: 0.4626 (Simulation time: 00 hr 14 min 07 sec)
Heartbeat CPU 0 instructions: 85000470 cycles: 89321580 heartbeat IPC: 0.5607 cumulative IPC: 0.4637 (Simulation time: 00 hr 14 min 14 sec)
Heartbeat CPU 0 instructions: 85500470 cycles: 90160117 heartbeat IPC: 0.5963 cumulative IPC: 0.4652 (Simulation time: 00 hr 14 min 21 sec)
Heartbeat CPU 0 instructions: 86000470 cycles: 91337560 heartbeat IPC: 0.4246 cumulative IPC: 0.4646 (Simulation time: 00 hr 14 min 30 sec)
Heartbeat CPU 0 instructions: 86500470 cycles: 92570598 heartbeat IPC: 0.4055 cumulative IPC: 0.4636 (Simulation time: 00 hr 14 min 39 sec)
Heartbeat CPU 0 instructions: 87000471 cycles: 94030335 heartbeat IPC: 0.3425 cumulative IPC: 0.4614 (Simulation time: 00 hr 14 min 49 sec)
Heartbeat CPU 0 instructions: 87500475 cycles: 95074664 heartbeat IPC: 0.4788 cumulative IPC: 0.4616 (Simulation time: 00 hr 14 min 57 sec)
Heartbeat CPU 0 instructions: 88000476 cycles: 95983634 heartbeat IPC: 0.5501 cumulative IPC: 0.4626 (Simulation time: 00 hr 15 min 05 sec)
Heartbeat CPU 0 instructions: 88500477 cycles: 97119893 heartbeat IPC: 0.44 cumulative IPC: 0.4623 (Simulation time: 00 hr 15 min 13 sec)
Heartbeat CPU 0 instructions: 89000478 cycles: 98131737 heartbeat IPC: 0.4941 cumulative IPC: 0.4627 (Simulation time: 00 hr 15 min 21 sec)
Heartbeat CPU 0 instructions: 89500484 cycles: 99180236 heartbeat IPC: 0.4769 cumulative IPC: 0.4629 (Simulation time: 00 hr 15 min 29 sec)
Heartbeat CPU 0 instructions: 90000486 cycles: 99997399 heartbeat IPC: 0.6119 cumulative IPC: 0.4643 (Simulation time: 00 hr 15 min 36 sec)
Heartbeat CPU 0 instructions: 90500486 cycles: 100994619 heartbeat IPC: 0.5014 cumulative IPC: 0.4647 (Simulation time: 00 hr 15 min 43 sec)
Heartbeat CPU 0 instructions: 91000486 cycles: 101810675 heartbeat IPC: 0.6127 cumulative IPC: 0.4661 (Simulation time: 00 hr 15 min 50 sec)
Heartbeat CPU 0 instructions: 91500488 cycles: 102556582 heartbeat IPC: 0.6703 cumulative IPC: 0.4678 (Simulation time: 00 hr 15 min 56 sec)
Heartbeat CPU 0 instructions: 92000488 cycles: 104386605 heartbeat IPC: 0.2732 cumulative IPC: 0.4639 (Simulation time: 00 hr 16 min 09 sec)
Heartbeat CPU 0 instructions: 92500491 cycles: 105646013 heartbeat IPC: 0.397 cumulative IPC: 0.463 (Simulation time: 00 hr 16 min 18 sec)
Heartbeat CPU 0 instructions: 93000491 cycles: 107002507 heartbeat IPC: 0.3686 cumulative IPC: 0.4616 (Simulation time: 00 hr 16 min 28 sec)
Heartbeat CPU 0 instructions: 93500491 cycles: 108265546 heartbeat IPC: 0.3959 cumulative IPC: 0.4607 (Simulation time: 00 hr 16 min 37 sec)
Heartbeat CPU 0 instructions: 94000492 cycles: 109307183 heartbeat IPC: 0.48 cumulative IPC: 0.4609 (Simulation time: 00 hr 16 min 45 sec)
Heartbeat CPU 0 instructions: 94500492 cycles: 110224965 heartbeat IPC: 0.5448 cumulative IPC: 0.4617 (Simulation time: 00 hr 16 min 52 sec)
Heartbeat CPU 0 instructions: 95000493 cycles: 110668667 heartbeat IPC: 1.127 cumulative IPC: 0.4648 (Simulation time: 00 hr 16 min 56 sec)
Heartbeat CPU 0 instructions: 95500497 cycles: 112000539 heartbeat IPC: 0.3754 cumulative IPC: 0.4635 (Simulation time: 00 hr 17 min 06 sec)
Heartbeat CPU 0 instructions: 96000497 cycles: 112872214 heartbeat IPC: 0.5736 cumulative IPC: 0.4645 (Simulation time: 00 hr 17 min 13 sec)
Heartbeat CPU 0 instructions: 96500498 cycles: 114048937 heartbeat IPC: 0.4249 cumulative IPC: 0.4641 (Simulation time: 00 hr 17 min 21 sec)
Heartbeat CPU 0 instructions: 97000500 cycles: 114628669 heartbeat IPC: 0.8625 cumulative IPC: 0.4663 (Simulation time: 00 hr 17 min 26 sec)
Heartbeat CPU 0 instructions: 97500502 cycles: 115634821 heartbeat IPC: 0.4969 cumulative IPC: 0.4666 (Simulation time: 00 hr 17 min 34 sec)
Heartbeat CPU 0 instructions: 98000504 cycles: 116802245 heartbeat IPC: 0.4283 cumulative IPC: 0.4662 (Simulation time: 00 hr 17 min 42 sec)
Heartbeat CPU 0 instructions: 98500508 cycles: 117931765 heartbeat IPC: 0.4427 cumulative IPC: 0.466 (Simulation time: 00 hr 17 min 50 sec)
Heartbeat CPU 0 instructions: 99000508 cycles: 119032882 heartbeat IPC: 0.4541 cumulative IPC: 0.4658 (Simulation time: 00 hr 17 min 58 sec)
Heartbeat CPU 0 instructions: 99500508 cycles: 120235424 heartbeat IPC: 0.4158 cumulative IPC: 0.4653 (Simulation time: 00 hr 18 min 07 sec)
Heartbeat CPU 0 instructions: 100000509 cycles: 121564876 heartbeat IPC: 0.3761 cumulative IPC: 0.4642 (Simulation time: 00 hr 18 min 17 sec)
Heartbeat CPU 0 instructions: 100500511 cycles: 122598828 heartbeat IPC: 0.4836 cumulative IPC: 0.4643 (Simulation time: 00 hr 18 min 24 sec)
Heartbeat CPU 0 instructions: 101000512 cycles: 123000925 heartbeat IPC: 1.243 cumulative IPC: 0.4672 (Simulation time: 00 hr 18 min 28 sec)
Heartbeat CPU 0 instructions: 101500512 cycles: 124061625 heartbeat IPC: 0.4714 cumulative IPC: 0.4673 (Simulation time: 00 hr 18 min 36 sec)
Heartbeat CPU 0 instructions: 102000516 cycles: 125227503 heartbeat IPC: 0.4289 cumulative IPC: 0.4669 (Simulation time: 00 hr 18 min 44 sec)
Heartbeat CPU 0 instructions: 102500516 cycles: 126331240 heartbeat IPC: 0.453 cumulative IPC: 0.4667 (Simulation time: 00 hr 18 min 52 sec)
Heartbeat CPU 0 instructions: 103000522 cycles: 127379151 heartbeat IPC: 0.4771 cumulative IPC: 0.4668 (Simulation time: 00 hr 18 min 59 sec)
Heartbeat CPU 0 instructions: 103500523 cycles: 128438804 heartbeat IPC: 0.4719 cumulative IPC: 0.4669 (Simulation time: 00 hr 19 min 07 sec)
Heartbeat CPU 0 instructions: 104000523 cycles: 129321011 heartbeat IPC: 0.5668 cumulative IPC: 0.4676 (Simulation time: 00 hr 19 min 14 sec)
Heartbeat CPU 0 instructions: 104500523 cycles: 130510518 heartbeat IPC: 0.4203 cumulative IPC: 0.4671 (Simulation time: 00 hr 19 min 22 sec)
Heartbeat CPU 0 instructions: 105000525 cycles: 131448822 heartbeat IPC: 0.5329 cumulative IPC: 0.4677 (Simulation time: 00 hr 19 min 29 sec)
Heartbeat CPU 0 instructions: 105500531 cycles: 132285222 heartbeat IPC: 0.5978 cumulative IPC: 0.4686 (Simulation time: 00 hr 19 min 36 sec)
Heartbeat CPU 0 instructions: 106000531 cycles: 133490672 heartbeat IPC: 0.4148 cumulative IPC: 0.468 (Simulation time: 00 hr 19 min 45 sec)
Heartbeat CPU 0 instructions: 106500535 cycles: 134700434 heartbeat IPC: 0.4133 cumulative IPC: 0.4675 (Simulation time: 00 hr 19 min 53 sec)
Heartbeat CPU 0 instructions: 107000535 cycles: 136371941 heartbeat IPC: 0.2991 cumulative IPC: 0.4652 (Simulation time: 00 hr 20 min 05 sec)
Heartbeat CPU 0 instructions: 107500538 cycles: 137920128 heartbeat IPC: 0.323 cumulative IPC: 0.4634 (Simulation time: 00 hr 20 min 15 sec)
Heartbeat CPU 0 instructions: 108000538 cycles: 139076133 heartbeat IPC: 0.4325 cumulative IPC: 0.4631 (Simulation time: 00 hr 20 min 24 sec)
Heartbeat CPU 0 instructions: 108500538 cycles: 140076953 heartbeat IPC: 0.4996 cumulative IPC: 0.4634 (Simulation time: 00 hr 20 min 31 sec)
Heartbeat CPU 0 instructions: 109000543 cycles: 141849011 heartbeat IPC: 0.2822 cumulative IPC: 0.4609 (Simulation time: 00 hr 20 min 43 sec)
Heartbeat CPU 0 instructions: 109500544 cycles: 142794586 heartbeat IPC: 0.5288 cumulative IPC: 0.4614 (Simulation time: 00 hr 20 min 50 sec)
Heartbeat CPU 0 instructions: 110000546 cycles: 144134390 heartbeat IPC: 0.3732 cumulative IPC: 0.4605 (Simulation time: 00 hr 21 min 00 sec)
Heartbeat CPU 0 instructions: 110500549 cycles: 145068526 heartbeat IPC: 0.5353 cumulative IPC: 0.461 (Simulation time: 00 hr 21 min 07 sec)
Heartbeat CPU 0 instructions: 111000549 cycles: 146305645 heartbeat IPC: 0.4042 cumulative IPC: 0.4605 (Simulation time: 00 hr 21 min 17 sec)
Heartbeat CPU 0 instructions: 111500550 cycles: 147989780 heartbeat IPC: 0.2969 cumulative IPC: 0.4585 (Simulation time: 00 hr 21 min 28 sec)
Heartbeat CPU 0 instructions: 112000550 cycles: 149481398 heartbeat IPC: 0.3352 cumulative IPC: 0.4571 (Simulation time: 00 hr 21 min 38 sec)
Heartbeat CPU 0 instructions: 112500550 cycles: 150672727 heartbeat IPC: 0.4197 cumulative IPC: 0.4568 (Simulation time: 00 hr 21 min 46 sec)
Heartbeat CPU 0 instructions: 113000550 cycles: 151697517 heartbeat IPC: 0.4879 cumulative IPC: 0.457 (Simulation time: 00 hr 21 min 54 sec)
Heartbeat CPU 0 instructions: 113500557 cycles: 153060802 heartbeat IPC: 0.3668 cumulative IPC: 0.4561 (Simulation time: 00 hr 22 min 03 sec)
Heartbeat CPU 0 instructions: 114000557 cycles: 154096383 heartbeat IPC: 0.4828 cumulative IPC: 0.4563 (Simulation time: 00 hr 22 min 11 sec)
Heartbeat CPU 0 instructions: 114500564 cycles: 155021664 heartbeat IPC: 0.5404 cumulative IPC: 0.4569 (Simulation time: 00 hr 22 min 17 sec)
Heartbeat CPU 0 instructions: 115000564 cycles: 156156101 heartbeat IPC: 0.4407 cumulative IPC: 0.4567 (Simulation time: 00 hr 22 min 26 sec)
Heartbeat CPU 0 instructions: 115500571 cycles: 157504654 heartbeat IPC: 0.3708 cumulative IPC: 0.4559 (Simulation time: 00 hr 22 min 35 sec)
Heartbeat CPU 0 instructions: 116000576 cycles: 158072277 heartbeat IPC: 0.8809 cumulative IPC: 0.4576 (Simulation time: 00 hr 22 min 40 sec)
Heartbeat CPU 0 instructions: 116500576 cycles: 159100107 heartbeat IPC: 0.4865 cumulative IPC: 0.4578 (Simulation time: 00 hr 22 min 47 sec)
Heartbeat CPU 0 instructions: 117000576 cycles: 160698837 heartbeat IPC: 0.3127 cumulative IPC: 0.4562 (Simulation time: 00 hr 22 min 58 sec)
Heartbeat CPU 0 instructions: 117500576 cycles: 162092959 heartbeat IPC: 0.3586 cumulative IPC: 0.4553 (Simulation time: 00 hr 23 min 08 sec)
Heartbeat CPU 0 instructions: 118000577 cycles: 163325876 heartbeat IPC: 0.4055 cumulative IPC: 0.4549 (Simulation time: 00 hr 23 min 16 sec)
Heartbeat CPU 0 instructions: 118500578 cycles: 164636565 heartbeat IPC: 0.3815 cumulative IPC: 0.4543 (Simulation time: 00 hr 23 min 25 sec)
Heartbeat CPU 0 instructions: 119000584 cycles: 165541573 heartbeat IPC: 0.5525 cumulative IPC: 0.4549 (Simulation time: 00 hr 23 min 32 sec)
Heartbeat CPU 0 instructions: 119500584 cycles: 166876911 heartbeat IPC: 0.3744 cumulative IPC: 0.4542 (Simulation time: 00 hr 23 min 41 sec)
Heartbeat CPU 0 instructions: 120000585 cycles: 168573667 heartbeat IPC: 0.2947 cumulative IPC: 0.4524 (Simulation time: 00 hr 23 min 53 sec)
Heartbeat CPU 0 instructions: 120500587 cycles: 169615108 heartbeat IPC: 0.4801 cumulative IPC: 0.4526 (Simulation time: 00 hr 24 min 00 sec)
Heartbeat CPU 0 instructions: 121000589 cycles: 170502789 heartbeat IPC: 0.5633 cumulative IPC: 0.4532 (Simulation time: 00 hr 24 min 06 sec)
Heartbeat CPU 0 instructions: 121500591 cycles: 171733438 heartbeat IPC: 0.4063 cumulative IPC: 0.4529 (Simulation time: 00 hr 24 min 15 sec)
Heartbeat CPU 0 instructions: 122000591 cycles: 173418235 heartbeat IPC: 0.2968 cumulative IPC: 0.4512 (Simulation time: 00 hr 24 min 26 sec)
Heartbeat CPU 0 instructions: 122500592 cycles: 175123879 heartbeat IPC: 0.2931 cumulative IPC: 0.4495 (Simulation time: 00 hr 24 min 37 sec)
Heartbeat CPU 0 instructions: 123000593 cycles: 176720556 heartbeat IPC: 0.3132 cumulative IPC: 0.4482 (Simulation time: 00 hr 24 min 48 sec)
Heartbeat CPU 0 instructions: 123500598 cycles: 177811712 heartbeat IPC: 0.4582 cumulative IPC: 0.4483 (Simulation time: 00 hr 24 min 56 sec)
Heartbeat CPU 0 instructions: 124000599 cycles: 178847052 heartbeat IPC: 0.4829 cumulative IPC: 0.4485 (Simulation time: 00 hr 25 min 03 sec)
Heartbeat CPU 0 instructions: 124500604 cycles: 179981224 heartbeat IPC: 0.4409 cumulative IPC: 0.4484 (Simulation time: 00 hr 25 min 11 sec)
Heartbeat CPU 0 instructions: 125000604 cycles: 181866849 heartbeat IPC: 0.2652 cumulative IPC: 0.4464 (Simulation time: 00 hr 25 min 23 sec)
Heartbeat CPU 0 instructions: 125500604 cycles: 183395668 heartbeat IPC: 0.327 cumulative IPC: 0.4453 (Simulation time: 00 hr 25 min 33 sec)
Heartbeat CPU 0 instructions: 126000605 cycles: 184423495 heartbeat IPC: 0.4865 cumulative IPC: 0.4455 (Simulation time: 00 hr 25 min 40 sec)
Heartbeat CPU 0 instructions: 126500610 cycles: 185399186 heartbeat IPC: 0.5125 cumulative IPC: 0.4459 (Simulation time: 00 hr 25 min 47 sec)
Heartbeat CPU 0 instructions: 127000610 cycles: 186222141 heartbeat IPC: 0.6076 cumulative IPC: 0.4467 (Simulation time: 00 hr 25 min 54 sec)
Heartbeat CPU 0 instructions: 127500610 cycles: 187090019 heartbeat IPC: 0.5761 cumulative IPC: 0.4473 (Simulation time: 00 hr 26 min 00 sec)
Heartbeat CPU 0 instructions: 128000610 cycles: 188160548 heartbeat IPC: 0.4671 cumulative IPC: 0.4475 (Simulation time: 00 hr 26 min 07 sec)
Heartbeat CPU 0 instructions: 128500613 cycles: 189591332 heartbeat IPC: 0.3495 cumulative IPC: 0.4467 (Simulation time: 00 hr 26 min 17 sec)
Heartbeat CPU 0 instructions: 129000616 cycles: 190741821 heartbeat IPC: 0.4346 cumulative IPC: 0.4466 (Simulation time: 00 hr 26 min 25 sec)
Heartbeat CPU 0 instructions: 129500616 cycles: 191696964 heartbeat IPC: 0.5235 cumulative IPC: 0.447 (Simulation time: 00 hr 26 min 32 sec)
Heartbeat CPU 0 instructions: 130000616 cycles: 192698052 heartbeat IPC: 0.4995 cumulative IPC: 0.4473 (Simulation time: 00 hr 26 min 39 sec)
Heartbeat CPU 0 instructions: 130500622 cycles: 193583856 heartbeat IPC: 0.5645 cumulative IPC: 0.4479 (Simulation time: 00 hr 26 min 45 sec)
Heartbeat CPU 0 instructions: 131000622 cycles: 194276695 heartbeat IPC: 0.7217 cumulative IPC: 0.4489 (Simulation time: 00 hr 26 min 50 sec)
Heartbeat CPU 0 instructions: 131500624 cycles: 195312469 heartbeat IPC: 0.4827 cumulative IPC: 0.4491 (Simulation time: 00 hr 26 min 57 sec)
Heartbeat CPU 0 instructions: 132000627 cycles: 196329950 heartbeat IPC: 0.4914 cumulative IPC: 0.4494 (Simulation time: 00 hr 27 min 04 sec)
Heartbeat CPU 0 instructions: 132500628 cycles: 197883299 heartbeat IPC: 0.3219 cumulative IPC: 0.4483 (Simulation time: 00 hr 27 min 14 sec)
Heartbeat CPU 0 instructions: 133000628 cycles: 199068084 heartbeat IPC: 0.422 cumulative IPC: 0.4481 (Simulation time: 00 hr 27 min 22 sec)
Heartbeat CPU 0 instructions: 133500628 cycles: 200158969 heartbeat IPC: 0.4583 cumulative IPC: 0.4482 (Simulation time: 00 hr 27 min 29 sec)
Heartbeat CPU 0 instructions: 134000632 cycles: 201177526 heartbeat IPC: 0.4909 cumulative IPC: 0.4484 (Simulation time: 00 hr 27 min 37 sec)
Heartbeat CPU 0 instructions: 134500637 cycles: 201999968 heartbeat IPC: 0.608 cumulative IPC: 0.4491 (Simulation time: 00 hr 27 min 42 sec)
Heartbeat CPU 0 instructions: 135000640 cycles: 202412238 heartbeat IPC: 1.213 cumulative IPC: 0.4508 (Simulation time: 00 hr 27 min 46 sec)
Heartbeat CPU 0 instructions: 135500646 cycles: 202756495 heartbeat IPC: 1.452 cumulative IPC: 0.4526 (Simulation time: 00 hr 27 min 49 sec)
Heartbeat CPU 0 instructions: 136000646 cycles: 203092954 heartbeat IPC: 1.486 cumulative IPC: 0.4544 (Simulation time: 00 hr 27 min 52 sec)
Heartbeat CPU 0 instructions: 136500652 cycles: 203469911 heartbeat IPC: 1.326 cumulative IPC: 0.4562 (Simulation time: 00 hr 27 min 55 sec)
Heartbeat CPU 0 instructions: 137000653 cycles: 204522826 heartbeat IPC: 0.4749 cumulative IPC: 0.4563 (Simulation time: 00 hr 28 min 02 sec)
Heartbeat CPU 0 instructions: 137500654 cycles: 206648351 heartbeat IPC: 0.2352 cumulative IPC: 0.4538 (Simulation time: 00 hr 28 min 15 sec)
Heartbeat CPU 0 instructions: 138000654 cycles: 208081671 heartbeat IPC: 0.3488 cumulative IPC: 0.4531 (Simulation time: 00 hr 28 min 25 sec)
Heartbeat CPU 0 instructions: 138500657 cycles: 209111546 heartbeat IPC: 0.4855 cumulative IPC: 0.4532 (Simulation time: 00 hr 28 min 32 sec)
Heartbeat CPU 0 instructions: 139000663 cycles: 210438523 heartbeat IPC: 0.3768 cumulative IPC: 0.4527 (Simulation time: 00 hr 28 min 40 sec)
Heartbeat CPU 0 instructions: 139500666 cycles: 211491389 heartbeat IPC: 0.4749 cumulative IPC: 0.4528 (Simulation time: 00 hr 28 min 47 sec)
Heartbeat CPU 0 instructions: 140000666 cycles: 213513794 heartbeat IPC: 0.2472 cumulative IPC: 0.4507 (Simulation time: 00 hr 29 min 00 sec)
Heartbeat CPU 0 instructions: 140500671 cycles: 214789303 heartbeat IPC: 0.392 cumulative IPC: 0.4504 (Simulation time: 00 hr 29 min 08 sec)
Heartbeat CPU 0 instructions: 141000673 cycles: 216011150 heartbeat IPC: 0.4092 cumulative IPC: 0.4501 (Simulation time: 00 hr 29 min 16 sec)
Heartbeat CPU 0 instructions: 141500674 cycles: 218002054 heartbeat IPC: 0.2511 cumulative IPC: 0.4482 (Simulation time: 00 hr 29 min 28 sec)
Heartbeat CPU 0 instructions: 142000674 cycles: 219112462 heartbeat IPC: 0.4503 cumulative IPC: 0.4482 (Simulation time: 00 hr 29 min 35 sec)
Heartbeat CPU 0 instructions: 142500674 cycles: 219649604 heartbeat IPC: 0.9309 cumulative IPC: 0.4495 (Simulation time: 00 hr 29 min 40 sec)
Heartbeat CPU 0 instructions: 143000674 cycles: 220654475 heartbeat IPC: 0.4976 cumulative IPC: 0.4497 (Simulation time: 00 hr 29 min 47 sec)
Heartbeat CPU 0 instructions: 143500678 cycles: 221826144 heartbeat IPC: 0.4267 cumulative IPC: 0.4496 (Simulation time: 00 hr 29 min 54 sec)
Heartbeat CPU 0 instructions: 144000678 cycles: 223166731 heartbeat IPC: 0.373 cumulative IPC: 0.4491 (Simulation time: 00 hr 30 min 03 sec)
Heartbeat CPU 0 instructions: 144500678 cycles: 224738686 heartbeat IPC: 0.3181 cumulative IPC: 0.4481 (Simulation time: 00 hr 30 min 13 sec)
Heartbeat CPU 0 instructions: 145000683 cycles: 225886780 heartbeat IPC: 0.4355 cumulative IPC: 0.448 (Simulation time: 00 hr 30 min 20 sec)
Heartbeat CPU 0 instructions: 145500684 cycles: 226717378 heartbeat IPC: 0.602 cumulative IPC: 0.4486 (Simulation time: 00 hr 30 min 26 sec)
Heartbeat CPU 0 instructions: 146000685 cycles: 228553424 heartbeat IPC: 0.2723 cumulative IPC: 0.4471 (Simulation time: 00 hr 30 min 37 sec)
Heartbeat CPU 0 instructions: 146500690 cycles: 229442323 heartbeat IPC: 0.5625 cumulative IPC: 0.4476 (Simulation time: 00 hr 30 min 43 sec)
Heartbeat CPU 0 instructions: 147000691 cycles: 230618522 heartbeat IPC: 0.4251 cumulative IPC: 0.4475 (Simulation time: 00 hr 30 min 51 sec)
Heartbeat CPU 0 instructions: 147500696 cycles: 231762267 heartbeat IPC: 0.4372 cumulative IPC: 0.4474 (Simulation time: 00 hr 30 min 59 sec)
Heartbeat CPU 0 instructions: 148000698 cycles: 233410549 heartbeat IPC: 0.3033 cumulative IPC: 0.4463 (Simulation time: 00 hr 31 min 09 sec)
Heartbeat CPU 0 instructions: 148500698 cycles: 234546215 heartbeat IPC: 0.4403 cumulative IPC: 0.4463 (Simulation time: 00 hr 31 min 17 sec)
Heartbeat CPU 0 instructions: 149000703 cycles: 236169458 heartbeat IPC: 0.308 cumulative IPC: 0.4453 (Simulation time: 00 hr 31 min 27 sec)
Heartbeat CPU 0 instructions: 149500705 cycles: 237545663 heartbeat IPC: 0.3633 cumulative IPC: 0.4448 (Simulation time: 00 hr 31 min 36 sec)
Heartbeat CPU 0 instructions: 150000711 cycles: 238355246 heartbeat IPC: 0.6176 cumulative IPC: 0.4454 (Simulation time: 00 hr 31 min 41 sec)
Heartbeat CPU 0 instructions: 150500714 cycles: 238693612 heartbeat IPC: 1.478 cumulative IPC: 0.447 (Simulation time: 00 hr 31 min 44 sec)
Heartbeat CPU 0 instructions: 151000714 cycles: 239021937 heartbeat IPC: 1.523 cumulative IPC: 0.4485 (Simulation time: 00 hr 31 min 47 sec)
Heartbeat CPU 0 instructions: 151500715 cycles: 239445425 heartbeat IPC: 1.181 cumulative IPC: 0.4499 (Simulation time: 00 hr 31 min 50 sec)
Heartbeat CPU 0 instructions: 152000715 cycles: 240626466 heartbeat IPC: 0.4234 cumulative IPC: 0.4498 (Simulation time: 00 hr 31 min 58 sec)
Heartbeat CPU 0 instructions: 152500715 cycles: 242057906 heartbeat IPC: 0.3493 cumulative IPC: 0.4491 (Simulation time: 00 hr 32 min 07 sec)
Heartbeat CPU 0 instructions: 153000717 cycles: 243061342 heartbeat IPC: 0.4983 cumulative IPC: 0.4494 (Simulation time: 00 hr 32 min 13 sec)
Heartbeat CPU 0 instructions: 153500717 cycles: 244830020 heartbeat IPC: 0.2827 cumulative IPC: 0.4481 (Simulation time: 00 hr 32 min 24 sec)
Heartbeat CPU 0 instructions: 154000721 cycles: 245862547 heartbeat IPC: 0.4843 cumulative IPC: 0.4482 (Simulation time: 00 hr 32 min 31 sec)
Heartbeat CPU 0 instructions: 154500725 cycles: 247044275 heartbeat IPC: 0.4231 cumulative IPC: 0.4481 (Simulation time: 00 hr 32 min 38 sec)
Heartbeat CPU 0 instructions: 155000725 cycles: 247897091 heartbeat IPC: 0.5863 cumulative IPC: 0.4486 (Simulation time: 00 hr 32 min 44 sec)
Heartbeat CPU 0 instructions: 155500726 cycles: 248245666 heartbeat IPC: 1.434 cumulative IPC: 0.4501 (Simulation time: 00 hr 32 min 47 sec)
Heartbeat CPU 0 instructions: 156000726 cycles: 248606661 heartbeat IPC: 1.385 cumulative IPC: 0.4515 (Simulation time: 00 hr 32 min 50 sec)
Heartbeat CPU 0 instructions: 156500729 cycles: 249861684 heartbeat IPC: 0.3984 cumulative IPC: 0.4512 (Simulation time: 00 hr 32 min 57 sec)
Heartbeat CPU 0 instructions: 157000729 cycles: 251740866 heartbeat IPC: 0.2661 cumulative IPC: 0.4498 (Simulation time: 00 hr 33 min 08 sec)
Heartbeat CPU 0 instructions: 157500730 cycles: 253175797 heartbeat IPC: 0.3484 cumulative IPC: 0.4492 (Simulation time: 00 hr 33 min 17 sec)
Heartbeat CPU 0 instructions: 158000732 cycles: 254875535 heartbeat IPC: 0.2942 cumulative IPC: 0.4481 (Simulation time: 00 hr 33 min 28 sec)
Heartbeat CPU 0 instructions: 158500732 cycles: 255910209 heartbeat IPC: 0.4832 cumulative IPC: 0.4482 (Simulation time: 00 hr 33 min 34 sec)
Heartbeat CPU 0 instructions: 159000732 cycles: 257028858 heartbeat IPC: 0.447 cumulative IPC: 0.4482 (Simulation time: 00 hr 33 min 42 sec)
Heartbeat CPU 0 instructions: 159500734 cycles: 257804403 heartbeat IPC: 0.6447 cumulative IPC: 0.4488 (Simulation time: 00 hr 33 min 47 sec)
Heartbeat CPU 0 instructions: 160000737 cycles: 258858922 heartbeat IPC: 0.4742 cumulative IPC: 0.449 (Simulation time: 00 hr 33 min 54 sec)
Heartbeat CPU 0 instructions: 160500737 cycles: 260470485 heartbeat IPC: 0.3103 cumulative IPC: 0.448 (Simulation time: 00 hr 34 min 03 sec)
Heartbeat CPU 0 instructions: 161000739 cycles: 261095365 heartbeat IPC: 0.8002 cumulative IPC: 0.4489 (Simulation time: 00 hr 34 min 08 sec)
Heartbeat CPU 0 instructions: 161500740 cycles: 261843717 heartbeat IPC: 0.6681 cumulative IPC: 0.4496 (Simulation time: 00 hr 34 min 13 sec)
Heartbeat CPU 0 instructions: 162000742 cycles: 263218243 heartbeat IPC: 0.3638 cumulative IPC: 0.4491 (Simulation time: 00 hr 34 min 22 sec)
Heartbeat CPU 0 instructions: 162500746 cycles: 264319365 heartbeat IPC: 0.4541 cumulative IPC: 0.4491 (Simulation time: 00 hr 34 min 29 sec)
Heartbeat CPU 0 instructions: 163000751 cycles: 264688238 heartbeat IPC: 1.355 cumulative IPC: 0.4505 (Simulation time: 00 hr 34 min 32 sec)
Heartbeat CPU 0 instructions: 163500756 cycles: 265043385 heartbeat IPC: 1.408 cumulative IPC: 0.4518 (Simulation time: 00 hr 34 min 34 sec)
Heartbeat CPU 0 instructions: 164000756 cycles: 265349754 heartbeat IPC: 1.632 cumulative IPC: 0.4533 (Simulation time: 00 hr 34 min 37 sec)
Heartbeat CPU 0 instructions: 164500757 cycles: 265658737 heartbeat IPC: 1.618 cumulative IPC: 0.4547 (Simulation time: 00 hr 34 min 40 sec)
Heartbeat CPU 0 instructions: 165000757 cycles: 265965174 heartbeat IPC: 1.632 cumulative IPC: 0.4561 (Simulation time: 00 hr 34 min 42 sec)
Heartbeat CPU 0 instructions: 165500757 cycles: 266289572 heartbeat IPC: 1.541 cumulative IPC: 0.4575 (Simulation time: 00 hr 34 min 45 sec)
Heartbeat CPU 0 instructions: 166000757 cycles: 266621581 heartbeat IPC: 1.506 cumulative IPC: 0.4589 (Simulation time: 00 hr 34 min 48 sec)
Heartbeat CPU 0 instructions: 166500761 cycles: 266920307 heartbeat IPC: 1.674 cumulative IPC: 0.4603 (Simulation time: 00 hr 34 min 51 sec)
Heartbeat CPU 0 instructions: 167000761 cycles: 267232051 heartbeat IPC: 1.604 cumulative IPC: 0.4617 (Simulation time: 00 hr 34 min 53 sec)
Heartbeat CPU 0 instructions: 167500762 cycles: 267491639 heartbeat IPC: 1.926 cumulative IPC: 0.4632 (Simulation time: 00 hr 34 min 56 sec)
Heartbeat CPU 0 instructions: 168000765 cycles: 268178841 heartbeat IPC: 0.7276 cumulative IPC: 0.464 (Simulation time: 00 hr 35 min 00 sec)
Heartbeat CPU 0 instructions: 168500766 cycles: 270211436 heartbeat IPC: 0.246 cumulative IPC: 0.4622 (Simulation time: 00 hr 35 min 12 sec)
Heartbeat CPU 0 instructions: 169000766 cycles: 271871385 heartbeat IPC: 0.3012 cumulative IPC: 0.4612 (Simulation time: 00 hr 35 min 21 sec)
Heartbeat CPU 0 instructions: 169500768 cycles: 273096197 heartbeat IPC: 0.4082 cumulative IPC: 0.4609 (Simulation time: 00 hr 35 min 29 sec)
Heartbeat CPU 0 instructions: 170000774 cycles: 274238151 heartbeat IPC: 0.4379 cumulative IPC: 0.4608 (Simulation time: 00 hr 35 min 36 sec)
Heartbeat CPU 0 instructions: 170500775 cycles: 275035953 heartbeat IPC: 0.6267 cumulative IPC: 0.4613 (Simulation time: 00 hr 35 min 42 sec)
Heartbeat CPU 0 instructions: 171000781 cycles: 275726556 heartbeat IPC: 0.724 cumulative IPC: 0.462 (Simulation time: 00 hr 35 min 46 sec)
Heartbeat CPU 0 instructions: 171500781 cycles: 276058057 heartbeat IPC: 1.508 cumulative IPC: 0.4634 (Simulation time: 00 hr 35 min 49 sec)
Heartbeat CPU 0 instructions: 172000783 cycles: 276373687 heartbeat IPC: 1.584 cumulative IPC: 0.4647 (Simulation time: 00 hr 35 min 52 sec)
Heartbeat CPU 0 instructions: 172500787 cycles: 276706597 heartbeat IPC: 1.502 cumulative IPC: 0.466 (Simulation time: 00 hr 35 min 54 sec)
Heartbeat CPU 0 instructions: 173000788 cycles: 276994332 heartbeat IPC: 1.738 cumulative IPC: 0.4674 (Simulation time: 00 hr 35 min 57 sec)
Heartbeat CPU 0 instructions: 173500795 cycles: 277686385 heartbeat IPC: 0.7225 cumulative IPC: 0.4681 (Simulation time: 00 hr 36 min 01 sec)
Heartbeat CPU 0 instructions: 174000801 cycles: 277991088 heartbeat IPC: 1.641 cumulative IPC: 0.4694 (Simulation time: 00 hr 36 min 04 sec)
Heartbeat CPU 0 instructions: 174500802 cycles: 278319190 heartbeat IPC: 1.524 cumulative IPC: 0.4707 (Simulation time: 00 hr 36 min 07 sec)
Heartbeat CPU 0 instructions: 175000803 cycles: 280028915 heartbeat IPC: 0.2924 cumulative IPC: 0.4696 (Simulation time: 00 hr 36 min 16 sec)
Heartbeat CPU 0 instructions: 175500804 cycles: 280936367 heartbeat IPC: 0.551 cumulative IPC: 0.4699 (Simulation time: 00 hr 36 min 22 sec)
Heartbeat CPU 0 instructions: 176000809 cycles: 282694903 heartbeat IPC: 0.2843 cumulative IPC: 0.4687 (Simulation time: 00 hr 36 min 33 sec)
Heartbeat CPU 0 instructions: 176500815 cycles: 284426825 heartbeat IPC: 0.2887 cumulative IPC: 0.4675 (Simulation time: 00 hr 36 min 43 sec)
Heartbeat CPU 0 instructions: 177000820 cycles: 285875673 heartbeat IPC: 0.3451 cumulative IPC: 0.4669 (Simulation time: 00 hr 36 min 52 sec)
Heartbeat CPU 0 instructions: 177500822 cycles: 287268254 heartbeat IPC: 0.359 cumulative IPC: 0.4663 (Simulation time: 00 hr 37 min 00 sec)
Heartbeat CPU 0 instructions: 178000826 cycles: 288672913 heartbeat IPC: 0.356 cumulative IPC: 0.4657 (Simulation time: 00 hr 37 min 08 sec)
Heartbeat CPU 0 instructions: 178500833 cycles: 289562503 heartbeat IPC: 0.5621 cumulative IPC: 0.4661 (Simulation time: 00 hr 37 min 14 sec)
Heartbeat CPU 0 instructions: 179000833 cycles: 291263891 heartbeat IPC: 0.2939 cumulative IPC: 0.465 (Simulation time: 00 hr 37 min 24 sec)
Heartbeat CPU 0 instructions: 179500834 cycles: 292355785 heartbeat IPC: 0.4579 cumulative IPC: 0.465 (Simulation time: 00 hr 37 min 31 sec)
Heartbeat CPU 0 instructions: 180000834 cycles: 293471442 heartbeat IPC: 0.4482 cumulative IPC: 0.4649 (Simulation time: 00 hr 37 min 38 sec)
Heartbeat CPU 0 instructions: 180500834 cycles: 294359072 heartbeat IPC: 0.5633 cumulative IPC: 0.4652 (Simulation time: 00 hr 37 min 44 sec)
Heartbeat CPU 0 instructions: 181000835 cycles: 294732360 heartbeat IPC: 1.339 cumulative IPC: 0.4664 (Simulation time: 00 hr 37 min 46 sec)
Heartbeat CPU 0 instructions: 181500836 cycles: 295096579 heartbeat IPC: 1.373 cumulative IPC: 0.4676 (Simulation time: 00 hr 37 min 49 sec)
Heartbeat CPU 0 instructions: 182000840 cycles: 295438858 heartbeat IPC: 1.461 cumulative IPC: 0.4688 (Simulation time: 00 hr 37 min 52 sec)
Heartbeat CPU 0 instructions: 182500844 cycles: 295798177 heartbeat IPC: 1.392 cumulative IPC: 0.4699 (Simulation time: 00 hr 37 min 55 sec)
Heartbeat CPU 0 instructions: 183000844 cycles: 296128469 heartbeat IPC: 1.514 cumulative IPC: 0.4712 (Simulation time: 00 hr 37 min 58 sec)
Heartbeat CPU 0 instructions: 183500847 cycles: 296444797 heartbeat IPC: 1.581 cumulative IPC: 0.4724 (Simulation time: 00 hr 38 min 00 sec)
Heartbeat CPU 0 instructions: 184000851 cycles: 297658065 heartbeat IPC: 0.4121 cumulative IPC: 0.4721 (Simulation time: 00 hr 38 min 07 sec)
Heartbeat CPU 0 instructions: 184500854 cycles: 298962185 heartbeat IPC: 0.3834 cumulative IPC: 0.4717 (Simulation time: 00 hr 38 min 15 sec)
Heartbeat CPU 0 instructions: 185000860 cycles: 300498172 heartbeat IPC: 0.3255 cumulative IPC: 0.471 (Simulation time: 00 hr 38 min 24 sec)
Heartbeat CPU 0 instructions: 185500863 cycles: 302322888 heartbeat IPC: 0.274 cumulative IPC: 0.4697 (Simulation time: 00 hr 38 min 34 sec)
Heartbeat CPU 0 instructions: 186000864 cycles: 303629209 heartbeat IPC: 0.3828 cumulative IPC: 0.4693 (Simulation time: 00 hr 38 min 42 sec)
Heartbeat CPU 0 instructions: 186500866 cycles: 304844035 heartbeat IPC: 0.4116 cumulative IPC: 0.4691 (Simulation time: 00 hr 38 min 50 sec)
Heartbeat CPU 0 instructions: 187000871 cycles: 305558820 heartbeat IPC: 0.6995 cumulative IPC: 0.4696 (Simulation time: 00 hr 38 min 55 sec)
Heartbeat CPU 0 instructions: 187500871 cycles: 306520916 heartbeat IPC: 0.5197 cumulative IPC: 0.4698 (Simulation time: 00 hr 39 min 01 sec)
Heartbeat CPU 0 instructions: 188000872 cycles: 307960844 heartbeat IPC: 0.3472 cumulative IPC: 0.4692 (Simulation time: 00 hr 39 min 09 sec)
Heartbeat CPU 0 instructions: 188500873 cycles: 308788296 heartbeat IPC: 0.6043 cumulative IPC: 0.4696 (Simulation time: 00 hr 39 min 15 sec)
Heartbeat CPU 0 instructions: 189000878 cycles: 309389878 heartbeat IPC: 0.8312 cumulative IPC: 0.4703 (Simulation time: 00 hr 39 min 19 sec)
Heartbeat CPU 0 instructions: 189500880 cycles: 309708935 heartbeat IPC: 1.567 cumulative IPC: 0.4715 (Simulation time: 00 hr 39 min 21 sec)
Heartbeat CPU 0 instructions: 190000881 cycles: 310069829 heartbeat IPC: 1.385 cumulative IPC: 0.4726 (Simulation time: 00 hr 39 min 24 sec)
Heartbeat CPU 0 instructions: 190500884 cycles: 310427455 heartbeat IPC: 1.398 cumulative IPC: 0.4737 (Simulation time: 00 hr 39 min 27 sec)
Heartbeat CPU 0 instructions: 191000889 cycles: 311481560 heartbeat IPC: 0.4743 cumulative IPC: 0.4737 (Simulation time: 00 hr 39 min 33 sec)
Heartbeat CPU 0 instructions: 191500889 cycles: 312976573 heartbeat IPC: 0.3344 cumulative IPC: 0.473 (Simulation time: 00 hr 39 min 42 sec)
Heartbeat CPU 0 instructions: 192000889 cycles: 314365789 heartbeat IPC: 0.3599 cumulative IPC: 0.4725 (Simulation time: 00 hr 39 min 50 sec)
Heartbeat CPU 0 instructions: 192500893 cycles: 315556265 heartbeat IPC: 0.42 cumulative IPC: 0.4723 (Simulation time: 00 hr 39 min 58 sec)
Heartbeat CPU 0 instructions: 193000895 cycles: 316721437 heartbeat IPC: 0.4291 cumulative IPC: 0.4721 (Simulation time: 00 hr 40 min 05 sec)
Heartbeat CPU 0 instructions: 193500897 cycles: 317749988 heartbeat IPC: 0.4861 cumulative IPC: 0.4722 (Simulation time: 00 hr 40 min 12 sec)
Heartbeat CPU 0 instructions: 194000900 cycles: 319513857 heartbeat IPC: 0.2835 cumulative IPC: 0.4711 (Simulation time: 00 hr 40 min 22 sec)
Heartbeat CPU 0 instructions: 194500900 cycles: 320901773 heartbeat IPC: 0.3603 cumulative IPC: 0.4706 (Simulation time: 00 hr 40 min 30 sec)
Heartbeat CPU 0 instructions: 195000902 cycles: 321931824 heartbeat IPC: 0.4854 cumulative IPC: 0.4706 (Simulation time: 00 hr 40 min 37 sec)
Heartbeat CPU 0 instructions: 195500907 cycles: 322816738 heartbeat IPC: 0.565 cumulative IPC: 0.4709 (Simulation time: 00 hr 40 min 43 sec)
Heartbeat CPU 0 instructions: 196000908 cycles: 323423569 heartbeat IPC: 0.824 cumulative IPC: 0.4716 (Simulation time: 00 hr 40 min 47 sec)
Heartbeat CPU 0 instructions: 196500908 cycles: 324617592 heartbeat IPC: 0.4188 cumulative IPC: 0.4714 (Simulation time: 00 hr 40 min 54 sec)
Heartbeat CPU 0 instructions: 197000908 cycles: 325481037 heartbeat IPC: 0.5791 cumulative IPC: 0.4717 (Simulation time: 00 hr 41 min 00 sec)
Heartbeat CPU 0 instructions: 197500915 cycles: 327128714 heartbeat IPC: 0.3035 cumulative IPC: 0.4708 (Simulation time: 00 hr 41 min 10 sec)
Heartbeat CPU 0 instructions: 198000915 cycles: 328544927 heartbeat IPC: 0.3531 cumulative IPC: 0.4703 (Simulation time: 00 hr 41 min 18 sec)
Heartbeat CPU 0 instructions: 198500919 cycles: 329876514 heartbeat IPC: 0.3755 cumulative IPC: 0.4699 (Simulation time: 00 hr 41 min 27 sec)
Heartbeat CPU 0 instructions: 199000922 cycles: 331025550 heartbeat IPC: 0.4351 cumulative IPC: 0.4698 (Simulation time: 00 hr 41 min 34 sec)
Heartbeat CPU 0 instructions: 199500923 cycles: 331796334 heartbeat IPC: 0.6487 cumulative IPC: 0.4702 (Simulation time: 00 hr 41 min 39 sec)
Heartbeat CPU 0 instructions: 200000926 cycles: 332952653 heartbeat IPC: 0.4324 cumulative IPC: 0.4701 (Simulation time: 00 hr 41 min 46 sec)
Heartbeat CPU 0 instructions: 200500927 cycles: 334524895 heartbeat IPC: 0.318 cumulative IPC: 0.4693 (Simulation time: 00 hr 41 min 56 sec)
Heartbeat CPU 0 instructions: 201000928 cycles: 335943807 heartbeat IPC: 0.3524 cumulative IPC: 0.4688 (Simulation time: 00 hr 42 min 04 sec)
Heartbeat CPU 0 instructions: 201500929 cycles: 337443728 heartbeat IPC: 0.3334 cumulative IPC: 0.4682 (Simulation time: 00 hr 42 min 13 sec)
Heartbeat CPU 0 instructions: 202000935 cycles: 338442499 heartbeat IPC: 0.5006 cumulative IPC: 0.4683 (Simulation time: 00 hr 42 min 20 sec)
Heartbeat CPU 0 instructions: 202500935 cycles: 340216669 heartbeat IPC: 0.2818 cumulative IPC: 0.4673 (Simulation time: 00 hr 42 min 30 sec)
Heartbeat CPU 0 instructions: 203000940 cycles: 341901369 heartbeat IPC: 0.2968 cumulative IPC: 0.4664 (Simulation time: 00 hr 42 min 40 sec)
Heartbeat CPU 0 instructions: 203500943 cycles: 342998593 heartbeat IPC: 0.4557 cumulative IPC: 0.4663 (Simulation time: 00 hr 42 min 47 sec)
Heartbeat CPU 0 instructions: 204000947 cycles: 344006011 heartbeat IPC: 0.4963 cumulative IPC: 0.4664 (Simulation time: 00 hr 42 min 54 sec)
Heartbeat CPU 0 instructions: 204500953 cycles: 344966101 heartbeat IPC: 0.5208 cumulative IPC: 0.4666 (Simulation time: 00 hr 43 min 00 sec)
Heartbeat CPU 0 instructions: 205000953 cycles: 345659554 heartbeat IPC: 0.721 cumulative IPC: 0.4671 (Simulation time: 00 hr 43 min 05 sec)
Heartbeat CPU 0 instructions: 205500954 cycles: 346520087 heartbeat IPC: 0.581 cumulative IPC: 0.4674 (Simulation time: 00 hr 43 min 10 sec)
Heartbeat CPU 0 instructions: 206000954 cycles: 347352240 heartbeat IPC: 0.6009 cumulative IPC: 0.4678 (Simulation time: 00 hr 43 min 16 sec)
Heartbeat CPU 0 instructions: 206500958 cycles: 348433265 heartbeat IPC: 0.4625 cumulative IPC: 0.4677 (Simulation time: 00 hr 43 min 23 sec)
Heartbeat CPU 0 instructions: 207000958 cycles: 349272013 heartbeat IPC: 0.5961 cumulative IPC: 0.4681 (Simulation time: 00 hr 43 min 28 sec)
Heartbeat CPU 0 instructions: 207500963 cycles: 350369048 heartbeat IPC: 0.4558 cumulative IPC: 0.468 (Simulation time: 00 hr 43 min 35 sec)
Heartbeat CPU 0 instructions: 208000963 cycles: 351813223 heartbeat IPC: 0.3462 cumulative IPC: 0.4675 (Simulation time: 00 hr 43 min 44 sec)
Heartbeat CPU 0 instructions: 208500966 cycles: 353847798 heartbeat IPC: 0.2458 cumulative IPC: 0.4662 (Simulation time: 00 hr 43 min 56 sec)
Heartbeat CPU 0 instructions: 209000967 cycles: 355537956 heartbeat IPC: 0.2958 cumulative IPC: 0.4653 (Simulation time: 00 hr 44 min 06 sec)
Heartbeat CPU 0 instructions: 209500967 cycles: 355854679 heartbeat IPC: 1.579 cumulative IPC: 0.4664 (Simulation time: 00 hr 44 min 08 sec)
Heartbeat CPU 0 instructions: 210000968 cycles: 356187535 heartbeat IPC: 1.502 cumulative IPC: 0.4674 (Simulation time: 00 hr 44 min 11 sec)
Heartbeat CPU 0 instructions: 210500970 cycles: 356567255 heartbeat IPC: 1.317 cumulative IPC: 0.4683 (Simulation time: 00 hr 44 min 14 sec)
Heartbeat CPU 0 instructions: 211000974 cycles: 357878617 heartbeat IPC: 0.3813 cumulative IPC: 0.468 (Simulation time: 00 hr 44 min 22 sec)
Heartbeat CPU 0 instructions: 211500976 cycles: 359530700 heartbeat IPC: 0.3026 cumulative IPC: 0.4672 (Simulation time: 00 hr 44 min 31 sec)
Heartbeat CPU 0 instructions: 212000976 cycles: 360893040 heartbeat IPC: 0.367 cumulative IPC: 0.4668 (Simulation time: 00 hr 44 min 39 sec)
Heartbeat CPU 0 instructions: 212500977 cycles: 361975895 heartbeat IPC: 0.4617 cumulative IPC: 0.4668 (Simulation time: 00 hr 44 min 46 sec)
Heartbeat CPU 0 instructions: 213000983 cycles: 363417564 heartbeat IPC: 0.3468 cumulative IPC: 0.4663 (Simulation time: 00 hr 44 min 55 sec)
Heartbeat CPU 0 instructions: 213500983 cycles: 364945380 heartbeat IPC: 0.3273 cumulative IPC: 0.4657 (Simulation time: 00 hr 45 min 04 sec)
Heartbeat CPU 0 instructions: 214000988 cycles: 366414245 heartbeat IPC: 0.3404 cumulative IPC: 0.4652 (Simulation time: 00 hr 45 min 13 sec)
Heartbeat CPU 0 instructions: 214500989 cycles: 367498948 heartbeat IPC: 0.461 cumulative IPC: 0.4651 (Simulation time: 00 hr 45 min 20 sec)
Heartbeat CPU 0 instructions: 215000989 cycles: 368657547 heartbeat IPC: 0.4316 cumulative IPC: 0.465 (Simulation time: 00 hr 45 min 27 sec)
Heartbeat CPU 0 instructions: 215500989 cycles: 369815027 heartbeat IPC: 0.432 cumulative IPC: 0.4649 (Simulation time: 00 hr 45 min 34 sec)
Heartbeat CPU 0 instructions: 216000994 cycles: 370973964 heartbeat IPC: 0.4314 cumulative IPC: 0.4648 (Simulation time: 00 hr 45 min 41 sec)
Heartbeat CPU 0 instructions: 216500994 cycles: 372066138 heartbeat IPC: 0.4578 cumulative IPC: 0.4648 (Simulation time: 00 hr 45 min 48 sec)
Heartbeat CPU 0 instructions: 217000994 cycles: 372871514 heartbeat IPC: 0.6208 cumulative IPC: 0.4651 (Simulation time: 00 hr 45 min 53 sec)
Heartbeat CPU 0 instructions: 217500995 cycles: 373634593 heartbeat IPC: 0.6552 cumulative IPC: 0.4656 (Simulation time: 00 hr 45 min 59 sec)
Heartbeat CPU 0 instructions: 218001000 cycles: 375095402 heartbeat IPC: 0.3423 cumulative IPC: 0.4651 (Simulation time: 00 hr 46 min 07 sec)
Heartbeat CPU 0 instructions: 218501000 cycles: 376541197 heartbeat IPC: 0.3458 cumulative IPC: 0.4646 (Simulation time: 00 hr 46 min 16 sec)
Heartbeat CPU 0 instructions: 219001000 cycles: 377663655 heartbeat IPC: 0.4455 cumulative IPC: 0.4645 (Simulation time: 00 hr 46 min 23 sec)
Heartbeat CPU 0 instructions: 219501000 cycles: 378997777 heartbeat IPC: 0.3748 cumulative IPC: 0.4642 (Simulation time: 00 hr 46 min 31 sec)
Heartbeat CPU 0 instructions: 220001000 cycles: 380286017 heartbeat IPC: 0.3881 cumulative IPC: 0.4639 (Simulation time: 00 hr 46 min 39 sec)
Heartbeat CPU 0 instructions: 220501000 cycles: 381194134 heartbeat IPC: 0.5506 cumulative IPC: 0.4641 (Simulation time: 00 hr 46 min 45 sec)
Heartbeat CPU 0 instructions: 221001001 cycles: 382440789 heartbeat IPC: 0.4011 cumulative IPC: 0.4639 (Simulation time: 00 hr 46 min 52 sec)
Heartbeat CPU 0 instructions: 221501003 cycles: 383755497 heartbeat IPC: 0.3803 cumulative IPC: 0.4636 (Simulation time: 00 hr 47 min 00 sec)
Heartbeat CPU 0 instructions: 222001003 cycles: 384965534 heartbeat IPC: 0.4132 cumulative IPC: 0.4635 (Simulation time: 00 hr 47 min 07 sec)
Heartbeat CPU 0 instructions: 222501005 cycles: 386367879 heartbeat IPC: 0.3565 cumulative IPC: 0.4631 (Simulation time: 00 hr 47 min 16 sec)
Heartbeat CPU 0 instructions: 223001005 cycles: 387961263 heartbeat IPC: 0.3138 cumulative IPC: 0.4624 (Simulation time: 00 hr 47 min 25 sec)
Heartbeat CPU 0 instructions: 223501006 cycles: 389089640 heartbeat IPC: 0.4431 cumulative IPC: 0.4624 (Simulation time: 00 hr 47 min 32 sec)
Heartbeat CPU 0 instructions: 224001006 cycles: 389444250 heartbeat IPC: 1.41 cumulative IPC: 0.4633 (Simulation time: 00 hr 47 min 35 sec)
Heartbeat CPU 0 instructions: 224501009 cycles: 389827908 heartbeat IPC: 1.303 cumulative IPC: 0.4641 (Simulation time: 00 hr 47 min 38 sec)
Heartbeat CPU 0 instructions: 225001009 cycles: 390190388 heartbeat IPC: 1.379 cumulative IPC: 0.465 (Simulation time: 00 hr 47 min 41 sec)
Heartbeat CPU 0 instructions: 225501009 cycles: 390539171 heartbeat IPC: 1.434 cumulative IPC: 0.4659 (Simulation time: 00 hr 47 min 44 sec)
Heartbeat CPU 0 instructions: 226001010 cycles: 391102864 heartbeat IPC: 0.887 cumulative IPC: 0.4665 (Simulation time: 00 hr 47 min 48 sec)
Heartbeat CPU 0 instructions: 226501013 cycles: 391434836 heartbeat IPC: 1.506 cumulative IPC: 0.4674 (Simulation time: 00 hr 47 min 50 sec)
Heartbeat CPU 0 instructions: 227001016 cycles: 393004263 heartbeat IPC: 0.3186 cumulative IPC: 0.4668 (Simulation time: 00 hr 47 min 59 sec)
Heartbeat CPU 0 instructions: 227501017 cycles: 394152935 heartbeat IPC: 0.4353 cumulative IPC: 0.4667 (Simulation time: 00 hr 48 min 06 sec)
Heartbeat CPU 0 instructions: 228001018 cycles: 395248634 heartbeat IPC: 0.4563 cumulative IPC: 0.4667 (Simulation time: 00 hr 48 min 13 sec)
Heartbeat CPU 0 instructions: 228501018 cycles: 396832956 heartbeat IPC: 0.3156 cumulative IPC: 0.4661 (Simulation time: 00 hr 48 min 22 sec)
Heartbeat CPU 0 instructions: 229001018 cycles: 398135521 heartbeat IPC: 0.3839 cumulative IPC: 0.4658 (Simulation time: 00 hr 48 min 30 sec)
Heartbeat CPU 0 instructions: 229501020 cycles: 399367201 heartbeat IPC: 0.406 cumulative IPC: 0.4656 (Simulation time: 00 hr 48 min 37 sec)
Heartbeat CPU 0 instructions: 230001025 cycles: 400302891 heartbeat IPC: 0.5344 cumulative IPC: 0.4658 (Simulation time: 00 hr 48 min 44 sec)
Heartbeat CPU 0 instructions: 230501026 cycles: 401465861 heartbeat IPC: 0.4299 cumulative IPC: 0.4657 (Simulation time: 00 hr 48 min 51 sec)
Heartbeat CPU 0 instructions: 231001026 cycles: 402680746 heartbeat IPC: 0.4116 cumulative IPC: 0.4655 (Simulation time: 00 hr 48 min 58 sec)
Heartbeat CPU 0 instructions: 231501027 cycles: 404060046 heartbeat IPC: 0.3625 cumulative IPC: 0.4651 (Simulation time: 00 hr 49 min 07 sec)
Heartbeat CPU 0 instructions: 232001027 cycles: 405441979 heartbeat IPC: 0.3618 cumulative IPC: 0.4648 (Simulation time: 00 hr 49 min 15 sec)
Heartbeat CPU 0 instructions: 232501029 cycles: 406639105 heartbeat IPC: 0.4177 cumulative IPC: 0.4646 (Simulation time: 00 hr 49 min 22 sec)
Heartbeat CPU 0 instructions: 233001031 cycles: 407947473 heartbeat IPC: 0.3822 cumulative IPC: 0.4643 (Simulation time: 00 hr 49 min 30 sec)
Heartbeat CPU 0 instructions: 233501037 cycles: 409637030 heartbeat IPC: 0.2959 cumulative IPC: 0.4636 (Simulation time: 00 hr 49 min 40 sec)
Heartbeat CPU 0 instructions: 234001041 cycles: 410867662 heartbeat IPC: 0.4063 cumulative IPC: 0.4635 (Simulation time: 00 hr 49 min 47 sec)
Heartbeat CPU 0 instructions: 234501046 cycles: 411618432 heartbeat IPC: 0.666 cumulative IPC: 0.4638 (Simulation time: 00 hr 49 min 53 sec)
Heartbeat CPU 0 instructions: 235001046 cycles: 413202226 heartbeat IPC: 0.3157 cumulative IPC: 0.4632 (Simulation time: 00 hr 50 min 02 sec)
Heartbeat CPU 0 instructions: 235501049 cycles: 414198429 heartbeat IPC: 0.5019 cumulative IPC: 0.4633 (Simulation time: 00 hr 50 min 08 sec)
Heartbeat CPU 0 instructions: 236001051 cycles: 415532221 heartbeat IPC: 0.3749 cumulative IPC: 0.463 (Simulation time: 00 hr 50 min 16 sec)
Heartbeat CPU 0 instructions: 236501053 cycles: 416573858 heartbeat IPC: 0.48 cumulative IPC: 0.4631 (Simulation time: 00 hr 50 min 23 sec)
Heartbeat CPU 0 instructions: 237001054 cycles: 418451267 heartbeat IPC: 0.2663 cumulative IPC: 0.4622 (Simulation time: 00 hr 50 min 34 sec)
Heartbeat CPU 0 instructions: 237501057 cycles: 419800449 heartbeat IPC: 0.3706 cumulative IPC: 0.4619 (Simulation time: 00 hr 50 min 42 sec)
Heartbeat CPU 0 instructions: 238001058 cycles: 421109199 heartbeat IPC: 0.382 cumulative IPC: 0.4616 (Simulation time: 00 hr 50 min 50 sec)
Heartbeat CPU 0 instructions: 238501063 cycles: 422062075 heartbeat IPC: 0.5247 cumulative IPC: 0.4618 (Simulation time: 00 hr 50 min 56 sec)
Heartbeat CPU 0 instructions: 239001063 cycles: 423489550 heartbeat IPC: 0.3503 cumulative IPC: 0.4614 (Simulation time: 00 hr 51 min 05 sec)
Heartbeat CPU 0 instructions: 239501064 cycles: 424701269 heartbeat IPC: 0.4126 cumulative IPC: 0.4612 (Simulation time: 00 hr 51 min 12 sec)
Heartbeat CPU 0 instructions: 240001064 cycles: 425933297 heartbeat IPC: 0.4058 cumulative IPC: 0.4611 (Simulation time: 00 hr 51 min 20 sec)
Heartbeat CPU 0 instructions: 240501064 cycles: 427316764 heartbeat IPC: 0.3614 cumulative IPC: 0.4607 (Simulation time: 00 hr 51 min 28 sec)
Heartbeat CPU 0 instructions: 241001064 cycles: 428515579 heartbeat IPC: 0.4171 cumulative IPC: 0.4606 (Simulation time: 00 hr 51 min 36 sec)
Heartbeat CPU 0 instructions: 241501064 cycles: 429886786 heartbeat IPC: 0.3646 cumulative IPC: 0.4603 (Simulation time: 00 hr 51 min 44 sec)
Heartbeat CPU 0 instructions: 242001066 cycles: 431103771 heartbeat IPC: 0.4109 cumulative IPC: 0.4601 (Simulation time: 00 hr 51 min 52 sec)
Heartbeat CPU 0 instructions: 242501068 cycles: 432381912 heartbeat IPC: 0.3912 cumulative IPC: 0.4599 (Simulation time: 00 hr 52 min 00 sec)
Heartbeat CPU 0 instructions: 243001071 cycles: 433642614 heartbeat IPC: 0.3966 cumulative IPC: 0.4597 (Simulation time: 00 hr 52 min 07 sec)
Heartbeat CPU 0 instructions: 243501072 cycles: 434442434 heartbeat IPC: 0.6251 cumulative IPC: 0.4601 (Simulation time: 00 hr 52 min 13 sec)
Heartbeat CPU 0 instructions: 244001072 cycles: 435793498 heartbeat IPC: 0.3701 cumulative IPC: 0.4598 (Simulation time: 00 hr 52 min 21 sec)
Heartbeat CPU 0 instructions: 244501072 cycles: 436844817 heartbeat IPC: 0.4756 cumulative IPC: 0.4598 (Simulation time: 00 hr 52 min 27 sec)
Heartbeat CPU 0 instructions: 245001074 cycles: 438003686 heartbeat IPC: 0.4315 cumulative IPC: 0.4597 (Simulation time: 00 hr 52 min 34 sec)
Heartbeat CPU 0 instructions: 245501077 cycles: 438886922 heartbeat IPC: 0.5661 cumulative IPC: 0.46 (Simulation time: 00 hr 52 min 40 sec)
Heartbeat CPU 0 instructions: 246001080 cycles: 440292682 heartbeat IPC: 0.3557 cumulative IPC: 0.4596 (Simulation time: 00 hr 52 min 48 sec)
Heartbeat CPU 0 instructions: 246501086 cycles: 441983532 heartbeat IPC: 0.2957 cumulative IPC: 0.459 (Simulation time: 00 hr 52 min 58 sec)
Heartbeat CPU 0 instructions: 247001086 cycles: 443088792 heartbeat IPC: 0.4524 cumulative IPC: 0.4589 (Simulation time: 00 hr 53 min 05 sec)
Heartbeat CPU 0 instructions: 247501087 cycles: 443844991 heartbeat IPC: 0.6612 cumulative IPC: 0.4593 (Simulation time: 00 hr 53 min 10 sec)
Heartbeat CPU 0 instructions: 248001087 cycles: 444984256 heartbeat IPC: 0.4389 cumulative IPC: 0.4592 (Simulation time: 00 hr 53 min 17 sec)
Heartbeat CPU 0 instructions: 248501087 cycles: 446072131 heartbeat IPC: 0.4596 cumulative IPC: 0.4592 (Simulation time: 00 hr 53 min 24 sec)
Heartbeat CPU 0 instructions: 249001087 cycles: 447050445 heartbeat IPC: 0.5111 cumulative IPC: 0.4594 (Simulation time: 00 hr 53 min 30 sec)
Heartbeat CPU 0 instructions: 249501087 cycles: 447808601 heartbeat IPC: 0.6595 cumulative IPC: 0.4597 (Simulation time: 00 hr 53 min 35 sec)
Simulation finished CPU 0 instructions: 200000005 cycles: 435159670 cumulative IPC: 0.4596 (Simulation time: 00 hr 53 min 42 sec)
Simulation complete CPU 0 instructions: 200000005 cycles: 435159670 cumulative IPC: 0.4596 (Simulation time: 00 hr 53 min 42 sec)

ChampSim completed all CPUs

=== Simulation ===
CPU 0 runs /local-ssd/ben/dpc4-traces/gtraces_v2/sierra.a.6_0002.champsim.gz

Region of Interest Statistics

CPU 0 cumulative IPC: 0.4596 instructions: 200000005 cycles: 435159670
CPU 0 Branch Prediction Accuracy: 87.37% MPKI: 24.72 Average ROB Occupancy at Mispredict: 18.9
Branch type MPKI
BRANCH_DIRECT_JUMP: 1.987
BRANCH_INDIRECT: 0.2627
BRANCH_CONDITIONAL: 19.65
BRANCH_DIRECT_CALL: 1.394
BRANCH_INDIRECT_CALL: 0.3355
BRANCH_RETURN: 1.09

cpu0->cpu0_STLB TOTAL        ACCESS:    3369862 HIT:    2525732 MISS:     844130 MSHR_MERGE:          0
cpu0->cpu0_STLB LOAD         ACCESS:    3369862 HIT:    2525732 MISS:     844130 MSHR_MERGE:          0
cpu0->cpu0_STLB RFO          ACCESS:          0 HIT:          0 MISS:          0 MSHR_MERGE:          0
cpu0->cpu0_STLB PREFETCH     ACCESS:          0 HIT:          0 MISS:          0 MSHR_MERGE:          0
cpu0->cpu0_STLB WRITE        ACCESS:          0 HIT:          0 MISS:          0 MSHR_MERGE:          0
cpu0->cpu0_STLB TRANSLATION  ACCESS:          0 HIT:          0 MISS:          0 MSHR_MERGE:          0
cpu0->cpu0_STLB PREFETCH REQUESTED:          0 ISSUED:          0 USEFUL:          0 USELESS:          0
cpu0->cpu0_STLB AVERAGE MISS LATENCY: 136.7 cycles
cpu0->cpu0_L2C TOTAL        ACCESS:   29901983 HIT:   21890695 MISS:    8011288 MSHR_MERGE:    1098439
cpu0->cpu0_L2C LOAD         ACCESS:    9700188 HIT:    7704906 MISS:    1995282 MSHR_MERGE:      27245
cpu0->cpu0_L2C RFO          ACCESS:     974517 HIT:     526725 MISS:     447792 MSHR_MERGE:         50
cpu0->cpu0_L2C PREFETCH     ACCESS:   16425052 HIT:   11194968 MISS:    5230084 MSHR_MERGE:    1071144
cpu0->cpu0_L2C WRITE        ACCESS:    1884090 HIT:    1884058 MISS:         32 MSHR_MERGE:          0
cpu0->cpu0_L2C TRANSLATION  ACCESS:     918136 HIT:     580038 MISS:     338098 MSHR_MERGE:          0
cpu0->cpu0_L2C PREFETCH REQUESTED:   15679979 ISSUED:   15188896 USEFUL:      91901 USELESS:      21412
cpu0->cpu0_L2C AVERAGE MISS LATENCY: 176.2 cycles
cpu0->cpu0_L1I TOTAL        ACCESS:   22997243 HIT:   13542696 MISS:    9454547 MSHR_MERGE:    2341676
cpu0->cpu0_L1I LOAD         ACCESS:   22997243 HIT:   13542696 MISS:    9454547 MSHR_MERGE:    2341676
cpu0->cpu0_L1I RFO          ACCESS:          0 HIT:          0 MISS:          0 MSHR_MERGE:          0
cpu0->cpu0_L1I PREFETCH     ACCESS:          0 HIT:          0 MISS:          0 MSHR_MERGE:          0
cpu0->cpu0_L1I WRITE        ACCESS:          0 HIT:          0 MISS:          0 MSHR_MERGE:          0
cpu0->cpu0_L1I TRANSLATION  ACCESS:          0 HIT:          0 MISS:          0 MSHR_MERGE:          0
cpu0->cpu0_L1I PREFETCH REQUESTED:          0 ISSUED:          0 USEFUL:          0 USELESS:          0
cpu0->cpu0_L1I AVERAGE MISS LATENCY: 26.19 cycles
cpu0->cpu0_L1D TOTAL        ACCESS:   64390884 HIT:   55696352 MISS:    8694532 MSHR_MERGE:    2978331
cpu0->cpu0_L1D LOAD         ACCESS:   34825765 HIT:   31487768 MISS:    3337997 MSHR_MERGE:     750656
cpu0->cpu0_L1D RFO          ACCESS:          0 HIT:          0 MISS:          0 MSHR_MERGE:          0
cpu0->cpu0_L1D PREFETCH     ACCESS:    2419854 HIT:    1117791 MISS:    1302063 MSHR_MERGE:      65891
cpu0->cpu0_L1D WRITE        ACCESS:   24947750 HIT:   21817772 MISS:    3129978 MSHR_MERGE:    2155426
cpu0->cpu0_L1D TRANSLATION  ACCESS:    2197515 HIT:    1273021 MISS:     924494 MSHR_MERGE:       6358
cpu0->cpu0_L1D PREFETCH REQUESTED:    2442237 ISSUED:    2419849 USEFUL:     371257 USELESS:     864856
cpu0->cpu0_L1D AVERAGE MISS LATENCY: 87.9 cycles
cpu0->cpu0_ITLB TOTAL        ACCESS:   18734715 HIT:   17729741 MISS:    1004974 MSHR_MERGE:     471580
cpu0->cpu0_ITLB LOAD         ACCESS:   18734715 HIT:   17729741 MISS:    1004974 MSHR_MERGE:     471580
cpu0->cpu0_ITLB RFO          ACCESS:          0 HIT:          0 MISS:          0 MSHR_MERGE:          0
cpu0->cpu0_ITLB PREFETCH     ACCESS:          0 HIT:          0 MISS:          0 MSHR_MERGE:          0
cpu0->cpu0_ITLB WRITE        ACCESS:          0 HIT:          0 MISS:          0 MSHR_MERGE:          0
cpu0->cpu0_ITLB TRANSLATION  ACCESS:          0 HIT:          0 MISS:          0 MSHR_MERGE:          0
cpu0->cpu0_ITLB PREFETCH REQUESTED:          0 ISSUED:          0 USEFUL:          0 USELESS:          0
cpu0->cpu0_ITLB AVERAGE MISS LATENCY: 19.72 cycles
cpu0->cpu0_DTLB TOTAL        ACCESS:   59496031 HIT:   54991549 MISS:    4504482 MSHR_MERGE:    1668014
cpu0->cpu0_DTLB LOAD         ACCESS:   59496031 HIT:   54991549 MISS:    4504482 MSHR_MERGE:    1668014
cpu0->cpu0_DTLB RFO          ACCESS:          0 HIT:          0 MISS:          0 MSHR_MERGE:          0
cpu0->cpu0_DTLB PREFETCH     ACCESS:          0 HIT:          0 MISS:          0 MSHR_MERGE:          0
cpu0->cpu0_DTLB WRITE        ACCESS:          0 HIT:          0 MISS:          0 MSHR_MERGE:          0
cpu0->cpu0_DTLB TRANSLATION  ACCESS:          0 HIT:          0 MISS:          0 MSHR_MERGE:          0
cpu0->cpu0_DTLB PREFETCH REQUESTED:          0 ISSUED:          0 USEFUL:          0 USELESS:          0
cpu0->cpu0_DTLB AVERAGE MISS LATENCY: 43.21 cycles
cpu0->LLC TOTAL        ACCESS:   10288579 HIT:    4283210 MISS:    6005369 MSHR_MERGE:     447191
cpu0->LLC LOAD         ACCESS:    1968037 HIT:     786545 MISS:    1181492 MSHR_MERGE:      99946
cpu0->LLC RFO          ACCESS:     447742 HIT:      58103 MISS:     389639 MSHR_MERGE:       4532
cpu0->LLC PREFETCH     ACCESS:    6604446 HIT:    3180320 MISS:    3424126 MSHR_MERGE:     342713
cpu0->LLC WRITE        ACCESS:     930256 HIT:     249067 MISS:     681189 MSHR_MERGE:          0
cpu0->LLC TRANSLATION  ACCESS:     338098 HIT:       9175 MISS:     328923 MSHR_MERGE:          0
cpu0->LLC PREFETCH REQUESTED:    2454876 ISSUED:    2445717 USEFUL:     162067 USELESS:    1142927
cpu0->LLC AVERAGE MISS LATENCY: 168.9 cycles

DRAM Statistics

Channel 0 RQ ROW_BUFFER_HIT:      34158
  ROW_BUFFER_MISS:    4842762
  AVG DBUS CONGESTED CYCLE: 22.34
Channel 0 WQ ROW_BUFFER_HIT:     251708
  ROW_BUFFER_MISS:     610995
  FULL:          0
Channel 0 REFRESHES ISSUED:      36261
