[VMEM] WARNING: physical memory size is smaller than virtual memory size.

*** ChampSim Multicore Out-of-Order Simulator ***
Warmup Instructions: 50000000
Simulation Instructions: 200000000
Number of CPUs: 1
Page size: 4096
Core 0: /local-ssd/ben/dpc4-traces/gtraces_v2/tango_0000.champsim.gz
Initialize SIGNATURE TABLE
ST_SET: 1
ST_WAY: 256
ST_TAG_BIT: 16

Initialize PATTERN TABLE
PT_SET: 512
PT_WAY: 4
SIG_DELTA_BIT: 7
C_SIG_BIT: 4
C_DELTA_BIT: 4

Initialize PREFETCH FILTER
FILTER_SET: 1024
 L1D Berti prefetcher
Off-chip DRAM Size: 64 GiB Channels: 1 Width: 64-bit Data Rate: 4807 MT/s
Heartbeat CPU 0 instructions: 500002 cycles: 242363 heartbeat IPC: 2.063 cumulative IPC: 2.063 (Simulation time: 00 hr 00 min 04 sec)
[BTB] WARNING: target of return is a lower address than the corresponding call. This is usually a problem with your trace.
[BTB] WARNING: target of return is a lower address than the corresponding call. This is usually a problem with your trace.
[BTB] WARNING: target of return is a lower address than the corresponding call. This is usually a problem with your trace.
[BTB] WARNING: target of return is a lower address than the corresponding call. This is usually a problem with your trace.
[BTB] WARNING: target of return is a lower address than the corresponding call. This is usually a problem with your trace.
[BTB] WARNING: target of return is a lower address than the corresponding call. This is usually a problem with your trace.
[BTB] WARNING: target of return is a lower address than the corresponding call. This is usually a problem with your trace.
[BTB] WARNING: target of return is a lower address than the corresponding call. This is usually a problem with your trace.
[BTB] WARNING: target of return is a lower address than the corresponding call. This is usually a problem with your trace.
[BTB] WARNING: target of return is a lower address than the corresponding call. This is usually a problem with your trace.
Heartbeat CPU 0 instructions: 1000002 cycles: 433639 heartbeat IPC: 2.614 cumulative IPC: 2.306 (Simulation time: 00 hr 00 min 07 sec)
Heartbeat CPU 0 instructions: 1500007 cycles: 579945 heartbeat IPC: 3.418 cumulative IPC: 2.586 (Simulation time: 00 hr 00 min 10 sec)
Heartbeat CPU 0 instructions: 2000009 cycles: 749795 heartbeat IPC: 2.944 cumulative IPC: 2.667 (Simulation time: 00 hr 00 min 13 sec)
Heartbeat CPU 0 instructions: 2500010 cycles: 912526 heartbeat IPC: 3.073 cumulative IPC: 2.74 (Simulation time: 00 hr 00 min 16 sec)
Heartbeat CPU 0 instructions: 3000010 cycles: 1112004 heartbeat IPC: 2.507 cumulative IPC: 2.698 (Simulation time: 00 hr 00 min 19 sec)
Heartbeat CPU 0 instructions: 3500013 cycles: 1282409 heartbeat IPC: 2.934 cumulative IPC: 2.729 (Simulation time: 00 hr 00 min 22 sec)
Heartbeat CPU 0 instructions: 4000015 cycles: 1454830 heartbeat IPC: 2.9 cumulative IPC: 2.749 (Simulation time: 00 hr 00 min 25 sec)
Heartbeat CPU 0 instructions: 4500019 cycles: 1604793 heartbeat IPC: 3.334 cumulative IPC: 2.804 (Simulation time: 00 hr 00 min 28 sec)
Heartbeat CPU 0 instructions: 5000022 cycles: 1789722 heartbeat IPC: 2.704 cumulative IPC: 2.794 (Simulation time: 00 hr 00 min 31 sec)
Heartbeat CPU 0 instructions: 5500025 cycles: 1975792 heartbeat IPC: 2.687 cumulative IPC: 2.784 (Simulation time: 00 hr 00 min 35 sec)
Heartbeat CPU 0 instructions: 6000028 cycles: 2109263 heartbeat IPC: 3.746 cumulative IPC: 2.845 (Simulation time: 00 hr 00 min 37 sec)
Heartbeat CPU 0 instructions: 6500028 cycles: 2215009 heartbeat IPC: 4.728 cumulative IPC: 2.935 (Simulation time: 00 hr 00 min 39 sec)
Heartbeat CPU 0 instructions: 7000033 cycles: 2358965 heartbeat IPC: 3.473 cumulative IPC: 2.967 (Simulation time: 00 hr 00 min 41 sec)
Heartbeat CPU 0 instructions: 7500033 cycles: 2513322 heartbeat IPC: 3.239 cumulative IPC: 2.984 (Simulation time: 00 hr 00 min 44 sec)
Heartbeat CPU 0 instructions: 8000033 cycles: 2640433 heartbeat IPC: 3.934 cumulative IPC: 3.03 (Simulation time: 00 hr 00 min 46 sec)
Heartbeat CPU 0 instructions: 8500035 cycles: 2760055 heartbeat IPC: 4.18 cumulative IPC: 3.08 (Simulation time: 00 hr 00 min 49 sec)
Heartbeat CPU 0 instructions: 9000037 cycles: 2922457 heartbeat IPC: 3.079 cumulative IPC: 3.08 (Simulation time: 00 hr 00 min 52 sec)
Heartbeat CPU 0 instructions: 9500037 cycles: 3097528 heartbeat IPC: 2.856 cumulative IPC: 3.067 (Simulation time: 00 hr 00 min 55 sec)
Heartbeat CPU 0 instructions: 10000041 cycles: 3270485 heartbeat IPC: 2.891 cumulative IPC: 3.058 (Simulation time: 00 hr 00 min 58 sec)
Heartbeat CPU 0 instructions: 10500041 cycles: 3396191 heartbeat IPC: 3.978 cumulative IPC: 3.092 (Simulation time: 00 hr 01 min 00 sec)
Heartbeat CPU 0 instructions: 11000046 cycles: 3553502 heartbeat IPC: 3.178 cumulative IPC: 3.096 (Simulation time: 00 hr 01 min 03 sec)
Heartbeat CPU 0 instructions: 11500049 cycles: 3702669 heartbeat IPC: 3.352 cumulative IPC: 3.106 (Simulation time: 00 hr 01 min 06 sec)
Heartbeat CPU 0 instructions: 12000052 cycles: 3845733 heartbeat IPC: 3.495 cumulative IPC: 3.12 (Simulation time: 00 hr 01 min 09 sec)
Heartbeat CPU 0 instructions: 12500053 cycles: 3962970 heartbeat IPC: 4.265 cumulative IPC: 3.154 (Simulation time: 00 hr 01 min 11 sec)
Heartbeat CPU 0 instructions: 13000056 cycles: 4069704 heartbeat IPC: 4.685 cumulative IPC: 3.194 (Simulation time: 00 hr 01 min 13 sec)
Heartbeat CPU 0 instructions: 13500056 cycles: 4219884 heartbeat IPC: 3.329 cumulative IPC: 3.199 (Simulation time: 00 hr 01 min 15 sec)
Heartbeat CPU 0 instructions: 14000061 cycles: 4365211 heartbeat IPC: 3.441 cumulative IPC: 3.207 (Simulation time: 00 hr 01 min 18 sec)
Heartbeat CPU 0 instructions: 14500063 cycles: 4484899 heartbeat IPC: 4.178 cumulative IPC: 3.233 (Simulation time: 00 hr 01 min 20 sec)
Heartbeat CPU 0 instructions: 15000065 cycles: 4616259 heartbeat IPC: 3.806 cumulative IPC: 3.249 (Simulation time: 00 hr 01 min 22 sec)
Heartbeat CPU 0 instructions: 15500071 cycles: 4759254 heartbeat IPC: 3.497 cumulative IPC: 3.257 (Simulation time: 00 hr 01 min 25 sec)
Heartbeat CPU 0 instructions: 16000074 cycles: 4885564 heartbeat IPC: 3.959 cumulative IPC: 3.275 (Simulation time: 00 hr 01 min 27 sec)
Heartbeat CPU 0 instructions: 16500076 cycles: 5042502 heartbeat IPC: 3.186 cumulative IPC: 3.272 (Simulation time: 00 hr 01 min 30 sec)
Heartbeat CPU 0 instructions: 17000082 cycles: 5227960 heartbeat IPC: 2.696 cumulative IPC: 3.252 (Simulation time: 00 hr 01 min 33 sec)
Heartbeat CPU 0 instructions: 17500088 cycles: 5395338 heartbeat IPC: 2.987 cumulative IPC: 3.244 (Simulation time: 00 hr 01 min 36 sec)
Heartbeat CPU 0 instructions: 18000089 cycles: 5564008 heartbeat IPC: 2.964 cumulative IPC: 3.235 (Simulation time: 00 hr 01 min 40 sec)
Heartbeat CPU 0 instructions: 18500091 cycles: 5710663 heartbeat IPC: 3.409 cumulative IPC: 3.24 (Simulation time: 00 hr 01 min 42 sec)
Heartbeat CPU 0 instructions: 19000096 cycles: 5877224 heartbeat IPC: 3.002 cumulative IPC: 3.233 (Simulation time: 00 hr 01 min 46 sec)
Heartbeat CPU 0 instructions: 19500101 cycles: 6034808 heartbeat IPC: 3.173 cumulative IPC: 3.231 (Simulation time: 00 hr 01 min 49 sec)
Heartbeat CPU 0 instructions: 20000108 cycles: 6164945 heartbeat IPC: 3.842 cumulative IPC: 3.244 (Simulation time: 00 hr 01 min 51 sec)
Heartbeat CPU 0 instructions: 20500115 cycles: 6283021 heartbeat IPC: 4.235 cumulative IPC: 3.263 (Simulation time: 00 hr 01 min 53 sec)
Heartbeat CPU 0 instructions: 21000117 cycles: 6426065 heartbeat IPC: 3.495 cumulative IPC: 3.268 (Simulation time: 00 hr 01 min 55 sec)
Heartbeat CPU 0 instructions: 21500119 cycles: 6557030 heartbeat IPC: 3.818 cumulative IPC: 3.279 (Simulation time: 00 hr 01 min 58 sec)
Heartbeat CPU 0 instructions: 22000124 cycles: 6701799 heartbeat IPC: 3.454 cumulative IPC: 3.283 (Simulation time: 00 hr 02 min 00 sec)
Heartbeat CPU 0 instructions: 22500128 cycles: 6824095 heartbeat IPC: 4.088 cumulative IPC: 3.297 (Simulation time: 00 hr 02 min 02 sec)
Heartbeat CPU 0 instructions: 23000128 cycles: 6934194 heartbeat IPC: 4.541 cumulative IPC: 3.317 (Simulation time: 00 hr 02 min 04 sec)
Heartbeat CPU 0 instructions: 23500132 cycles: 7070882 heartbeat IPC: 3.658 cumulative IPC: 3.324 (Simulation time: 00 hr 02 min 07 sec)
Heartbeat CPU 0 instructions: 24000138 cycles: 7204040 heartbeat IPC: 3.755 cumulative IPC: 3.331 (Simulation time: 00 hr 02 min 10 sec)
Heartbeat CPU 0 instructions: 24500141 cycles: 7349079 heartbeat IPC: 3.447 cumulative IPC: 3.334 (Simulation time: 00 hr 02 min 12 sec)
Heartbeat CPU 0 instructions: 25000145 cycles: 7484588 heartbeat IPC: 3.69 cumulative IPC: 3.34 (Simulation time: 00 hr 02 min 15 sec)
Heartbeat CPU 0 instructions: 25500151 cycles: 7640750 heartbeat IPC: 3.202 cumulative IPC: 3.337 (Simulation time: 00 hr 02 min 18 sec)
Heartbeat CPU 0 instructions: 26000152 cycles: 7804907 heartbeat IPC: 3.046 cumulative IPC: 3.331 (Simulation time: 00 hr 02 min 21 sec)
Heartbeat CPU 0 instructions: 26500158 cycles: 7916590 heartbeat IPC: 4.477 cumulative IPC: 3.347 (Simulation time: 00 hr 02 min 23 sec)
Heartbeat CPU 0 instructions: 27000160 cycles: 8073779 heartbeat IPC: 3.181 cumulative IPC: 3.344 (Simulation time: 00 hr 02 min 26 sec)
Heartbeat CPU 0 instructions: 27500163 cycles: 8230131 heartbeat IPC: 3.198 cumulative IPC: 3.341 (Simulation time: 00 hr 02 min 29 sec)
Heartbeat CPU 0 instructions: 28000163 cycles: 8367723 heartbeat IPC: 3.634 cumulative IPC: 3.346 (Simulation time: 00 hr 02 min 32 sec)
Heartbeat CPU 0 instructions: 28500163 cycles: 8499479 heartbeat IPC: 3.795 cumulative IPC: 3.353 (Simulation time: 00 hr 02 min 34 sec)
Heartbeat CPU 0 instructions: 29000165 cycles: 8655092 heartbeat IPC: 3.213 cumulative IPC: 3.351 (Simulation time: 00 hr 02 min 37 sec)
Heartbeat CPU 0 instructions: 29500170 cycles: 8800354 heartbeat IPC: 3.442 cumulative IPC: 3.352 (Simulation time: 00 hr 02 min 40 sec)
Heartbeat CPU 0 instructions: 30000177 cycles: 8967445 heartbeat IPC: 2.992 cumulative IPC: 3.345 (Simulation time: 00 hr 02 min 43 sec)
Heartbeat CPU 0 instructions: 30500184 cycles: 9083597 heartbeat IPC: 4.305 cumulative IPC: 3.358 (Simulation time: 00 hr 02 min 45 sec)
Heartbeat CPU 0 instructions: 31000188 cycles: 9226401 heartbeat IPC: 3.501 cumulative IPC: 3.36 (Simulation time: 00 hr 02 min 47 sec)
Heartbeat CPU 0 instructions: 31500194 cycles: 9352484 heartbeat IPC: 3.966 cumulative IPC: 3.368 (Simulation time: 00 hr 02 min 50 sec)
Heartbeat CPU 0 instructions: 32000197 cycles: 9500977 heartbeat IPC: 3.367 cumulative IPC: 3.368 (Simulation time: 00 hr 02 min 53 sec)
Heartbeat CPU 0 instructions: 32500197 cycles: 9651474 heartbeat IPC: 3.322 cumulative IPC: 3.367 (Simulation time: 00 hr 02 min 56 sec)
Heartbeat CPU 0 instructions: 33000204 cycles: 9778927 heartbeat IPC: 3.923 cumulative IPC: 3.375 (Simulation time: 00 hr 02 min 58 sec)
Heartbeat CPU 0 instructions: 33500205 cycles: 9905034 heartbeat IPC: 3.965 cumulative IPC: 3.382 (Simulation time: 00 hr 03 min 00 sec)
Heartbeat CPU 0 instructions: 34000211 cycles: 10042273 heartbeat IPC: 3.643 cumulative IPC: 3.386 (Simulation time: 00 hr 03 min 02 sec)
Heartbeat CPU 0 instructions: 34500211 cycles: 10188245 heartbeat IPC: 3.425 cumulative IPC: 3.386 (Simulation time: 00 hr 03 min 05 sec)
Heartbeat CPU 0 instructions: 35000214 cycles: 10316153 heartbeat IPC: 3.909 cumulative IPC: 3.393 (Simulation time: 00 hr 03 min 08 sec)
Heartbeat CPU 0 instructions: 35500220 cycles: 10432483 heartbeat IPC: 4.298 cumulative IPC: 3.403 (Simulation time: 00 hr 03 min 10 sec)
Heartbeat CPU 0 instructions: 36000222 cycles: 10551635 heartbeat IPC: 4.196 cumulative IPC: 3.412 (Simulation time: 00 hr 03 min 12 sec)
Heartbeat CPU 0 instructions: 36500222 cycles: 10657933 heartbeat IPC: 4.704 cumulative IPC: 3.425 (Simulation time: 00 hr 03 min 14 sec)
Heartbeat CPU 0 instructions: 37000229 cycles: 10769813 heartbeat IPC: 4.469 cumulative IPC: 3.436 (Simulation time: 00 hr 03 min 16 sec)
Heartbeat CPU 0 instructions: 37500235 cycles: 10903840 heartbeat IPC: 3.731 cumulative IPC: 3.439 (Simulation time: 00 hr 03 min 19 sec)
Heartbeat CPU 0 instructions: 38000238 cycles: 11020709 heartbeat IPC: 4.278 cumulative IPC: 3.448 (Simulation time: 00 hr 03 min 21 sec)
Heartbeat CPU 0 instructions: 38500243 cycles: 11132497 heartbeat IPC: 4.473 cumulative IPC: 3.458 (Simulation time: 00 hr 03 min 23 sec)
Heartbeat CPU 0 instructions: 39000243 cycles: 11245782 heartbeat IPC: 4.414 cumulative IPC: 3.468 (Simulation time: 00 hr 03 min 25 sec)
Heartbeat CPU 0 instructions: 39500245 cycles: 11359962 heartbeat IPC: 4.379 cumulative IPC: 3.477 (Simulation time: 00 hr 03 min 28 sec)
Heartbeat CPU 0 instructions: 40000245 cycles: 11465824 heartbeat IPC: 4.723 cumulative IPC: 3.489 (Simulation time: 00 hr 03 min 30 sec)
Heartbeat CPU 0 instructions: 40500250 cycles: 11571993 heartbeat IPC: 4.71 cumulative IPC: 3.5 (Simulation time: 00 hr 03 min 32 sec)
Heartbeat CPU 0 instructions: 41000256 cycles: 11691341 heartbeat IPC: 4.189 cumulative IPC: 3.507 (Simulation time: 00 hr 03 min 34 sec)
Heartbeat CPU 0 instructions: 41500260 cycles: 11819388 heartbeat IPC: 3.905 cumulative IPC: 3.511 (Simulation time: 00 hr 03 min 36 sec)
Heartbeat CPU 0 instructions: 42000260 cycles: 11935470 heartbeat IPC: 4.307 cumulative IPC: 3.519 (Simulation time: 00 hr 03 min 38 sec)
Heartbeat CPU 0 instructions: 42500260 cycles: 12045647 heartbeat IPC: 4.538 cumulative IPC: 3.528 (Simulation time: 00 hr 03 min 40 sec)
Heartbeat CPU 0 instructions: 43000267 cycles: 12217811 heartbeat IPC: 2.904 cumulative IPC: 3.519 (Simulation time: 00 hr 03 min 44 sec)
Heartbeat CPU 0 instructions: 43500270 cycles: 12354121 heartbeat IPC: 3.668 cumulative IPC: 3.521 (Simulation time: 00 hr 03 min 46 sec)
Heartbeat CPU 0 instructions: 44000277 cycles: 12490965 heartbeat IPC: 3.654 cumulative IPC: 3.523 (Simulation time: 00 hr 03 min 49 sec)
Heartbeat CPU 0 instructions: 44500278 cycles: 12605702 heartbeat IPC: 4.358 cumulative IPC: 3.53 (Simulation time: 00 hr 03 min 51 sec)
Heartbeat CPU 0 instructions: 45000283 cycles: 12730064 heartbeat IPC: 4.021 cumulative IPC: 3.535 (Simulation time: 00 hr 03 min 54 sec)
Heartbeat CPU 0 instructions: 45500287 cycles: 12863079 heartbeat IPC: 3.759 cumulative IPC: 3.537 (Simulation time: 00 hr 03 min 56 sec)
Heartbeat CPU 0 instructions: 46000288 cycles: 12985663 heartbeat IPC: 4.079 cumulative IPC: 3.542 (Simulation time: 00 hr 03 min 58 sec)
Heartbeat CPU 0 instructions: 46500295 cycles: 13125802 heartbeat IPC: 3.568 cumulative IPC: 3.543 (Simulation time: 00 hr 04 min 01 sec)
Heartbeat CPU 0 instructions: 47000295 cycles: 13263043 heartbeat IPC: 3.643 cumulative IPC: 3.544 (Simulation time: 00 hr 04 min 04 sec)
Heartbeat CPU 0 instructions: 47500296 cycles: 13402573 heartbeat IPC: 3.583 cumulative IPC: 3.544 (Simulation time: 00 hr 04 min 06 sec)
Heartbeat CPU 0 instructions: 48000299 cycles: 13533012 heartbeat IPC: 3.833 cumulative IPC: 3.547 (Simulation time: 00 hr 04 min 09 sec)
Heartbeat CPU 0 instructions: 48500300 cycles: 13655306 heartbeat IPC: 4.089 cumulative IPC: 3.552 (Simulation time: 00 hr 04 min 11 sec)
Heartbeat CPU 0 instructions: 49000302 cycles: 13778057 heartbeat IPC: 4.073 cumulative IPC: 3.556 (Simulation time: 00 hr 04 min 14 sec)
Heartbeat CPU 0 instructions: 49500302 cycles: 13912783 heartbeat IPC: 3.711 cumulative IPC: 3.558 (Simulation time: 00 hr 04 min 16 sec)
Warmup finished CPU 0 instructions: 50000006 cycles: 14022514 cumulative IPC: 3.566 (Simulation time: 00 hr 04 min 18 sec)
Warmup complete CPU 0 instructions: 50000006 cycles: 14022514 cumulative IPC: 3.566 (Simulation time: 00 hr 04 min 18 sec)
Heartbeat CPU 0 instructions: 50000302 cycles: 14022579 heartbeat IPC: 4.554 cumulative IPC: 4.554 (Simulation time: 00 hr 04 min 18 sec)
Heartbeat CPU 0 instructions: 50500309 cycles: 14963084 heartbeat IPC: 0.5316 cumulative IPC: 0.5319 (Simulation time: 00 hr 04 min 25 sec)
Heartbeat CPU 0 instructions: 51000309 cycles: 15761157 heartbeat IPC: 0.6265 cumulative IPC: 0.5753 (Simulation time: 00 hr 04 min 32 sec)
Heartbeat CPU 0 instructions: 51500316 cycles: 16331315 heartbeat IPC: 0.877 cumulative IPC: 0.6498 (Simulation time: 00 hr 04 min 37 sec)
Heartbeat CPU 0 instructions: 52000322 cycles: 17230256 heartbeat IPC: 0.5562 cumulative IPC: 0.6236 (Simulation time: 00 hr 04 min 44 sec)
Heartbeat CPU 0 instructions: 52500322 cycles: 17672272 heartbeat IPC: 1.131 cumulative IPC: 0.6851 (Simulation time: 00 hr 04 min 48 sec)
Heartbeat CPU 0 instructions: 53000322 cycles: 18017443 heartbeat IPC: 1.449 cumulative IPC: 0.751 (Simulation time: 00 hr 04 min 52 sec)
Heartbeat CPU 0 instructions: 53500324 cycles: 18527220 heartbeat IPC: 0.9808 cumulative IPC: 0.777 (Simulation time: 00 hr 04 min 56 sec)
Heartbeat CPU 0 instructions: 54000330 cycles: 19294348 heartbeat IPC: 0.6518 cumulative IPC: 0.7588 (Simulation time: 00 hr 05 min 03 sec)
Heartbeat CPU 0 instructions: 54500331 cycles: 19704208 heartbeat IPC: 1.22 cumulative IPC: 0.7921 (Simulation time: 00 hr 05 min 07 sec)
Heartbeat CPU 0 instructions: 55000335 cycles: 20283438 heartbeat IPC: 0.8632 cumulative IPC: 0.7987 (Simulation time: 00 hr 05 min 12 sec)
Heartbeat CPU 0 instructions: 55500335 cycles: 20609019 heartbeat IPC: 1.536 cumulative IPC: 0.8351 (Simulation time: 00 hr 05 min 16 sec)
Heartbeat CPU 0 instructions: 56000335 cycles: 21252715 heartbeat IPC: 0.7768 cumulative IPC: 0.8299 (Simulation time: 00 hr 05 min 22 sec)
Heartbeat CPU 0 instructions: 56500335 cycles: 22790097 heartbeat IPC: 0.3252 cumulative IPC: 0.7414 (Simulation time: 00 hr 05 min 34 sec)
Heartbeat CPU 0 instructions: 57000336 cycles: 23789047 heartbeat IPC: 0.5005 cumulative IPC: 0.7168 (Simulation time: 00 hr 05 min 43 sec)
Heartbeat CPU 0 instructions: 57500336 cycles: 25473620 heartbeat IPC: 0.2968 cumulative IPC: 0.655 (Simulation time: 00 hr 05 min 55 sec)
Heartbeat CPU 0 instructions: 58000339 cycles: 26781365 heartbeat IPC: 0.3823 cumulative IPC: 0.627 (Simulation time: 00 hr 06 min 05 sec)
Heartbeat CPU 0 instructions: 58500345 cycles: 27570809 heartbeat IPC: 0.6334 cumulative IPC: 0.6274 (Simulation time: 00 hr 06 min 11 sec)
Heartbeat CPU 0 instructions: 59000345 cycles: 28351130 heartbeat IPC: 0.6408 cumulative IPC: 0.6281 (Simulation time: 00 hr 06 min 18 sec)
Heartbeat CPU 0 instructions: 59500345 cycles: 29341350 heartbeat IPC: 0.5049 cumulative IPC: 0.6202 (Simulation time: 00 hr 06 min 25 sec)
Heartbeat CPU 0 instructions: 60000349 cycles: 29893081 heartbeat IPC: 0.9062 cumulative IPC: 0.6301 (Simulation time: 00 hr 06 min 30 sec)
Heartbeat CPU 0 instructions: 60500350 cycles: 30273994 heartbeat IPC: 1.313 cumulative IPC: 0.6461 (Simulation time: 00 hr 06 min 34 sec)
Heartbeat CPU 0 instructions: 61000357 cycles: 30598080 heartbeat IPC: 1.543 cumulative IPC: 0.6636 (Simulation time: 00 hr 06 min 37 sec)
Heartbeat CPU 0 instructions: 61500357 cycles: 31074194 heartbeat IPC: 1.05 cumulative IPC: 0.6744 (Simulation time: 00 hr 06 min 42 sec)
Heartbeat CPU 0 instructions: 62000360 cycles: 31417617 heartbeat IPC: 1.456 cumulative IPC: 0.6899 (Simulation time: 00 hr 06 min 45 sec)
Heartbeat CPU 0 instructions: 62500366 cycles: 31662068 heartbeat IPC: 2.045 cumulative IPC: 0.7087 (Simulation time: 00 hr 06 min 48 sec)
Heartbeat CPU 0 instructions: 63000366 cycles: 32129609 heartbeat IPC: 1.069 cumulative IPC: 0.718 (Simulation time: 00 hr 06 min 52 sec)
Heartbeat CPU 0 instructions: 63500368 cycles: 32766695 heartbeat IPC: 0.7848 cumulative IPC: 0.7202 (Simulation time: 00 hr 06 min 59 sec)
Heartbeat CPU 0 instructions: 64000373 cycles: 32975636 heartbeat IPC: 2.393 cumulative IPC: 0.7387 (Simulation time: 00 hr 07 min 02 sec)
Heartbeat CPU 0 instructions: 64500374 cycles: 34212867 heartbeat IPC: 0.4041 cumulative IPC: 0.7182 (Simulation time: 00 hr 07 min 11 sec)
Heartbeat CPU 0 instructions: 65000375 cycles: 35247494 heartbeat IPC: 0.4833 cumulative IPC: 0.7067 (Simulation time: 00 hr 07 min 19 sec)
Heartbeat CPU 0 instructions: 65500375 cycles: 36102587 heartbeat IPC: 0.5847 cumulative IPC: 0.702 (Simulation time: 00 hr 07 min 26 sec)
Heartbeat CPU 0 instructions: 66000381 cycles: 37172996 heartbeat IPC: 0.4671 cumulative IPC: 0.6911 (Simulation time: 00 hr 07 min 34 sec)
Heartbeat CPU 0 instructions: 66500382 cycles: 38009637 heartbeat IPC: 0.5976 cumulative IPC: 0.6879 (Simulation time: 00 hr 07 min 41 sec)
Heartbeat CPU 0 instructions: 67000383 cycles: 39140214 heartbeat IPC: 0.4423 cumulative IPC: 0.6768 (Simulation time: 00 hr 07 min 49 sec)
Heartbeat CPU 0 instructions: 67500384 cycles: 39976152 heartbeat IPC: 0.5981 cumulative IPC: 0.6743 (Simulation time: 00 hr 07 min 56 sec)
Heartbeat CPU 0 instructions: 68000390 cycles: 41453638 heartbeat IPC: 0.3384 cumulative IPC: 0.6562 (Simulation time: 00 hr 08 min 07 sec)
Heartbeat CPU 0 instructions: 68500391 cycles: 42552257 heartbeat IPC: 0.4551 cumulative IPC: 0.6485 (Simulation time: 00 hr 08 min 15 sec)
Heartbeat CPU 0 instructions: 69000391 cycles: 43028001 heartbeat IPC: 1.051 cumulative IPC: 0.6551 (Simulation time: 00 hr 08 min 20 sec)
Heartbeat CPU 0 instructions: 69500398 cycles: 43303028 heartbeat IPC: 1.818 cumulative IPC: 0.666 (Simulation time: 00 hr 08 min 22 sec)
Heartbeat CPU 0 instructions: 70000399 cycles: 44328497 heartbeat IPC: 0.4876 cumulative IPC: 0.6599 (Simulation time: 00 hr 08 min 30 sec)
Heartbeat CPU 0 instructions: 70500402 cycles: 45458003 heartbeat IPC: 0.4427 cumulative IPC: 0.6521 (Simulation time: 00 hr 08 min 38 sec)
Heartbeat CPU 0 instructions: 71000402 cycles: 46584960 heartbeat IPC: 0.4437 cumulative IPC: 0.6449 (Simulation time: 00 hr 08 min 47 sec)
Heartbeat CPU 0 instructions: 71500409 cycles: 47585881 heartbeat IPC: 0.4995 cumulative IPC: 0.6406 (Simulation time: 00 hr 08 min 54 sec)
Heartbeat CPU 0 instructions: 72000409 cycles: 48128731 heartbeat IPC: 0.9211 cumulative IPC: 0.6451 (Simulation time: 00 hr 09 min 00 sec)
Heartbeat CPU 0 instructions: 72500409 cycles: 48336898 heartbeat IPC: 2.402 cumulative IPC: 0.6557 (Simulation time: 00 hr 09 min 02 sec)
Heartbeat CPU 0 instructions: 73000415 cycles: 48554514 heartbeat IPC: 2.298 cumulative IPC: 0.6661 (Simulation time: 00 hr 09 min 05 sec)
Heartbeat CPU 0 instructions: 73500416 cycles: 48763354 heartbeat IPC: 2.394 cumulative IPC: 0.6764 (Simulation time: 00 hr 09 min 07 sec)
Heartbeat CPU 0 instructions: 74000416 cycles: 49523371 heartbeat IPC: 0.6579 cumulative IPC: 0.6761 (Simulation time: 00 hr 09 min 13 sec)
Heartbeat CPU 0 instructions: 74500418 cycles: 50876097 heartbeat IPC: 0.3696 cumulative IPC: 0.6648 (Simulation time: 00 hr 09 min 23 sec)
Heartbeat CPU 0 instructions: 75000419 cycles: 51521538 heartbeat IPC: 0.7747 cumulative IPC: 0.6667 (Simulation time: 00 hr 09 min 28 sec)
Heartbeat CPU 0 instructions: 75500423 cycles: 52817015 heartbeat IPC: 0.386 cumulative IPC: 0.6573 (Simulation time: 00 hr 09 min 38 sec)
Heartbeat CPU 0 instructions: 76000423 cycles: 53945144 heartbeat IPC: 0.4432 cumulative IPC: 0.6513 (Simulation time: 00 hr 09 min 46 sec)
Heartbeat CPU 0 instructions: 76500425 cycles: 54341467 heartbeat IPC: 1.262 cumulative IPC: 0.6573 (Simulation time: 00 hr 09 min 50 sec)
Heartbeat CPU 0 instructions: 77000428 cycles: 54750444 heartbeat IPC: 1.223 cumulative IPC: 0.6629 (Simulation time: 00 hr 09 min 54 sec)
Heartbeat CPU 0 instructions: 77500429 cycles: 55509760 heartbeat IPC: 0.6585 cumulative IPC: 0.6629 (Simulation time: 00 hr 10 min 00 sec)
Heartbeat CPU 0 instructions: 78000432 cycles: 56435267 heartbeat IPC: 0.5402 cumulative IPC: 0.6602 (Simulation time: 00 hr 10 min 07 sec)
Heartbeat CPU 0 instructions: 78500439 cycles: 56785406 heartbeat IPC: 1.428 cumulative IPC: 0.6665 (Simulation time: 00 hr 10 min 12 sec)
Heartbeat CPU 0 instructions: 79000440 cycles: 57176558 heartbeat IPC: 1.278 cumulative IPC: 0.672 (Simulation time: 00 hr 10 min 17 sec)
Heartbeat CPU 0 instructions: 79500442 cycles: 57893534 heartbeat IPC: 0.6974 cumulative IPC: 0.6724 (Simulation time: 00 hr 10 min 23 sec)
Heartbeat CPU 0 instructions: 80000444 cycles: 58932066 heartbeat IPC: 0.4815 cumulative IPC: 0.668 (Simulation time: 00 hr 10 min 31 sec)
Heartbeat CPU 0 instructions: 80500444 cycles: 59949447 heartbeat IPC: 0.4915 cumulative IPC: 0.6641 (Simulation time: 00 hr 10 min 38 sec)
Heartbeat CPU 0 instructions: 81000448 cycles: 61346973 heartbeat IPC: 0.3578 cumulative IPC: 0.6551 (Simulation time: 00 hr 10 min 51 sec)
Heartbeat CPU 0 instructions: 81500448 cycles: 62499597 heartbeat IPC: 0.4338 cumulative IPC: 0.6498 (Simulation time: 00 hr 11 min 00 sec)
Heartbeat CPU 0 instructions: 82000448 cycles: 63325042 heartbeat IPC: 0.6057 cumulative IPC: 0.6491 (Simulation time: 00 hr 11 min 06 sec)
Heartbeat CPU 0 instructions: 82500452 cycles: 63967506 heartbeat IPC: 0.7783 cumulative IPC: 0.6507 (Simulation time: 00 hr 11 min 11 sec)
Heartbeat CPU 0 instructions: 83000452 cycles: 64633883 heartbeat IPC: 0.7503 cumulative IPC: 0.652 (Simulation time: 00 hr 11 min 17 sec)
Heartbeat CPU 0 instructions: 83500452 cycles: 65017907 heartbeat IPC: 1.302 cumulative IPC: 0.6569 (Simulation time: 00 hr 11 min 20 sec)
Heartbeat CPU 0 instructions: 84000456 cycles: 65771406 heartbeat IPC: 0.6636 cumulative IPC: 0.657 (Simulation time: 00 hr 11 min 26 sec)
Heartbeat CPU 0 instructions: 84500456 cycles: 66485523 heartbeat IPC: 0.7002 cumulative IPC: 0.6576 (Simulation time: 00 hr 11 min 32 sec)
Heartbeat CPU 0 instructions: 85000463 cycles: 67513215 heartbeat IPC: 0.4865 cumulative IPC: 0.6543 (Simulation time: 00 hr 11 min 39 sec)
Heartbeat CPU 0 instructions: 85500464 cycles: 67948145 heartbeat IPC: 1.15 cumulative IPC: 0.6583 (Simulation time: 00 hr 11 min 43 sec)
Heartbeat CPU 0 instructions: 86000466 cycles: 68822403 heartbeat IPC: 0.5719 cumulative IPC: 0.6569 (Simulation time: 00 hr 11 min 49 sec)
Heartbeat CPU 0 instructions: 86500470 cycles: 69128205 heartbeat IPC: 1.635 cumulative IPC: 0.6624 (Simulation time: 00 hr 11 min 53 sec)
Heartbeat CPU 0 instructions: 87000470 cycles: 70184519 heartbeat IPC: 0.4733 cumulative IPC: 0.6588 (Simulation time: 00 hr 12 min 00 sec)
Heartbeat CPU 0 instructions: 87500476 cycles: 70942611 heartbeat IPC: 0.6596 cumulative IPC: 0.6588 (Simulation time: 00 hr 12 min 06 sec)
Heartbeat CPU 0 instructions: 88000480 cycles: 72189176 heartbeat IPC: 0.4011 cumulative IPC: 0.6533 (Simulation time: 00 hr 12 min 16 sec)
Heartbeat CPU 0 instructions: 88500480 cycles: 73088995 heartbeat IPC: 0.5557 cumulative IPC: 0.6518 (Simulation time: 00 hr 12 min 23 sec)
Heartbeat CPU 0 instructions: 89000485 cycles: 73742511 heartbeat IPC: 0.7651 cumulative IPC: 0.6531 (Simulation time: 00 hr 12 min 28 sec)
Heartbeat CPU 0 instructions: 89500485 cycles: 74439423 heartbeat IPC: 0.7175 cumulative IPC: 0.6538 (Simulation time: 00 hr 12 min 34 sec)
Heartbeat CPU 0 instructions: 90000486 cycles: 75407509 heartbeat IPC: 0.5165 cumulative IPC: 0.6516 (Simulation time: 00 hr 12 min 41 sec)
Heartbeat CPU 0 instructions: 90500492 cycles: 76010229 heartbeat IPC: 0.8296 cumulative IPC: 0.6534 (Simulation time: 00 hr 12 min 46 sec)
Heartbeat CPU 0 instructions: 91000493 cycles: 77080234 heartbeat IPC: 0.4673 cumulative IPC: 0.6502 (Simulation time: 00 hr 12 min 54 sec)
Heartbeat CPU 0 instructions: 91500499 cycles: 78469461 heartbeat IPC: 0.3599 cumulative IPC: 0.6439 (Simulation time: 00 hr 13 min 03 sec)
Heartbeat CPU 0 instructions: 92000499 cycles: 79546230 heartbeat IPC: 0.4644 cumulative IPC: 0.641 (Simulation time: 00 hr 13 min 11 sec)
Heartbeat CPU 0 instructions: 92500499 cycles: 80647536 heartbeat IPC: 0.454 cumulative IPC: 0.6379 (Simulation time: 00 hr 13 min 19 sec)
Heartbeat CPU 0 instructions: 93000499 cycles: 81630953 heartbeat IPC: 0.5084 cumulative IPC: 0.636 (Simulation time: 00 hr 13 min 26 sec)
Heartbeat CPU 0 instructions: 93500504 cycles: 82765871 heartbeat IPC: 0.4406 cumulative IPC: 0.6328 (Simulation time: 00 hr 13 min 34 sec)
Heartbeat CPU 0 instructions: 94000505 cycles: 83948233 heartbeat IPC: 0.4229 cumulative IPC: 0.6292 (Simulation time: 00 hr 13 min 43 sec)
Heartbeat CPU 0 instructions: 94500505 cycles: 84854660 heartbeat IPC: 0.5516 cumulative IPC: 0.6283 (Simulation time: 00 hr 13 min 49 sec)
Heartbeat CPU 0 instructions: 95000505 cycles: 86048992 heartbeat IPC: 0.4186 cumulative IPC: 0.6248 (Simulation time: 00 hr 13 min 58 sec)
Heartbeat CPU 0 instructions: 95500505 cycles: 87379594 heartbeat IPC: 0.3758 cumulative IPC: 0.6203 (Simulation time: 00 hr 14 min 08 sec)
Heartbeat CPU 0 instructions: 96000511 cycles: 88551200 heartbeat IPC: 0.4268 cumulative IPC: 0.6172 (Simulation time: 00 hr 14 min 16 sec)
Heartbeat CPU 0 instructions: 96500517 cycles: 89545638 heartbeat IPC: 0.5028 cumulative IPC: 0.6157 (Simulation time: 00 hr 14 min 23 sec)
Heartbeat CPU 0 instructions: 97000518 cycles: 90277067 heartbeat IPC: 0.6836 cumulative IPC: 0.6164 (Simulation time: 00 hr 14 min 29 sec)
Heartbeat CPU 0 instructions: 97500519 cycles: 90907326 heartbeat IPC: 0.7933 cumulative IPC: 0.6178 (Simulation time: 00 hr 14 min 34 sec)
Heartbeat CPU 0 instructions: 98000521 cycles: 91696252 heartbeat IPC: 0.6338 cumulative IPC: 0.618 (Simulation time: 00 hr 14 min 40 sec)
Heartbeat CPU 0 instructions: 98500525 cycles: 92573510 heartbeat IPC: 0.57 cumulative IPC: 0.6174 (Simulation time: 00 hr 14 min 46 sec)
Heartbeat CPU 0 instructions: 99000525 cycles: 93474150 heartbeat IPC: 0.5552 cumulative IPC: 0.6167 (Simulation time: 00 hr 14 min 53 sec)
Heartbeat CPU 0 instructions: 99500525 cycles: 94075796 heartbeat IPC: 0.8311 cumulative IPC: 0.6183 (Simulation time: 00 hr 14 min 58 sec)
Heartbeat CPU 0 instructions: 100000532 cycles: 95019356 heartbeat IPC: 0.5299 cumulative IPC: 0.6173 (Simulation time: 00 hr 15 min 04 sec)
Heartbeat CPU 0 instructions: 100500534 cycles: 96140798 heartbeat IPC: 0.4459 cumulative IPC: 0.615 (Simulation time: 00 hr 15 min 13 sec)
Heartbeat CPU 0 instructions: 101000535 cycles: 97332343 heartbeat IPC: 0.4196 cumulative IPC: 0.6122 (Simulation time: 00 hr 15 min 21 sec)
Heartbeat CPU 0 instructions: 101500536 cycles: 98217223 heartbeat IPC: 0.565 cumulative IPC: 0.6117 (Simulation time: 00 hr 15 min 28 sec)
Heartbeat CPU 0 instructions: 102000541 cycles: 98948714 heartbeat IPC: 0.6835 cumulative IPC: 0.6123 (Simulation time: 00 hr 15 min 34 sec)
Heartbeat CPU 0 instructions: 102500548 cycles: 99446872 heartbeat IPC: 1.004 cumulative IPC: 0.6146 (Simulation time: 00 hr 15 min 38 sec)
Heartbeat CPU 0 instructions: 103000553 cycles: 99855531 heartbeat IPC: 1.224 cumulative IPC: 0.6175 (Simulation time: 00 hr 15 min 42 sec)
Heartbeat CPU 0 instructions: 103500556 cycles: 100371254 heartbeat IPC: 0.9695 cumulative IPC: 0.6196 (Simulation time: 00 hr 15 min 47 sec)
Heartbeat CPU 0 instructions: 104000557 cycles: 100773089 heartbeat IPC: 1.244 cumulative IPC: 0.6225 (Simulation time: 00 hr 15 min 51 sec)
Heartbeat CPU 0 instructions: 104500564 cycles: 101262377 heartbeat IPC: 1.022 cumulative IPC: 0.6247 (Simulation time: 00 hr 15 min 55 sec)
Heartbeat CPU 0 instructions: 105000570 cycles: 101671798 heartbeat IPC: 1.221 cumulative IPC: 0.6275 (Simulation time: 00 hr 15 min 59 sec)
Heartbeat CPU 0 instructions: 105500576 cycles: 102489211 heartbeat IPC: 0.6117 cumulative IPC: 0.6274 (Simulation time: 00 hr 16 min 05 sec)
Heartbeat CPU 0 instructions: 106000576 cycles: 103410299 heartbeat IPC: 0.5428 cumulative IPC: 0.6265 (Simulation time: 00 hr 16 min 12 sec)
Heartbeat CPU 0 instructions: 106500578 cycles: 104362849 heartbeat IPC: 0.5249 cumulative IPC: 0.6254 (Simulation time: 00 hr 16 min 18 sec)
Heartbeat CPU 0 instructions: 107000580 cycles: 104879360 heartbeat IPC: 0.968 cumulative IPC: 0.6274 (Simulation time: 00 hr 16 min 22 sec)
Heartbeat CPU 0 instructions: 107500580 cycles: 105382251 heartbeat IPC: 0.9943 cumulative IPC: 0.6294 (Simulation time: 00 hr 16 min 27 sec)
Heartbeat CPU 0 instructions: 108000585 cycles: 106170506 heartbeat IPC: 0.6343 cumulative IPC: 0.6294 (Simulation time: 00 hr 16 min 33 sec)
Heartbeat CPU 0 instructions: 108500586 cycles: 107523886 heartbeat IPC: 0.3694 cumulative IPC: 0.6257 (Simulation time: 00 hr 16 min 43 sec)
Heartbeat CPU 0 instructions: 109000588 cycles: 108476323 heartbeat IPC: 0.525 cumulative IPC: 0.6247 (Simulation time: 00 hr 16 min 51 sec)
Heartbeat CPU 0 instructions: 109500594 cycles: 109239655 heartbeat IPC: 0.655 cumulative IPC: 0.6249 (Simulation time: 00 hr 16 min 57 sec)
Heartbeat CPU 0 instructions: 110000600 cycles: 109640126 heartbeat IPC: 1.249 cumulative IPC: 0.6275 (Simulation time: 00 hr 17 min 00 sec)
Heartbeat CPU 0 instructions: 110500603 cycles: 110033739 heartbeat IPC: 1.27 cumulative IPC: 0.6301 (Simulation time: 00 hr 17 min 03 sec)
Heartbeat CPU 0 instructions: 111000603 cycles: 110706536 heartbeat IPC: 0.7432 cumulative IPC: 0.6309 (Simulation time: 00 hr 17 min 09 sec)
Heartbeat CPU 0 instructions: 111500603 cycles: 111210553 heartbeat IPC: 0.992 cumulative IPC: 0.6328 (Simulation time: 00 hr 17 min 12 sec)
Heartbeat CPU 0 instructions: 112000607 cycles: 111599602 heartbeat IPC: 1.285 cumulative IPC: 0.6354 (Simulation time: 00 hr 17 min 16 sec)
Heartbeat CPU 0 instructions: 112500612 cycles: 113005637 heartbeat IPC: 0.3556 cumulative IPC: 0.6314 (Simulation time: 00 hr 17 min 25 sec)
Heartbeat CPU 0 instructions: 113000617 cycles: 113804865 heartbeat IPC: 0.6256 cumulative IPC: 0.6314 (Simulation time: 00 hr 17 min 31 sec)
Heartbeat CPU 0 instructions: 113500618 cycles: 114550089 heartbeat IPC: 0.6709 cumulative IPC: 0.6317 (Simulation time: 00 hr 17 min 37 sec)
Heartbeat CPU 0 instructions: 114000619 cycles: 115115059 heartbeat IPC: 0.885 cumulative IPC: 0.6331 (Simulation time: 00 hr 17 min 41 sec)
Heartbeat CPU 0 instructions: 114500620 cycles: 115570547 heartbeat IPC: 1.098 cumulative IPC: 0.6352 (Simulation time: 00 hr 17 min 45 sec)
Heartbeat CPU 0 instructions: 115000620 cycles: 116137980 heartbeat IPC: 0.8812 cumulative IPC: 0.6365 (Simulation time: 00 hr 17 min 50 sec)
Heartbeat CPU 0 instructions: 115500621 cycles: 116586333 heartbeat IPC: 1.115 cumulative IPC: 0.6386 (Simulation time: 00 hr 17 min 54 sec)
Heartbeat CPU 0 instructions: 116000621 cycles: 116839998 heartbeat IPC: 1.971 cumulative IPC: 0.6419 (Simulation time: 00 hr 17 min 57 sec)
Heartbeat CPU 0 instructions: 116500621 cycles: 117068051 heartbeat IPC: 2.192 cumulative IPC: 0.6454 (Simulation time: 00 hr 18 min 00 sec)
Heartbeat CPU 0 instructions: 117000627 cycles: 117601953 heartbeat IPC: 0.9365 cumulative IPC: 0.6469 (Simulation time: 00 hr 18 min 04 sec)
Heartbeat CPU 0 instructions: 117500628 cycles: 118265332 heartbeat IPC: 0.7537 cumulative IPC: 0.6475 (Simulation time: 00 hr 18 min 10 sec)
Heartbeat CPU 0 instructions: 118000628 cycles: 118623194 heartbeat IPC: 1.397 cumulative IPC: 0.6501 (Simulation time: 00 hr 18 min 13 sec)
Heartbeat CPU 0 instructions: 118500633 cycles: 118997044 heartbeat IPC: 1.337 cumulative IPC: 0.6525 (Simulation time: 00 hr 18 min 17 sec)
Heartbeat CPU 0 instructions: 119000639 cycles: 119868957 heartbeat IPC: 0.5735 cumulative IPC: 0.6519 (Simulation time: 00 hr 18 min 23 sec)
Heartbeat CPU 0 instructions: 119500640 cycles: 120835409 heartbeat IPC: 0.5174 cumulative IPC: 0.6507 (Simulation time: 00 hr 18 min 30 sec)
Heartbeat CPU 0 instructions: 120000645 cycles: 121417311 heartbeat IPC: 0.8593 cumulative IPC: 0.6518 (Simulation time: 00 hr 18 min 35 sec)
Heartbeat CPU 0 instructions: 120500649 cycles: 121715202 heartbeat IPC: 1.678 cumulative IPC: 0.6546 (Simulation time: 00 hr 18 min 38 sec)
Heartbeat CPU 0 instructions: 121000654 cycles: 122556939 heartbeat IPC: 0.594 cumulative IPC: 0.6542 (Simulation time: 00 hr 18 min 45 sec)
Heartbeat CPU 0 instructions: 121500660 cycles: 123195640 heartbeat IPC: 0.7828 cumulative IPC: 0.6549 (Simulation time: 00 hr 18 min 50 sec)
Heartbeat CPU 0 instructions: 122000662 cycles: 124292903 heartbeat IPC: 0.4557 cumulative IPC: 0.6529 (Simulation time: 00 hr 18 min 57 sec)
Heartbeat CPU 0 instructions: 122500664 cycles: 124972124 heartbeat IPC: 0.7361 cumulative IPC: 0.6535 (Simulation time: 00 hr 19 min 02 sec)
Heartbeat CPU 0 instructions: 123000666 cycles: 125913942 heartbeat IPC: 0.5309 cumulative IPC: 0.6524 (Simulation time: 00 hr 19 min 09 sec)
Heartbeat CPU 0 instructions: 123500666 cycles: 127125612 heartbeat IPC: 0.4127 cumulative IPC: 0.6499 (Simulation time: 00 hr 19 min 17 sec)
Heartbeat CPU 0 instructions: 124000670 cycles: 128417536 heartbeat IPC: 0.387 cumulative IPC: 0.6469 (Simulation time: 00 hr 19 min 26 sec)
Heartbeat CPU 0 instructions: 124500673 cycles: 129146561 heartbeat IPC: 0.6859 cumulative IPC: 0.6471 (Simulation time: 00 hr 19 min 31 sec)
Heartbeat CPU 0 instructions: 125000680 cycles: 129419491 heartbeat IPC: 1.832 cumulative IPC: 0.6499 (Simulation time: 00 hr 19 min 34 sec)
Heartbeat CPU 0 instructions: 125500683 cycles: 129739295 heartbeat IPC: 1.563 cumulative IPC: 0.6525 (Simulation time: 00 hr 19 min 36 sec)
Heartbeat CPU 0 instructions: 126000686 cycles: 130332937 heartbeat IPC: 0.8423 cumulative IPC: 0.6534 (Simulation time: 00 hr 19 min 41 sec)
Heartbeat CPU 0 instructions: 126500690 cycles: 130946207 heartbeat IPC: 0.8153 cumulative IPC: 0.6543 (Simulation time: 00 hr 19 min 46 sec)
Heartbeat CPU 0 instructions: 127000692 cycles: 131241284 heartbeat IPC: 1.694 cumulative IPC: 0.6569 (Simulation time: 00 hr 19 min 48 sec)
Heartbeat CPU 0 instructions: 127500699 cycles: 132365655 heartbeat IPC: 0.4447 cumulative IPC: 0.6549 (Simulation time: 00 hr 19 min 56 sec)
Heartbeat CPU 0 instructions: 128000705 cycles: 133444616 heartbeat IPC: 0.4634 cumulative IPC: 0.6532 (Simulation time: 00 hr 20 min 03 sec)
Heartbeat CPU 0 instructions: 128500707 cycles: 134255419 heartbeat IPC: 0.6167 cumulative IPC: 0.6529 (Simulation time: 00 hr 20 min 09 sec)
Heartbeat CPU 0 instructions: 129000708 cycles: 135245007 heartbeat IPC: 0.5053 cumulative IPC: 0.6517 (Simulation time: 00 hr 20 min 16 sec)
Heartbeat CPU 0 instructions: 129500708 cycles: 136339050 heartbeat IPC: 0.457 cumulative IPC: 0.65 (Simulation time: 00 hr 20 min 24 sec)
Heartbeat CPU 0 instructions: 130000708 cycles: 137359071 heartbeat IPC: 0.4902 cumulative IPC: 0.6486 (Simulation time: 00 hr 20 min 31 sec)
Heartbeat CPU 0 instructions: 130500712 cycles: 137992470 heartbeat IPC: 0.7894 cumulative IPC: 0.6494 (Simulation time: 00 hr 20 min 36 sec)
Heartbeat CPU 0 instructions: 131000717 cycles: 138954842 heartbeat IPC: 0.5196 cumulative IPC: 0.6484 (Simulation time: 00 hr 20 min 43 sec)
Heartbeat CPU 0 instructions: 131500717 cycles: 140070750 heartbeat IPC: 0.4481 cumulative IPC: 0.6466 (Simulation time: 00 hr 20 min 51 sec)
Heartbeat CPU 0 instructions: 132000719 cycles: 141383875 heartbeat IPC: 0.3808 cumulative IPC: 0.6438 (Simulation time: 00 hr 20 min 59 sec)
Heartbeat CPU 0 instructions: 132500720 cycles: 142232950 heartbeat IPC: 0.5889 cumulative IPC: 0.6435 (Simulation time: 00 hr 21 min 05 sec)
Heartbeat CPU 0 instructions: 133000720 cycles: 143023319 heartbeat IPC: 0.6326 cumulative IPC: 0.6434 (Simulation time: 00 hr 21 min 11 sec)
Heartbeat CPU 0 instructions: 133500721 cycles: 144541642 heartbeat IPC: 0.3293 cumulative IPC: 0.6398 (Simulation time: 00 hr 21 min 20 sec)
Heartbeat CPU 0 instructions: 134000721 cycles: 145169041 heartbeat IPC: 0.7969 cumulative IPC: 0.6405 (Simulation time: 00 hr 21 min 25 sec)
Heartbeat CPU 0 instructions: 134500721 cycles: 145755347 heartbeat IPC: 0.8528 cumulative IPC: 0.6415 (Simulation time: 00 hr 21 min 30 sec)
Heartbeat CPU 0 instructions: 135000723 cycles: 146499339 heartbeat IPC: 0.6721 cumulative IPC: 0.6416 (Simulation time: 00 hr 21 min 35 sec)
Heartbeat CPU 0 instructions: 135500723 cycles: 147520319 heartbeat IPC: 0.4897 cumulative IPC: 0.6405 (Simulation time: 00 hr 21 min 42 sec)
Heartbeat CPU 0 instructions: 136000730 cycles: 148489551 heartbeat IPC: 0.5159 cumulative IPC: 0.6396 (Simulation time: 00 hr 21 min 49 sec)
Heartbeat CPU 0 instructions: 136500730 cycles: 149375766 heartbeat IPC: 0.5642 cumulative IPC: 0.6391 (Simulation time: 00 hr 21 min 57 sec)
Heartbeat CPU 0 instructions: 137000733 cycles: 150217309 heartbeat IPC: 0.5942 cumulative IPC: 0.6388 (Simulation time: 00 hr 22 min 04 sec)
Heartbeat CPU 0 instructions: 137500740 cycles: 151052584 heartbeat IPC: 0.5986 cumulative IPC: 0.6386 (Simulation time: 00 hr 22 min 12 sec)
Heartbeat CPU 0 instructions: 138000745 cycles: 151727798 heartbeat IPC: 0.7405 cumulative IPC: 0.6391 (Simulation time: 00 hr 22 min 18 sec)
Heartbeat CPU 0 instructions: 138500745 cycles: 152065990 heartbeat IPC: 1.478 cumulative IPC: 0.6411 (Simulation time: 00 hr 22 min 21 sec)
Heartbeat CPU 0 instructions: 139000746 cycles: 152370840 heartbeat IPC: 1.64 cumulative IPC: 0.6433 (Simulation time: 00 hr 22 min 24 sec)
Heartbeat CPU 0 instructions: 139500750 cycles: 152721685 heartbeat IPC: 1.425 cumulative IPC: 0.6453 (Simulation time: 00 hr 22 min 27 sec)
Heartbeat CPU 0 instructions: 140000750 cycles: 153461288 heartbeat IPC: 0.676 cumulative IPC: 0.6454 (Simulation time: 00 hr 22 min 34 sec)
Heartbeat CPU 0 instructions: 140500753 cycles: 154076768 heartbeat IPC: 0.8124 cumulative IPC: 0.6462 (Simulation time: 00 hr 22 min 39 sec)
Heartbeat CPU 0 instructions: 141000753 cycles: 155011412 heartbeat IPC: 0.535 cumulative IPC: 0.6454 (Simulation time: 00 hr 22 min 46 sec)
Heartbeat CPU 0 instructions: 141500754 cycles: 156149684 heartbeat IPC: 0.4393 cumulative IPC: 0.6438 (Simulation time: 00 hr 22 min 57 sec)
Heartbeat CPU 0 instructions: 142000754 cycles: 157263899 heartbeat IPC: 0.4487 cumulative IPC: 0.6423 (Simulation time: 00 hr 23 min 07 sec)
Heartbeat CPU 0 instructions: 142500755 cycles: 157602901 heartbeat IPC: 1.475 cumulative IPC: 0.6442 (Simulation time: 00 hr 23 min 10 sec)
Heartbeat CPU 0 instructions: 143000759 cycles: 159197298 heartbeat IPC: 0.3136 cumulative IPC: 0.6406 (Simulation time: 00 hr 23 min 20 sec)
Heartbeat CPU 0 instructions: 143500759 cycles: 160377174 heartbeat IPC: 0.4238 cumulative IPC: 0.6389 (Simulation time: 00 hr 23 min 28 sec)
Heartbeat CPU 0 instructions: 144000760 cycles: 161202360 heartbeat IPC: 0.6059 cumulative IPC: 0.6387 (Simulation time: 00 hr 23 min 33 sec)
Heartbeat CPU 0 instructions: 144500760 cycles: 161959121 heartbeat IPC: 0.6607 cumulative IPC: 0.6388 (Simulation time: 00 hr 23 min 39 sec)
Heartbeat CPU 0 instructions: 145000761 cycles: 162200481 heartbeat IPC: 2.072 cumulative IPC: 0.6411 (Simulation time: 00 hr 23 min 41 sec)
Heartbeat CPU 0 instructions: 145500768 cycles: 162601545 heartbeat IPC: 1.247 cumulative IPC: 0.6428 (Simulation time: 00 hr 23 min 44 sec)
Heartbeat CPU 0 instructions: 146000772 cycles: 162968581 heartbeat IPC: 1.362 cumulative IPC: 0.6445 (Simulation time: 00 hr 23 min 47 sec)
Heartbeat CPU 0 instructions: 146500775 cycles: 164427140 heartbeat IPC: 0.3428 cumulative IPC: 0.6416 (Simulation time: 00 hr 23 min 57 sec)
Heartbeat CPU 0 instructions: 147000776 cycles: 165251450 heartbeat IPC: 0.6066 cumulative IPC: 0.6414 (Simulation time: 00 hr 24 min 02 sec)
Heartbeat CPU 0 instructions: 147500781 cycles: 166272973 heartbeat IPC: 0.4895 cumulative IPC: 0.6404 (Simulation time: 00 hr 24 min 09 sec)
Heartbeat CPU 0 instructions: 148000781 cycles: 167492912 heartbeat IPC: 0.4099 cumulative IPC: 0.6386 (Simulation time: 00 hr 24 min 17 sec)
Heartbeat CPU 0 instructions: 148500781 cycles: 168738661 heartbeat IPC: 0.4014 cumulative IPC: 0.6367 (Simulation time: 00 hr 24 min 25 sec)
Heartbeat CPU 0 instructions: 149000783 cycles: 169666064 heartbeat IPC: 0.5391 cumulative IPC: 0.6361 (Simulation time: 00 hr 24 min 32 sec)
Heartbeat CPU 0 instructions: 149500784 cycles: 170837066 heartbeat IPC: 0.427 cumulative IPC: 0.6345 (Simulation time: 00 hr 24 min 39 sec)
Heartbeat CPU 0 instructions: 150000784 cycles: 171359913 heartbeat IPC: 0.9563 cumulative IPC: 0.6356 (Simulation time: 00 hr 24 min 44 sec)
Heartbeat CPU 0 instructions: 150500786 cycles: 172723603 heartbeat IPC: 0.3667 cumulative IPC: 0.6333 (Simulation time: 00 hr 24 min 52 sec)
Heartbeat CPU 0 instructions: 151000786 cycles: 173724645 heartbeat IPC: 0.4995 cumulative IPC: 0.6324 (Simulation time: 00 hr 24 min 59 sec)
Heartbeat CPU 0 instructions: 151500788 cycles: 175097364 heartbeat IPC: 0.3642 cumulative IPC: 0.6301 (Simulation time: 00 hr 25 min 08 sec)
Heartbeat CPU 0 instructions: 152000790 cycles: 175840122 heartbeat IPC: 0.6732 cumulative IPC: 0.6303 (Simulation time: 00 hr 25 min 13 sec)
Heartbeat CPU 0 instructions: 152500791 cycles: 176942418 heartbeat IPC: 0.4536 cumulative IPC: 0.6291 (Simulation time: 00 hr 25 min 20 sec)
Heartbeat CPU 0 instructions: 153000795 cycles: 178022162 heartbeat IPC: 0.4631 cumulative IPC: 0.6281 (Simulation time: 00 hr 25 min 27 sec)
Heartbeat CPU 0 instructions: 153500797 cycles: 179031158 heartbeat IPC: 0.4955 cumulative IPC: 0.6272 (Simulation time: 00 hr 25 min 34 sec)
Heartbeat CPU 0 instructions: 154000800 cycles: 179770999 heartbeat IPC: 0.6758 cumulative IPC: 0.6275 (Simulation time: 00 hr 25 min 39 sec)
Heartbeat CPU 0 instructions: 154500807 cycles: 180832676 heartbeat IPC: 0.471 cumulative IPC: 0.6265 (Simulation time: 00 hr 25 min 46 sec)
Heartbeat CPU 0 instructions: 155000807 cycles: 182082971 heartbeat IPC: 0.3999 cumulative IPC: 0.6248 (Simulation time: 00 hr 25 min 54 sec)
Heartbeat CPU 0 instructions: 155500807 cycles: 183143808 heartbeat IPC: 0.4713 cumulative IPC: 0.6238 (Simulation time: 00 hr 26 min 01 sec)
Heartbeat CPU 0 instructions: 156000813 cycles: 184119277 heartbeat IPC: 0.5126 cumulative IPC: 0.6232 (Simulation time: 00 hr 26 min 07 sec)
Heartbeat CPU 0 instructions: 156500819 cycles: 185042190 heartbeat IPC: 0.5418 cumulative IPC: 0.6227 (Simulation time: 00 hr 26 min 13 sec)
Heartbeat CPU 0 instructions: 157000820 cycles: 185252243 heartbeat IPC: 2.38 cumulative IPC: 0.6249 (Simulation time: 00 hr 26 min 15 sec)
Heartbeat CPU 0 instructions: 157500821 cycles: 185604177 heartbeat IPC: 1.421 cumulative IPC: 0.6265 (Simulation time: 00 hr 26 min 18 sec)
Heartbeat CPU 0 instructions: 158000822 cycles: 186881209 heartbeat IPC: 0.3915 cumulative IPC: 0.6248 (Simulation time: 00 hr 26 min 28 sec)
Heartbeat CPU 0 instructions: 158500823 cycles: 187629022 heartbeat IPC: 0.6686 cumulative IPC: 0.625 (Simulation time: 00 hr 26 min 34 sec)
Heartbeat CPU 0 instructions: 159000825 cycles: 189029507 heartbeat IPC: 0.357 cumulative IPC: 0.6228 (Simulation time: 00 hr 26 min 42 sec)
Heartbeat CPU 0 instructions: 159500828 cycles: 190162489 heartbeat IPC: 0.4413 cumulative IPC: 0.6217 (Simulation time: 00 hr 26 min 50 sec)
Heartbeat CPU 0 instructions: 160000828 cycles: 191025705 heartbeat IPC: 0.5792 cumulative IPC: 0.6215 (Simulation time: 00 hr 26 min 56 sec)
Heartbeat CPU 0 instructions: 160500828 cycles: 192397927 heartbeat IPC: 0.3644 cumulative IPC: 0.6195 (Simulation time: 00 hr 27 min 04 sec)
Heartbeat CPU 0 instructions: 161000829 cycles: 193607043 heartbeat IPC: 0.4135 cumulative IPC: 0.6181 (Simulation time: 00 hr 27 min 12 sec)
Heartbeat CPU 0 instructions: 161500829 cycles: 195402981 heartbeat IPC: 0.2784 cumulative IPC: 0.6147 (Simulation time: 00 hr 27 min 25 sec)
Heartbeat CPU 0 instructions: 162000833 cycles: 196714978 heartbeat IPC: 0.3811 cumulative IPC: 0.6131 (Simulation time: 00 hr 27 min 33 sec)
Heartbeat CPU 0 instructions: 162500835 cycles: 197927603 heartbeat IPC: 0.4123 cumulative IPC: 0.6117 (Simulation time: 00 hr 27 min 40 sec)
Heartbeat CPU 0 instructions: 163000835 cycles: 198683514 heartbeat IPC: 0.6615 cumulative IPC: 0.6119 (Simulation time: 00 hr 27 min 45 sec)
Heartbeat CPU 0 instructions: 163500835 cycles: 199599894 heartbeat IPC: 0.5456 cumulative IPC: 0.6116 (Simulation time: 00 hr 27 min 51 sec)
Heartbeat CPU 0 instructions: 164000840 cycles: 200525516 heartbeat IPC: 0.5402 cumulative IPC: 0.6113 (Simulation time: 00 hr 27 min 57 sec)
Heartbeat CPU 0 instructions: 164500842 cycles: 201624330 heartbeat IPC: 0.455 cumulative IPC: 0.6103 (Simulation time: 00 hr 28 min 04 sec)
Heartbeat CPU 0 instructions: 165000844 cycles: 202651176 heartbeat IPC: 0.4869 cumulative IPC: 0.6097 (Simulation time: 00 hr 28 min 11 sec)
Heartbeat CPU 0 instructions: 165500847 cycles: 203541907 heartbeat IPC: 0.5613 cumulative IPC: 0.6094 (Simulation time: 00 hr 28 min 17 sec)
Heartbeat CPU 0 instructions: 166000847 cycles: 203806269 heartbeat IPC: 1.891 cumulative IPC: 0.6112 (Simulation time: 00 hr 28 min 19 sec)
Heartbeat CPU 0 instructions: 166500853 cycles: 205176479 heartbeat IPC: 0.3649 cumulative IPC: 0.6095 (Simulation time: 00 hr 28 min 27 sec)
Heartbeat CPU 0 instructions: 167000854 cycles: 205894822 heartbeat IPC: 0.696 cumulative IPC: 0.6098 (Simulation time: 00 hr 28 min 32 sec)
Heartbeat CPU 0 instructions: 167500856 cycles: 206656042 heartbeat IPC: 0.6568 cumulative IPC: 0.61 (Simulation time: 00 hr 28 min 37 sec)
Heartbeat CPU 0 instructions: 168000857 cycles: 207541565 heartbeat IPC: 0.5646 cumulative IPC: 0.6098 (Simulation time: 00 hr 28 min 43 sec)
Heartbeat CPU 0 instructions: 168500861 cycles: 208882436 heartbeat IPC: 0.3729 cumulative IPC: 0.6081 (Simulation time: 00 hr 28 min 51 sec)
Heartbeat CPU 0 instructions: 169000864 cycles: 209647305 heartbeat IPC: 0.6537 cumulative IPC: 0.6083 (Simulation time: 00 hr 28 min 56 sec)
Heartbeat CPU 0 instructions: 169500866 cycles: 210975871 heartbeat IPC: 0.3763 cumulative IPC: 0.6067 (Simulation time: 00 hr 29 min 04 sec)
Heartbeat CPU 0 instructions: 170000869 cycles: 211899163 heartbeat IPC: 0.5415 cumulative IPC: 0.6064 (Simulation time: 00 hr 29 min 10 sec)
Heartbeat CPU 0 instructions: 170500870 cycles: 212876161 heartbeat IPC: 0.5118 cumulative IPC: 0.606 (Simulation time: 00 hr 29 min 17 sec)
Heartbeat CPU 0 instructions: 171000876 cycles: 213946520 heartbeat IPC: 0.4671 cumulative IPC: 0.6052 (Simulation time: 00 hr 29 min 23 sec)
Heartbeat CPU 0 instructions: 171500877 cycles: 214987162 heartbeat IPC: 0.4805 cumulative IPC: 0.6046 (Simulation time: 00 hr 29 min 30 sec)
Heartbeat CPU 0 instructions: 172000877 cycles: 216226784 heartbeat IPC: 0.4033 cumulative IPC: 0.6034 (Simulation time: 00 hr 29 min 38 sec)
Heartbeat CPU 0 instructions: 172500880 cycles: 217108900 heartbeat IPC: 0.5668 cumulative IPC: 0.6032 (Simulation time: 00 hr 29 min 44 sec)
Heartbeat CPU 0 instructions: 173000884 cycles: 217484036 heartbeat IPC: 1.333 cumulative IPC: 0.6045 (Simulation time: 00 hr 29 min 47 sec)
Heartbeat CPU 0 instructions: 173500886 cycles: 217918279 heartbeat IPC: 1.151 cumulative IPC: 0.6057 (Simulation time: 00 hr 29 min 50 sec)
Heartbeat CPU 0 instructions: 174000889 cycles: 219078051 heartbeat IPC: 0.4311 cumulative IPC: 0.6047 (Simulation time: 00 hr 29 min 57 sec)
Heartbeat CPU 0 instructions: 174500890 cycles: 220041802 heartbeat IPC: 0.5188 cumulative IPC: 0.6043 (Simulation time: 00 hr 30 min 04 sec)
Heartbeat CPU 0 instructions: 175000890 cycles: 220952453 heartbeat IPC: 0.5491 cumulative IPC: 0.6041 (Simulation time: 00 hr 30 min 09 sec)
Heartbeat CPU 0 instructions: 175500894 cycles: 221718968 heartbeat IPC: 0.6523 cumulative IPC: 0.6043 (Simulation time: 00 hr 30 min 15 sec)
Heartbeat CPU 0 instructions: 176000894 cycles: 222167076 heartbeat IPC: 1.116 cumulative IPC: 0.6054 (Simulation time: 00 hr 30 min 18 sec)
Heartbeat CPU 0 instructions: 176500895 cycles: 223348191 heartbeat IPC: 0.4233 cumulative IPC: 0.6043 (Simulation time: 00 hr 30 min 25 sec)
Heartbeat CPU 0 instructions: 177000895 cycles: 224423422 heartbeat IPC: 0.465 cumulative IPC: 0.6036 (Simulation time: 00 hr 30 min 31 sec)
Heartbeat CPU 0 instructions: 177500895 cycles: 225458891 heartbeat IPC: 0.4829 cumulative IPC: 0.603 (Simulation time: 00 hr 30 min 38 sec)
Heartbeat CPU 0 instructions: 178000895 cycles: 226112437 heartbeat IPC: 0.7651 cumulative IPC: 0.6035 (Simulation time: 00 hr 30 min 42 sec)
Heartbeat CPU 0 instructions: 178500899 cycles: 226868395 heartbeat IPC: 0.6614 cumulative IPC: 0.6037 (Simulation time: 00 hr 30 min 47 sec)
Heartbeat CPU 0 instructions: 179000903 cycles: 227284464 heartbeat IPC: 1.202 cumulative IPC: 0.6049 (Simulation time: 00 hr 30 min 50 sec)
Heartbeat CPU 0 instructions: 179500904 cycles: 228610116 heartbeat IPC: 0.3772 cumulative IPC: 0.6035 (Simulation time: 00 hr 30 min 58 sec)
Heartbeat CPU 0 instructions: 180000910 cycles: 229969372 heartbeat IPC: 0.3679 cumulative IPC: 0.602 (Simulation time: 00 hr 31 min 06 sec)
Heartbeat CPU 0 instructions: 180500911 cycles: 230872247 heartbeat IPC: 0.5538 cumulative IPC: 0.6018 (Simulation time: 00 hr 31 min 11 sec)
Heartbeat CPU 0 instructions: 181000911 cycles: 231609023 heartbeat IPC: 0.6786 cumulative IPC: 0.6021 (Simulation time: 00 hr 31 min 16 sec)
Heartbeat CPU 0 instructions: 181500915 cycles: 232241264 heartbeat IPC: 0.7908 cumulative IPC: 0.6026 (Simulation time: 00 hr 31 min 21 sec)
Heartbeat CPU 0 instructions: 182000919 cycles: 233444111 heartbeat IPC: 0.4157 cumulative IPC: 0.6016 (Simulation time: 00 hr 31 min 28 sec)
Heartbeat CPU 0 instructions: 182500921 cycles: 234753475 heartbeat IPC: 0.3819 cumulative IPC: 0.6003 (Simulation time: 00 hr 31 min 36 sec)
Heartbeat CPU 0 instructions: 183000923 cycles: 235542923 heartbeat IPC: 0.6334 cumulative IPC: 0.6004 (Simulation time: 00 hr 31 min 41 sec)
Heartbeat CPU 0 instructions: 183500925 cycles: 236140747 heartbeat IPC: 0.8364 cumulative IPC: 0.601 (Simulation time: 00 hr 31 min 46 sec)
Heartbeat CPU 0 instructions: 184000925 cycles: 236965731 heartbeat IPC: 0.6061 cumulative IPC: 0.6011 (Simulation time: 00 hr 31 min 51 sec)
Heartbeat CPU 0 instructions: 184500925 cycles: 237678343 heartbeat IPC: 0.7016 cumulative IPC: 0.6014 (Simulation time: 00 hr 31 min 56 sec)
Heartbeat CPU 0 instructions: 185000928 cycles: 238309789 heartbeat IPC: 0.7918 cumulative IPC: 0.6019 (Simulation time: 00 hr 32 min 00 sec)
Heartbeat CPU 0 instructions: 185500930 cycles: 239239323 heartbeat IPC: 0.5379 cumulative IPC: 0.6016 (Simulation time: 00 hr 32 min 06 sec)
Heartbeat CPU 0 instructions: 186000932 cycles: 239953370 heartbeat IPC: 0.7002 cumulative IPC: 0.602 (Simulation time: 00 hr 32 min 11 sec)
Heartbeat CPU 0 instructions: 186500933 cycles: 240980147 heartbeat IPC: 0.487 cumulative IPC: 0.6014 (Simulation time: 00 hr 32 min 17 sec)
Heartbeat CPU 0 instructions: 187000938 cycles: 241926100 heartbeat IPC: 0.5286 cumulative IPC: 0.6011 (Simulation time: 00 hr 32 min 23 sec)
Heartbeat CPU 0 instructions: 187500938 cycles: 243425726 heartbeat IPC: 0.3334 cumulative IPC: 0.5994 (Simulation time: 00 hr 32 min 32 sec)
Heartbeat CPU 0 instructions: 188000938 cycles: 244728669 heartbeat IPC: 0.3837 cumulative IPC: 0.5982 (Simulation time: 00 hr 32 min 40 sec)
Heartbeat CPU 0 instructions: 188500938 cycles: 245596125 heartbeat IPC: 0.5764 cumulative IPC: 0.5981 (Simulation time: 00 hr 32 min 45 sec)
Heartbeat CPU 0 instructions: 189000945 cycles: 246594831 heartbeat IPC: 0.5007 cumulative IPC: 0.5977 (Simulation time: 00 hr 32 min 51 sec)
Heartbeat CPU 0 instructions: 189500950 cycles: 247679454 heartbeat IPC: 0.461 cumulative IPC: 0.597 (Simulation time: 00 hr 32 min 58 sec)
Heartbeat CPU 0 instructions: 190000957 cycles: 248608416 heartbeat IPC: 0.5382 cumulative IPC: 0.5968 (Simulation time: 00 hr 33 min 04 sec)
Heartbeat CPU 0 instructions: 190500957 cycles: 250239972 heartbeat IPC: 0.3065 cumulative IPC: 0.5948 (Simulation time: 00 hr 33 min 13 sec)
Heartbeat CPU 0 instructions: 191000957 cycles: 251334490 heartbeat IPC: 0.4568 cumulative IPC: 0.5942 (Simulation time: 00 hr 33 min 19 sec)
Heartbeat CPU 0 instructions: 191500957 cycles: 252837752 heartbeat IPC: 0.3326 cumulative IPC: 0.5925 (Simulation time: 00 hr 33 min 28 sec)
Heartbeat CPU 0 instructions: 192000957 cycles: 253674784 heartbeat IPC: 0.5973 cumulative IPC: 0.5925 (Simulation time: 00 hr 33 min 33 sec)
Heartbeat CPU 0 instructions: 192500959 cycles: 254603604 heartbeat IPC: 0.5383 cumulative IPC: 0.5923 (Simulation time: 00 hr 33 min 39 sec)
Heartbeat CPU 0 instructions: 193000960 cycles: 255769169 heartbeat IPC: 0.429 cumulative IPC: 0.5915 (Simulation time: 00 hr 33 min 46 sec)
Heartbeat CPU 0 instructions: 193500966 cycles: 256786681 heartbeat IPC: 0.4914 cumulative IPC: 0.5911 (Simulation time: 00 hr 33 min 52 sec)
Heartbeat CPU 0 instructions: 194000966 cycles: 257967816 heartbeat IPC: 0.4233 cumulative IPC: 0.5903 (Simulation time: 00 hr 33 min 59 sec)
Heartbeat CPU 0 instructions: 194500968 cycles: 259083632 heartbeat IPC: 0.4481 cumulative IPC: 0.5897 (Simulation time: 00 hr 34 min 06 sec)
Heartbeat CPU 0 instructions: 195000968 cycles: 259968207 heartbeat IPC: 0.5652 cumulative IPC: 0.5896 (Simulation time: 00 hr 34 min 12 sec)
Heartbeat CPU 0 instructions: 195500969 cycles: 260580561 heartbeat IPC: 0.8165 cumulative IPC: 0.5901 (Simulation time: 00 hr 34 min 16 sec)
Heartbeat CPU 0 instructions: 196000970 cycles: 261577668 heartbeat IPC: 0.5015 cumulative IPC: 0.5898 (Simulation time: 00 hr 34 min 22 sec)
Heartbeat CPU 0 instructions: 196500970 cycles: 263005205 heartbeat IPC: 0.3503 cumulative IPC: 0.5884 (Simulation time: 00 hr 34 min 31 sec)
Heartbeat CPU 0 instructions: 197000970 cycles: 263700685 heartbeat IPC: 0.7189 cumulative IPC: 0.5888 (Simulation time: 00 hr 34 min 36 sec)
Heartbeat CPU 0 instructions: 197500970 cycles: 264036633 heartbeat IPC: 1.488 cumulative IPC: 0.59 (Simulation time: 00 hr 34 min 39 sec)
Heartbeat CPU 0 instructions: 198000972 cycles: 264253890 heartbeat IPC: 2.301 cumulative IPC: 0.5915 (Simulation time: 00 hr 34 min 42 sec)
Heartbeat CPU 0 instructions: 198500973 cycles: 265531481 heartbeat IPC: 0.3914 cumulative IPC: 0.5904 (Simulation time: 00 hr 34 min 49 sec)
Heartbeat CPU 0 instructions: 199000975 cycles: 266218495 heartbeat IPC: 0.7278 cumulative IPC: 0.5908 (Simulation time: 00 hr 34 min 53 sec)
Heartbeat CPU 0 instructions: 199500975 cycles: 266761857 heartbeat IPC: 0.9202 cumulative IPC: 0.5915 (Simulation time: 00 hr 34 min 58 sec)
Heartbeat CPU 0 instructions: 200000980 cycles: 267779785 heartbeat IPC: 0.4912 cumulative IPC: 0.5911 (Simulation time: 00 hr 35 min 04 sec)
Heartbeat CPU 0 instructions: 200500980 cycles: 269379815 heartbeat IPC: 0.3125 cumulative IPC: 0.5894 (Simulation time: 00 hr 35 min 13 sec)
Heartbeat CPU 0 instructions: 201000983 cycles: 270129721 heartbeat IPC: 0.6668 cumulative IPC: 0.5896 (Simulation time: 00 hr 35 min 18 sec)
Heartbeat CPU 0 instructions: 201500987 cycles: 270340785 heartbeat IPC: 2.369 cumulative IPC: 0.5911 (Simulation time: 00 hr 35 min 20 sec)
Heartbeat CPU 0 instructions: 202000993 cycles: 270726619 heartbeat IPC: 1.296 cumulative IPC: 0.5921 (Simulation time: 00 hr 35 min 23 sec)
Heartbeat CPU 0 instructions: 202500995 cycles: 271517529 heartbeat IPC: 0.6322 cumulative IPC: 0.5922 (Simulation time: 00 hr 35 min 28 sec)
Heartbeat CPU 0 instructions: 203000995 cycles: 272547921 heartbeat IPC: 0.4853 cumulative IPC: 0.5918 (Simulation time: 00 hr 35 min 34 sec)
Heartbeat CPU 0 instructions: 203500998 cycles: 273367884 heartbeat IPC: 0.6098 cumulative IPC: 0.5919 (Simulation time: 00 hr 35 min 40 sec)
Heartbeat CPU 0 instructions: 204000999 cycles: 274264509 heartbeat IPC: 0.5576 cumulative IPC: 0.5918 (Simulation time: 00 hr 35 min 46 sec)
Heartbeat CPU 0 instructions: 204501000 cycles: 275241893 heartbeat IPC: 0.5116 cumulative IPC: 0.5915 (Simulation time: 00 hr 35 min 52 sec)
Heartbeat CPU 0 instructions: 205001000 cycles: 276228572 heartbeat IPC: 0.5068 cumulative IPC: 0.5911 (Simulation time: 00 hr 35 min 58 sec)
Heartbeat CPU 0 instructions: 205501001 cycles: 277052725 heartbeat IPC: 0.6067 cumulative IPC: 0.5912 (Simulation time: 00 hr 36 min 03 sec)
Heartbeat CPU 0 instructions: 206001001 cycles: 277899525 heartbeat IPC: 0.5905 cumulative IPC: 0.5912 (Simulation time: 00 hr 36 min 09 sec)
Heartbeat CPU 0 instructions: 206501003 cycles: 278704763 heartbeat IPC: 0.6209 cumulative IPC: 0.5913 (Simulation time: 00 hr 36 min 14 sec)
Heartbeat CPU 0 instructions: 207001004 cycles: 279616140 heartbeat IPC: 0.5486 cumulative IPC: 0.5911 (Simulation time: 00 hr 36 min 20 sec)
Heartbeat CPU 0 instructions: 207501005 cycles: 280422492 heartbeat IPC: 0.6201 cumulative IPC: 0.5912 (Simulation time: 00 hr 36 min 25 sec)
Heartbeat CPU 0 instructions: 208001012 cycles: 281260505 heartbeat IPC: 0.5967 cumulative IPC: 0.5912 (Simulation time: 00 hr 36 min 31 sec)
Heartbeat CPU 0 instructions: 208501012 cycles: 282220362 heartbeat IPC: 0.5209 cumulative IPC: 0.591 (Simulation time: 00 hr 36 min 37 sec)
Heartbeat CPU 0 instructions: 209001015 cycles: 283101511 heartbeat IPC: 0.5674 cumulative IPC: 0.5909 (Simulation time: 00 hr 36 min 42 sec)
Heartbeat CPU 0 instructions: 209501016 cycles: 283927387 heartbeat IPC: 0.6054 cumulative IPC: 0.591 (Simulation time: 00 hr 36 min 48 sec)
Heartbeat CPU 0 instructions: 210001018 cycles: 285360073 heartbeat IPC: 0.349 cumulative IPC: 0.5897 (Simulation time: 00 hr 36 min 56 sec)
Heartbeat CPU 0 instructions: 210501019 cycles: 286469925 heartbeat IPC: 0.4505 cumulative IPC: 0.5891 (Simulation time: 00 hr 37 min 03 sec)
Heartbeat CPU 0 instructions: 211001025 cycles: 287200855 heartbeat IPC: 0.6841 cumulative IPC: 0.5894 (Simulation time: 00 hr 37 min 08 sec)
Heartbeat CPU 0 instructions: 211501025 cycles: 288068853 heartbeat IPC: 0.576 cumulative IPC: 0.5893 (Simulation time: 00 hr 37 min 13 sec)
Heartbeat CPU 0 instructions: 212001031 cycles: 289115769 heartbeat IPC: 0.4776 cumulative IPC: 0.5889 (Simulation time: 00 hr 37 min 20 sec)
Heartbeat CPU 0 instructions: 212501033 cycles: 289309300 heartbeat IPC: 2.584 cumulative IPC: 0.5903 (Simulation time: 00 hr 37 min 22 sec)
Heartbeat CPU 0 instructions: 213001035 cycles: 289501213 heartbeat IPC: 2.605 cumulative IPC: 0.5917 (Simulation time: 00 hr 37 min 25 sec)
Heartbeat CPU 0 instructions: 213501039 cycles: 289964905 heartbeat IPC: 1.078 cumulative IPC: 0.5925 (Simulation time: 00 hr 37 min 29 sec)
Heartbeat CPU 0 instructions: 214001042 cycles: 290337204 heartbeat IPC: 1.343 cumulative IPC: 0.5935 (Simulation time: 00 hr 37 min 34 sec)
Heartbeat CPU 0 instructions: 214501044 cycles: 290710754 heartbeat IPC: 1.339 cumulative IPC: 0.5945 (Simulation time: 00 hr 37 min 38 sec)
Heartbeat CPU 0 instructions: 215001044 cycles: 291068003 heartbeat IPC: 1.4 cumulative IPC: 0.5956 (Simulation time: 00 hr 37 min 42 sec)
Heartbeat CPU 0 instructions: 215501046 cycles: 291392408 heartbeat IPC: 1.541 cumulative IPC: 0.5967 (Simulation time: 00 hr 37 min 46 sec)
Heartbeat CPU 0 instructions: 216001051 cycles: 291748179 heartbeat IPC: 1.405 cumulative IPC: 0.5977 (Simulation time: 00 hr 37 min 50 sec)
Heartbeat CPU 0 instructions: 216501052 cycles: 292107106 heartbeat IPC: 1.393 cumulative IPC: 0.5987 (Simulation time: 00 hr 37 min 54 sec)
Heartbeat CPU 0 instructions: 217001052 cycles: 292466946 heartbeat IPC: 1.39 cumulative IPC: 0.5998 (Simulation time: 00 hr 37 min 58 sec)
Heartbeat CPU 0 instructions: 217501057 cycles: 292837150 heartbeat IPC: 1.351 cumulative IPC: 0.6008 (Simulation time: 00 hr 38 min 03 sec)
Heartbeat CPU 0 instructions: 218001059 cycles: 293197547 heartbeat IPC: 1.387 cumulative IPC: 0.6018 (Simulation time: 00 hr 38 min 07 sec)
Heartbeat CPU 0 instructions: 218501061 cycles: 293542208 heartbeat IPC: 1.451 cumulative IPC: 0.6028 (Simulation time: 00 hr 38 min 11 sec)
Heartbeat CPU 0 instructions: 219001064 cycles: 293908855 heartbeat IPC: 1.364 cumulative IPC: 0.6038 (Simulation time: 00 hr 38 min 15 sec)
Heartbeat CPU 0 instructions: 219501070 cycles: 294280911 heartbeat IPC: 1.344 cumulative IPC: 0.6048 (Simulation time: 00 hr 38 min 19 sec)
Heartbeat CPU 0 instructions: 220001070 cycles: 295658026 heartbeat IPC: 0.3631 cumulative IPC: 0.6036 (Simulation time: 00 hr 38 min 29 sec)
Heartbeat CPU 0 instructions: 220501072 cycles: 296716951 heartbeat IPC: 0.4722 cumulative IPC: 0.6031 (Simulation time: 00 hr 38 min 36 sec)
Heartbeat CPU 0 instructions: 221001072 cycles: 297675747 heartbeat IPC: 0.5215 cumulative IPC: 0.6029 (Simulation time: 00 hr 38 min 42 sec)
Heartbeat CPU 0 instructions: 221501073 cycles: 298621365 heartbeat IPC: 0.5288 cumulative IPC: 0.6026 (Simulation time: 00 hr 38 min 48 sec)
Heartbeat CPU 0 instructions: 222001073 cycles: 299630281 heartbeat IPC: 0.4956 cumulative IPC: 0.6022 (Simulation time: 00 hr 38 min 55 sec)
Heartbeat CPU 0 instructions: 222501078 cycles: 300561823 heartbeat IPC: 0.5367 cumulative IPC: 0.602 (Simulation time: 00 hr 39 min 01 sec)
Heartbeat CPU 0 instructions: 223001079 cycles: 301504984 heartbeat IPC: 0.5301 cumulative IPC: 0.6018 (Simulation time: 00 hr 39 min 07 sec)
Heartbeat CPU 0 instructions: 223501079 cycles: 302323504 heartbeat IPC: 0.6109 cumulative IPC: 0.6018 (Simulation time: 00 hr 39 min 12 sec)
Heartbeat CPU 0 instructions: 224001079 cycles: 303706003 heartbeat IPC: 0.3617 cumulative IPC: 0.6007 (Simulation time: 00 hr 39 min 20 sec)
Heartbeat CPU 0 instructions: 224501083 cycles: 305046474 heartbeat IPC: 0.373 cumulative IPC: 0.5996 (Simulation time: 00 hr 39 min 28 sec)
Heartbeat CPU 0 instructions: 225001084 cycles: 305868570 heartbeat IPC: 0.6082 cumulative IPC: 0.5996 (Simulation time: 00 hr 39 min 34 sec)
Heartbeat CPU 0 instructions: 225501084 cycles: 306749877 heartbeat IPC: 0.5673 cumulative IPC: 0.5995 (Simulation time: 00 hr 39 min 39 sec)
Heartbeat CPU 0 instructions: 226001085 cycles: 307541376 heartbeat IPC: 0.6317 cumulative IPC: 0.5996 (Simulation time: 00 hr 39 min 44 sec)
Heartbeat CPU 0 instructions: 226501087 cycles: 308630462 heartbeat IPC: 0.4591 cumulative IPC: 0.5991 (Simulation time: 00 hr 39 min 51 sec)
Heartbeat CPU 0 instructions: 227001087 cycles: 309708804 heartbeat IPC: 0.4637 cumulative IPC: 0.5986 (Simulation time: 00 hr 39 min 58 sec)
Heartbeat CPU 0 instructions: 227501088 cycles: 310394372 heartbeat IPC: 0.7293 cumulative IPC: 0.5989 (Simulation time: 00 hr 40 min 02 sec)
Heartbeat CPU 0 instructions: 228001088 cycles: 311118434 heartbeat IPC: 0.6905 cumulative IPC: 0.5991 (Simulation time: 00 hr 40 min 07 sec)
Heartbeat CPU 0 instructions: 228501091 cycles: 312073266 heartbeat IPC: 0.5237 cumulative IPC: 0.5989 (Simulation time: 00 hr 40 min 13 sec)
Heartbeat CPU 0 instructions: 229001092 cycles: 313116716 heartbeat IPC: 0.4792 cumulative IPC: 0.5985 (Simulation time: 00 hr 40 min 19 sec)
Heartbeat CPU 0 instructions: 229501094 cycles: 313598694 heartbeat IPC: 1.037 cumulative IPC: 0.5992 (Simulation time: 00 hr 40 min 23 sec)
Heartbeat CPU 0 instructions: 230001094 cycles: 313970013 heartbeat IPC: 1.347 cumulative IPC: 0.6001 (Simulation time: 00 hr 40 min 27 sec)
Heartbeat CPU 0 instructions: 230501094 cycles: 314319952 heartbeat IPC: 1.429 cumulative IPC: 0.6011 (Simulation time: 00 hr 40 min 30 sec)
Heartbeat CPU 0 instructions: 231001096 cycles: 314706268 heartbeat IPC: 1.294 cumulative IPC: 0.602 (Simulation time: 00 hr 40 min 33 sec)
Heartbeat CPU 0 instructions: 231501100 cycles: 315314190 heartbeat IPC: 0.8225 cumulative IPC: 0.6024 (Simulation time: 00 hr 40 min 38 sec)
Heartbeat CPU 0 instructions: 232001100 cycles: 315678611 heartbeat IPC: 1.372 cumulative IPC: 0.6033 (Simulation time: 00 hr 40 min 41 sec)
Heartbeat CPU 0 instructions: 232501102 cycles: 315970484 heartbeat IPC: 1.713 cumulative IPC: 0.6044 (Simulation time: 00 hr 40 min 43 sec)
Heartbeat CPU 0 instructions: 233001109 cycles: 316888988 heartbeat IPC: 0.5444 cumulative IPC: 0.6042 (Simulation time: 00 hr 40 min 49 sec)
Heartbeat CPU 0 instructions: 233501112 cycles: 317816502 heartbeat IPC: 0.5391 cumulative IPC: 0.604 (Simulation time: 00 hr 40 min 56 sec)
Heartbeat CPU 0 instructions: 234001112 cycles: 318437325 heartbeat IPC: 0.8054 cumulative IPC: 0.6044 (Simulation time: 00 hr 41 min 01 sec)
Heartbeat CPU 0 instructions: 234501113 cycles: 319291002 heartbeat IPC: 0.5857 cumulative IPC: 0.6044 (Simulation time: 00 hr 41 min 07 sec)
Heartbeat CPU 0 instructions: 235001114 cycles: 320938016 heartbeat IPC: 0.3036 cumulative IPC: 0.6028 (Simulation time: 00 hr 41 min 16 sec)
Heartbeat CPU 0 instructions: 235501117 cycles: 322299031 heartbeat IPC: 0.3674 cumulative IPC: 0.6017 (Simulation time: 00 hr 41 min 24 sec)
Heartbeat CPU 0 instructions: 236001117 cycles: 323080813 heartbeat IPC: 0.6396 cumulative IPC: 0.6018 (Simulation time: 00 hr 41 min 29 sec)
Heartbeat CPU 0 instructions: 236501117 cycles: 323988586 heartbeat IPC: 0.5508 cumulative IPC: 0.6017 (Simulation time: 00 hr 41 min 35 sec)
Heartbeat CPU 0 instructions: 237001120 cycles: 325053068 heartbeat IPC: 0.4697 cumulative IPC: 0.6012 (Simulation time: 00 hr 41 min 41 sec)
Heartbeat CPU 0 instructions: 237501120 cycles: 325687334 heartbeat IPC: 0.7883 cumulative IPC: 0.6016 (Simulation time: 00 hr 41 min 46 sec)
Heartbeat CPU 0 instructions: 238001122 cycles: 326707172 heartbeat IPC: 0.4903 cumulative IPC: 0.6012 (Simulation time: 00 hr 41 min 52 sec)
Heartbeat CPU 0 instructions: 238501124 cycles: 327854664 heartbeat IPC: 0.4357 cumulative IPC: 0.6006 (Simulation time: 00 hr 41 min 59 sec)
Heartbeat CPU 0 instructions: 239001127 cycles: 328367296 heartbeat IPC: 0.9754 cumulative IPC: 0.6013 (Simulation time: 00 hr 42 min 03 sec)
Heartbeat CPU 0 instructions: 239501127 cycles: 329177177 heartbeat IPC: 0.6174 cumulative IPC: 0.6013 (Simulation time: 00 hr 42 min 08 sec)
Heartbeat CPU 0 instructions: 240001133 cycles: 329950651 heartbeat IPC: 0.6464 cumulative IPC: 0.6014 (Simulation time: 00 hr 42 min 13 sec)
Heartbeat CPU 0 instructions: 240501137 cycles: 330455487 heartbeat IPC: 0.9904 cumulative IPC: 0.602 (Simulation time: 00 hr 42 min 17 sec)
Heartbeat CPU 0 instructions: 241001141 cycles: 331624843 heartbeat IPC: 0.4276 cumulative IPC: 0.6014 (Simulation time: 00 hr 42 min 24 sec)
Heartbeat CPU 0 instructions: 241501142 cycles: 332416003 heartbeat IPC: 0.632 cumulative IPC: 0.6015 (Simulation time: 00 hr 42 min 29 sec)
Heartbeat CPU 0 instructions: 242001142 cycles: 333565533 heartbeat IPC: 0.435 cumulative IPC: 0.6009 (Simulation time: 00 hr 42 min 36 sec)
Heartbeat CPU 0 instructions: 242501142 cycles: 334393242 heartbeat IPC: 0.6041 cumulative IPC: 0.6009 (Simulation time: 00 hr 42 min 41 sec)
Heartbeat CPU 0 instructions: 243001142 cycles: 335616957 heartbeat IPC: 0.4086 cumulative IPC: 0.6001 (Simulation time: 00 hr 42 min 49 sec)
Heartbeat CPU 0 instructions: 243501144 cycles: 336639724 heartbeat IPC: 0.4889 cumulative IPC: 0.5998 (Simulation time: 00 hr 42 min 55 sec)
Heartbeat CPU 0 instructions: 244001149 cycles: 337228957 heartbeat IPC: 0.8486 cumulative IPC: 0.6002 (Simulation time: 00 hr 42 min 59 sec)
Heartbeat CPU 0 instructions: 244501149 cycles: 337967759 heartbeat IPC: 0.6768 cumulative IPC: 0.6004 (Simulation time: 00 hr 43 min 04 sec)
Heartbeat CPU 0 instructions: 245001155 cycles: 339091538 heartbeat IPC: 0.4449 cumulative IPC: 0.5999 (Simulation time: 00 hr 43 min 10 sec)
Heartbeat CPU 0 instructions: 245501156 cycles: 340160356 heartbeat IPC: 0.4678 cumulative IPC: 0.5994 (Simulation time: 00 hr 43 min 17 sec)
Heartbeat CPU 0 instructions: 246001161 cycles: 341115376 heartbeat IPC: 0.5236 cumulative IPC: 0.5992 (Simulation time: 00 hr 43 min 23 sec)
Heartbeat CPU 0 instructions: 246501163 cycles: 342405611 heartbeat IPC: 0.3875 cumulative IPC: 0.5984 (Simulation time: 00 hr 43 min 30 sec)
Heartbeat CPU 0 instructions: 247001164 cycles: 343285246 heartbeat IPC: 0.5684 cumulative IPC: 0.5983 (Simulation time: 00 hr 43 min 36 sec)
Heartbeat CPU 0 instructions: 247501164 cycles: 343895966 heartbeat IPC: 0.8187 cumulative IPC: 0.5987 (Simulation time: 00 hr 43 min 40 sec)
Heartbeat CPU 0 instructions: 248001164 cycles: 344805803 heartbeat IPC: 0.5495 cumulative IPC: 0.5986 (Simulation time: 00 hr 43 min 46 sec)
Heartbeat CPU 0 instructions: 248501165 cycles: 346418404 heartbeat IPC: 0.3101 cumulative IPC: 0.5972 (Simulation time: 00 hr 43 min 55 sec)
Heartbeat CPU 0 instructions: 249001167 cycles: 347608742 heartbeat IPC: 0.4201 cumulative IPC: 0.5966 (Simulation time: 00 hr 44 min 03 sec)
Heartbeat CPU 0 instructions: 249501172 cycles: 348913407 heartbeat IPC: 0.3832 cumulative IPC: 0.5957 (Simulation time: 00 hr 44 min 11 sec)
Simulation finished CPU 0 instructions: 200000001 cycles: 336034882 cumulative IPC: 0.5952 (Simulation time: 00 hr 44 min 17 sec)
Simulation complete CPU 0 instructions: 200000001 cycles: 336034882 cumulative IPC: 0.5952 (Simulation time: 00 hr 44 min 17 sec)

ChampSim completed all CPUs

=== Simulation ===
CPU 0 runs /local-ssd/ben/dpc4-traces/gtraces_v2/tango_0000.champsim.gz

Region of Interest Statistics

CPU 0 cumulative IPC: 0.5952 instructions: 200000001 cycles: 336034882
CPU 0 Branch Prediction Accuracy: 89.45% MPKI: 19.5 Average ROB Occupancy at Mispredict: 22.19
Branch type MPKI
BRANCH_DIRECT_JUMP: 0.5813
BRANCH_INDIRECT: 0.3396
BRANCH_CONDITIONAL: 16.6
BRANCH_DIRECT_CALL: 0.8659
BRANCH_INDIRECT_CALL: 0.3326
BRANCH_RETURN: 0.7816

cpu0->cpu0_STLB TOTAL        ACCESS:    2459667 HIT:    1803211 MISS:     656456 MSHR_MERGE:          0
cpu0->cpu0_STLB LOAD         ACCESS:    2459667 HIT:    1803211 MISS:     656456 MSHR_MERGE:          0
cpu0->cpu0_STLB RFO          ACCESS:          0 HIT:          0 MISS:          0 MSHR_MERGE:          0
cpu0->cpu0_STLB PREFETCH     ACCESS:          0 HIT:          0 MISS:          0 MSHR_MERGE:          0
cpu0->cpu0_STLB WRITE        ACCESS:          0 HIT:          0 MISS:          0 MSHR_MERGE:          0
cpu0->cpu0_STLB TRANSLATION  ACCESS:          0 HIT:          0 MISS:          0 MSHR_MERGE:          0
cpu0->cpu0_STLB PREFETCH REQUESTED:          0 ISSUED:          0 USEFUL:          0 USELESS:          0
cpu0->cpu0_STLB AVERAGE MISS LATENCY: 133.4 cycles
cpu0->cpu0_L2C TOTAL        ACCESS:   13636954 HIT:    9209284 MISS:    4427670 MSHR_MERGE:     502489
cpu0->cpu0_L2C LOAD         ACCESS:    4554616 HIT:    3502465 MISS:    1052151 MSHR_MERGE:       7337
cpu0->cpu0_L2C RFO          ACCESS:     718024 HIT:     203670 MISS:     514354 MSHR_MERGE:         31
cpu0->cpu0_L2C PREFETCH     ACCESS:    6421481 HIT:    3790832 MISS:    2630649 MSHR_MERGE:     495121
cpu0->cpu0_L2C WRITE        ACCESS:    1218404 HIT:    1218386 MISS:         18 MSHR_MERGE:          0
cpu0->cpu0_L2C TRANSLATION  ACCESS:     724429 HIT:     493931 MISS:     230498 MSHR_MERGE:          0
cpu0->cpu0_L2C PREFETCH REQUESTED:    5533441 ISSUED:    5526460 USEFUL:      29072 USELESS:       6530
cpu0->cpu0_L2C AVERAGE MISS LATENCY: 191.4 cycles
cpu0->cpu0_L1I TOTAL        ACCESS:   17259591 HIT:   13507439 MISS:    3752152 MSHR_MERGE:     830223
cpu0->cpu0_L1I LOAD         ACCESS:   17259591 HIT:   13507439 MISS:    3752152 MSHR_MERGE:     830223
cpu0->cpu0_L1I RFO          ACCESS:          0 HIT:          0 MISS:          0 MSHR_MERGE:          0
cpu0->cpu0_L1I PREFETCH     ACCESS:          0 HIT:          0 MISS:          0 MSHR_MERGE:          0
cpu0->cpu0_L1I WRITE        ACCESS:          0 HIT:          0 MISS:          0 MSHR_MERGE:          0
cpu0->cpu0_L1I TRANSLATION  ACCESS:          0 HIT:          0 MISS:          0 MSHR_MERGE:          0
cpu0->cpu0_L1I PREFETCH REQUESTED:          0 ISSUED:          0 USEFUL:          0 USELESS:          0
cpu0->cpu0_L1I AVERAGE MISS LATENCY: 25.56 cycles
cpu0->cpu0_L1D TOTAL        ACCESS:   62132027 HIT:   55263333 MISS:    6868694 MSHR_MERGE:    2898487
cpu0->cpu0_L1D LOAD         ACCESS:   32273260 HIT:   30029046 MISS:    2244214 MSHR_MERGE:     611509
cpu0->cpu0_L1D RFO          ACCESS:          0 HIT:          0 MISS:          0 MSHR_MERGE:          0
cpu0->cpu0_L1D PREFETCH     ACCESS:    1956894 HIT:    1019156 MISS:     937738 MSHR_MERGE:      42713
cpu0->cpu0_L1D WRITE        ACCESS:   26208567 HIT:   23251629 MISS:    2956938 MSHR_MERGE:    2238890
cpu0->cpu0_L1D TRANSLATION  ACCESS:    1693306 HIT:     963502 MISS:     729804 MSHR_MERGE:       5375
cpu0->cpu0_L1D PREFETCH REQUESTED:    1977371 ISSUED:    1956893 USEFUL:     347444 USELESS:     547540
cpu0->cpu0_L1D AVERAGE MISS LATENCY: 102.8 cycles
cpu0->cpu0_ITLB TOTAL        ACCESS:   14579061 HIT:   14094694 MISS:     484367 MSHR_MERGE:     228580
cpu0->cpu0_ITLB LOAD         ACCESS:   14579061 HIT:   14094694 MISS:     484367 MSHR_MERGE:     228580
cpu0->cpu0_ITLB RFO          ACCESS:          0 HIT:          0 MISS:          0 MSHR_MERGE:          0
cpu0->cpu0_ITLB PREFETCH     ACCESS:          0 HIT:          0 MISS:          0 MSHR_MERGE:          0
cpu0->cpu0_ITLB WRITE        ACCESS:          0 HIT:          0 MISS:          0 MSHR_MERGE:          0
cpu0->cpu0_ITLB TRANSLATION  ACCESS:          0 HIT:          0 MISS:          0 MSHR_MERGE:          0
cpu0->cpu0_ITLB PREFETCH REQUESTED:          0 ISSUED:          0 USEFUL:          0 USELESS:          0
cpu0->cpu0_ITLB AVERAGE MISS LATENCY: 21.74 cycles
cpu0->cpu0_DTLB TOTAL        ACCESS:   57451156 HIT:   53408847 MISS:    4042309 MSHR_MERGE:    1838428
cpu0->cpu0_DTLB LOAD         ACCESS:   57451156 HIT:   53408847 MISS:    4042309 MSHR_MERGE:    1838428
cpu0->cpu0_DTLB RFO          ACCESS:          0 HIT:          0 MISS:          0 MSHR_MERGE:          0
cpu0->cpu0_DTLB PREFETCH     ACCESS:          0 HIT:          0 MISS:          0 MSHR_MERGE:          0
cpu0->cpu0_DTLB WRITE        ACCESS:          0 HIT:          0 MISS:          0 MSHR_MERGE:          0
cpu0->cpu0_DTLB TRANSLATION  ACCESS:          0 HIT:          0 MISS:          0 MSHR_MERGE:          0
cpu0->cpu0_DTLB PREFETCH REQUESTED:          0 ISSUED:          0 USEFUL:          0 USELESS:          0
cpu0->cpu0_DTLB AVERAGE MISS LATENCY: 43.08 cycles
cpu0->LLC TOTAL        ACCESS:    6269961 HIT:    2099144 MISS:    4170817 MSHR_MERGE:     233303
cpu0->LLC LOAD         ACCESS:    1044814 HIT:     403802 MISS:     641012 MSHR_MERGE:      42660
cpu0->LLC RFO          ACCESS:     514322 HIT:      41710 MISS:     472612 MSHR_MERGE:       4628
cpu0->LLC PREFETCH     ACCESS:    3666486 HIT:    1466067 MISS:    2200419 MSHR_MERGE:     186015
cpu0->LLC WRITE        ACCESS:     813841 HIT:     182134 MISS:     631707 MSHR_MERGE:          0
cpu0->LLC TRANSLATION  ACCESS:     230498 HIT:       5431 MISS:     225067 MSHR_MERGE:          0
cpu0->LLC PREFETCH REQUESTED:    1552435 ISSUED:    1531003 USEFUL:      98661 USELESS:     812252
cpu0->LLC AVERAGE MISS LATENCY: 158.6 cycles

DRAM Statistics

Channel 0 RQ ROW_BUFFER_HIT:      29557
  ROW_BUFFER_MISS:    3276220
  AVG DBUS CONGESTED CYCLE: 23.38
Channel 0 WQ ROW_BUFFER_HIT:     209515
  ROW_BUFFER_MISS:     568907
  FULL:          0
Channel 0 REFRESHES ISSUED:      28001
