[VMEM] WARNING: physical memory size is smaller than virtual memory size.

*** ChampSim Multicore Out-of-Order Simulator ***
Warmup Instructions: 50000000
Simulation Instructions: 200000000
Number of CPUs: 1
Page size: 4096
Core 0: /local-ssd/ben/dpc4-traces/SPEC17/654.roms_s-523B.champsimtrace.xz
Initialize SIGNATURE TABLE
ST_SET: 1
ST_WAY: 256
ST_TAG_BIT: 16

Initialize PATTERN TABLE
PT_SET: 512
PT_WAY: 4
SIG_DELTA_BIT: 7
C_SIG_BIT: 4
C_DELTA_BIT: 4

Initialize PREFETCH FILTER
FILTER_SET: 1024
 L1D Berti prefetcher
Off-chip DRAM Size: 64 GiB Channels: 1 Width: 64-bit Data Rate: 4807 MT/s
Heartbeat CPU 0 instructions: 500002 cycles: 126363 heartbeat IPC: 3.957 cumulative IPC: 3.957 (Simulation time: 00 hr 00 min 05 sec)
Heartbeat CPU 0 instructions: 1000008 cycles: 251838 heartbeat IPC: 3.985 cumulative IPC: 3.971 (Simulation time: 00 hr 00 min 09 sec)
Heartbeat CPU 0 instructions: 1500008 cycles: 374913 heartbeat IPC: 4.063 cumulative IPC: 4.001 (Simulation time: 00 hr 00 min 13 sec)
Heartbeat CPU 0 instructions: 2000008 cycles: 500044 heartbeat IPC: 3.996 cumulative IPC: 4 (Simulation time: 00 hr 00 min 17 sec)
Heartbeat CPU 0 instructions: 2500014 cycles: 624069 heartbeat IPC: 4.031 cumulative IPC: 4.006 (Simulation time: 00 hr 00 min 20 sec)
Heartbeat CPU 0 instructions: 3000019 cycles: 748369 heartbeat IPC: 4.023 cumulative IPC: 4.009 (Simulation time: 00 hr 00 min 24 sec)
Heartbeat CPU 0 instructions: 3500020 cycles: 872799 heartbeat IPC: 4.018 cumulative IPC: 4.01 (Simulation time: 00 hr 00 min 28 sec)
Heartbeat CPU 0 instructions: 4000024 cycles: 998904 heartbeat IPC: 3.965 cumulative IPC: 4.004 (Simulation time: 00 hr 00 min 31 sec)
Heartbeat CPU 0 instructions: 4500025 cycles: 1105234 heartbeat IPC: 4.702 cumulative IPC: 4.072 (Simulation time: 00 hr 00 min 33 sec)
Heartbeat CPU 0 instructions: 5000025 cycles: 1210539 heartbeat IPC: 4.748 cumulative IPC: 4.13 (Simulation time: 00 hr 00 min 35 sec)
Heartbeat CPU 0 instructions: 5500028 cycles: 1316099 heartbeat IPC: 4.737 cumulative IPC: 4.179 (Simulation time: 00 hr 00 min 36 sec)
Heartbeat CPU 0 instructions: 6000035 cycles: 1421207 heartbeat IPC: 4.757 cumulative IPC: 4.222 (Simulation time: 00 hr 00 min 38 sec)
Heartbeat CPU 0 instructions: 6500035 cycles: 1526992 heartbeat IPC: 4.727 cumulative IPC: 4.257 (Simulation time: 00 hr 00 min 39 sec)
Heartbeat CPU 0 instructions: 7000039 cycles: 1632788 heartbeat IPC: 4.726 cumulative IPC: 4.287 (Simulation time: 00 hr 00 min 41 sec)
Heartbeat CPU 0 instructions: 7500041 cycles: 1737974 heartbeat IPC: 4.754 cumulative IPC: 4.315 (Simulation time: 00 hr 00 min 42 sec)
Heartbeat CPU 0 instructions: 8000047 cycles: 1843628 heartbeat IPC: 4.732 cumulative IPC: 4.339 (Simulation time: 00 hr 00 min 44 sec)
Heartbeat CPU 0 instructions: 8500048 cycles: 1946619 heartbeat IPC: 4.855 cumulative IPC: 4.367 (Simulation time: 00 hr 00 min 46 sec)
Heartbeat CPU 0 instructions: 9000052 cycles: 2046618 heartbeat IPC: 5 cumulative IPC: 4.398 (Simulation time: 00 hr 00 min 47 sec)
Heartbeat CPU 0 instructions: 9500055 cycles: 2146650 heartbeat IPC: 4.998 cumulative IPC: 4.426 (Simulation time: 00 hr 00 min 48 sec)
Heartbeat CPU 0 instructions: 10000059 cycles: 2246654 heartbeat IPC: 5 cumulative IPC: 4.451 (Simulation time: 00 hr 00 min 50 sec)
Heartbeat CPU 0 instructions: 10500059 cycles: 2346652 heartbeat IPC: 5 cumulative IPC: 4.474 (Simulation time: 00 hr 00 min 51 sec)
Heartbeat CPU 0 instructions: 11000060 cycles: 2446653 heartbeat IPC: 5 cumulative IPC: 4.496 (Simulation time: 00 hr 00 min 53 sec)
Heartbeat CPU 0 instructions: 11500061 cycles: 2546653 heartbeat IPC: 5 cumulative IPC: 4.516 (Simulation time: 00 hr 00 min 54 sec)
Heartbeat CPU 0 instructions: 12000061 cycles: 2646704 heartbeat IPC: 4.997 cumulative IPC: 4.534 (Simulation time: 00 hr 00 min 55 sec)
Heartbeat CPU 0 instructions: 12500068 cycles: 2746715 heartbeat IPC: 5 cumulative IPC: 4.551 (Simulation time: 00 hr 00 min 57 sec)
Heartbeat CPU 0 instructions: 13000071 cycles: 2846717 heartbeat IPC: 5 cumulative IPC: 4.567 (Simulation time: 00 hr 00 min 58 sec)
Heartbeat CPU 0 instructions: 13500071 cycles: 2946715 heartbeat IPC: 5 cumulative IPC: 4.581 (Simulation time: 00 hr 01 min 00 sec)
Heartbeat CPU 0 instructions: 14000076 cycles: 3046802 heartbeat IPC: 4.996 cumulative IPC: 4.595 (Simulation time: 00 hr 01 min 01 sec)
Heartbeat CPU 0 instructions: 14500081 cycles: 3146802 heartbeat IPC: 5 cumulative IPC: 4.608 (Simulation time: 00 hr 01 min 02 sec)
Heartbeat CPU 0 instructions: 15000082 cycles: 3246803 heartbeat IPC: 5 cumulative IPC: 4.62 (Simulation time: 00 hr 01 min 04 sec)
Heartbeat CPU 0 instructions: 15500085 cycles: 3346803 heartbeat IPC: 5 cumulative IPC: 4.631 (Simulation time: 00 hr 01 min 05 sec)
Heartbeat CPU 0 instructions: 16000091 cycles: 3446805 heartbeat IPC: 5 cumulative IPC: 4.642 (Simulation time: 00 hr 01 min 07 sec)
Heartbeat CPU 0 instructions: 16500093 cycles: 3546836 heartbeat IPC: 4.998 cumulative IPC: 4.652 (Simulation time: 00 hr 01 min 08 sec)
Heartbeat CPU 0 instructions: 17000094 cycles: 3646839 heartbeat IPC: 5 cumulative IPC: 4.662 (Simulation time: 00 hr 01 min 10 sec)
Heartbeat CPU 0 instructions: 17500098 cycles: 3746837 heartbeat IPC: 5 cumulative IPC: 4.671 (Simulation time: 00 hr 01 min 11 sec)
Heartbeat CPU 0 instructions: 18000101 cycles: 3851773 heartbeat IPC: 4.765 cumulative IPC: 4.673 (Simulation time: 00 hr 01 min 13 sec)
Heartbeat CPU 0 instructions: 18500101 cycles: 3993443 heartbeat IPC: 3.529 cumulative IPC: 4.633 (Simulation time: 00 hr 01 min 15 sec)
Heartbeat CPU 0 instructions: 19000102 cycles: 4134358 heartbeat IPC: 3.548 cumulative IPC: 4.596 (Simulation time: 00 hr 01 min 18 sec)
Heartbeat CPU 0 instructions: 19500104 cycles: 4275271 heartbeat IPC: 3.548 cumulative IPC: 4.561 (Simulation time: 00 hr 01 min 21 sec)
Heartbeat CPU 0 instructions: 20000105 cycles: 4416026 heartbeat IPC: 3.552 cumulative IPC: 4.529 (Simulation time: 00 hr 01 min 24 sec)
Heartbeat CPU 0 instructions: 20500105 cycles: 4556444 heartbeat IPC: 3.561 cumulative IPC: 4.499 (Simulation time: 00 hr 01 min 26 sec)
Heartbeat CPU 0 instructions: 21000109 cycles: 4693041 heartbeat IPC: 3.66 cumulative IPC: 4.475 (Simulation time: 00 hr 01 min 29 sec)
Heartbeat CPU 0 instructions: 21500109 cycles: 4822449 heartbeat IPC: 3.864 cumulative IPC: 4.458 (Simulation time: 00 hr 01 min 32 sec)
Heartbeat CPU 0 instructions: 22000113 cycles: 4952209 heartbeat IPC: 3.853 cumulative IPC: 4.442 (Simulation time: 00 hr 01 min 34 sec)
Heartbeat CPU 0 instructions: 22500113 cycles: 5081755 heartbeat IPC: 3.86 cumulative IPC: 4.428 (Simulation time: 00 hr 01 min 37 sec)
Heartbeat CPU 0 instructions: 23000116 cycles: 5212006 heartbeat IPC: 3.839 cumulative IPC: 4.413 (Simulation time: 00 hr 01 min 40 sec)
Heartbeat CPU 0 instructions: 23500123 cycles: 5341923 heartbeat IPC: 3.849 cumulative IPC: 4.399 (Simulation time: 00 hr 01 min 42 sec)
Heartbeat CPU 0 instructions: 24000130 cycles: 5471660 heartbeat IPC: 3.854 cumulative IPC: 4.386 (Simulation time: 00 hr 01 min 45 sec)
Heartbeat CPU 0 instructions: 24500133 cycles: 5600881 heartbeat IPC: 3.869 cumulative IPC: 4.374 (Simulation time: 00 hr 01 min 48 sec)
Heartbeat CPU 0 instructions: 25000139 cycles: 5731015 heartbeat IPC: 3.842 cumulative IPC: 4.362 (Simulation time: 00 hr 01 min 50 sec)
Heartbeat CPU 0 instructions: 25500145 cycles: 5859957 heartbeat IPC: 3.878 cumulative IPC: 4.352 (Simulation time: 00 hr 01 min 53 sec)
Heartbeat CPU 0 instructions: 26000150 cycles: 5988562 heartbeat IPC: 3.888 cumulative IPC: 4.342 (Simulation time: 00 hr 01 min 56 sec)
Heartbeat CPU 0 instructions: 26500157 cycles: 6118052 heartbeat IPC: 3.861 cumulative IPC: 4.331 (Simulation time: 00 hr 01 min 58 sec)
Heartbeat CPU 0 instructions: 27000162 cycles: 6247143 heartbeat IPC: 3.873 cumulative IPC: 4.322 (Simulation time: 00 hr 02 min 01 sec)
Heartbeat CPU 0 instructions: 27500169 cycles: 6376133 heartbeat IPC: 3.876 cumulative IPC: 4.313 (Simulation time: 00 hr 02 min 04 sec)
Heartbeat CPU 0 instructions: 28000170 cycles: 6505753 heartbeat IPC: 3.857 cumulative IPC: 4.304 (Simulation time: 00 hr 02 min 07 sec)
Heartbeat CPU 0 instructions: 28500171 cycles: 6634409 heartbeat IPC: 3.886 cumulative IPC: 4.296 (Simulation time: 00 hr 02 min 09 sec)
Heartbeat CPU 0 instructions: 29000171 cycles: 6763888 heartbeat IPC: 3.862 cumulative IPC: 4.288 (Simulation time: 00 hr 02 min 12 sec)
Heartbeat CPU 0 instructions: 29500171 cycles: 6894042 heartbeat IPC: 3.842 cumulative IPC: 4.279 (Simulation time: 00 hr 02 min 15 sec)
Heartbeat CPU 0 instructions: 30000175 cycles: 7022146 heartbeat IPC: 3.903 cumulative IPC: 4.272 (Simulation time: 00 hr 02 min 17 sec)
Heartbeat CPU 0 instructions: 30500176 cycles: 7151424 heartbeat IPC: 3.868 cumulative IPC: 4.265 (Simulation time: 00 hr 02 min 20 sec)
Heartbeat CPU 0 instructions: 31000178 cycles: 7280725 heartbeat IPC: 3.867 cumulative IPC: 4.258 (Simulation time: 00 hr 02 min 23 sec)
Heartbeat CPU 0 instructions: 31500182 cycles: 7409247 heartbeat IPC: 3.89 cumulative IPC: 4.251 (Simulation time: 00 hr 02 min 25 sec)
Heartbeat CPU 0 instructions: 32000183 cycles: 7538268 heartbeat IPC: 3.875 cumulative IPC: 4.245 (Simulation time: 00 hr 02 min 28 sec)
Heartbeat CPU 0 instructions: 32500184 cycles: 7666079 heartbeat IPC: 3.912 cumulative IPC: 4.239 (Simulation time: 00 hr 02 min 30 sec)
Heartbeat CPU 0 instructions: 33000184 cycles: 7792684 heartbeat IPC: 3.949 cumulative IPC: 4.235 (Simulation time: 00 hr 02 min 33 sec)
Heartbeat CPU 0 instructions: 33500186 cycles: 7919204 heartbeat IPC: 3.952 cumulative IPC: 4.23 (Simulation time: 00 hr 02 min 35 sec)
Heartbeat CPU 0 instructions: 34000190 cycles: 8046109 heartbeat IPC: 3.94 cumulative IPC: 4.226 (Simulation time: 00 hr 02 min 37 sec)
Heartbeat CPU 0 instructions: 34500194 cycles: 8172317 heartbeat IPC: 3.962 cumulative IPC: 4.222 (Simulation time: 00 hr 02 min 39 sec)
Heartbeat CPU 0 instructions: 35000197 cycles: 8292220 heartbeat IPC: 4.17 cumulative IPC: 4.221 (Simulation time: 00 hr 02 min 41 sec)
Heartbeat CPU 0 instructions: 35500200 cycles: 8411844 heartbeat IPC: 4.18 cumulative IPC: 4.22 (Simulation time: 00 hr 02 min 43 sec)
Heartbeat CPU 0 instructions: 36000202 cycles: 8531418 heartbeat IPC: 4.182 cumulative IPC: 4.22 (Simulation time: 00 hr 02 min 45 sec)
Heartbeat CPU 0 instructions: 36500203 cycles: 8651458 heartbeat IPC: 4.165 cumulative IPC: 4.219 (Simulation time: 00 hr 02 min 47 sec)
Heartbeat CPU 0 instructions: 37000207 cycles: 8770945 heartbeat IPC: 4.185 cumulative IPC: 4.218 (Simulation time: 00 hr 02 min 49 sec)
Heartbeat CPU 0 instructions: 37500211 cycles: 8897146 heartbeat IPC: 3.962 cumulative IPC: 4.215 (Simulation time: 00 hr 02 min 51 sec)
Heartbeat CPU 0 instructions: 38000212 cycles: 9021696 heartbeat IPC: 4.014 cumulative IPC: 4.212 (Simulation time: 00 hr 02 min 53 sec)
Heartbeat CPU 0 instructions: 38500213 cycles: 9149648 heartbeat IPC: 3.908 cumulative IPC: 4.208 (Simulation time: 00 hr 02 min 56 sec)
Heartbeat CPU 0 instructions: 39000214 cycles: 9277888 heartbeat IPC: 3.899 cumulative IPC: 4.204 (Simulation time: 00 hr 02 min 58 sec)
Heartbeat CPU 0 instructions: 39500218 cycles: 9402680 heartbeat IPC: 4.007 cumulative IPC: 4.201 (Simulation time: 00 hr 03 min 00 sec)
Heartbeat CPU 0 instructions: 40000218 cycles: 9530508 heartbeat IPC: 3.912 cumulative IPC: 4.197 (Simulation time: 00 hr 03 min 02 sec)
Heartbeat CPU 0 instructions: 40500219 cycles: 9658653 heartbeat IPC: 3.902 cumulative IPC: 4.193 (Simulation time: 00 hr 03 min 05 sec)
Heartbeat CPU 0 instructions: 41000226 cycles: 9783585 heartbeat IPC: 4.002 cumulative IPC: 4.191 (Simulation time: 00 hr 03 min 07 sec)
Heartbeat CPU 0 instructions: 41500230 cycles: 9910911 heartbeat IPC: 3.927 cumulative IPC: 4.187 (Simulation time: 00 hr 03 min 09 sec)
Heartbeat CPU 0 instructions: 42000232 cycles: 10031844 heartbeat IPC: 4.135 cumulative IPC: 4.187 (Simulation time: 00 hr 03 min 11 sec)
Heartbeat CPU 0 instructions: 42500238 cycles: 10151650 heartbeat IPC: 4.173 cumulative IPC: 4.187 (Simulation time: 00 hr 03 min 14 sec)
Heartbeat CPU 0 instructions: 43000245 cycles: 10271515 heartbeat IPC: 4.171 cumulative IPC: 4.186 (Simulation time: 00 hr 03 min 16 sec)
Heartbeat CPU 0 instructions: 43500252 cycles: 10391415 heartbeat IPC: 4.17 cumulative IPC: 4.186 (Simulation time: 00 hr 03 min 19 sec)
Heartbeat CPU 0 instructions: 44000259 cycles: 10510567 heartbeat IPC: 4.196 cumulative IPC: 4.186 (Simulation time: 00 hr 03 min 22 sec)
Heartbeat CPU 0 instructions: 44500264 cycles: 10627332 heartbeat IPC: 4.282 cumulative IPC: 4.187 (Simulation time: 00 hr 03 min 24 sec)
Heartbeat CPU 0 instructions: 45000270 cycles: 10744135 heartbeat IPC: 4.281 cumulative IPC: 4.188 (Simulation time: 00 hr 03 min 26 sec)
Heartbeat CPU 0 instructions: 45500271 cycles: 10860887 heartbeat IPC: 4.283 cumulative IPC: 4.189 (Simulation time: 00 hr 03 min 29 sec)
Heartbeat CPU 0 instructions: 46000271 cycles: 10977624 heartbeat IPC: 4.283 cumulative IPC: 4.19 (Simulation time: 00 hr 03 min 31 sec)
Heartbeat CPU 0 instructions: 46500271 cycles: 11094313 heartbeat IPC: 4.285 cumulative IPC: 4.191 (Simulation time: 00 hr 03 min 34 sec)
Heartbeat CPU 0 instructions: 47000271 cycles: 11211182 heartbeat IPC: 4.278 cumulative IPC: 4.192 (Simulation time: 00 hr 03 min 36 sec)
Heartbeat CPU 0 instructions: 47500276 cycles: 11327926 heartbeat IPC: 4.283 cumulative IPC: 4.193 (Simulation time: 00 hr 03 min 39 sec)
Heartbeat CPU 0 instructions: 48000276 cycles: 11444692 heartbeat IPC: 4.282 cumulative IPC: 4.194 (Simulation time: 00 hr 03 min 41 sec)
Heartbeat CPU 0 instructions: 48500280 cycles: 11563457 heartbeat IPC: 4.21 cumulative IPC: 4.194 (Simulation time: 00 hr 03 min 44 sec)
Heartbeat CPU 0 instructions: 49000287 cycles: 11683378 heartbeat IPC: 4.169 cumulative IPC: 4.194 (Simulation time: 00 hr 03 min 46 sec)
Heartbeat CPU 0 instructions: 49500291 cycles: 11803275 heartbeat IPC: 4.17 cumulative IPC: 4.194 (Simulation time: 00 hr 03 min 49 sec)
Warmup finished CPU 0 instructions: 50000004 cycles: 11922957 cumulative IPC: 4.194 (Simulation time: 00 hr 03 min 51 sec)
Warmup complete CPU 0 instructions: 50000004 cycles: 11922957 cumulative IPC: 4.194 (Simulation time: 00 hr 03 min 51 sec)
Heartbeat CPU 0 instructions: 50000292 cycles: 11922993 heartbeat IPC: 4.176 cumulative IPC: 8 (Simulation time: 00 hr 03 min 51 sec)
Heartbeat CPU 0 instructions: 50500294 cycles: 12182015 heartbeat IPC: 1.93 cumulative IPC: 1.931 (Simulation time: 00 hr 03 min 56 sec)
Heartbeat CPU 0 instructions: 51000294 cycles: 12496516 heartbeat IPC: 1.59 cumulative IPC: 1.744 (Simulation time: 00 hr 04 min 01 sec)
Heartbeat CPU 0 instructions: 51500294 cycles: 12810790 heartbeat IPC: 1.591 cumulative IPC: 1.69 (Simulation time: 00 hr 04 min 06 sec)
Heartbeat CPU 0 instructions: 52000297 cycles: 13137645 heartbeat IPC: 1.53 cumulative IPC: 1.647 (Simulation time: 00 hr 04 min 11 sec)
Heartbeat CPU 0 instructions: 52500303 cycles: 13475608 heartbeat IPC: 1.479 cumulative IPC: 1.61 (Simulation time: 00 hr 04 min 16 sec)
Heartbeat CPU 0 instructions: 53000306 cycles: 13806846 heartbeat IPC: 1.509 cumulative IPC: 1.593 (Simulation time: 00 hr 04 min 21 sec)
Heartbeat CPU 0 instructions: 53500306 cycles: 14195796 heartbeat IPC: 1.286 cumulative IPC: 1.54 (Simulation time: 00 hr 04 min 27 sec)
Heartbeat CPU 0 instructions: 54000307 cycles: 14624270 heartbeat IPC: 1.167 cumulative IPC: 1.481 (Simulation time: 00 hr 04 min 34 sec)
Heartbeat CPU 0 instructions: 54500307 cycles: 15055012 heartbeat IPC: 1.161 cumulative IPC: 1.437 (Simulation time: 00 hr 04 min 40 sec)
Heartbeat CPU 0 instructions: 55000310 cycles: 15484265 heartbeat IPC: 1.165 cumulative IPC: 1.404 (Simulation time: 00 hr 04 min 47 sec)
Heartbeat CPU 0 instructions: 55500314 cycles: 15850649 heartbeat IPC: 1.365 cumulative IPC: 1.4 (Simulation time: 00 hr 04 min 53 sec)
Heartbeat CPU 0 instructions: 56000316 cycles: 16152831 heartbeat IPC: 1.655 cumulative IPC: 1.419 (Simulation time: 00 hr 04 min 58 sec)
Heartbeat CPU 0 instructions: 56500316 cycles: 16460574 heartbeat IPC: 1.625 cumulative IPC: 1.433 (Simulation time: 00 hr 05 min 04 sec)
Heartbeat CPU 0 instructions: 57000320 cycles: 16775276 heartbeat IPC: 1.589 cumulative IPC: 1.443 (Simulation time: 00 hr 05 min 10 sec)
Heartbeat CPU 0 instructions: 57500326 cycles: 17074009 heartbeat IPC: 1.674 cumulative IPC: 1.456 (Simulation time: 00 hr 05 min 15 sec)
Heartbeat CPU 0 instructions: 58000327 cycles: 17359554 heartbeat IPC: 1.751 cumulative IPC: 1.472 (Simulation time: 00 hr 05 min 20 sec)
Heartbeat CPU 0 instructions: 58500330 cycles: 17624976 heartbeat IPC: 1.884 cumulative IPC: 1.491 (Simulation time: 00 hr 05 min 25 sec)
Heartbeat CPU 0 instructions: 59000334 cycles: 17885762 heartbeat IPC: 1.917 cumulative IPC: 1.509 (Simulation time: 00 hr 05 min 29 sec)
Heartbeat CPU 0 instructions: 59500338 cycles: 18139183 heartbeat IPC: 1.973 cumulative IPC: 1.528 (Simulation time: 00 hr 05 min 34 sec)
Heartbeat CPU 0 instructions: 60000342 cycles: 18392066 heartbeat IPC: 1.977 cumulative IPC: 1.546 (Simulation time: 00 hr 05 min 39 sec)
Heartbeat CPU 0 instructions: 60500345 cycles: 18641471 heartbeat IPC: 2.005 cumulative IPC: 1.563 (Simulation time: 00 hr 05 min 43 sec)
Heartbeat CPU 0 instructions: 61000348 cycles: 18892114 heartbeat IPC: 1.995 cumulative IPC: 1.578 (Simulation time: 00 hr 05 min 48 sec)
Heartbeat CPU 0 instructions: 61500352 cycles: 19137187 heartbeat IPC: 2.04 cumulative IPC: 1.594 (Simulation time: 00 hr 05 min 52 sec)
Heartbeat CPU 0 instructions: 62000352 cycles: 19388328 heartbeat IPC: 1.991 cumulative IPC: 1.607 (Simulation time: 00 hr 05 min 56 sec)
Heartbeat CPU 0 instructions: 62500352 cycles: 19639265 heartbeat IPC: 1.993 cumulative IPC: 1.62 (Simulation time: 00 hr 06 min 01 sec)
Heartbeat CPU 0 instructions: 63000356 cycles: 19889181 heartbeat IPC: 2.001 cumulative IPC: 1.632 (Simulation time: 00 hr 06 min 05 sec)
Heartbeat CPU 0 instructions: 63500356 cycles: 20132189 heartbeat IPC: 2.058 cumulative IPC: 1.645 (Simulation time: 00 hr 06 min 10 sec)
Heartbeat CPU 0 instructions: 64000356 cycles: 20377311 heartbeat IPC: 2.04 cumulative IPC: 1.656 (Simulation time: 00 hr 06 min 14 sec)
Heartbeat CPU 0 instructions: 64500356 cycles: 20646920 heartbeat IPC: 1.855 cumulative IPC: 1.662 (Simulation time: 00 hr 06 min 19 sec)
Heartbeat CPU 0 instructions: 65000359 cycles: 20956089 heartbeat IPC: 1.617 cumulative IPC: 1.661 (Simulation time: 00 hr 06 min 23 sec)
Heartbeat CPU 0 instructions: 65500359 cycles: 21260331 heartbeat IPC: 1.643 cumulative IPC: 1.66 (Simulation time: 00 hr 06 min 28 sec)
Heartbeat CPU 0 instructions: 66000362 cycles: 21594265 heartbeat IPC: 1.497 cumulative IPC: 1.654 (Simulation time: 00 hr 06 min 33 sec)
Heartbeat CPU 0 instructions: 66500366 cycles: 21958352 heartbeat IPC: 1.373 cumulative IPC: 1.644 (Simulation time: 00 hr 06 min 39 sec)
Heartbeat CPU 0 instructions: 67000373 cycles: 22336780 heartbeat IPC: 1.321 cumulative IPC: 1.632 (Simulation time: 00 hr 06 min 44 sec)
Heartbeat CPU 0 instructions: 67500375 cycles: 22709881 heartbeat IPC: 1.34 cumulative IPC: 1.622 (Simulation time: 00 hr 06 min 50 sec)
Heartbeat CPU 0 instructions: 68000377 cycles: 23083657 heartbeat IPC: 1.338 cumulative IPC: 1.613 (Simulation time: 00 hr 06 min 55 sec)
Heartbeat CPU 0 instructions: 68500378 cycles: 23470202 heartbeat IPC: 1.294 cumulative IPC: 1.602 (Simulation time: 00 hr 07 min 01 sec)
Heartbeat CPU 0 instructions: 69000385 cycles: 23844438 heartbeat IPC: 1.336 cumulative IPC: 1.594 (Simulation time: 00 hr 07 min 07 sec)
Heartbeat CPU 0 instructions: 69500392 cycles: 24224464 heartbeat IPC: 1.316 cumulative IPC: 1.585 (Simulation time: 00 hr 07 min 13 sec)
Heartbeat CPU 0 instructions: 70000392 cycles: 24502388 heartbeat IPC: 1.799 cumulative IPC: 1.59 (Simulation time: 00 hr 07 min 17 sec)
Heartbeat CPU 0 instructions: 70500395 cycles: 24801095 heartbeat IPC: 1.674 cumulative IPC: 1.592 (Simulation time: 00 hr 07 min 23 sec)
Heartbeat CPU 0 instructions: 71000401 cycles: 25102706 heartbeat IPC: 1.658 cumulative IPC: 1.593 (Simulation time: 00 hr 07 min 28 sec)
Heartbeat CPU 0 instructions: 71500404 cycles: 25397101 heartbeat IPC: 1.698 cumulative IPC: 1.596 (Simulation time: 00 hr 07 min 33 sec)
Heartbeat CPU 0 instructions: 72000404 cycles: 25679701 heartbeat IPC: 1.769 cumulative IPC: 1.599 (Simulation time: 00 hr 07 min 38 sec)
Heartbeat CPU 0 instructions: 72500408 cycles: 25963272 heartbeat IPC: 1.763 cumulative IPC: 1.603 (Simulation time: 00 hr 07 min 42 sec)
Heartbeat CPU 0 instructions: 73000411 cycles: 26221403 heartbeat IPC: 1.937 cumulative IPC: 1.609 (Simulation time: 00 hr 07 min 47 sec)
Heartbeat CPU 0 instructions: 73500413 cycles: 26479191 heartbeat IPC: 1.94 cumulative IPC: 1.614 (Simulation time: 00 hr 07 min 51 sec)
Heartbeat CPU 0 instructions: 74000415 cycles: 26736374 heartbeat IPC: 1.944 cumulative IPC: 1.62 (Simulation time: 00 hr 07 min 55 sec)
Heartbeat CPU 0 instructions: 74500417 cycles: 26981683 heartbeat IPC: 2.038 cumulative IPC: 1.627 (Simulation time: 00 hr 07 min 59 sec)
Heartbeat CPU 0 instructions: 75000419 cycles: 27239386 heartbeat IPC: 1.94 cumulative IPC: 1.632 (Simulation time: 00 hr 08 min 04 sec)
Heartbeat CPU 0 instructions: 75500425 cycles: 27486110 heartbeat IPC: 2.027 cumulative IPC: 1.639 (Simulation time: 00 hr 08 min 08 sec)
Heartbeat CPU 0 instructions: 76000429 cycles: 27732417 heartbeat IPC: 2.03 cumulative IPC: 1.645 (Simulation time: 00 hr 08 min 12 sec)
Heartbeat CPU 0 instructions: 76500429 cycles: 27968708 heartbeat IPC: 2.116 cumulative IPC: 1.652 (Simulation time: 00 hr 08 min 16 sec)
Heartbeat CPU 0 instructions: 77000429 cycles: 28201020 heartbeat IPC: 2.152 cumulative IPC: 1.659 (Simulation time: 00 hr 08 min 20 sec)
Heartbeat CPU 0 instructions: 77500435 cycles: 28433721 heartbeat IPC: 2.149 cumulative IPC: 1.666 (Simulation time: 00 hr 08 min 24 sec)
Heartbeat CPU 0 instructions: 78000435 cycles: 28667413 heartbeat IPC: 2.14 cumulative IPC: 1.672 (Simulation time: 00 hr 08 min 28 sec)
Heartbeat CPU 0 instructions: 78500438 cycles: 28901485 heartbeat IPC: 2.136 cumulative IPC: 1.679 (Simulation time: 00 hr 08 min 32 sec)
Heartbeat CPU 0 instructions: 79000443 cycles: 29155301 heartbeat IPC: 1.97 cumulative IPC: 1.683 (Simulation time: 00 hr 08 min 36 sec)
Heartbeat CPU 0 instructions: 79500447 cycles: 29407007 heartbeat IPC: 1.986 cumulative IPC: 1.687 (Simulation time: 00 hr 08 min 40 sec)
Heartbeat CPU 0 instructions: 80000453 cycles: 29669225 heartbeat IPC: 1.907 cumulative IPC: 1.691 (Simulation time: 00 hr 08 min 45 sec)
Heartbeat CPU 0 instructions: 80500453 cycles: 29957160 heartbeat IPC: 1.737 cumulative IPC: 1.691 (Simulation time: 00 hr 08 min 49 sec)
Heartbeat CPU 0 instructions: 81000453 cycles: 30261852 heartbeat IPC: 1.641 cumulative IPC: 1.69 (Simulation time: 00 hr 08 min 54 sec)
Heartbeat CPU 0 instructions: 81500453 cycles: 30575054 heartbeat IPC: 1.596 cumulative IPC: 1.689 (Simulation time: 00 hr 08 min 59 sec)
Heartbeat CPU 0 instructions: 82000459 cycles: 30908772 heartbeat IPC: 1.498 cumulative IPC: 1.685 (Simulation time: 00 hr 09 min 05 sec)
Heartbeat CPU 0 instructions: 82500463 cycles: 31243834 heartbeat IPC: 1.492 cumulative IPC: 1.682 (Simulation time: 00 hr 09 min 10 sec)
Heartbeat CPU 0 instructions: 83000465 cycles: 31583031 heartbeat IPC: 1.474 cumulative IPC: 1.679 (Simulation time: 00 hr 09 min 15 sec)
Heartbeat CPU 0 instructions: 83500467 cycles: 31927046 heartbeat IPC: 1.453 cumulative IPC: 1.675 (Simulation time: 00 hr 09 min 21 sec)
Heartbeat CPU 0 instructions: 84000467 cycles: 32272284 heartbeat IPC: 1.448 cumulative IPC: 1.671 (Simulation time: 00 hr 09 min 26 sec)
Heartbeat CPU 0 instructions: 84500471 cycles: 32566272 heartbeat IPC: 1.701 cumulative IPC: 1.671 (Simulation time: 00 hr 09 min 31 sec)
Heartbeat CPU 0 instructions: 85000477 cycles: 32771855 heartbeat IPC: 2.432 cumulative IPC: 1.679 (Simulation time: 00 hr 09 min 34 sec)
Heartbeat CPU 0 instructions: 85500479 cycles: 32982651 heartbeat IPC: 2.372 cumulative IPC: 1.686 (Simulation time: 00 hr 09 min 38 sec)
Heartbeat CPU 0 instructions: 86000481 cycles: 33181403 heartbeat IPC: 2.516 cumulative IPC: 1.693 (Simulation time: 00 hr 09 min 41 sec)
Heartbeat CPU 0 instructions: 86500487 cycles: 33377409 heartbeat IPC: 2.551 cumulative IPC: 1.701 (Simulation time: 00 hr 09 min 44 sec)
Heartbeat CPU 0 instructions: 87000490 cycles: 33569328 heartbeat IPC: 2.605 cumulative IPC: 1.709 (Simulation time: 00 hr 09 min 47 sec)
Heartbeat CPU 0 instructions: 87500491 cycles: 33760742 heartbeat IPC: 2.612 cumulative IPC: 1.717 (Simulation time: 00 hr 09 min 51 sec)
Heartbeat CPU 0 instructions: 88000495 cycles: 33942542 heartbeat IPC: 2.75 cumulative IPC: 1.726 (Simulation time: 00 hr 09 min 54 sec)
Heartbeat CPU 0 instructions: 88500495 cycles: 34120120 heartbeat IPC: 2.816 cumulative IPC: 1.734 (Simulation time: 00 hr 09 min 56 sec)
Heartbeat CPU 0 instructions: 89000501 cycles: 34289773 heartbeat IPC: 2.947 cumulative IPC: 1.744 (Simulation time: 00 hr 09 min 59 sec)
Heartbeat CPU 0 instructions: 89500507 cycles: 34455716 heartbeat IPC: 3.013 cumulative IPC: 1.753 (Simulation time: 00 hr 10 min 02 sec)
Heartbeat CPU 0 instructions: 90000513 cycles: 34621690 heartbeat IPC: 3.013 cumulative IPC: 1.762 (Simulation time: 00 hr 10 min 05 sec)
Heartbeat CPU 0 instructions: 90500516 cycles: 34780281 heartbeat IPC: 3.153 cumulative IPC: 1.772 (Simulation time: 00 hr 10 min 07 sec)
Heartbeat CPU 0 instructions: 91000517 cycles: 34933069 heartbeat IPC: 3.273 cumulative IPC: 1.782 (Simulation time: 00 hr 10 min 10 sec)
Heartbeat CPU 0 instructions: 91500523 cycles: 35083225 heartbeat IPC: 3.33 cumulative IPC: 1.792 (Simulation time: 00 hr 10 min 12 sec)
Heartbeat CPU 0 instructions: 92000529 cycles: 35226124 heartbeat IPC: 3.499 cumulative IPC: 1.802 (Simulation time: 00 hr 10 min 15 sec)
Heartbeat CPU 0 instructions: 92500530 cycles: 35377729 heartbeat IPC: 3.298 cumulative IPC: 1.812 (Simulation time: 00 hr 10 min 17 sec)
Heartbeat CPU 0 instructions: 93000533 cycles: 35533029 heartbeat IPC: 3.22 cumulative IPC: 1.821 (Simulation time: 00 hr 10 min 20 sec)
Heartbeat CPU 0 instructions: 93500539 cycles: 35690044 heartbeat IPC: 3.184 cumulative IPC: 1.83 (Simulation time: 00 hr 10 min 22 sec)
Heartbeat CPU 0 instructions: 94000542 cycles: 35842203 heartbeat IPC: 3.286 cumulative IPC: 1.84 (Simulation time: 00 hr 10 min 25 sec)
Heartbeat CPU 0 instructions: 94500543 cycles: 35995088 heartbeat IPC: 3.27 cumulative IPC: 1.849 (Simulation time: 00 hr 10 min 28 sec)
Heartbeat CPU 0 instructions: 95000547 cycles: 36149698 heartbeat IPC: 3.234 cumulative IPC: 1.857 (Simulation time: 00 hr 10 min 30 sec)
Heartbeat CPU 0 instructions: 95500547 cycles: 36301981 heartbeat IPC: 3.283 cumulative IPC: 1.866 (Simulation time: 00 hr 10 min 33 sec)
Heartbeat CPU 0 instructions: 96000553 cycles: 36454909 heartbeat IPC: 3.27 cumulative IPC: 1.875 (Simulation time: 00 hr 10 min 35 sec)
Heartbeat CPU 0 instructions: 96500559 cycles: 36602280 heartbeat IPC: 3.393 cumulative IPC: 1.884 (Simulation time: 00 hr 10 min 38 sec)
Heartbeat CPU 0 instructions: 97000565 cycles: 36761253 heartbeat IPC: 3.145 cumulative IPC: 1.892 (Simulation time: 00 hr 10 min 40 sec)
Heartbeat CPU 0 instructions: 97500571 cycles: 36917042 heartbeat IPC: 3.21 cumulative IPC: 1.9 (Simulation time: 00 hr 10 min 43 sec)
Heartbeat CPU 0 instructions: 98000571 cycles: 37067164 heartbeat IPC: 3.331 cumulative IPC: 1.909 (Simulation time: 00 hr 10 min 45 sec)
Heartbeat CPU 0 instructions: 98500578 cycles: 37324270 heartbeat IPC: 1.945 cumulative IPC: 1.909 (Simulation time: 00 hr 10 min 49 sec)
Heartbeat CPU 0 instructions: 99000582 cycles: 37657422 heartbeat IPC: 1.501 cumulative IPC: 1.904 (Simulation time: 00 hr 10 min 55 sec)
Heartbeat CPU 0 instructions: 99500584 cycles: 37994115 heartbeat IPC: 1.485 cumulative IPC: 1.899 (Simulation time: 00 hr 11 min 00 sec)
Heartbeat CPU 0 instructions: 100000587 cycles: 38351811 heartbeat IPC: 1.398 cumulative IPC: 1.892 (Simulation time: 00 hr 11 min 05 sec)
Heartbeat CPU 0 instructions: 100500591 cycles: 38739825 heartbeat IPC: 1.289 cumulative IPC: 1.883 (Simulation time: 00 hr 11 min 11 sec)
Heartbeat CPU 0 instructions: 101000595 cycles: 39124319 heartbeat IPC: 1.3 cumulative IPC: 1.875 (Simulation time: 00 hr 11 min 17 sec)
Heartbeat CPU 0 instructions: 101500601 cycles: 39480444 heartbeat IPC: 1.404 cumulative IPC: 1.869 (Simulation time: 00 hr 11 min 22 sec)
Heartbeat CPU 0 instructions: 102000601 cycles: 39831940 heartbeat IPC: 1.422 cumulative IPC: 1.863 (Simulation time: 00 hr 11 min 28 sec)
Heartbeat CPU 0 instructions: 102500605 cycles: 40175711 heartbeat IPC: 1.454 cumulative IPC: 1.858 (Simulation time: 00 hr 11 min 33 sec)
Heartbeat CPU 0 instructions: 103000609 cycles: 40519306 heartbeat IPC: 1.455 cumulative IPC: 1.853 (Simulation time: 00 hr 11 min 38 sec)
Heartbeat CPU 0 instructions: 103500609 cycles: 40848890 heartbeat IPC: 1.517 cumulative IPC: 1.85 (Simulation time: 00 hr 11 min 43 sec)
Heartbeat CPU 0 instructions: 104000613 cycles: 41183667 heartbeat IPC: 1.494 cumulative IPC: 1.845 (Simulation time: 00 hr 11 min 49 sec)
Heartbeat CPU 0 instructions: 104500617 cycles: 41566186 heartbeat IPC: 1.307 cumulative IPC: 1.839 (Simulation time: 00 hr 11 min 54 sec)
Heartbeat CPU 0 instructions: 105000624 cycles: 42020685 heartbeat IPC: 1.1 cumulative IPC: 1.827 (Simulation time: 00 hr 12 min 02 sec)
Heartbeat CPU 0 instructions: 105500627 cycles: 42463292 heartbeat IPC: 1.13 cumulative IPC: 1.817 (Simulation time: 00 hr 12 min 09 sec)
Heartbeat CPU 0 instructions: 106000627 cycles: 42891326 heartbeat IPC: 1.168 cumulative IPC: 1.808 (Simulation time: 00 hr 12 min 15 sec)
Heartbeat CPU 0 instructions: 106500629 cycles: 43309101 heartbeat IPC: 1.197 cumulative IPC: 1.8 (Simulation time: 00 hr 12 min 22 sec)
Heartbeat CPU 0 instructions: 107000635 cycles: 43714407 heartbeat IPC: 1.234 cumulative IPC: 1.793 (Simulation time: 00 hr 12 min 28 sec)
Heartbeat CPU 0 instructions: 107500642 cycles: 44113716 heartbeat IPC: 1.252 cumulative IPC: 1.786 (Simulation time: 00 hr 12 min 35 sec)
Heartbeat CPU 0 instructions: 108000648 cycles: 44516919 heartbeat IPC: 1.24 cumulative IPC: 1.779 (Simulation time: 00 hr 12 min 41 sec)
Heartbeat CPU 0 instructions: 108500649 cycles: 44912447 heartbeat IPC: 1.264 cumulative IPC: 1.773 (Simulation time: 00 hr 12 min 47 sec)
Heartbeat CPU 0 instructions: 109000649 cycles: 45311804 heartbeat IPC: 1.252 cumulative IPC: 1.767 (Simulation time: 00 hr 12 min 53 sec)
Heartbeat CPU 0 instructions: 109500649 cycles: 45716224 heartbeat IPC: 1.236 cumulative IPC: 1.761 (Simulation time: 00 hr 13 min 00 sec)
Heartbeat CPU 0 instructions: 110000649 cycles: 46115519 heartbeat IPC: 1.252 cumulative IPC: 1.755 (Simulation time: 00 hr 13 min 06 sec)
Heartbeat CPU 0 instructions: 110500649 cycles: 46533434 heartbeat IPC: 1.196 cumulative IPC: 1.748 (Simulation time: 00 hr 13 min 13 sec)
Heartbeat CPU 0 instructions: 111000654 cycles: 46932095 heartbeat IPC: 1.254 cumulative IPC: 1.742 (Simulation time: 00 hr 13 min 19 sec)
Heartbeat CPU 0 instructions: 111500658 cycles: 47326589 heartbeat IPC: 1.267 cumulative IPC: 1.737 (Simulation time: 00 hr 13 min 25 sec)
Heartbeat CPU 0 instructions: 112000659 cycles: 47734183 heartbeat IPC: 1.227 cumulative IPC: 1.731 (Simulation time: 00 hr 13 min 31 sec)
Heartbeat CPU 0 instructions: 112500659 cycles: 48130078 heartbeat IPC: 1.263 cumulative IPC: 1.726 (Simulation time: 00 hr 13 min 38 sec)
Heartbeat CPU 0 instructions: 113000664 cycles: 48455118 heartbeat IPC: 1.538 cumulative IPC: 1.725 (Simulation time: 00 hr 13 min 42 sec)
Heartbeat CPU 0 instructions: 113500668 cycles: 48770641 heartbeat IPC: 1.585 cumulative IPC: 1.723 (Simulation time: 00 hr 13 min 47 sec)
Heartbeat CPU 0 instructions: 114000675 cycles: 49089259 heartbeat IPC: 1.569 cumulative IPC: 1.722 (Simulation time: 00 hr 13 min 51 sec)
Heartbeat CPU 0 instructions: 114500676 cycles: 49449413 heartbeat IPC: 1.388 cumulative IPC: 1.719 (Simulation time: 00 hr 13 min 56 sec)
Heartbeat CPU 0 instructions: 115000682 cycles: 49806218 heartbeat IPC: 1.401 cumulative IPC: 1.716 (Simulation time: 00 hr 14 min 01 sec)
Heartbeat CPU 0 instructions: 115500682 cycles: 50143297 heartbeat IPC: 1.483 cumulative IPC: 1.714 (Simulation time: 00 hr 14 min 06 sec)
Heartbeat CPU 0 instructions: 116000688 cycles: 50482719 heartbeat IPC: 1.473 cumulative IPC: 1.712 (Simulation time: 00 hr 14 min 10 sec)
Heartbeat CPU 0 instructions: 116500694 cycles: 50820364 heartbeat IPC: 1.481 cumulative IPC: 1.71 (Simulation time: 00 hr 14 min 15 sec)
Heartbeat CPU 0 instructions: 117000698 cycles: 51157563 heartbeat IPC: 1.483 cumulative IPC: 1.708 (Simulation time: 00 hr 14 min 20 sec)
Heartbeat CPU 0 instructions: 117500700 cycles: 51513201 heartbeat IPC: 1.406 cumulative IPC: 1.705 (Simulation time: 00 hr 14 min 25 sec)
Heartbeat CPU 0 instructions: 118000706 cycles: 51922927 heartbeat IPC: 1.22 cumulative IPC: 1.7 (Simulation time: 00 hr 14 min 31 sec)
Heartbeat CPU 0 instructions: 118500713 cycles: 52328561 heartbeat IPC: 1.233 cumulative IPC: 1.695 (Simulation time: 00 hr 14 min 36 sec)
Heartbeat CPU 0 instructions: 119000716 cycles: 52777589 heartbeat IPC: 1.114 cumulative IPC: 1.689 (Simulation time: 00 hr 14 min 43 sec)
Heartbeat CPU 0 instructions: 119500723 cycles: 53241616 heartbeat IPC: 1.078 cumulative IPC: 1.682 (Simulation time: 00 hr 14 min 50 sec)
Heartbeat CPU 0 instructions: 120000724 cycles: 53698874 heartbeat IPC: 1.093 cumulative IPC: 1.676 (Simulation time: 00 hr 14 min 56 sec)
Heartbeat CPU 0 instructions: 120500728 cycles: 54152796 heartbeat IPC: 1.102 cumulative IPC: 1.669 (Simulation time: 00 hr 15 min 03 sec)
Heartbeat CPU 0 instructions: 121000728 cycles: 54592873 heartbeat IPC: 1.136 cumulative IPC: 1.664 (Simulation time: 00 hr 15 min 09 sec)
Heartbeat CPU 0 instructions: 121500729 cycles: 55044684 heartbeat IPC: 1.107 cumulative IPC: 1.658 (Simulation time: 00 hr 15 min 16 sec)
Heartbeat CPU 0 instructions: 122000734 cycles: 55487952 heartbeat IPC: 1.128 cumulative IPC: 1.653 (Simulation time: 00 hr 15 min 22 sec)
Heartbeat CPU 0 instructions: 122500739 cycles: 55806832 heartbeat IPC: 1.568 cumulative IPC: 1.652 (Simulation time: 00 hr 15 min 27 sec)
Heartbeat CPU 0 instructions: 123000743 cycles: 56136220 heartbeat IPC: 1.518 cumulative IPC: 1.651 (Simulation time: 00 hr 15 min 32 sec)
Heartbeat CPU 0 instructions: 123500748 cycles: 56455427 heartbeat IPC: 1.566 cumulative IPC: 1.65 (Simulation time: 00 hr 15 min 38 sec)
Heartbeat CPU 0 instructions: 124000753 cycles: 56750314 heartbeat IPC: 1.696 cumulative IPC: 1.651 (Simulation time: 00 hr 15 min 42 sec)
Heartbeat CPU 0 instructions: 124500753 cycles: 57048749 heartbeat IPC: 1.675 cumulative IPC: 1.651 (Simulation time: 00 hr 15 min 47 sec)
Heartbeat CPU 0 instructions: 125000754 cycles: 57331113 heartbeat IPC: 1.771 cumulative IPC: 1.652 (Simulation time: 00 hr 15 min 52 sec)
Heartbeat CPU 0 instructions: 125500756 cycles: 57599973 heartbeat IPC: 1.86 cumulative IPC: 1.653 (Simulation time: 00 hr 15 min 56 sec)
Heartbeat CPU 0 instructions: 126000757 cycles: 57862460 heartbeat IPC: 1.905 cumulative IPC: 1.654 (Simulation time: 00 hr 16 min 00 sec)
Heartbeat CPU 0 instructions: 126500759 cycles: 58120452 heartbeat IPC: 1.938 cumulative IPC: 1.656 (Simulation time: 00 hr 16 min 04 sec)
Heartbeat CPU 0 instructions: 127000759 cycles: 58372091 heartbeat IPC: 1.987 cumulative IPC: 1.658 (Simulation time: 00 hr 16 min 09 sec)
Heartbeat CPU 0 instructions: 127500760 cycles: 58630676 heartbeat IPC: 1.934 cumulative IPC: 1.659 (Simulation time: 00 hr 16 min 13 sec)
Heartbeat CPU 0 instructions: 128000763 cycles: 58885746 heartbeat IPC: 1.96 cumulative IPC: 1.661 (Simulation time: 00 hr 16 min 17 sec)
Heartbeat CPU 0 instructions: 128500763 cycles: 59134958 heartbeat IPC: 2.006 cumulative IPC: 1.663 (Simulation time: 00 hr 16 min 21 sec)
Heartbeat CPU 0 instructions: 129000766 cycles: 59378360 heartbeat IPC: 2.054 cumulative IPC: 1.665 (Simulation time: 00 hr 16 min 25 sec)
Heartbeat CPU 0 instructions: 129500767 cycles: 59628590 heartbeat IPC: 1.998 cumulative IPC: 1.666 (Simulation time: 00 hr 16 min 29 sec)
Heartbeat CPU 0 instructions: 130000768 cycles: 59876394 heartbeat IPC: 2.018 cumulative IPC: 1.668 (Simulation time: 00 hr 16 min 33 sec)
Heartbeat CPU 0 instructions: 130500770 cycles: 60129175 heartbeat IPC: 1.978 cumulative IPC: 1.67 (Simulation time: 00 hr 16 min 37 sec)
Heartbeat CPU 0 instructions: 131000770 cycles: 60411536 heartbeat IPC: 1.771 cumulative IPC: 1.671 (Simulation time: 00 hr 16 min 41 sec)
Heartbeat CPU 0 instructions: 131500773 cycles: 60701513 heartbeat IPC: 1.724 cumulative IPC: 1.671 (Simulation time: 00 hr 16 min 45 sec)
Heartbeat CPU 0 instructions: 132000778 cycles: 61005294 heartbeat IPC: 1.646 cumulative IPC: 1.671 (Simulation time: 00 hr 16 min 50 sec)
Heartbeat CPU 0 instructions: 132500782 cycles: 61351427 heartbeat IPC: 1.445 cumulative IPC: 1.669 (Simulation time: 00 hr 16 min 55 sec)
Heartbeat CPU 0 instructions: 133000789 cycles: 61699161 heartbeat IPC: 1.438 cumulative IPC: 1.667 (Simulation time: 00 hr 16 min 59 sec)
Heartbeat CPU 0 instructions: 133500792 cycles: 62082027 heartbeat IPC: 1.306 cumulative IPC: 1.665 (Simulation time: 00 hr 17 min 05 sec)
Heartbeat CPU 0 instructions: 134000798 cycles: 62504581 heartbeat IPC: 1.183 cumulative IPC: 1.661 (Simulation time: 00 hr 17 min 11 sec)
Heartbeat CPU 0 instructions: 134500800 cycles: 62925616 heartbeat IPC: 1.188 cumulative IPC: 1.657 (Simulation time: 00 hr 17 min 16 sec)
Heartbeat CPU 0 instructions: 135000800 cycles: 63350848 heartbeat IPC: 1.176 cumulative IPC: 1.653 (Simulation time: 00 hr 17 min 22 sec)
Heartbeat CPU 0 instructions: 135500800 cycles: 63776831 heartbeat IPC: 1.174 cumulative IPC: 1.649 (Simulation time: 00 hr 17 min 28 sec)
Heartbeat CPU 0 instructions: 136000806 cycles: 64077565 heartbeat IPC: 1.663 cumulative IPC: 1.649 (Simulation time: 00 hr 17 min 33 sec)
Heartbeat CPU 0 instructions: 136500806 cycles: 64380266 heartbeat IPC: 1.652 cumulative IPC: 1.649 (Simulation time: 00 hr 17 min 38 sec)
Heartbeat CPU 0 instructions: 137000812 cycles: 64696380 heartbeat IPC: 1.582 cumulative IPC: 1.649 (Simulation time: 00 hr 17 min 43 sec)
Heartbeat CPU 0 instructions: 137500812 cycles: 64999469 heartbeat IPC: 1.65 cumulative IPC: 1.649 (Simulation time: 00 hr 17 min 48 sec)
Heartbeat CPU 0 instructions: 138000812 cycles: 65296277 heartbeat IPC: 1.685 cumulative IPC: 1.649 (Simulation time: 00 hr 17 min 52 sec)
Heartbeat CPU 0 instructions: 138500814 cycles: 65564760 heartbeat IPC: 1.862 cumulative IPC: 1.65 (Simulation time: 00 hr 17 min 57 sec)
Heartbeat CPU 0 instructions: 139000818 cycles: 65836640 heartbeat IPC: 1.839 cumulative IPC: 1.651 (Simulation time: 00 hr 18 min 01 sec)
Heartbeat CPU 0 instructions: 139500822 cycles: 66093513 heartbeat IPC: 1.947 cumulative IPC: 1.652 (Simulation time: 00 hr 18 min 05 sec)
Heartbeat CPU 0 instructions: 140000828 cycles: 66342310 heartbeat IPC: 2.01 cumulative IPC: 1.654 (Simulation time: 00 hr 18 min 09 sec)
Heartbeat CPU 0 instructions: 140500835 cycles: 66595695 heartbeat IPC: 1.973 cumulative IPC: 1.655 (Simulation time: 00 hr 18 min 13 sec)
Heartbeat CPU 0 instructions: 141000841 cycles: 66844157 heartbeat IPC: 2.012 cumulative IPC: 1.657 (Simulation time: 00 hr 18 min 17 sec)
Heartbeat CPU 0 instructions: 141500841 cycles: 67089304 heartbeat IPC: 2.04 cumulative IPC: 1.659 (Simulation time: 00 hr 18 min 21 sec)
Heartbeat CPU 0 instructions: 142000848 cycles: 67341482 heartbeat IPC: 1.983 cumulative IPC: 1.66 (Simulation time: 00 hr 18 min 25 sec)
Heartbeat CPU 0 instructions: 142500848 cycles: 67586872 heartbeat IPC: 2.038 cumulative IPC: 1.662 (Simulation time: 00 hr 18 min 29 sec)
Heartbeat CPU 0 instructions: 143000851 cycles: 67831641 heartbeat IPC: 2.043 cumulative IPC: 1.663 (Simulation time: 00 hr 18 min 33 sec)
Heartbeat CPU 0 instructions: 143500855 cycles: 68080404 heartbeat IPC: 2.01 cumulative IPC: 1.665 (Simulation time: 00 hr 18 min 37 sec)
Heartbeat CPU 0 instructions: 144000859 cycles: 68324423 heartbeat IPC: 2.049 cumulative IPC: 1.667 (Simulation time: 00 hr 18 min 41 sec)
Heartbeat CPU 0 instructions: 144500863 cycles: 68571764 heartbeat IPC: 2.022 cumulative IPC: 1.668 (Simulation time: 00 hr 18 min 45 sec)
Heartbeat CPU 0 instructions: 145000869 cycles: 68867028 heartbeat IPC: 1.693 cumulative IPC: 1.668 (Simulation time: 00 hr 18 min 50 sec)
Heartbeat CPU 0 instructions: 145500875 cycles: 69156122 heartbeat IPC: 1.73 cumulative IPC: 1.669 (Simulation time: 00 hr 18 min 54 sec)
Heartbeat CPU 0 instructions: 146000882 cycles: 69465261 heartbeat IPC: 1.617 cumulative IPC: 1.668 (Simulation time: 00 hr 18 min 58 sec)
Heartbeat CPU 0 instructions: 146500887 cycles: 69808204 heartbeat IPC: 1.458 cumulative IPC: 1.667 (Simulation time: 00 hr 19 min 03 sec)
Heartbeat CPU 0 instructions: 147000891 cycles: 70174323 heartbeat IPC: 1.366 cumulative IPC: 1.665 (Simulation time: 00 hr 19 min 08 sec)
Heartbeat CPU 0 instructions: 147500894 cycles: 70551082 heartbeat IPC: 1.327 cumulative IPC: 1.663 (Simulation time: 00 hr 19 min 13 sec)
Heartbeat CPU 0 instructions: 148000895 cycles: 70926134 heartbeat IPC: 1.333 cumulative IPC: 1.661 (Simulation time: 00 hr 19 min 18 sec)
Heartbeat CPU 0 instructions: 148500898 cycles: 71301736 heartbeat IPC: 1.331 cumulative IPC: 1.659 (Simulation time: 00 hr 19 min 23 sec)
Heartbeat CPU 0 instructions: 149000899 cycles: 71680802 heartbeat IPC: 1.319 cumulative IPC: 1.657 (Simulation time: 00 hr 19 min 28 sec)
Heartbeat CPU 0 instructions: 149500902 cycles: 72058299 heartbeat IPC: 1.325 cumulative IPC: 1.655 (Simulation time: 00 hr 19 min 33 sec)
Heartbeat CPU 0 instructions: 150000903 cycles: 72382793 heartbeat IPC: 1.541 cumulative IPC: 1.654 (Simulation time: 00 hr 19 min 38 sec)
Heartbeat CPU 0 instructions: 150500907 cycles: 72669257 heartbeat IPC: 1.745 cumulative IPC: 1.654 (Simulation time: 00 hr 19 min 43 sec)
Heartbeat CPU 0 instructions: 151000911 cycles: 72969782 heartbeat IPC: 1.664 cumulative IPC: 1.654 (Simulation time: 00 hr 19 min 47 sec)
Heartbeat CPU 0 instructions: 151500911 cycles: 73271507 heartbeat IPC: 1.657 cumulative IPC: 1.654 (Simulation time: 00 hr 19 min 52 sec)
Heartbeat CPU 0 instructions: 152000916 cycles: 73564067 heartbeat IPC: 1.709 cumulative IPC: 1.655 (Simulation time: 00 hr 19 min 57 sec)
Heartbeat CPU 0 instructions: 152500918 cycles: 73852365 heartbeat IPC: 1.734 cumulative IPC: 1.655 (Simulation time: 00 hr 20 min 01 sec)
Heartbeat CPU 0 instructions: 153000921 cycles: 74115397 heartbeat IPC: 1.901 cumulative IPC: 1.656 (Simulation time: 00 hr 20 min 05 sec)
Heartbeat CPU 0 instructions: 153500925 cycles: 74371726 heartbeat IPC: 1.951 cumulative IPC: 1.657 (Simulation time: 00 hr 20 min 09 sec)
Heartbeat CPU 0 instructions: 154000925 cycles: 74623832 heartbeat IPC: 1.983 cumulative IPC: 1.659 (Simulation time: 00 hr 20 min 13 sec)
Heartbeat CPU 0 instructions: 154500927 cycles: 74868133 heartbeat IPC: 2.047 cumulative IPC: 1.66 (Simulation time: 00 hr 20 min 17 sec)
Heartbeat CPU 0 instructions: 155000929 cycles: 75116548 heartbeat IPC: 2.013 cumulative IPC: 1.662 (Simulation time: 00 hr 20 min 21 sec)
Heartbeat CPU 0 instructions: 155500931 cycles: 75369974 heartbeat IPC: 1.973 cumulative IPC: 1.663 (Simulation time: 00 hr 20 min 25 sec)
Heartbeat CPU 0 instructions: 156000931 cycles: 75615638 heartbeat IPC: 2.035 cumulative IPC: 1.664 (Simulation time: 00 hr 20 min 28 sec)
Heartbeat CPU 0 instructions: 156500932 cycles: 75863181 heartbeat IPC: 2.02 cumulative IPC: 1.666 (Simulation time: 00 hr 20 min 32 sec)
Heartbeat CPU 0 instructions: 157000938 cycles: 76097092 heartbeat IPC: 2.138 cumulative IPC: 1.667 (Simulation time: 00 hr 20 min 36 sec)
Heartbeat CPU 0 instructions: 157500941 cycles: 76323100 heartbeat IPC: 2.212 cumulative IPC: 1.669 (Simulation time: 00 hr 20 min 39 sec)
Heartbeat CPU 0 instructions: 158000944 cycles: 76554771 heartbeat IPC: 2.158 cumulative IPC: 1.671 (Simulation time: 00 hr 20 min 43 sec)
Heartbeat CPU 0 instructions: 158500951 cycles: 76787692 heartbeat IPC: 2.147 cumulative IPC: 1.673 (Simulation time: 00 hr 20 min 47 sec)
Heartbeat CPU 0 instructions: 159000952 cycles: 77032973 heartbeat IPC: 2.038 cumulative IPC: 1.674 (Simulation time: 00 hr 20 min 51 sec)
Heartbeat CPU 0 instructions: 159500953 cycles: 77290161 heartbeat IPC: 1.944 cumulative IPC: 1.675 (Simulation time: 00 hr 20 min 54 sec)
Heartbeat CPU 0 instructions: 160000957 cycles: 77542998 heartbeat IPC: 1.978 cumulative IPC: 1.676 (Simulation time: 00 hr 20 min 58 sec)
Heartbeat CPU 0 instructions: 160500959 cycles: 77818676 heartbeat IPC: 1.814 cumulative IPC: 1.677 (Simulation time: 00 hr 21 min 02 sec)
Heartbeat CPU 0 instructions: 161000963 cycles: 78112243 heartbeat IPC: 1.703 cumulative IPC: 1.677 (Simulation time: 00 hr 21 min 07 sec)
Heartbeat CPU 0 instructions: 161500963 cycles: 78428100 heartbeat IPC: 1.583 cumulative IPC: 1.677 (Simulation time: 00 hr 21 min 11 sec)
Heartbeat CPU 0 instructions: 162000963 cycles: 78751030 heartbeat IPC: 1.548 cumulative IPC: 1.676 (Simulation time: 00 hr 21 min 16 sec)
Heartbeat CPU 0 instructions: 162500967 cycles: 79077254 heartbeat IPC: 1.533 cumulative IPC: 1.675 (Simulation time: 00 hr 21 min 21 sec)
Heartbeat CPU 0 instructions: 163000973 cycles: 79419754 heartbeat IPC: 1.46 cumulative IPC: 1.674 (Simulation time: 00 hr 21 min 26 sec)
Heartbeat CPU 0 instructions: 163500973 cycles: 79761460 heartbeat IPC: 1.463 cumulative IPC: 1.673 (Simulation time: 00 hr 21 min 31 sec)
Heartbeat CPU 0 instructions: 164000973 cycles: 80106619 heartbeat IPC: 1.449 cumulative IPC: 1.672 (Simulation time: 00 hr 21 min 36 sec)
Heartbeat CPU 0 instructions: 164500979 cycles: 80460041 heartbeat IPC: 1.415 cumulative IPC: 1.671 (Simulation time: 00 hr 21 min 41 sec)
Heartbeat CPU 0 instructions: 165000981 cycles: 80690602 heartbeat IPC: 2.169 cumulative IPC: 1.672 (Simulation time: 00 hr 21 min 44 sec)
Heartbeat CPU 0 instructions: 165500987 cycles: 80894600 heartbeat IPC: 2.451 cumulative IPC: 1.675 (Simulation time: 00 hr 21 min 47 sec)
Heartbeat CPU 0 instructions: 166000993 cycles: 81092867 heartbeat IPC: 2.522 cumulative IPC: 1.677 (Simulation time: 00 hr 21 min 50 sec)
Heartbeat CPU 0 instructions: 166500996 cycles: 81295074 heartbeat IPC: 2.473 cumulative IPC: 1.679 (Simulation time: 00 hr 21 min 53 sec)
Heartbeat CPU 0 instructions: 167000997 cycles: 81483838 heartbeat IPC: 2.649 cumulative IPC: 1.682 (Simulation time: 00 hr 21 min 56 sec)
Heartbeat CPU 0 instructions: 167501002 cycles: 81672602 heartbeat IPC: 2.649 cumulative IPC: 1.685 (Simulation time: 00 hr 21 min 59 sec)
Heartbeat CPU 0 instructions: 168001003 cycles: 81858867 heartbeat IPC: 2.684 cumulative IPC: 1.687 (Simulation time: 00 hr 22 min 02 sec)
Heartbeat CPU 0 instructions: 168501007 cycles: 82034844 heartbeat IPC: 2.841 cumulative IPC: 1.69 (Simulation time: 00 hr 22 min 04 sec)
Heartbeat CPU 0 instructions: 169001012 cycles: 82202991 heartbeat IPC: 2.974 cumulative IPC: 1.693 (Simulation time: 00 hr 22 min 07 sec)
Heartbeat CPU 0 instructions: 169501013 cycles: 82365339 heartbeat IPC: 3.08 cumulative IPC: 1.696 (Simulation time: 00 hr 22 min 09 sec)
Heartbeat CPU 0 instructions: 170001016 cycles: 82536315 heartbeat IPC: 2.924 cumulative IPC: 1.699 (Simulation time: 00 hr 22 min 12 sec)
Heartbeat CPU 0 instructions: 170501023 cycles: 82687263 heartbeat IPC: 3.312 cumulative IPC: 1.703 (Simulation time: 00 hr 22 min 14 sec)
Heartbeat CPU 0 instructions: 171001029 cycles: 82842944 heartbeat IPC: 3.212 cumulative IPC: 1.706 (Simulation time: 00 hr 22 min 17 sec)
Heartbeat CPU 0 instructions: 171501035 cycles: 82994243 heartbeat IPC: 3.305 cumulative IPC: 1.71 (Simulation time: 00 hr 22 min 19 sec)
Heartbeat CPU 0 instructions: 172001041 cycles: 83140823 heartbeat IPC: 3.411 cumulative IPC: 1.713 (Simulation time: 00 hr 22 min 21 sec)
Heartbeat CPU 0 instructions: 172501047 cycles: 83293056 heartbeat IPC: 3.284 cumulative IPC: 1.716 (Simulation time: 00 hr 22 min 23 sec)
Heartbeat CPU 0 instructions: 173001053 cycles: 83443267 heartbeat IPC: 3.329 cumulative IPC: 1.72 (Simulation time: 00 hr 22 min 26 sec)
Heartbeat CPU 0 instructions: 173501053 cycles: 83593624 heartbeat IPC: 3.325 cumulative IPC: 1.723 (Simulation time: 00 hr 22 min 28 sec)
Heartbeat CPU 0 instructions: 174001057 cycles: 83742129 heartbeat IPC: 3.367 cumulative IPC: 1.727 (Simulation time: 00 hr 22 min 30 sec)
Heartbeat CPU 0 instructions: 174501060 cycles: 83899250 heartbeat IPC: 3.182 cumulative IPC: 1.73 (Simulation time: 00 hr 22 min 32 sec)
Heartbeat CPU 0 instructions: 175001063 cycles: 84046357 heartbeat IPC: 3.399 cumulative IPC: 1.733 (Simulation time: 00 hr 22 min 35 sec)
Heartbeat CPU 0 instructions: 175501067 cycles: 84195965 heartbeat IPC: 3.342 cumulative IPC: 1.736 (Simulation time: 00 hr 22 min 37 sec)
Heartbeat CPU 0 instructions: 176001072 cycles: 84345053 heartbeat IPC: 3.354 cumulative IPC: 1.74 (Simulation time: 00 hr 22 min 39 sec)
Heartbeat CPU 0 instructions: 176501073 cycles: 84495029 heartbeat IPC: 3.334 cumulative IPC: 1.743 (Simulation time: 00 hr 22 min 41 sec)
Heartbeat CPU 0 instructions: 177001077 cycles: 84646646 heartbeat IPC: 3.298 cumulative IPC: 1.746 (Simulation time: 00 hr 22 min 44 sec)
Heartbeat CPU 0 instructions: 177501082 cycles: 84801765 heartbeat IPC: 3.223 cumulative IPC: 1.749 (Simulation time: 00 hr 22 min 46 sec)
Heartbeat CPU 0 instructions: 178001085 cycles: 84958231 heartbeat IPC: 3.196 cumulative IPC: 1.753 (Simulation time: 00 hr 22 min 48 sec)
Heartbeat CPU 0 instructions: 178501091 cycles: 85102195 heartbeat IPC: 3.473 cumulative IPC: 1.756 (Simulation time: 00 hr 22 min 50 sec)
Heartbeat CPU 0 instructions: 179001092 cycles: 85438479 heartbeat IPC: 1.487 cumulative IPC: 1.755 (Simulation time: 00 hr 22 min 55 sec)
Heartbeat CPU 0 instructions: 179501097 cycles: 85779447 heartbeat IPC: 1.466 cumulative IPC: 1.753 (Simulation time: 00 hr 23 min 00 sec)
Heartbeat CPU 0 instructions: 180001100 cycles: 86127429 heartbeat IPC: 1.437 cumulative IPC: 1.752 (Simulation time: 00 hr 23 min 05 sec)
Heartbeat CPU 0 instructions: 180501100 cycles: 86513733 heartbeat IPC: 1.294 cumulative IPC: 1.75 (Simulation time: 00 hr 23 min 10 sec)
Heartbeat CPU 0 instructions: 181001105 cycles: 86914721 heartbeat IPC: 1.247 cumulative IPC: 1.747 (Simulation time: 00 hr 23 min 15 sec)
Heartbeat CPU 0 instructions: 181501111 cycles: 87301011 heartbeat IPC: 1.294 cumulative IPC: 1.745 (Simulation time: 00 hr 23 min 21 sec)
Heartbeat CPU 0 instructions: 182001111 cycles: 87642876 heartbeat IPC: 1.463 cumulative IPC: 1.743 (Simulation time: 00 hr 23 min 26 sec)
Heartbeat CPU 0 instructions: 182501111 cycles: 87986863 heartbeat IPC: 1.454 cumulative IPC: 1.742 (Simulation time: 00 hr 23 min 30 sec)
Heartbeat CPU 0 instructions: 183001111 cycles: 88337845 heartbeat IPC: 1.425 cumulative IPC: 1.741 (Simulation time: 00 hr 23 min 35 sec)
Heartbeat CPU 0 instructions: 183501115 cycles: 88670586 heartbeat IPC: 1.503 cumulative IPC: 1.739 (Simulation time: 00 hr 23 min 40 sec)
Heartbeat CPU 0 instructions: 184001115 cycles: 89013798 heartbeat IPC: 1.457 cumulative IPC: 1.738 (Simulation time: 00 hr 23 min 45 sec)
Heartbeat CPU 0 instructions: 184501115 cycles: 89366297 heartbeat IPC: 1.418 cumulative IPC: 1.737 (Simulation time: 00 hr 23 min 49 sec)
Heartbeat CPU 0 instructions: 185001120 cycles: 89794958 heartbeat IPC: 1.166 cumulative IPC: 1.734 (Simulation time: 00 hr 23 min 56 sec)
Heartbeat CPU 0 instructions: 185501126 cycles: 90244892 heartbeat IPC: 1.111 cumulative IPC: 1.73 (Simulation time: 00 hr 24 min 02 sec)
Heartbeat CPU 0 instructions: 186001126 cycles: 90688470 heartbeat IPC: 1.127 cumulative IPC: 1.727 (Simulation time: 00 hr 24 min 08 sec)
Heartbeat CPU 0 instructions: 186501133 cycles: 91120128 heartbeat IPC: 1.158 cumulative IPC: 1.724 (Simulation time: 00 hr 24 min 15 sec)
Heartbeat CPU 0 instructions: 187001139 cycles: 91516366 heartbeat IPC: 1.262 cumulative IPC: 1.721 (Simulation time: 00 hr 24 min 20 sec)
Heartbeat CPU 0 instructions: 187501146 cycles: 91910593 heartbeat IPC: 1.268 cumulative IPC: 1.719 (Simulation time: 00 hr 24 min 26 sec)
Heartbeat CPU 0 instructions: 188001146 cycles: 92316872 heartbeat IPC: 1.231 cumulative IPC: 1.717 (Simulation time: 00 hr 24 min 32 sec)
Heartbeat CPU 0 instructions: 188501152 cycles: 92719991 heartbeat IPC: 1.24 cumulative IPC: 1.714 (Simulation time: 00 hr 24 min 38 sec)
Heartbeat CPU 0 instructions: 189001156 cycles: 93113068 heartbeat IPC: 1.272 cumulative IPC: 1.712 (Simulation time: 00 hr 24 min 43 sec)
Heartbeat CPU 0 instructions: 189501156 cycles: 93514602 heartbeat IPC: 1.245 cumulative IPC: 1.71 (Simulation time: 00 hr 24 min 49 sec)
Heartbeat CPU 0 instructions: 190001157 cycles: 93919568 heartbeat IPC: 1.235 cumulative IPC: 1.707 (Simulation time: 00 hr 24 min 55 sec)
Heartbeat CPU 0 instructions: 190501163 cycles: 94320365 heartbeat IPC: 1.248 cumulative IPC: 1.705 (Simulation time: 00 hr 25 min 01 sec)
Heartbeat CPU 0 instructions: 191001170 cycles: 94725129 heartbeat IPC: 1.235 cumulative IPC: 1.703 (Simulation time: 00 hr 25 min 06 sec)
Heartbeat CPU 0 instructions: 191501176 cycles: 95115198 heartbeat IPC: 1.282 cumulative IPC: 1.701 (Simulation time: 00 hr 25 min 12 sec)
Heartbeat CPU 0 instructions: 192001176 cycles: 95513828 heartbeat IPC: 1.254 cumulative IPC: 1.699 (Simulation time: 00 hr 25 min 18 sec)
Heartbeat CPU 0 instructions: 192501177 cycles: 95912816 heartbeat IPC: 1.253 cumulative IPC: 1.697 (Simulation time: 00 hr 25 min 23 sec)
Heartbeat CPU 0 instructions: 193001180 cycles: 96277691 heartbeat IPC: 1.37 cumulative IPC: 1.695 (Simulation time: 00 hr 25 min 28 sec)
Heartbeat CPU 0 instructions: 193501184 cycles: 96598754 heartbeat IPC: 1.557 cumulative IPC: 1.695 (Simulation time: 00 hr 25 min 32 sec)
Heartbeat CPU 0 instructions: 194001188 cycles: 96918421 heartbeat IPC: 1.564 cumulative IPC: 1.694 (Simulation time: 00 hr 25 min 36 sec)
Heartbeat CPU 0 instructions: 194501194 cycles: 97247593 heartbeat IPC: 1.519 cumulative IPC: 1.694 (Simulation time: 00 hr 25 min 40 sec)
Heartbeat CPU 0 instructions: 195001199 cycles: 97613218 heartbeat IPC: 1.368 cumulative IPC: 1.692 (Simulation time: 00 hr 25 min 45 sec)
Heartbeat CPU 0 instructions: 195501199 cycles: 97955183 heartbeat IPC: 1.462 cumulative IPC: 1.691 (Simulation time: 00 hr 25 min 49 sec)
Heartbeat CPU 0 instructions: 196001200 cycles: 98281027 heartbeat IPC: 1.534 cumulative IPC: 1.691 (Simulation time: 00 hr 25 min 53 sec)
Heartbeat CPU 0 instructions: 196501206 cycles: 98633542 heartbeat IPC: 1.418 cumulative IPC: 1.69 (Simulation time: 00 hr 25 min 58 sec)
Heartbeat CPU 0 instructions: 197001208 cycles: 98980658 heartbeat IPC: 1.44 cumulative IPC: 1.689 (Simulation time: 00 hr 26 min 02 sec)
Heartbeat CPU 0 instructions: 197501214 cycles: 99327398 heartbeat IPC: 1.442 cumulative IPC: 1.688 (Simulation time: 00 hr 26 min 06 sec)
Heartbeat CPU 0 instructions: 198001217 cycles: 99716324 heartbeat IPC: 1.286 cumulative IPC: 1.686 (Simulation time: 00 hr 26 min 11 sec)
Heartbeat CPU 0 instructions: 198501222 cycles: 100117906 heartbeat IPC: 1.245 cumulative IPC: 1.684 (Simulation time: 00 hr 26 min 17 sec)
Heartbeat CPU 0 instructions: 199001228 cycles: 100547451 heartbeat IPC: 1.164 cumulative IPC: 1.681 (Simulation time: 00 hr 26 min 22 sec)
Heartbeat CPU 0 instructions: 199501232 cycles: 100998217 heartbeat IPC: 1.109 cumulative IPC: 1.678 (Simulation time: 00 hr 26 min 28 sec)
Heartbeat CPU 0 instructions: 200001233 cycles: 101460315 heartbeat IPC: 1.082 cumulative IPC: 1.675 (Simulation time: 00 hr 26 min 34 sec)
Heartbeat CPU 0 instructions: 200501233 cycles: 101918903 heartbeat IPC: 1.09 cumulative IPC: 1.672 (Simulation time: 00 hr 26 min 41 sec)
Heartbeat CPU 0 instructions: 201001234 cycles: 102359944 heartbeat IPC: 1.134 cumulative IPC: 1.67 (Simulation time: 00 hr 26 min 46 sec)
Heartbeat CPU 0 instructions: 201501235 cycles: 102800620 heartbeat IPC: 1.135 cumulative IPC: 1.667 (Simulation time: 00 hr 26 min 52 sec)
Heartbeat CPU 0 instructions: 202001235 cycles: 103239906 heartbeat IPC: 1.138 cumulative IPC: 1.665 (Simulation time: 00 hr 26 min 58 sec)
Heartbeat CPU 0 instructions: 202501240 cycles: 103631910 heartbeat IPC: 1.276 cumulative IPC: 1.663 (Simulation time: 00 hr 27 min 03 sec)
Heartbeat CPU 0 instructions: 203001243 cycles: 103954680 heartbeat IPC: 1.549 cumulative IPC: 1.662 (Simulation time: 00 hr 27 min 08 sec)
Heartbeat CPU 0 instructions: 203501250 cycles: 104279598 heartbeat IPC: 1.539 cumulative IPC: 1.662 (Simulation time: 00 hr 27 min 12 sec)
Heartbeat CPU 0 instructions: 204001256 cycles: 104593849 heartbeat IPC: 1.591 cumulative IPC: 1.662 (Simulation time: 00 hr 27 min 17 sec)
Heartbeat CPU 0 instructions: 204501263 cycles: 104895842 heartbeat IPC: 1.656 cumulative IPC: 1.662 (Simulation time: 00 hr 27 min 21 sec)
Heartbeat CPU 0 instructions: 205001270 cycles: 105197676 heartbeat IPC: 1.657 cumulative IPC: 1.662 (Simulation time: 00 hr 27 min 25 sec)
Heartbeat CPU 0 instructions: 205501273 cycles: 105479716 heartbeat IPC: 1.773 cumulative IPC: 1.662 (Simulation time: 00 hr 27 min 29 sec)
Heartbeat CPU 0 instructions: 206001274 cycles: 105742048 heartbeat IPC: 1.906 cumulative IPC: 1.663 (Simulation time: 00 hr 27 min 33 sec)
Heartbeat CPU 0 instructions: 206501280 cycles: 106004059 heartbeat IPC: 1.908 cumulative IPC: 1.663 (Simulation time: 00 hr 27 min 37 sec)
Heartbeat CPU 0 instructions: 207001283 cycles: 106264854 heartbeat IPC: 1.917 cumulative IPC: 1.664 (Simulation time: 00 hr 27 min 41 sec)
Heartbeat CPU 0 instructions: 207501286 cycles: 106528301 heartbeat IPC: 1.898 cumulative IPC: 1.665 (Simulation time: 00 hr 27 min 44 sec)
Heartbeat CPU 0 instructions: 208001291 cycles: 106785839 heartbeat IPC: 1.941 cumulative IPC: 1.666 (Simulation time: 00 hr 27 min 48 sec)
Heartbeat CPU 0 instructions: 208501294 cycles: 107037709 heartbeat IPC: 1.985 cumulative IPC: 1.666 (Simulation time: 00 hr 27 min 52 sec)
Heartbeat CPU 0 instructions: 209001298 cycles: 107290029 heartbeat IPC: 1.982 cumulative IPC: 1.667 (Simulation time: 00 hr 27 min 55 sec)
Heartbeat CPU 0 instructions: 209501305 cycles: 107540764 heartbeat IPC: 1.994 cumulative IPC: 1.668 (Simulation time: 00 hr 27 min 59 sec)
Heartbeat CPU 0 instructions: 210001312 cycles: 107790536 heartbeat IPC: 2.002 cumulative IPC: 1.669 (Simulation time: 00 hr 28 min 03 sec)
Heartbeat CPU 0 instructions: 210501312 cycles: 108042248 heartbeat IPC: 1.986 cumulative IPC: 1.67 (Simulation time: 00 hr 28 min 06 sec)
Heartbeat CPU 0 instructions: 211001312 cycles: 108291985 heartbeat IPC: 2.002 cumulative IPC: 1.671 (Simulation time: 00 hr 28 min 10 sec)
Heartbeat CPU 0 instructions: 211501315 cycles: 108593113 heartbeat IPC: 1.66 cumulative IPC: 1.671 (Simulation time: 00 hr 28 min 14 sec)
Heartbeat CPU 0 instructions: 212001318 cycles: 108892692 heartbeat IPC: 1.669 cumulative IPC: 1.671 (Simulation time: 00 hr 28 min 17 sec)
Heartbeat CPU 0 instructions: 212501318 cycles: 109211879 heartbeat IPC: 1.566 cumulative IPC: 1.67 (Simulation time: 00 hr 28 min 21 sec)
Heartbeat CPU 0 instructions: 213001318 cycles: 109556577 heartbeat IPC: 1.451 cumulative IPC: 1.67 (Simulation time: 00 hr 28 min 26 sec)
Heartbeat CPU 0 instructions: 213501321 cycles: 109908133 heartbeat IPC: 1.422 cumulative IPC: 1.669 (Simulation time: 00 hr 28 min 30 sec)
Heartbeat CPU 0 instructions: 214001324 cycles: 110316613 heartbeat IPC: 1.224 cumulative IPC: 1.667 (Simulation time: 00 hr 28 min 35 sec)
Heartbeat CPU 0 instructions: 214501329 cycles: 110740314 heartbeat IPC: 1.18 cumulative IPC: 1.665 (Simulation time: 00 hr 28 min 40 sec)
Heartbeat CPU 0 instructions: 215001333 cycles: 111160994 heartbeat IPC: 1.189 cumulative IPC: 1.663 (Simulation time: 00 hr 28 min 46 sec)
Heartbeat CPU 0 instructions: 215501335 cycles: 111587727 heartbeat IPC: 1.172 cumulative IPC: 1.661 (Simulation time: 00 hr 28 min 51 sec)
Heartbeat CPU 0 instructions: 216001335 cycles: 111976759 heartbeat IPC: 1.285 cumulative IPC: 1.659 (Simulation time: 00 hr 28 min 56 sec)
Heartbeat CPU 0 instructions: 216501337 cycles: 112269110 heartbeat IPC: 1.71 cumulative IPC: 1.659 (Simulation time: 00 hr 29 min 00 sec)
Heartbeat CPU 0 instructions: 217001339 cycles: 112572598 heartbeat IPC: 1.648 cumulative IPC: 1.659 (Simulation time: 00 hr 29 min 04 sec)
Heartbeat CPU 0 instructions: 217501341 cycles: 112885421 heartbeat IPC: 1.598 cumulative IPC: 1.659 (Simulation time: 00 hr 29 min 09 sec)
Heartbeat CPU 0 instructions: 218001342 cycles: 113183431 heartbeat IPC: 1.678 cumulative IPC: 1.659 (Simulation time: 00 hr 29 min 13 sec)
Heartbeat CPU 0 instructions: 218501346 cycles: 113471909 heartbeat IPC: 1.733 cumulative IPC: 1.659 (Simulation time: 00 hr 29 min 17 sec)
Heartbeat CPU 0 instructions: 219001347 cycles: 113741017 heartbeat IPC: 1.858 cumulative IPC: 1.66 (Simulation time: 00 hr 29 min 21 sec)
Heartbeat CPU 0 instructions: 219501349 cycles: 114002215 heartbeat IPC: 1.914 cumulative IPC: 1.66 (Simulation time: 00 hr 29 min 25 sec)
Heartbeat CPU 0 instructions: 220001349 cycles: 114256134 heartbeat IPC: 1.969 cumulative IPC: 1.661 (Simulation time: 00 hr 29 min 28 sec)
Heartbeat CPU 0 instructions: 220501354 cycles: 114503962 heartbeat IPC: 2.018 cumulative IPC: 1.662 (Simulation time: 00 hr 29 min 32 sec)
Heartbeat CPU 0 instructions: 221001356 cycles: 114753354 heartbeat IPC: 2.005 cumulative IPC: 1.663 (Simulation time: 00 hr 29 min 36 sec)
Heartbeat CPU 0 instructions: 221501360 cycles: 114995155 heartbeat IPC: 2.068 cumulative IPC: 1.664 (Simulation time: 00 hr 29 min 39 sec)
Heartbeat CPU 0 instructions: 222001364 cycles: 115241481 heartbeat IPC: 2.03 cumulative IPC: 1.665 (Simulation time: 00 hr 29 min 43 sec)
Heartbeat CPU 0 instructions: 222501368 cycles: 115490619 heartbeat IPC: 2.007 cumulative IPC: 1.666 (Simulation time: 00 hr 29 min 46 sec)
Heartbeat CPU 0 instructions: 223001370 cycles: 115730889 heartbeat IPC: 2.081 cumulative IPC: 1.667 (Simulation time: 00 hr 29 min 50 sec)
Heartbeat CPU 0 instructions: 223501373 cycles: 115967931 heartbeat IPC: 2.109 cumulative IPC: 1.668 (Simulation time: 00 hr 29 min 53 sec)
Heartbeat CPU 0 instructions: 224001378 cycles: 116206865 heartbeat IPC: 2.093 cumulative IPC: 1.669 (Simulation time: 00 hr 29 min 57 sec)
Heartbeat CPU 0 instructions: 224501382 cycles: 116454490 heartbeat IPC: 2.019 cumulative IPC: 1.669 (Simulation time: 00 hr 30 min 00 sec)
Heartbeat CPU 0 instructions: 225001386 cycles: 116700970 heartbeat IPC: 2.029 cumulative IPC: 1.67 (Simulation time: 00 hr 30 min 04 sec)
Heartbeat CPU 0 instructions: 225501390 cycles: 117003747 heartbeat IPC: 1.651 cumulative IPC: 1.67 (Simulation time: 00 hr 30 min 08 sec)
Heartbeat CPU 0 instructions: 226001396 cycles: 117301026 heartbeat IPC: 1.682 cumulative IPC: 1.67 (Simulation time: 00 hr 30 min 12 sec)
Heartbeat CPU 0 instructions: 226501403 cycles: 117623301 heartbeat IPC: 1.551 cumulative IPC: 1.67 (Simulation time: 00 hr 30 min 16 sec)
Heartbeat CPU 0 instructions: 227001409 cycles: 117972599 heartbeat IPC: 1.431 cumulative IPC: 1.669 (Simulation time: 00 hr 30 min 20 sec)
Heartbeat CPU 0 instructions: 227501416 cycles: 118350654 heartbeat IPC: 1.323 cumulative IPC: 1.668 (Simulation time: 00 hr 30 min 25 sec)
Heartbeat CPU 0 instructions: 228001421 cycles: 118716066 heartbeat IPC: 1.368 cumulative IPC: 1.667 (Simulation time: 00 hr 30 min 29 sec)
Heartbeat CPU 0 instructions: 228501422 cycles: 119087292 heartbeat IPC: 1.347 cumulative IPC: 1.666 (Simulation time: 00 hr 30 min 34 sec)
Heartbeat CPU 0 instructions: 229001425 cycles: 119458754 heartbeat IPC: 1.346 cumulative IPC: 1.665 (Simulation time: 00 hr 30 min 38 sec)
Heartbeat CPU 0 instructions: 229501428 cycles: 119845691 heartbeat IPC: 1.292 cumulative IPC: 1.663 (Simulation time: 00 hr 30 min 43 sec)
Heartbeat CPU 0 instructions: 230001429 cycles: 120225185 heartbeat IPC: 1.318 cumulative IPC: 1.662 (Simulation time: 00 hr 30 min 47 sec)
Heartbeat CPU 0 instructions: 230501429 cycles: 120509157 heartbeat IPC: 1.761 cumulative IPC: 1.662 (Simulation time: 00 hr 30 min 51 sec)
Heartbeat CPU 0 instructions: 231001431 cycles: 120809477 heartbeat IPC: 1.665 cumulative IPC: 1.662 (Simulation time: 00 hr 30 min 55 sec)
Heartbeat CPU 0 instructions: 231501436 cycles: 121118197 heartbeat IPC: 1.62 cumulative IPC: 1.662 (Simulation time: 00 hr 31 min 00 sec)
Heartbeat CPU 0 instructions: 232001438 cycles: 121409525 heartbeat IPC: 1.716 cumulative IPC: 1.662 (Simulation time: 00 hr 31 min 04 sec)
Heartbeat CPU 0 instructions: 232501442 cycles: 121691783 heartbeat IPC: 1.771 cumulative IPC: 1.663 (Simulation time: 00 hr 31 min 08 sec)
Heartbeat CPU 0 instructions: 233001446 cycles: 121977958 heartbeat IPC: 1.747 cumulative IPC: 1.663 (Simulation time: 00 hr 31 min 11 sec)
Heartbeat CPU 0 instructions: 233501448 cycles: 122232073 heartbeat IPC: 1.968 cumulative IPC: 1.664 (Simulation time: 00 hr 31 min 15 sec)
Heartbeat CPU 0 instructions: 234001453 cycles: 122490447 heartbeat IPC: 1.935 cumulative IPC: 1.664 (Simulation time: 00 hr 31 min 18 sec)
Heartbeat CPU 0 instructions: 234501455 cycles: 122745977 heartbeat IPC: 1.957 cumulative IPC: 1.665 (Simulation time: 00 hr 31 min 22 sec)
Heartbeat CPU 0 instructions: 235001455 cycles: 122988256 heartbeat IPC: 2.064 cumulative IPC: 1.666 (Simulation time: 00 hr 31 min 25 sec)
Heartbeat CPU 0 instructions: 235501457 cycles: 123245885 heartbeat IPC: 1.941 cumulative IPC: 1.666 (Simulation time: 00 hr 31 min 29 sec)
Heartbeat CPU 0 instructions: 236001464 cycles: 123497513 heartbeat IPC: 1.987 cumulative IPC: 1.667 (Simulation time: 00 hr 31 min 32 sec)
Heartbeat CPU 0 instructions: 236501467 cycles: 123749438 heartbeat IPC: 1.985 cumulative IPC: 1.668 (Simulation time: 00 hr 31 min 35 sec)
Heartbeat CPU 0 instructions: 237001467 cycles: 123987444 heartbeat IPC: 2.101 cumulative IPC: 1.669 (Simulation time: 00 hr 31 min 39 sec)
Heartbeat CPU 0 instructions: 237501470 cycles: 124224554 heartbeat IPC: 2.109 cumulative IPC: 1.67 (Simulation time: 00 hr 31 min 42 sec)
Heartbeat CPU 0 instructions: 238001473 cycles: 124456778 heartbeat IPC: 2.153 cumulative IPC: 1.671 (Simulation time: 00 hr 31 min 45 sec)
Heartbeat CPU 0 instructions: 238501473 cycles: 124695807 heartbeat IPC: 2.092 cumulative IPC: 1.672 (Simulation time: 00 hr 31 min 49 sec)
Heartbeat CPU 0 instructions: 239001479 cycles: 124929810 heartbeat IPC: 2.137 cumulative IPC: 1.672 (Simulation time: 00 hr 31 min 52 sec)
Heartbeat CPU 0 instructions: 239501479 cycles: 125184564 heartbeat IPC: 1.963 cumulative IPC: 1.673 (Simulation time: 00 hr 31 min 55 sec)
Heartbeat CPU 0 instructions: 240001482 cycles: 125439294 heartbeat IPC: 1.963 cumulative IPC: 1.674 (Simulation time: 00 hr 31 min 59 sec)
Heartbeat CPU 0 instructions: 240501483 cycles: 125695939 heartbeat IPC: 1.948 cumulative IPC: 1.674 (Simulation time: 00 hr 32 min 02 sec)
Heartbeat CPU 0 instructions: 241001487 cycles: 125982483 heartbeat IPC: 1.745 cumulative IPC: 1.675 (Simulation time: 00 hr 32 min 06 sec)
Heartbeat CPU 0 instructions: 241501489 cycles: 126287988 heartbeat IPC: 1.637 cumulative IPC: 1.674 (Simulation time: 00 hr 32 min 10 sec)
Heartbeat CPU 0 instructions: 242001489 cycles: 126608105 heartbeat IPC: 1.562 cumulative IPC: 1.674 (Simulation time: 00 hr 32 min 14 sec)
Heartbeat CPU 0 instructions: 242501489 cycles: 126930598 heartbeat IPC: 1.55 cumulative IPC: 1.674 (Simulation time: 00 hr 32 min 18 sec)
Heartbeat CPU 0 instructions: 243001495 cycles: 127266373 heartbeat IPC: 1.489 cumulative IPC: 1.673 (Simulation time: 00 hr 32 min 23 sec)
Heartbeat CPU 0 instructions: 243501499 cycles: 127612181 heartbeat IPC: 1.446 cumulative IPC: 1.673 (Simulation time: 00 hr 32 min 27 sec)
Heartbeat CPU 0 instructions: 244001503 cycles: 127951667 heartbeat IPC: 1.473 cumulative IPC: 1.672 (Simulation time: 00 hr 32 min 32 sec)
Heartbeat CPU 0 instructions: 244501505 cycles: 128298159 heartbeat IPC: 1.443 cumulative IPC: 1.671 (Simulation time: 00 hr 32 min 36 sec)
Heartbeat CPU 0 instructions: 245001511 cycles: 128623028 heartbeat IPC: 1.539 cumulative IPC: 1.671 (Simulation time: 00 hr 32 min 40 sec)
Heartbeat CPU 0 instructions: 245501513 cycles: 128821863 heartbeat IPC: 2.515 cumulative IPC: 1.672 (Simulation time: 00 hr 32 min 43 sec)
Heartbeat CPU 0 instructions: 246001515 cycles: 129028436 heartbeat IPC: 2.42 cumulative IPC: 1.674 (Simulation time: 00 hr 32 min 46 sec)
Heartbeat CPU 0 instructions: 246501521 cycles: 129228454 heartbeat IPC: 2.5 cumulative IPC: 1.675 (Simulation time: 00 hr 32 min 48 sec)
Heartbeat CPU 0 instructions: 247001525 cycles: 129419305 heartbeat IPC: 2.62 cumulative IPC: 1.677 (Simulation time: 00 hr 32 min 51 sec)
Heartbeat CPU 0 instructions: 247501525 cycles: 129608614 heartbeat IPC: 2.641 cumulative IPC: 1.678 (Simulation time: 00 hr 32 min 54 sec)
Heartbeat CPU 0 instructions: 248001529 cycles: 129797610 heartbeat IPC: 2.646 cumulative IPC: 1.68 (Simulation time: 00 hr 32 min 56 sec)
Heartbeat CPU 0 instructions: 248501533 cycles: 129982679 heartbeat IPC: 2.702 cumulative IPC: 1.681 (Simulation time: 00 hr 32 min 59 sec)
Heartbeat CPU 0 instructions: 249001535 cycles: 130162471 heartbeat IPC: 2.781 cumulative IPC: 1.683 (Simulation time: 00 hr 33 min 01 sec)
Heartbeat CPU 0 instructions: 249501539 cycles: 130333375 heartbeat IPC: 2.926 cumulative IPC: 1.685 (Simulation time: 00 hr 33 min 03 sec)
Simulation finished CPU 0 instructions: 200000001 cycles: 118569698 cumulative IPC: 1.687 (Simulation time: 00 hr 33 min 05 sec)
Simulation complete CPU 0 instructions: 200000001 cycles: 118569698 cumulative IPC: 1.687 (Simulation time: 00 hr 33 min 05 sec)

ChampSim completed all CPUs

=== Simulation ===
CPU 0 runs /local-ssd/ben/dpc4-traces/SPEC17/654.roms_s-523B.champsimtrace.xz

Region of Interest Statistics

CPU 0 cumulative IPC: 1.687 instructions: 200000001 cycles: 118569698
CPU 0 Branch Prediction Accuracy: 99.85% MPKI: 0.0973 Average ROB Occupancy at Mispredict: 538.9
Branch type MPKI
BRANCH_DIRECT_JUMP: 1e-05
BRANCH_INDIRECT: 0
BRANCH_CONDITIONAL: 0.09729
BRANCH_DIRECT_CALL: 0
BRANCH_INDIRECT_CALL: 0
BRANCH_RETURN: 0

cpu0->cpu0_STLB TOTAL        ACCESS:     100852 HIT:        949 MISS:      99903 MSHR_MERGE:          0
cpu0->cpu0_STLB LOAD         ACCESS:     100852 HIT:        949 MISS:      99903 MSHR_MERGE:          0
cpu0->cpu0_STLB RFO          ACCESS:          0 HIT:          0 MISS:          0 MSHR_MERGE:          0
cpu0->cpu0_STLB PREFETCH     ACCESS:          0 HIT:          0 MISS:          0 MSHR_MERGE:          0
cpu0->cpu0_STLB WRITE        ACCESS:          0 HIT:          0 MISS:          0 MSHR_MERGE:          0
cpu0->cpu0_STLB TRANSLATION  ACCESS:          0 HIT:          0 MISS:          0 MSHR_MERGE:          0
cpu0->cpu0_STLB PREFETCH REQUESTED:          0 ISSUED:          0 USEFUL:          0 USELESS:          0
cpu0->cpu0_STLB AVERAGE MISS LATENCY: 154.6 cycles
cpu0->cpu0_L2C TOTAL        ACCESS:   32537259 HIT:    2874649 MISS:   29662610 MSHR_MERGE:    1057889
cpu0->cpu0_L2C LOAD         ACCESS:     230558 HIT:      32719 MISS:     197839 MSHR_MERGE:       7111
cpu0->cpu0_L2C RFO          ACCESS:    1208190 HIT:          1 MISS:    1208189 MSHR_MERGE:          0
cpu0->cpu0_L2C PREFETCH     ACCESS:   29602937 HIT:    1367301 MISS:   28235636 MSHR_MERGE:    1050778
cpu0->cpu0_L2C WRITE        ACCESS:    1474385 HIT:    1474341 MISS:         44 MSHR_MERGE:          0
cpu0->cpu0_L2C TRANSLATION  ACCESS:      21189 HIT:        287 MISS:      20902 MSHR_MERGE:          0
cpu0->cpu0_L2C PREFETCH REQUESTED:   41874035 ISSUED:   26577452 USEFUL:    1346544 USELESS:     191211
cpu0->cpu0_L2C AVERAGE MISS LATENCY: 432.8 cycles
cpu0->cpu0_L1I TOTAL        ACCESS:   33944344 HIT:   33944310 MISS:         34 MSHR_MERGE:          2
cpu0->cpu0_L1I LOAD         ACCESS:   33944344 HIT:   33944310 MISS:         34 MSHR_MERGE:          2
cpu0->cpu0_L1I RFO          ACCESS:          0 HIT:          0 MISS:          0 MSHR_MERGE:          0
cpu0->cpu0_L1I PREFETCH     ACCESS:          0 HIT:          0 MISS:          0 MSHR_MERGE:          0
cpu0->cpu0_L1I WRITE        ACCESS:          0 HIT:          0 MISS:          0 MSHR_MERGE:          0
cpu0->cpu0_L1I TRANSLATION  ACCESS:          0 HIT:          0 MISS:          0 MSHR_MERGE:          0
cpu0->cpu0_L1I PREFETCH REQUESTED:          0 ISSUED:          0 USEFUL:          0 USELESS:          0
cpu0->cpu0_L1I AVERAGE MISS LATENCY: 143.3 cycles
cpu0->cpu0_L1D TOTAL        ACCESS:   54324544 HIT:   40756975 MISS:   13567569 MSHR_MERGE:    9082171
cpu0->cpu0_L1D LOAD         ACCESS:   39494818 HIT:   38171356 MISS:    1323462 MSHR_MERGE:    1092934
cpu0->cpu0_L1D RFO          ACCESS:          0 HIT:          0 MISS:          0 MSHR_MERGE:          0
cpu0->cpu0_L1D PREFETCH     ACCESS:    3226374 HIT:     147603 MISS:    3078771 MSHR_MERGE:      53280
cpu0->cpu0_L1D WRITE        ACCESS:   11403766 HIT:    2259925 MISS:    9143841 MSHR_MERGE:    7935651
cpu0->cpu0_L1D TRANSLATION  ACCESS:     199586 HIT:     178091 MISS:      21495 MSHR_MERGE:        306
cpu0->cpu0_L1D PREFETCH REQUESTED:    3239140 ISSUED:    3226366 USEFUL:    2956503 USELESS:      68981
cpu0->cpu0_L1D AVERAGE MISS LATENCY: 410.3 cycles
cpu0->cpu0_ITLB TOTAL        ACCESS:   26929092 HIT:   26929092 MISS:          0 MSHR_MERGE:          0
cpu0->cpu0_ITLB LOAD         ACCESS:   26929092 HIT:   26929092 MISS:          0 MSHR_MERGE:          0
cpu0->cpu0_ITLB RFO          ACCESS:          0 HIT:          0 MISS:          0 MSHR_MERGE:          0
cpu0->cpu0_ITLB PREFETCH     ACCESS:          0 HIT:          0 MISS:          0 MSHR_MERGE:          0
cpu0->cpu0_ITLB WRITE        ACCESS:          0 HIT:          0 MISS:          0 MSHR_MERGE:          0
cpu0->cpu0_ITLB TRANSLATION  ACCESS:          0 HIT:          0 MISS:          0 MSHR_MERGE:          0
cpu0->cpu0_ITLB PREFETCH REQUESTED:          0 ISSUED:          0 USEFUL:          0 USELESS:          0
cpu0->cpu0_ITLB AVERAGE MISS LATENCY: - cycles
cpu0->cpu0_DTLB TOTAL        ACCESS:   51056629 HIT:   50596766 MISS:     459863 MSHR_MERGE:     359011
cpu0->cpu0_DTLB LOAD         ACCESS:   51056629 HIT:   50596766 MISS:     459863 MSHR_MERGE:     359011
cpu0->cpu0_DTLB RFO          ACCESS:          0 HIT:          0 MISS:          0 MSHR_MERGE:          0
cpu0->cpu0_DTLB PREFETCH     ACCESS:          0 HIT:          0 MISS:          0 MSHR_MERGE:          0
cpu0->cpu0_DTLB WRITE        ACCESS:          0 HIT:          0 MISS:          0 MSHR_MERGE:          0
cpu0->cpu0_DTLB TRANSLATION  ACCESS:          0 HIT:          0 MISS:          0 MSHR_MERGE:          0
cpu0->cpu0_DTLB PREFETCH REQUESTED:          0 ISSUED:          0 USEFUL:          0 USELESS:          0
cpu0->cpu0_DTLB AVERAGE MISS LATENCY: 159.2 cycles
cpu0->LLC TOTAL        ACCESS:   32935126 HIT:   21766344 MISS:   11168782 MSHR_MERGE:    4974348
cpu0->LLC LOAD         ACCESS:     190728 HIT:      81077 MISS:     109651 MSHR_MERGE:      13956
cpu0->LLC RFO          ACCESS:    1208189 HIT:        283 MISS:    1207906 MSHR_MERGE:          5
cpu0->LLC PREFETCH     ACCESS:   30041280 HIT:   21498313 MISS:    8542967 MSHR_MERGE:    4960387
cpu0->LLC WRITE        ACCESS:    1474027 HIT:     186671 MISS:    1287356 MSHR_MERGE:          0
cpu0->LLC TRANSLATION  ACCESS:      20902 HIT:          0 MISS:      20902 MSHR_MERGE:          0
cpu0->LLC PREFETCH REQUESTED:    3591511 ISSUED:    3197104 USEFUL:    2193074 USELESS:     389774
cpu0->LLC AVERAGE MISS LATENCY: 230.2 cycles

DRAM Statistics

Channel 0 RQ ROW_BUFFER_HIT:     179086
  ROW_BUFFER_MISS:    4727883
  AVG DBUS CONGESTED CYCLE: 8.503
Channel 0 WQ ROW_BUFFER_HIT:      59355
  ROW_BUFFER_MISS:    1412530
  FULL:      31457
Channel 0 REFRESHES ISSUED:       9880
