[VMEM] WARNING: physical memory size is smaller than virtual memory size.

*** ChampSim Multicore Out-of-Order Simulator ***
Warmup Instructions: 50000000
Simulation Instructions: 200000000
Number of CPUs: 1
Page size: 4096
Core 0: /local-ssd/ben/dpc4-traces/SPEC17/603.bwaves_s-891B.champsimtrace.xz
Initialize SIGNATURE TABLE
ST_SET: 1
ST_WAY: 256
ST_TAG_BIT: 16

Initialize PATTERN TABLE
PT_SET: 512
PT_WAY: 4
SIG_DELTA_BIT: 7
C_SIG_BIT: 4
C_DELTA_BIT: 4

Initialize PREFETCH FILTER
FILTER_SET: 1024
 L1D Berti prefetcher
Off-chip DRAM Size: 64 GiB Channels: 1 Width: 64-bit Data Rate: 4807 MT/s
Heartbeat CPU 0 instructions: 500003 cycles: 107817 heartbeat IPC: 4.638 cumulative IPC: 4.638 (Simulation time: 00 hr 00 min 04 sec)
Heartbeat CPU 0 instructions: 1000003 cycles: 213582 heartbeat IPC: 4.727 cumulative IPC: 4.682 (Simulation time: 00 hr 00 min 07 sec)
Heartbeat CPU 0 instructions: 1500005 cycles: 319314 heartbeat IPC: 4.729 cumulative IPC: 4.698 (Simulation time: 00 hr 00 min 09 sec)
Heartbeat CPU 0 instructions: 2000005 cycles: 424889 heartbeat IPC: 4.736 cumulative IPC: 4.707 (Simulation time: 00 hr 00 min 12 sec)
Heartbeat CPU 0 instructions: 2500011 cycles: 530471 heartbeat IPC: 4.736 cumulative IPC: 4.713 (Simulation time: 00 hr 00 min 15 sec)
Heartbeat CPU 0 instructions: 3000015 cycles: 636053 heartbeat IPC: 4.736 cumulative IPC: 4.717 (Simulation time: 00 hr 00 min 18 sec)
Heartbeat CPU 0 instructions: 3500015 cycles: 741838 heartbeat IPC: 4.727 cumulative IPC: 4.718 (Simulation time: 00 hr 00 min 20 sec)
Heartbeat CPU 0 instructions: 4000022 cycles: 847437 heartbeat IPC: 4.735 cumulative IPC: 4.72 (Simulation time: 00 hr 00 min 23 sec)
Heartbeat CPU 0 instructions: 4500022 cycles: 953228 heartbeat IPC: 4.726 cumulative IPC: 4.721 (Simulation time: 00 hr 00 min 26 sec)
Heartbeat CPU 0 instructions: 5000028 cycles: 1059044 heartbeat IPC: 4.725 cumulative IPC: 4.721 (Simulation time: 00 hr 00 min 29 sec)
Heartbeat CPU 0 instructions: 5500034 cycles: 1164627 heartbeat IPC: 4.736 cumulative IPC: 4.723 (Simulation time: 00 hr 00 min 32 sec)
Heartbeat CPU 0 instructions: 6000034 cycles: 1270183 heartbeat IPC: 4.737 cumulative IPC: 4.724 (Simulation time: 00 hr 00 min 34 sec)
Heartbeat CPU 0 instructions: 6500038 cycles: 1375764 heartbeat IPC: 4.736 cumulative IPC: 4.725 (Simulation time: 00 hr 00 min 36 sec)
Heartbeat CPU 0 instructions: 7000039 cycles: 1481342 heartbeat IPC: 4.736 cumulative IPC: 4.725 (Simulation time: 00 hr 00 min 37 sec)
Heartbeat CPU 0 instructions: 7500044 cycles: 1586922 heartbeat IPC: 4.736 cumulative IPC: 4.726 (Simulation time: 00 hr 00 min 39 sec)
Heartbeat CPU 0 instructions: 8000046 cycles: 1692502 heartbeat IPC: 4.736 cumulative IPC: 4.727 (Simulation time: 00 hr 00 min 41 sec)
Heartbeat CPU 0 instructions: 8500046 cycles: 1798279 heartbeat IPC: 4.727 cumulative IPC: 4.727 (Simulation time: 00 hr 00 min 43 sec)
Heartbeat CPU 0 instructions: 9000046 cycles: 1904041 heartbeat IPC: 4.728 cumulative IPC: 4.727 (Simulation time: 00 hr 00 min 44 sec)
Heartbeat CPU 0 instructions: 9500048 cycles: 2009596 heartbeat IPC: 4.737 cumulative IPC: 4.727 (Simulation time: 00 hr 00 min 46 sec)
Heartbeat CPU 0 instructions: 10000048 cycles: 2115378 heartbeat IPC: 4.727 cumulative IPC: 4.727 (Simulation time: 00 hr 00 min 48 sec)
Heartbeat CPU 0 instructions: 10500051 cycles: 2221158 heartbeat IPC: 4.727 cumulative IPC: 4.727 (Simulation time: 00 hr 00 min 50 sec)
Heartbeat CPU 0 instructions: 11000055 cycles: 2326731 heartbeat IPC: 4.736 cumulative IPC: 4.728 (Simulation time: 00 hr 00 min 51 sec)
Heartbeat CPU 0 instructions: 11500059 cycles: 2432315 heartbeat IPC: 4.736 cumulative IPC: 4.728 (Simulation time: 00 hr 00 min 53 sec)
Heartbeat CPU 0 instructions: 12000059 cycles: 2537901 heartbeat IPC: 4.735 cumulative IPC: 4.728 (Simulation time: 00 hr 00 min 55 sec)
Heartbeat CPU 0 instructions: 12500059 cycles: 2643482 heartbeat IPC: 4.736 cumulative IPC: 4.729 (Simulation time: 00 hr 00 min 57 sec)
Heartbeat CPU 0 instructions: 13000063 cycles: 2749262 heartbeat IPC: 4.727 cumulative IPC: 4.729 (Simulation time: 00 hr 00 min 59 sec)
Heartbeat CPU 0 instructions: 13500063 cycles: 2854845 heartbeat IPC: 4.736 cumulative IPC: 4.729 (Simulation time: 00 hr 01 min 00 sec)
Heartbeat CPU 0 instructions: 14000063 cycles: 2960625 heartbeat IPC: 4.727 cumulative IPC: 4.729 (Simulation time: 00 hr 01 min 02 sec)
Heartbeat CPU 0 instructions: 14500065 cycles: 3066200 heartbeat IPC: 4.736 cumulative IPC: 4.729 (Simulation time: 00 hr 01 min 04 sec)
Heartbeat CPU 0 instructions: 15000068 cycles: 3171978 heartbeat IPC: 4.727 cumulative IPC: 4.729 (Simulation time: 00 hr 01 min 06 sec)
Heartbeat CPU 0 instructions: 15500070 cycles: 3277775 heartbeat IPC: 4.726 cumulative IPC: 4.729 (Simulation time: 00 hr 01 min 07 sec)
Heartbeat CPU 0 instructions: 16000071 cycles: 3383388 heartbeat IPC: 4.734 cumulative IPC: 4.729 (Simulation time: 00 hr 01 min 09 sec)
Heartbeat CPU 0 instructions: 16500073 cycles: 3489006 heartbeat IPC: 4.734 cumulative IPC: 4.729 (Simulation time: 00 hr 01 min 11 sec)
Heartbeat CPU 0 instructions: 17000076 cycles: 3594366 heartbeat IPC: 4.746 cumulative IPC: 4.73 (Simulation time: 00 hr 01 min 13 sec)
Heartbeat CPU 0 instructions: 17500080 cycles: 3699946 heartbeat IPC: 4.736 cumulative IPC: 4.73 (Simulation time: 00 hr 01 min 15 sec)
Heartbeat CPU 0 instructions: 18000080 cycles: 3805725 heartbeat IPC: 4.727 cumulative IPC: 4.73 (Simulation time: 00 hr 01 min 16 sec)
Heartbeat CPU 0 instructions: 18500083 cycles: 3911296 heartbeat IPC: 4.736 cumulative IPC: 4.73 (Simulation time: 00 hr 01 min 18 sec)
Heartbeat CPU 0 instructions: 19000085 cycles: 4017089 heartbeat IPC: 4.726 cumulative IPC: 4.73 (Simulation time: 00 hr 01 min 20 sec)
Heartbeat CPU 0 instructions: 19500088 cycles: 4122863 heartbeat IPC: 4.727 cumulative IPC: 4.73 (Simulation time: 00 hr 01 min 22 sec)
Heartbeat CPU 0 instructions: 20000091 cycles: 4228635 heartbeat IPC: 4.727 cumulative IPC: 4.73 (Simulation time: 00 hr 01 min 23 sec)
Heartbeat CPU 0 instructions: 20500092 cycles: 4334191 heartbeat IPC: 4.737 cumulative IPC: 4.73 (Simulation time: 00 hr 01 min 25 sec)
Heartbeat CPU 0 instructions: 21000095 cycles: 4439784 heartbeat IPC: 4.735 cumulative IPC: 4.73 (Simulation time: 00 hr 01 min 27 sec)
Heartbeat CPU 0 instructions: 21500101 cycles: 4545360 heartbeat IPC: 4.736 cumulative IPC: 4.73 (Simulation time: 00 hr 01 min 29 sec)
Heartbeat CPU 0 instructions: 22000105 cycles: 4650929 heartbeat IPC: 4.736 cumulative IPC: 4.73 (Simulation time: 00 hr 01 min 31 sec)
Heartbeat CPU 0 instructions: 22500108 cycles: 4756504 heartbeat IPC: 4.736 cumulative IPC: 4.73 (Simulation time: 00 hr 01 min 32 sec)
Heartbeat CPU 0 instructions: 23000108 cycles: 4862278 heartbeat IPC: 4.727 cumulative IPC: 4.73 (Simulation time: 00 hr 01 min 34 sec)
Heartbeat CPU 0 instructions: 23500111 cycles: 4968071 heartbeat IPC: 4.726 cumulative IPC: 4.73 (Simulation time: 00 hr 01 min 36 sec)
Heartbeat CPU 0 instructions: 24000113 cycles: 5073633 heartbeat IPC: 4.737 cumulative IPC: 4.73 (Simulation time: 00 hr 01 min 38 sec)
Heartbeat CPU 0 instructions: 24500113 cycles: 5179406 heartbeat IPC: 4.727 cumulative IPC: 4.73 (Simulation time: 00 hr 01 min 39 sec)
Heartbeat CPU 0 instructions: 25000116 cycles: 5285200 heartbeat IPC: 4.726 cumulative IPC: 4.73 (Simulation time: 00 hr 01 min 41 sec)
Heartbeat CPU 0 instructions: 25500123 cycles: 5390758 heartbeat IPC: 4.737 cumulative IPC: 4.73 (Simulation time: 00 hr 01 min 43 sec)
Heartbeat CPU 0 instructions: 26000130 cycles: 5496323 heartbeat IPC: 4.736 cumulative IPC: 4.73 (Simulation time: 00 hr 01 min 45 sec)
Heartbeat CPU 0 instructions: 26500133 cycles: 5601906 heartbeat IPC: 4.736 cumulative IPC: 4.731 (Simulation time: 00 hr 01 min 47 sec)
Heartbeat CPU 0 instructions: 27000133 cycles: 5707490 heartbeat IPC: 4.736 cumulative IPC: 4.731 (Simulation time: 00 hr 01 min 48 sec)
Heartbeat CPU 0 instructions: 27500140 cycles: 5813314 heartbeat IPC: 4.725 cumulative IPC: 4.731 (Simulation time: 00 hr 01 min 50 sec)
Heartbeat CPU 0 instructions: 28000147 cycles: 5918687 heartbeat IPC: 4.745 cumulative IPC: 4.731 (Simulation time: 00 hr 01 min 52 sec)
Heartbeat CPU 0 instructions: 28500150 cycles: 6024469 heartbeat IPC: 4.727 cumulative IPC: 4.731 (Simulation time: 00 hr 01 min 54 sec)
Heartbeat CPU 0 instructions: 29000152 cycles: 6130043 heartbeat IPC: 4.736 cumulative IPC: 4.731 (Simulation time: 00 hr 01 min 55 sec)
Heartbeat CPU 0 instructions: 29500157 cycles: 6235842 heartbeat IPC: 4.726 cumulative IPC: 4.731 (Simulation time: 00 hr 01 min 57 sec)
Heartbeat CPU 0 instructions: 30000160 cycles: 6341631 heartbeat IPC: 4.726 cumulative IPC: 4.731 (Simulation time: 00 hr 01 min 59 sec)
Heartbeat CPU 0 instructions: 30500160 cycles: 6447221 heartbeat IPC: 4.735 cumulative IPC: 4.731 (Simulation time: 00 hr 02 min 01 sec)
Heartbeat CPU 0 instructions: 31000165 cycles: 6552792 heartbeat IPC: 4.736 cumulative IPC: 4.731 (Simulation time: 00 hr 02 min 03 sec)
Heartbeat CPU 0 instructions: 31500165 cycles: 6658371 heartbeat IPC: 4.736 cumulative IPC: 4.731 (Simulation time: 00 hr 02 min 04 sec)
Heartbeat CPU 0 instructions: 32000165 cycles: 6763951 heartbeat IPC: 4.736 cumulative IPC: 4.731 (Simulation time: 00 hr 02 min 06 sec)
Heartbeat CPU 0 instructions: 32500168 cycles: 6869711 heartbeat IPC: 4.728 cumulative IPC: 4.731 (Simulation time: 00 hr 02 min 08 sec)
Heartbeat CPU 0 instructions: 33000172 cycles: 6975277 heartbeat IPC: 4.736 cumulative IPC: 4.731 (Simulation time: 00 hr 02 min 10 sec)
Heartbeat CPU 0 instructions: 33500174 cycles: 7081065 heartbeat IPC: 4.726 cumulative IPC: 4.731 (Simulation time: 00 hr 02 min 12 sec)
Heartbeat CPU 0 instructions: 34000177 cycles: 7186843 heartbeat IPC: 4.727 cumulative IPC: 4.731 (Simulation time: 00 hr 02 min 13 sec)
Heartbeat CPU 0 instructions: 34500177 cycles: 7292612 heartbeat IPC: 4.727 cumulative IPC: 4.731 (Simulation time: 00 hr 02 min 15 sec)
Heartbeat CPU 0 instructions: 35000177 cycles: 7398167 heartbeat IPC: 4.737 cumulative IPC: 4.731 (Simulation time: 00 hr 02 min 17 sec)
Heartbeat CPU 0 instructions: 35500177 cycles: 7503741 heartbeat IPC: 4.736 cumulative IPC: 4.731 (Simulation time: 00 hr 02 min 19 sec)
Heartbeat CPU 0 instructions: 36000177 cycles: 7609316 heartbeat IPC: 4.736 cumulative IPC: 4.731 (Simulation time: 00 hr 02 min 20 sec)
Heartbeat CPU 0 instructions: 36500181 cycles: 7714901 heartbeat IPC: 4.736 cumulative IPC: 4.731 (Simulation time: 00 hr 02 min 22 sec)
Heartbeat CPU 0 instructions: 37000185 cycles: 7820487 heartbeat IPC: 4.736 cumulative IPC: 4.731 (Simulation time: 00 hr 02 min 24 sec)
Heartbeat CPU 0 instructions: 37500189 cycles: 7926267 heartbeat IPC: 4.727 cumulative IPC: 4.731 (Simulation time: 00 hr 02 min 26 sec)
Heartbeat CPU 0 instructions: 38000192 cycles: 8032095 heartbeat IPC: 4.725 cumulative IPC: 4.731 (Simulation time: 00 hr 02 min 28 sec)
Heartbeat CPU 0 instructions: 38500194 cycles: 8137709 heartbeat IPC: 4.734 cumulative IPC: 4.731 (Simulation time: 00 hr 02 min 29 sec)
Heartbeat CPU 0 instructions: 39000194 cycles: 8243525 heartbeat IPC: 4.725 cumulative IPC: 4.731 (Simulation time: 00 hr 02 min 31 sec)
Heartbeat CPU 0 instructions: 39500197 cycles: 8349110 heartbeat IPC: 4.736 cumulative IPC: 4.731 (Simulation time: 00 hr 02 min 33 sec)
Heartbeat CPU 0 instructions: 40000200 cycles: 8454688 heartbeat IPC: 4.736 cumulative IPC: 4.731 (Simulation time: 00 hr 02 min 35 sec)
Heartbeat CPU 0 instructions: 40500202 cycles: 8560258 heartbeat IPC: 4.736 cumulative IPC: 4.731 (Simulation time: 00 hr 02 min 36 sec)
Heartbeat CPU 0 instructions: 41000202 cycles: 8665831 heartbeat IPC: 4.736 cumulative IPC: 4.731 (Simulation time: 00 hr 02 min 38 sec)
Heartbeat CPU 0 instructions: 41500202 cycles: 8771396 heartbeat IPC: 4.736 cumulative IPC: 4.731 (Simulation time: 00 hr 02 min 40 sec)
Heartbeat CPU 0 instructions: 42000209 cycles: 8877188 heartbeat IPC: 4.726 cumulative IPC: 4.731 (Simulation time: 00 hr 02 min 42 sec)
Heartbeat CPU 0 instructions: 42500209 cycles: 8982761 heartbeat IPC: 4.736 cumulative IPC: 4.731 (Simulation time: 00 hr 02 min 44 sec)
Heartbeat CPU 0 instructions: 43000211 cycles: 9089137 heartbeat IPC: 4.7 cumulative IPC: 4.731 (Simulation time: 00 hr 02 min 45 sec)
Heartbeat CPU 0 instructions: 43500212 cycles: 9200826 heartbeat IPC: 4.477 cumulative IPC: 4.728 (Simulation time: 00 hr 02 min 47 sec)
Heartbeat CPU 0 instructions: 44000214 cycles: 9312369 heartbeat IPC: 4.483 cumulative IPC: 4.725 (Simulation time: 00 hr 02 min 49 sec)
Heartbeat CPU 0 instructions: 44500215 cycles: 9423945 heartbeat IPC: 4.481 cumulative IPC: 4.722 (Simulation time: 00 hr 02 min 51 sec)
Heartbeat CPU 0 instructions: 45000222 cycles: 9535499 heartbeat IPC: 4.482 cumulative IPC: 4.719 (Simulation time: 00 hr 02 min 52 sec)
Heartbeat CPU 0 instructions: 45500222 cycles: 9647033 heartbeat IPC: 4.483 cumulative IPC: 4.716 (Simulation time: 00 hr 02 min 54 sec)
Heartbeat CPU 0 instructions: 46000222 cycles: 9758550 heartbeat IPC: 4.484 cumulative IPC: 4.714 (Simulation time: 00 hr 02 min 56 sec)
Heartbeat CPU 0 instructions: 46500229 cycles: 9870143 heartbeat IPC: 4.481 cumulative IPC: 4.711 (Simulation time: 00 hr 02 min 57 sec)
Heartbeat CPU 0 instructions: 47000235 cycles: 9981505 heartbeat IPC: 4.49 cumulative IPC: 4.709 (Simulation time: 00 hr 02 min 59 sec)
Heartbeat CPU 0 instructions: 47500237 cycles: 10093224 heartbeat IPC: 4.476 cumulative IPC: 4.706 (Simulation time: 00 hr 03 min 01 sec)
Heartbeat CPU 0 instructions: 48000241 cycles: 10204748 heartbeat IPC: 4.483 cumulative IPC: 4.704 (Simulation time: 00 hr 03 min 03 sec)
Heartbeat CPU 0 instructions: 48500247 cycles: 10316348 heartbeat IPC: 4.48 cumulative IPC: 4.701 (Simulation time: 00 hr 03 min 04 sec)
Heartbeat CPU 0 instructions: 49000252 cycles: 10427709 heartbeat IPC: 4.49 cumulative IPC: 4.699 (Simulation time: 00 hr 03 min 06 sec)
Heartbeat CPU 0 instructions: 49500257 cycles: 10539437 heartbeat IPC: 4.475 cumulative IPC: 4.697 (Simulation time: 00 hr 03 min 08 sec)
Warmup finished CPU 0 instructions: 50000007 cycles: 10650922 cumulative IPC: 4.694 (Simulation time: 00 hr 03 min 10 sec)
Warmup complete CPU 0 instructions: 50000007 cycles: 10650922 cumulative IPC: 4.694 (Simulation time: 00 hr 03 min 10 sec)
Heartbeat CPU 0 instructions: 50000261 cycles: 10651004 heartbeat IPC: 4.482 cumulative IPC: 3.098 (Simulation time: 00 hr 03 min 10 sec)
Heartbeat CPU 0 instructions: 50500263 cycles: 10912187 heartbeat IPC: 1.914 cumulative IPC: 1.915 (Simulation time: 00 hr 03 min 12 sec)
Heartbeat CPU 0 instructions: 51000264 cycles: 11172801 heartbeat IPC: 1.919 cumulative IPC: 1.917 (Simulation time: 00 hr 03 min 15 sec)
Heartbeat CPU 0 instructions: 51500266 cycles: 11434377 heartbeat IPC: 1.911 cumulative IPC: 1.915 (Simulation time: 00 hr 03 min 18 sec)
Heartbeat CPU 0 instructions: 52000268 cycles: 11695155 heartbeat IPC: 1.917 cumulative IPC: 1.916 (Simulation time: 00 hr 03 min 20 sec)
Heartbeat CPU 0 instructions: 52500268 cycles: 11958349 heartbeat IPC: 1.9 cumulative IPC: 1.912 (Simulation time: 00 hr 03 min 23 sec)
Heartbeat CPU 0 instructions: 53000271 cycles: 12218718 heartbeat IPC: 1.92 cumulative IPC: 1.914 (Simulation time: 00 hr 03 min 25 sec)
Heartbeat CPU 0 instructions: 53500271 cycles: 12479305 heartbeat IPC: 1.919 cumulative IPC: 1.914 (Simulation time: 00 hr 03 min 28 sec)
Heartbeat CPU 0 instructions: 54000274 cycles: 12740308 heartbeat IPC: 1.916 cumulative IPC: 1.915 (Simulation time: 00 hr 03 min 31 sec)
Heartbeat CPU 0 instructions: 54500274 cycles: 13001653 heartbeat IPC: 1.913 cumulative IPC: 1.914 (Simulation time: 00 hr 03 min 33 sec)
Heartbeat CPU 0 instructions: 55000278 cycles: 13263261 heartbeat IPC: 1.911 cumulative IPC: 1.914 (Simulation time: 00 hr 03 min 36 sec)
Heartbeat CPU 0 instructions: 55500279 cycles: 13523459 heartbeat IPC: 1.922 cumulative IPC: 1.915 (Simulation time: 00 hr 03 min 39 sec)
Heartbeat CPU 0 instructions: 56000280 cycles: 13786234 heartbeat IPC: 1.903 cumulative IPC: 1.914 (Simulation time: 00 hr 03 min 41 sec)
Heartbeat CPU 0 instructions: 56500280 cycles: 14047032 heartbeat IPC: 1.917 cumulative IPC: 1.914 (Simulation time: 00 hr 03 min 44 sec)
Heartbeat CPU 0 instructions: 57000281 cycles: 14308186 heartbeat IPC: 1.915 cumulative IPC: 1.914 (Simulation time: 00 hr 03 min 46 sec)
Heartbeat CPU 0 instructions: 57500282 cycles: 14568035 heartbeat IPC: 1.924 cumulative IPC: 1.915 (Simulation time: 00 hr 03 min 49 sec)
Heartbeat CPU 0 instructions: 58000286 cycles: 14829147 heartbeat IPC: 1.915 cumulative IPC: 1.915 (Simulation time: 00 hr 03 min 52 sec)
Heartbeat CPU 0 instructions: 58500286 cycles: 15090976 heartbeat IPC: 1.91 cumulative IPC: 1.914 (Simulation time: 00 hr 03 min 54 sec)
Heartbeat CPU 0 instructions: 59000289 cycles: 15353508 heartbeat IPC: 1.905 cumulative IPC: 1.914 (Simulation time: 00 hr 03 min 57 sec)
Heartbeat CPU 0 instructions: 59500291 cycles: 15614690 heartbeat IPC: 1.914 cumulative IPC: 1.914 (Simulation time: 00 hr 04 min 00 sec)
Heartbeat CPU 0 instructions: 60000292 cycles: 15875311 heartbeat IPC: 1.918 cumulative IPC: 1.914 (Simulation time: 00 hr 04 min 02 sec)
Heartbeat CPU 0 instructions: 60500295 cycles: 16136049 heartbeat IPC: 1.918 cumulative IPC: 1.914 (Simulation time: 00 hr 04 min 05 sec)
Heartbeat CPU 0 instructions: 61000296 cycles: 16396951 heartbeat IPC: 1.916 cumulative IPC: 1.914 (Simulation time: 00 hr 04 min 07 sec)
Heartbeat CPU 0 instructions: 61500298 cycles: 16657266 heartbeat IPC: 1.921 cumulative IPC: 1.915 (Simulation time: 00 hr 04 min 10 sec)
Heartbeat CPU 0 instructions: 62000299 cycles: 16918609 heartbeat IPC: 1.913 cumulative IPC: 1.915 (Simulation time: 00 hr 04 min 13 sec)
Heartbeat CPU 0 instructions: 62500301 cycles: 17180177 heartbeat IPC: 1.912 cumulative IPC: 1.915 (Simulation time: 00 hr 04 min 15 sec)
Heartbeat CPU 0 instructions: 63000302 cycles: 17440957 heartbeat IPC: 1.917 cumulative IPC: 1.915 (Simulation time: 00 hr 04 min 18 sec)
Heartbeat CPU 0 instructions: 63500304 cycles: 17701386 heartbeat IPC: 1.92 cumulative IPC: 1.915 (Simulation time: 00 hr 04 min 20 sec)
Heartbeat CPU 0 instructions: 64000304 cycles: 17962177 heartbeat IPC: 1.917 cumulative IPC: 1.915 (Simulation time: 00 hr 04 min 23 sec)
Heartbeat CPU 0 instructions: 64500307 cycles: 18223069 heartbeat IPC: 1.917 cumulative IPC: 1.915 (Simulation time: 00 hr 04 min 26 sec)
Heartbeat CPU 0 instructions: 65000307 cycles: 18484656 heartbeat IPC: 1.911 cumulative IPC: 1.915 (Simulation time: 00 hr 04 min 28 sec)
Heartbeat CPU 0 instructions: 65500310 cycles: 18745504 heartbeat IPC: 1.917 cumulative IPC: 1.915 (Simulation time: 00 hr 04 min 31 sec)
Heartbeat CPU 0 instructions: 66000310 cycles: 19006067 heartbeat IPC: 1.919 cumulative IPC: 1.915 (Simulation time: 00 hr 04 min 33 sec)
Heartbeat CPU 0 instructions: 66500313 cycles: 19269265 heartbeat IPC: 1.9 cumulative IPC: 1.915 (Simulation time: 00 hr 04 min 36 sec)
Heartbeat CPU 0 instructions: 67000313 cycles: 19529991 heartbeat IPC: 1.918 cumulative IPC: 1.915 (Simulation time: 00 hr 04 min 39 sec)
Heartbeat CPU 0 instructions: 67500316 cycles: 19790226 heartbeat IPC: 1.921 cumulative IPC: 1.915 (Simulation time: 00 hr 04 min 41 sec)
Heartbeat CPU 0 instructions: 68000316 cycles: 20051191 heartbeat IPC: 1.916 cumulative IPC: 1.915 (Simulation time: 00 hr 04 min 44 sec)
Heartbeat CPU 0 instructions: 68500320 cycles: 20313881 heartbeat IPC: 1.903 cumulative IPC: 1.915 (Simulation time: 00 hr 04 min 46 sec)
Heartbeat CPU 0 instructions: 69000321 cycles: 20574952 heartbeat IPC: 1.915 cumulative IPC: 1.915 (Simulation time: 00 hr 04 min 49 sec)
Heartbeat CPU 0 instructions: 69500325 cycles: 20836582 heartbeat IPC: 1.911 cumulative IPC: 1.914 (Simulation time: 00 hr 04 min 51 sec)
Heartbeat CPU 0 instructions: 70000330 cycles: 21097374 heartbeat IPC: 1.917 cumulative IPC: 1.915 (Simulation time: 00 hr 04 min 54 sec)
Heartbeat CPU 0 instructions: 70500332 cycles: 21359775 heartbeat IPC: 1.905 cumulative IPC: 1.914 (Simulation time: 00 hr 04 min 57 sec)
Heartbeat CPU 0 instructions: 71000333 cycles: 21621086 heartbeat IPC: 1.913 cumulative IPC: 1.914 (Simulation time: 00 hr 04 min 59 sec)
Heartbeat CPU 0 instructions: 71500339 cycles: 21881883 heartbeat IPC: 1.917 cumulative IPC: 1.914 (Simulation time: 00 hr 05 min 02 sec)
Heartbeat CPU 0 instructions: 72000342 cycles: 22142093 heartbeat IPC: 1.922 cumulative IPC: 1.915 (Simulation time: 00 hr 05 min 04 sec)
Heartbeat CPU 0 instructions: 72500342 cycles: 22403053 heartbeat IPC: 1.916 cumulative IPC: 1.915 (Simulation time: 00 hr 05 min 07 sec)
Heartbeat CPU 0 instructions: 73000345 cycles: 22664406 heartbeat IPC: 1.913 cumulative IPC: 1.915 (Simulation time: 00 hr 05 min 09 sec)
Heartbeat CPU 0 instructions: 73500345 cycles: 22925989 heartbeat IPC: 1.911 cumulative IPC: 1.914 (Simulation time: 00 hr 05 min 12 sec)
Heartbeat CPU 0 instructions: 74000348 cycles: 23186203 heartbeat IPC: 1.922 cumulative IPC: 1.915 (Simulation time: 00 hr 05 min 15 sec)
Heartbeat CPU 0 instructions: 74500348 cycles: 23447198 heartbeat IPC: 1.916 cumulative IPC: 1.915 (Simulation time: 00 hr 05 min 17 sec)
Heartbeat CPU 0 instructions: 75000351 cycles: 23707845 heartbeat IPC: 1.918 cumulative IPC: 1.915 (Simulation time: 00 hr 05 min 20 sec)
Heartbeat CPU 0 instructions: 75500351 cycles: 23968891 heartbeat IPC: 1.915 cumulative IPC: 1.915 (Simulation time: 00 hr 05 min 22 sec)
Heartbeat CPU 0 instructions: 76000354 cycles: 24229490 heartbeat IPC: 1.919 cumulative IPC: 1.915 (Simulation time: 00 hr 05 min 25 sec)
Heartbeat CPU 0 instructions: 76500354 cycles: 24491078 heartbeat IPC: 1.911 cumulative IPC: 1.915 (Simulation time: 00 hr 05 min 27 sec)
Heartbeat CPU 0 instructions: 77000358 cycles: 24751871 heartbeat IPC: 1.917 cumulative IPC: 1.915 (Simulation time: 00 hr 05 min 30 sec)
Heartbeat CPU 0 instructions: 77500360 cycles: 25013009 heartbeat IPC: 1.915 cumulative IPC: 1.915 (Simulation time: 00 hr 05 min 32 sec)
Heartbeat CPU 0 instructions: 78000361 cycles: 25273068 heartbeat IPC: 1.923 cumulative IPC: 1.915 (Simulation time: 00 hr 05 min 35 sec)
Heartbeat CPU 0 instructions: 78500363 cycles: 25533974 heartbeat IPC: 1.916 cumulative IPC: 1.915 (Simulation time: 00 hr 05 min 38 sec)
Heartbeat CPU 0 instructions: 79000364 cycles: 25797007 heartbeat IPC: 1.901 cumulative IPC: 1.915 (Simulation time: 00 hr 05 min 40 sec)
Heartbeat CPU 0 instructions: 79500366 cycles: 26058337 heartbeat IPC: 1.913 cumulative IPC: 1.915 (Simulation time: 00 hr 05 min 43 sec)
Heartbeat CPU 0 instructions: 80000367 cycles: 26319542 heartbeat IPC: 1.914 cumulative IPC: 1.915 (Simulation time: 00 hr 05 min 45 sec)
Heartbeat CPU 0 instructions: 80500369 cycles: 26580128 heartbeat IPC: 1.919 cumulative IPC: 1.915 (Simulation time: 00 hr 05 min 48 sec)
Heartbeat CPU 0 instructions: 81000370 cycles: 26840890 heartbeat IPC: 1.917 cumulative IPC: 1.915 (Simulation time: 00 hr 05 min 50 sec)
Heartbeat CPU 0 instructions: 81500372 cycles: 27101794 heartbeat IPC: 1.916 cumulative IPC: 1.915 (Simulation time: 00 hr 05 min 53 sec)
Heartbeat CPU 0 instructions: 82000372 cycles: 27362113 heartbeat IPC: 1.921 cumulative IPC: 1.915 (Simulation time: 00 hr 05 min 56 sec)
Heartbeat CPU 0 instructions: 82500375 cycles: 27623444 heartbeat IPC: 1.913 cumulative IPC: 1.915 (Simulation time: 00 hr 05 min 58 sec)
Heartbeat CPU 0 instructions: 83000375 cycles: 27885011 heartbeat IPC: 1.912 cumulative IPC: 1.915 (Simulation time: 00 hr 06 min 01 sec)
Heartbeat CPU 0 instructions: 83500378 cycles: 28147645 heartbeat IPC: 1.904 cumulative IPC: 1.915 (Simulation time: 00 hr 06 min 03 sec)
Heartbeat CPU 0 instructions: 84000383 cycles: 28409059 heartbeat IPC: 1.913 cumulative IPC: 1.915 (Simulation time: 00 hr 06 min 06 sec)
Heartbeat CPU 0 instructions: 84500384 cycles: 28668822 heartbeat IPC: 1.925 cumulative IPC: 1.915 (Simulation time: 00 hr 06 min 08 sec)
Heartbeat CPU 0 instructions: 85000388 cycles: 28929962 heartbeat IPC: 1.915 cumulative IPC: 1.915 (Simulation time: 00 hr 06 min 11 sec)
Heartbeat CPU 0 instructions: 85500390 cycles: 29190723 heartbeat IPC: 1.917 cumulative IPC: 1.915 (Simulation time: 00 hr 06 min 13 sec)
Heartbeat CPU 0 instructions: 86000394 cycles: 29452313 heartbeat IPC: 1.911 cumulative IPC: 1.915 (Simulation time: 00 hr 06 min 16 sec)
Heartbeat CPU 0 instructions: 86500394 cycles: 29712741 heartbeat IPC: 1.92 cumulative IPC: 1.915 (Simulation time: 00 hr 06 min 18 sec)
Heartbeat CPU 0 instructions: 87000395 cycles: 29974074 heartbeat IPC: 1.913 cumulative IPC: 1.915 (Simulation time: 00 hr 06 min 21 sec)
Heartbeat CPU 0 instructions: 87500397 cycles: 30236870 heartbeat IPC: 1.903 cumulative IPC: 1.915 (Simulation time: 00 hr 06 min 24 sec)
Heartbeat CPU 0 instructions: 88000398 cycles: 30497670 heartbeat IPC: 1.917 cumulative IPC: 1.915 (Simulation time: 00 hr 06 min 26 sec)
Heartbeat CPU 0 instructions: 88500400 cycles: 30758070 heartbeat IPC: 1.92 cumulative IPC: 1.915 (Simulation time: 00 hr 06 min 29 sec)
Heartbeat CPU 0 instructions: 89000401 cycles: 31018611 heartbeat IPC: 1.919 cumulative IPC: 1.915 (Simulation time: 00 hr 06 min 31 sec)
Heartbeat CPU 0 instructions: 89500403 cycles: 31281848 heartbeat IPC: 1.899 cumulative IPC: 1.915 (Simulation time: 00 hr 06 min 34 sec)
Heartbeat CPU 0 instructions: 90000403 cycles: 31544611 heartbeat IPC: 1.903 cumulative IPC: 1.914 (Simulation time: 00 hr 06 min 36 sec)
Heartbeat CPU 0 instructions: 90500406 cycles: 31805054 heartbeat IPC: 1.92 cumulative IPC: 1.915 (Simulation time: 00 hr 06 min 39 sec)
Heartbeat CPU 0 instructions: 91000406 cycles: 32065818 heartbeat IPC: 1.917 cumulative IPC: 1.915 (Simulation time: 00 hr 06 min 41 sec)
Heartbeat CPU 0 instructions: 91500409 cycles: 32327174 heartbeat IPC: 1.913 cumulative IPC: 1.915 (Simulation time: 00 hr 06 min 44 sec)
Heartbeat CPU 0 instructions: 92000409 cycles: 32589572 heartbeat IPC: 1.906 cumulative IPC: 1.914 (Simulation time: 00 hr 06 min 46 sec)
Heartbeat CPU 0 instructions: 92500412 cycles: 32850758 heartbeat IPC: 1.914 cumulative IPC: 1.914 (Simulation time: 00 hr 06 min 49 sec)
Heartbeat CPU 0 instructions: 93000412 cycles: 33112318 heartbeat IPC: 1.912 cumulative IPC: 1.914 (Simulation time: 00 hr 06 min 51 sec)
Heartbeat CPU 0 instructions: 93500415 cycles: 33372959 heartbeat IPC: 1.918 cumulative IPC: 1.914 (Simulation time: 00 hr 06 min 54 sec)
Heartbeat CPU 0 instructions: 94000417 cycles: 33635732 heartbeat IPC: 1.903 cumulative IPC: 1.914 (Simulation time: 00 hr 06 min 56 sec)
Heartbeat CPU 0 instructions: 94500418 cycles: 33896110 heartbeat IPC: 1.92 cumulative IPC: 1.914 (Simulation time: 00 hr 06 min 59 sec)
Heartbeat CPU 0 instructions: 95000420 cycles: 34156868 heartbeat IPC: 1.917 cumulative IPC: 1.914 (Simulation time: 00 hr 07 min 01 sec)
Heartbeat CPU 0 instructions: 95500422 cycles: 34417677 heartbeat IPC: 1.917 cumulative IPC: 1.914 (Simulation time: 00 hr 07 min 04 sec)
Heartbeat CPU 0 instructions: 96000423 cycles: 34680249 heartbeat IPC: 1.904 cumulative IPC: 1.914 (Simulation time: 00 hr 07 min 06 sec)
Heartbeat CPU 0 instructions: 96500425 cycles: 34941002 heartbeat IPC: 1.918 cumulative IPC: 1.914 (Simulation time: 00 hr 07 min 09 sec)
Heartbeat CPU 0 instructions: 97000426 cycles: 35202623 heartbeat IPC: 1.911 cumulative IPC: 1.914 (Simulation time: 00 hr 07 min 11 sec)
Heartbeat CPU 0 instructions: 97500428 cycles: 35464181 heartbeat IPC: 1.912 cumulative IPC: 1.914 (Simulation time: 00 hr 07 min 14 sec)
Heartbeat CPU 0 instructions: 98000430 cycles: 35724403 heartbeat IPC: 1.921 cumulative IPC: 1.914 (Simulation time: 00 hr 07 min 16 sec)
Heartbeat CPU 0 instructions: 98500430 cycles: 35985168 heartbeat IPC: 1.917 cumulative IPC: 1.914 (Simulation time: 00 hr 07 min 19 sec)
Heartbeat CPU 0 instructions: 99000433 cycles: 36245926 heartbeat IPC: 1.917 cumulative IPC: 1.914 (Simulation time: 00 hr 07 min 21 sec)
Heartbeat CPU 0 instructions: 99500433 cycles: 36507540 heartbeat IPC: 1.911 cumulative IPC: 1.914 (Simulation time: 00 hr 07 min 24 sec)
Heartbeat CPU 0 instructions: 100000436 cycles: 36769542 heartbeat IPC: 1.908 cumulative IPC: 1.914 (Simulation time: 00 hr 07 min 26 sec)
Heartbeat CPU 0 instructions: 100500436 cycles: 37030924 heartbeat IPC: 1.913 cumulative IPC: 1.914 (Simulation time: 00 hr 07 min 29 sec)
Heartbeat CPU 0 instructions: 101000439 cycles: 37292071 heartbeat IPC: 1.915 cumulative IPC: 1.914 (Simulation time: 00 hr 07 min 31 sec)
Heartbeat CPU 0 instructions: 101500439 cycles: 37552608 heartbeat IPC: 1.919 cumulative IPC: 1.914 (Simulation time: 00 hr 07 min 34 sec)
Heartbeat CPU 0 instructions: 102000442 cycles: 37813658 heartbeat IPC: 1.915 cumulative IPC: 1.914 (Simulation time: 00 hr 07 min 36 sec)
Heartbeat CPU 0 instructions: 102500442 cycles: 38074278 heartbeat IPC: 1.919 cumulative IPC: 1.914 (Simulation time: 00 hr 07 min 39 sec)
Heartbeat CPU 0 instructions: 103000445 cycles: 38334995 heartbeat IPC: 1.918 cumulative IPC: 1.914 (Simulation time: 00 hr 07 min 41 sec)
Heartbeat CPU 0 instructions: 103500445 cycles: 38596564 heartbeat IPC: 1.912 cumulative IPC: 1.914 (Simulation time: 00 hr 07 min 44 sec)
Heartbeat CPU 0 instructions: 104000448 cycles: 38857790 heartbeat IPC: 1.914 cumulative IPC: 1.914 (Simulation time: 00 hr 07 min 46 sec)
Heartbeat CPU 0 instructions: 104500450 cycles: 39118327 heartbeat IPC: 1.919 cumulative IPC: 1.914 (Simulation time: 00 hr 07 min 49 sec)
Heartbeat CPU 0 instructions: 105000451 cycles: 39379104 heartbeat IPC: 1.917 cumulative IPC: 1.915 (Simulation time: 00 hr 07 min 51 sec)
Heartbeat CPU 0 instructions: 105500453 cycles: 39639847 heartbeat IPC: 1.918 cumulative IPC: 1.915 (Simulation time: 00 hr 07 min 54 sec)
Heartbeat CPU 0 instructions: 106000454 cycles: 39900503 heartbeat IPC: 1.918 cumulative IPC: 1.915 (Simulation time: 00 hr 07 min 56 sec)
Heartbeat CPU 0 instructions: 106500457 cycles: 40162269 heartbeat IPC: 1.91 cumulative IPC: 1.915 (Simulation time: 00 hr 07 min 59 sec)
Heartbeat CPU 0 instructions: 107000458 cycles: 40423230 heartbeat IPC: 1.916 cumulative IPC: 1.915 (Simulation time: 00 hr 08 min 01 sec)
Heartbeat CPU 0 instructions: 107500460 cycles: 40686014 heartbeat IPC: 1.903 cumulative IPC: 1.914 (Simulation time: 00 hr 08 min 04 sec)
Heartbeat CPU 0 instructions: 108000461 cycles: 40946623 heartbeat IPC: 1.919 cumulative IPC: 1.914 (Simulation time: 00 hr 08 min 06 sec)
Heartbeat CPU 0 instructions: 108500463 cycles: 41209650 heartbeat IPC: 1.901 cumulative IPC: 1.914 (Simulation time: 00 hr 08 min 09 sec)
Heartbeat CPU 0 instructions: 109000463 cycles: 41471660 heartbeat IPC: 1.908 cumulative IPC: 1.914 (Simulation time: 00 hr 08 min 11 sec)
Heartbeat CPU 0 instructions: 109500466 cycles: 41733009 heartbeat IPC: 1.913 cumulative IPC: 1.914 (Simulation time: 00 hr 08 min 14 sec)
Heartbeat CPU 0 instructions: 110000466 cycles: 41993742 heartbeat IPC: 1.918 cumulative IPC: 1.914 (Simulation time: 00 hr 08 min 16 sec)
Heartbeat CPU 0 instructions: 110500469 cycles: 42256801 heartbeat IPC: 1.901 cumulative IPC: 1.914 (Simulation time: 00 hr 08 min 19 sec)
Heartbeat CPU 0 instructions: 111000469 cycles: 42519037 heartbeat IPC: 1.907 cumulative IPC: 1.914 (Simulation time: 00 hr 08 min 21 sec)
Heartbeat CPU 0 instructions: 111500472 cycles: 42779588 heartbeat IPC: 1.919 cumulative IPC: 1.914 (Simulation time: 00 hr 08 min 24 sec)
Heartbeat CPU 0 instructions: 112000472 cycles: 43040733 heartbeat IPC: 1.915 cumulative IPC: 1.914 (Simulation time: 00 hr 08 min 26 sec)
Heartbeat CPU 0 instructions: 112500475 cycles: 43301497 heartbeat IPC: 1.917 cumulative IPC: 1.914 (Simulation time: 00 hr 08 min 29 sec)
Heartbeat CPU 0 instructions: 113000475 cycles: 43561726 heartbeat IPC: 1.921 cumulative IPC: 1.914 (Simulation time: 00 hr 08 min 31 sec)
Heartbeat CPU 0 instructions: 113500478 cycles: 43823521 heartbeat IPC: 1.91 cumulative IPC: 1.914 (Simulation time: 00 hr 08 min 33 sec)
Heartbeat CPU 0 instructions: 114000478 cycles: 44084847 heartbeat IPC: 1.913 cumulative IPC: 1.914 (Simulation time: 00 hr 08 min 36 sec)
Heartbeat CPU 0 instructions: 114500481 cycles: 44345660 heartbeat IPC: 1.917 cumulative IPC: 1.914 (Simulation time: 00 hr 08 min 38 sec)
Heartbeat CPU 0 instructions: 115000483 cycles: 44608774 heartbeat IPC: 1.9 cumulative IPC: 1.914 (Simulation time: 00 hr 08 min 41 sec)
Heartbeat CPU 0 instructions: 115500485 cycles: 44870910 heartbeat IPC: 1.907 cumulative IPC: 1.914 (Simulation time: 00 hr 08 min 43 sec)
Heartbeat CPU 0 instructions: 116000486 cycles: 45131450 heartbeat IPC: 1.919 cumulative IPC: 1.914 (Simulation time: 00 hr 08 min 46 sec)
Heartbeat CPU 0 instructions: 116500488 cycles: 45392637 heartbeat IPC: 1.914 cumulative IPC: 1.914 (Simulation time: 00 hr 08 min 48 sec)
Heartbeat CPU 0 instructions: 117000489 cycles: 45653377 heartbeat IPC: 1.918 cumulative IPC: 1.914 (Simulation time: 00 hr 08 min 51 sec)
Heartbeat CPU 0 instructions: 117500491 cycles: 45913581 heartbeat IPC: 1.922 cumulative IPC: 1.914 (Simulation time: 00 hr 08 min 53 sec)
Heartbeat CPU 0 instructions: 118000493 cycles: 46175376 heartbeat IPC: 1.91 cumulative IPC: 1.914 (Simulation time: 00 hr 08 min 56 sec)
Heartbeat CPU 0 instructions: 118500494 cycles: 46436723 heartbeat IPC: 1.913 cumulative IPC: 1.914 (Simulation time: 00 hr 08 min 58 sec)
Heartbeat CPU 0 instructions: 119000496 cycles: 46697458 heartbeat IPC: 1.918 cumulative IPC: 1.914 (Simulation time: 00 hr 09 min 01 sec)
Heartbeat CPU 0 instructions: 119500496 cycles: 46957703 heartbeat IPC: 1.921 cumulative IPC: 1.914 (Simulation time: 00 hr 09 min 03 sec)
Heartbeat CPU 0 instructions: 120000499 cycles: 47218688 heartbeat IPC: 1.916 cumulative IPC: 1.914 (Simulation time: 00 hr 09 min 06 sec)
Heartbeat CPU 0 instructions: 120500499 cycles: 47480014 heartbeat IPC: 1.913 cumulative IPC: 1.914 (Simulation time: 00 hr 09 min 08 sec)
Heartbeat CPU 0 instructions: 121000502 cycles: 47741587 heartbeat IPC: 1.912 cumulative IPC: 1.914 (Simulation time: 00 hr 09 min 11 sec)
Heartbeat CPU 0 instructions: 121500502 cycles: 48003029 heartbeat IPC: 1.912 cumulative IPC: 1.914 (Simulation time: 00 hr 09 min 13 sec)
Heartbeat CPU 0 instructions: 122000505 cycles: 48264593 heartbeat IPC: 1.912 cumulative IPC: 1.914 (Simulation time: 00 hr 09 min 16 sec)
Heartbeat CPU 0 instructions: 122500505 cycles: 48525387 heartbeat IPC: 1.917 cumulative IPC: 1.914 (Simulation time: 00 hr 09 min 18 sec)
Heartbeat CPU 0 instructions: 123000508 cycles: 48788587 heartbeat IPC: 1.9 cumulative IPC: 1.914 (Simulation time: 00 hr 09 min 21 sec)
Heartbeat CPU 0 instructions: 123500510 cycles: 49048940 heartbeat IPC: 1.92 cumulative IPC: 1.914 (Simulation time: 00 hr 09 min 23 sec)
Heartbeat CPU 0 instructions: 124000511 cycles: 49309568 heartbeat IPC: 1.918 cumulative IPC: 1.914 (Simulation time: 00 hr 09 min 26 sec)
Heartbeat CPU 0 instructions: 124500513 cycles: 49570535 heartbeat IPC: 1.916 cumulative IPC: 1.914 (Simulation time: 00 hr 09 min 28 sec)
Heartbeat CPU 0 instructions: 125000514 cycles: 49833099 heartbeat IPC: 1.904 cumulative IPC: 1.914 (Simulation time: 00 hr 09 min 31 sec)
Heartbeat CPU 0 instructions: 125500516 cycles: 50093901 heartbeat IPC: 1.917 cumulative IPC: 1.914 (Simulation time: 00 hr 09 min 33 sec)
Heartbeat CPU 0 instructions: 126000517 cycles: 50354902 heartbeat IPC: 1.916 cumulative IPC: 1.914 (Simulation time: 00 hr 09 min 36 sec)
Heartbeat CPU 0 instructions: 126500519 cycles: 50616470 heartbeat IPC: 1.912 cumulative IPC: 1.914 (Simulation time: 00 hr 09 min 38 sec)
Heartbeat CPU 0 instructions: 127000520 cycles: 50877455 heartbeat IPC: 1.916 cumulative IPC: 1.914 (Simulation time: 00 hr 09 min 40 sec)
Heartbeat CPU 0 instructions: 127500523 cycles: 51138019 heartbeat IPC: 1.919 cumulative IPC: 1.914 (Simulation time: 00 hr 09 min 43 sec)
Heartbeat CPU 0 instructions: 128000523 cycles: 51398264 heartbeat IPC: 1.921 cumulative IPC: 1.914 (Simulation time: 00 hr 09 min 45 sec)
Heartbeat CPU 0 instructions: 128500526 cycles: 51659357 heartbeat IPC: 1.915 cumulative IPC: 1.914 (Simulation time: 00 hr 09 min 48 sec)
Heartbeat CPU 0 instructions: 129000526 cycles: 51921174 heartbeat IPC: 1.91 cumulative IPC: 1.914 (Simulation time: 00 hr 09 min 50 sec)
Heartbeat CPU 0 instructions: 129500533 cycles: 52182584 heartbeat IPC: 1.913 cumulative IPC: 1.914 (Simulation time: 00 hr 09 min 53 sec)
Heartbeat CPU 0 instructions: 130000536 cycles: 52444925 heartbeat IPC: 1.906 cumulative IPC: 1.914 (Simulation time: 00 hr 09 min 55 sec)
Heartbeat CPU 0 instructions: 130500536 cycles: 52705547 heartbeat IPC: 1.918 cumulative IPC: 1.914 (Simulation time: 00 hr 09 min 58 sec)
Heartbeat CPU 0 instructions: 131000539 cycles: 52966297 heartbeat IPC: 1.918 cumulative IPC: 1.914 (Simulation time: 00 hr 10 min 00 sec)
Heartbeat CPU 0 instructions: 131500544 cycles: 53229489 heartbeat IPC: 1.9 cumulative IPC: 1.914 (Simulation time: 00 hr 10 min 03 sec)
Heartbeat CPU 0 instructions: 132000548 cycles: 53489888 heartbeat IPC: 1.92 cumulative IPC: 1.914 (Simulation time: 00 hr 10 min 05 sec)
Heartbeat CPU 0 instructions: 132500550 cycles: 53750048 heartbeat IPC: 1.922 cumulative IPC: 1.914 (Simulation time: 00 hr 10 min 08 sec)
Heartbeat CPU 0 instructions: 133000551 cycles: 54011242 heartbeat IPC: 1.914 cumulative IPC: 1.914 (Simulation time: 00 hr 10 min 10 sec)
Heartbeat CPU 0 instructions: 133500553 cycles: 54274259 heartbeat IPC: 1.901 cumulative IPC: 1.914 (Simulation time: 00 hr 10 min 12 sec)
Heartbeat CPU 0 instructions: 134000554 cycles: 54535217 heartbeat IPC: 1.916 cumulative IPC: 1.914 (Simulation time: 00 hr 10 min 15 sec)
Heartbeat CPU 0 instructions: 134500556 cycles: 54796793 heartbeat IPC: 1.911 cumulative IPC: 1.914 (Simulation time: 00 hr 10 min 17 sec)
Heartbeat CPU 0 instructions: 135000557 cycles: 55057405 heartbeat IPC: 1.919 cumulative IPC: 1.914 (Simulation time: 00 hr 10 min 20 sec)
Heartbeat CPU 0 instructions: 135500559 cycles: 55318146 heartbeat IPC: 1.918 cumulative IPC: 1.914 (Simulation time: 00 hr 10 min 22 sec)
Heartbeat CPU 0 instructions: 136000561 cycles: 55578641 heartbeat IPC: 1.919 cumulative IPC: 1.914 (Simulation time: 00 hr 10 min 25 sec)
Heartbeat CPU 0 instructions: 136500561 cycles: 55839347 heartbeat IPC: 1.918 cumulative IPC: 1.914 (Simulation time: 00 hr 10 min 27 sec)
Heartbeat CPU 0 instructions: 137000564 cycles: 56100695 heartbeat IPC: 1.913 cumulative IPC: 1.914 (Simulation time: 00 hr 10 min 30 sec)
Heartbeat CPU 0 instructions: 137500564 cycles: 56362280 heartbeat IPC: 1.911 cumulative IPC: 1.914 (Simulation time: 00 hr 10 min 32 sec)
Heartbeat CPU 0 instructions: 138000567 cycles: 56624285 heartbeat IPC: 1.908 cumulative IPC: 1.914 (Simulation time: 00 hr 10 min 34 sec)
Heartbeat CPU 0 instructions: 138500567 cycles: 56887074 heartbeat IPC: 1.903 cumulative IPC: 1.914 (Simulation time: 00 hr 10 min 37 sec)
Heartbeat CPU 0 instructions: 139000570 cycles: 57147921 heartbeat IPC: 1.917 cumulative IPC: 1.914 (Simulation time: 00 hr 10 min 39 sec)
Heartbeat CPU 0 instructions: 139500570 cycles: 57409243 heartbeat IPC: 1.913 cumulative IPC: 1.914 (Simulation time: 00 hr 10 min 42 sec)
Heartbeat CPU 0 instructions: 140000573 cycles: 57669621 heartbeat IPC: 1.92 cumulative IPC: 1.914 (Simulation time: 00 hr 10 min 44 sec)
Heartbeat CPU 0 instructions: 140500573 cycles: 57930419 heartbeat IPC: 1.917 cumulative IPC: 1.914 (Simulation time: 00 hr 10 min 47 sec)
Heartbeat CPU 0 instructions: 141000576 cycles: 58191234 heartbeat IPC: 1.917 cumulative IPC: 1.914 (Simulation time: 00 hr 10 min 49 sec)
Heartbeat CPU 0 instructions: 141500578 cycles: 58452560 heartbeat IPC: 1.913 cumulative IPC: 1.914 (Simulation time: 00 hr 10 min 52 sec)
Heartbeat CPU 0 instructions: 142000579 cycles: 58713739 heartbeat IPC: 1.914 cumulative IPC: 1.914 (Simulation time: 00 hr 10 min 54 sec)
Heartbeat CPU 0 instructions: 142500581 cycles: 58974297 heartbeat IPC: 1.919 cumulative IPC: 1.914 (Simulation time: 00 hr 10 min 56 sec)
Heartbeat CPU 0 instructions: 143000582 cycles: 59235343 heartbeat IPC: 1.915 cumulative IPC: 1.914 (Simulation time: 00 hr 10 min 59 sec)
Heartbeat CPU 0 instructions: 143500584 cycles: 59497748 heartbeat IPC: 1.905 cumulative IPC: 1.914 (Simulation time: 00 hr 11 min 01 sec)
Heartbeat CPU 0 instructions: 144000585 cycles: 59759157 heartbeat IPC: 1.913 cumulative IPC: 1.914 (Simulation time: 00 hr 11 min 04 sec)
Heartbeat CPU 0 instructions: 144500588 cycles: 60019445 heartbeat IPC: 1.921 cumulative IPC: 1.914 (Simulation time: 00 hr 11 min 06 sec)
Heartbeat CPU 0 instructions: 145000591 cycles: 60281065 heartbeat IPC: 1.911 cumulative IPC: 1.914 (Simulation time: 00 hr 11 min 09 sec)
Heartbeat CPU 0 instructions: 145500591 cycles: 60541868 heartbeat IPC: 1.917 cumulative IPC: 1.914 (Simulation time: 00 hr 11 min 11 sec)
Heartbeat CPU 0 instructions: 146000591 cycles: 60803206 heartbeat IPC: 1.913 cumulative IPC: 1.914 (Simulation time: 00 hr 11 min 13 sec)
Heartbeat CPU 0 instructions: 146500594 cycles: 61063558 heartbeat IPC: 1.92 cumulative IPC: 1.914 (Simulation time: 00 hr 11 min 16 sec)
Heartbeat CPU 0 instructions: 147000594 cycles: 61324174 heartbeat IPC: 1.919 cumulative IPC: 1.914 (Simulation time: 00 hr 11 min 18 sec)
Heartbeat CPU 0 instructions: 147500597 cycles: 61585147 heartbeat IPC: 1.916 cumulative IPC: 1.914 (Simulation time: 00 hr 11 min 21 sec)
Heartbeat CPU 0 instructions: 148000597 cycles: 61846491 heartbeat IPC: 1.913 cumulative IPC: 1.914 (Simulation time: 00 hr 11 min 23 sec)
Heartbeat CPU 0 instructions: 148500600 cycles: 62107727 heartbeat IPC: 1.914 cumulative IPC: 1.914 (Simulation time: 00 hr 11 min 25 sec)
Heartbeat CPU 0 instructions: 149000600 cycles: 62368300 heartbeat IPC: 1.919 cumulative IPC: 1.914 (Simulation time: 00 hr 11 min 28 sec)
Heartbeat CPU 0 instructions: 149500603 cycles: 62629289 heartbeat IPC: 1.916 cumulative IPC: 1.914 (Simulation time: 00 hr 11 min 30 sec)
Heartbeat CPU 0 instructions: 150000603 cycles: 62889928 heartbeat IPC: 1.918 cumulative IPC: 1.914 (Simulation time: 00 hr 11 min 33 sec)
Heartbeat CPU 0 instructions: 150500606 cycles: 63150583 heartbeat IPC: 1.918 cumulative IPC: 1.914 (Simulation time: 00 hr 11 min 35 sec)
Heartbeat CPU 0 instructions: 151000606 cycles: 63413383 heartbeat IPC: 1.903 cumulative IPC: 1.914 (Simulation time: 00 hr 11 min 38 sec)
Heartbeat CPU 0 instructions: 151500609 cycles: 63674002 heartbeat IPC: 1.919 cumulative IPC: 1.914 (Simulation time: 00 hr 11 min 40 sec)
Heartbeat CPU 0 instructions: 152000609 cycles: 63935807 heartbeat IPC: 1.91 cumulative IPC: 1.914 (Simulation time: 00 hr 11 min 42 sec)
Heartbeat CPU 0 instructions: 152500612 cycles: 64196764 heartbeat IPC: 1.916 cumulative IPC: 1.914 (Simulation time: 00 hr 11 min 45 sec)
Heartbeat CPU 0 instructions: 153000614 cycles: 64457510 heartbeat IPC: 1.918 cumulative IPC: 1.914 (Simulation time: 00 hr 11 min 47 sec)
Heartbeat CPU 0 instructions: 153500616 cycles: 64718119 heartbeat IPC: 1.919 cumulative IPC: 1.914 (Simulation time: 00 hr 11 min 50 sec)
Heartbeat CPU 0 instructions: 154000617 cycles: 64979100 heartbeat IPC: 1.916 cumulative IPC: 1.914 (Simulation time: 00 hr 11 min 52 sec)
Heartbeat CPU 0 instructions: 154500619 cycles: 65241411 heartbeat IPC: 1.906 cumulative IPC: 1.914 (Simulation time: 00 hr 11 min 54 sec)
Heartbeat CPU 0 instructions: 155000621 cycles: 65502442 heartbeat IPC: 1.915 cumulative IPC: 1.914 (Simulation time: 00 hr 11 min 57 sec)
Heartbeat CPU 0 instructions: 155500622 cycles: 65763442 heartbeat IPC: 1.916 cumulative IPC: 1.914 (Simulation time: 00 hr 11 min 59 sec)
Heartbeat CPU 0 instructions: 156000624 cycles: 66025023 heartbeat IPC: 1.911 cumulative IPC: 1.914 (Simulation time: 00 hr 12 min 02 sec)
Heartbeat CPU 0 instructions: 156500625 cycles: 66285436 heartbeat IPC: 1.92 cumulative IPC: 1.914 (Simulation time: 00 hr 12 min 04 sec)
Heartbeat CPU 0 instructions: 157000627 cycles: 66546563 heartbeat IPC: 1.915 cumulative IPC: 1.914 (Simulation time: 00 hr 12 min 06 sec)
Heartbeat CPU 0 instructions: 157500627 cycles: 66806759 heartbeat IPC: 1.922 cumulative IPC: 1.914 (Simulation time: 00 hr 12 min 09 sec)
Heartbeat CPU 0 instructions: 158000630 cycles: 67067933 heartbeat IPC: 1.914 cumulative IPC: 1.914 (Simulation time: 00 hr 12 min 11 sec)
Heartbeat CPU 0 instructions: 158500630 cycles: 67329128 heartbeat IPC: 1.914 cumulative IPC: 1.914 (Simulation time: 00 hr 12 min 14 sec)
Heartbeat CPU 0 instructions: 159000633 cycles: 67590701 heartbeat IPC: 1.912 cumulative IPC: 1.914 (Simulation time: 00 hr 12 min 16 sec)
Heartbeat CPU 0 instructions: 159500638 cycles: 67850926 heartbeat IPC: 1.921 cumulative IPC: 1.914 (Simulation time: 00 hr 12 min 19 sec)
Heartbeat CPU 0 instructions: 160000639 cycles: 68112060 heartbeat IPC: 1.915 cumulative IPC: 1.914 (Simulation time: 00 hr 12 min 21 sec)
Heartbeat CPU 0 instructions: 160500641 cycles: 68372837 heartbeat IPC: 1.917 cumulative IPC: 1.914 (Simulation time: 00 hr 12 min 23 sec)
Heartbeat CPU 0 instructions: 161000642 cycles: 68633992 heartbeat IPC: 1.915 cumulative IPC: 1.914 (Simulation time: 00 hr 12 min 26 sec)
Heartbeat CPU 0 instructions: 161500647 cycles: 68894848 heartbeat IPC: 1.917 cumulative IPC: 1.914 (Simulation time: 00 hr 12 min 28 sec)
Heartbeat CPU 0 instructions: 162000648 cycles: 69156161 heartbeat IPC: 1.913 cumulative IPC: 1.914 (Simulation time: 00 hr 12 min 31 sec)
Heartbeat CPU 0 instructions: 162500652 cycles: 69416934 heartbeat IPC: 1.917 cumulative IPC: 1.914 (Simulation time: 00 hr 12 min 33 sec)
Heartbeat CPU 0 instructions: 163000657 cycles: 69677168 heartbeat IPC: 1.921 cumulative IPC: 1.914 (Simulation time: 00 hr 12 min 35 sec)
Heartbeat CPU 0 instructions: 163500659 cycles: 69938133 heartbeat IPC: 1.916 cumulative IPC: 1.914 (Simulation time: 00 hr 12 min 38 sec)
Heartbeat CPU 0 instructions: 164000659 cycles: 70199470 heartbeat IPC: 1.913 cumulative IPC: 1.914 (Simulation time: 00 hr 12 min 40 sec)
Heartbeat CPU 0 instructions: 164500662 cycles: 70461052 heartbeat IPC: 1.911 cumulative IPC: 1.914 (Simulation time: 00 hr 12 min 43 sec)
Heartbeat CPU 0 instructions: 165000662 cycles: 70721265 heartbeat IPC: 1.922 cumulative IPC: 1.914 (Simulation time: 00 hr 12 min 45 sec)
Heartbeat CPU 0 instructions: 165500665 cycles: 70982266 heartbeat IPC: 1.916 cumulative IPC: 1.914 (Simulation time: 00 hr 12 min 47 sec)
Heartbeat CPU 0 instructions: 166000665 cycles: 71244873 heartbeat IPC: 1.904 cumulative IPC: 1.914 (Simulation time: 00 hr 12 min 50 sec)
Heartbeat CPU 0 instructions: 166500668 cycles: 71506001 heartbeat IPC: 1.915 cumulative IPC: 1.914 (Simulation time: 00 hr 12 min 52 sec)
Heartbeat CPU 0 instructions: 167000668 cycles: 71755194 heartbeat IPC: 2.006 cumulative IPC: 1.915 (Simulation time: 00 hr 12 min 54 sec)
Heartbeat CPU 0 instructions: 167500671 cycles: 71998489 heartbeat IPC: 2.055 cumulative IPC: 1.915 (Simulation time: 00 hr 12 min 57 sec)
Heartbeat CPU 0 instructions: 168000671 cycles: 72242018 heartbeat IPC: 2.053 cumulative IPC: 1.916 (Simulation time: 00 hr 12 min 59 sec)
Heartbeat CPU 0 instructions: 168500674 cycles: 72486036 heartbeat IPC: 2.049 cumulative IPC: 1.916 (Simulation time: 00 hr 13 min 01 sec)
Heartbeat CPU 0 instructions: 169000674 cycles: 72729150 heartbeat IPC: 2.057 cumulative IPC: 1.917 (Simulation time: 00 hr 13 min 04 sec)
Heartbeat CPU 0 instructions: 169500677 cycles: 72972465 heartbeat IPC: 2.055 cumulative IPC: 1.917 (Simulation time: 00 hr 13 min 06 sec)
Heartbeat CPU 0 instructions: 170000679 cycles: 73215971 heartbeat IPC: 2.053 cumulative IPC: 1.918 (Simulation time: 00 hr 13 min 08 sec)
Heartbeat CPU 0 instructions: 170500681 cycles: 73459995 heartbeat IPC: 2.049 cumulative IPC: 1.919 (Simulation time: 00 hr 13 min 10 sec)
Heartbeat CPU 0 instructions: 171000682 cycles: 73703112 heartbeat IPC: 2.057 cumulative IPC: 1.919 (Simulation time: 00 hr 13 min 13 sec)
Heartbeat CPU 0 instructions: 171500684 cycles: 73946383 heartbeat IPC: 2.055 cumulative IPC: 1.92 (Simulation time: 00 hr 13 min 15 sec)
Heartbeat CPU 0 instructions: 172000685 cycles: 74190663 heartbeat IPC: 2.047 cumulative IPC: 1.92 (Simulation time: 00 hr 13 min 17 sec)
Heartbeat CPU 0 instructions: 172500687 cycles: 74434193 heartbeat IPC: 2.053 cumulative IPC: 1.921 (Simulation time: 00 hr 13 min 20 sec)
Heartbeat CPU 0 instructions: 173000689 cycles: 74677287 heartbeat IPC: 2.057 cumulative IPC: 1.921 (Simulation time: 00 hr 13 min 22 sec)
Heartbeat CPU 0 instructions: 173500690 cycles: 74920608 heartbeat IPC: 2.055 cumulative IPC: 1.922 (Simulation time: 00 hr 13 min 24 sec)
Heartbeat CPU 0 instructions: 174000692 cycles: 75164611 heartbeat IPC: 2.049 cumulative IPC: 1.922 (Simulation time: 00 hr 13 min 26 sec)
Heartbeat CPU 0 instructions: 174500692 cycles: 75408143 heartbeat IPC: 2.053 cumulative IPC: 1.923 (Simulation time: 00 hr 13 min 29 sec)
Heartbeat CPU 0 instructions: 175000696 cycles: 75651481 heartbeat IPC: 2.055 cumulative IPC: 1.923 (Simulation time: 00 hr 13 min 31 sec)
Heartbeat CPU 0 instructions: 175500697 cycles: 75895273 heartbeat IPC: 2.051 cumulative IPC: 1.924 (Simulation time: 00 hr 13 min 33 sec)
Heartbeat CPU 0 instructions: 176000698 cycles: 76138557 heartbeat IPC: 2.055 cumulative IPC: 1.924 (Simulation time: 00 hr 13 min 36 sec)
Heartbeat CPU 0 instructions: 176500698 cycles: 76381860 heartbeat IPC: 2.055 cumulative IPC: 1.925 (Simulation time: 00 hr 13 min 38 sec)
Heartbeat CPU 0 instructions: 177000702 cycles: 76626132 heartbeat IPC: 2.047 cumulative IPC: 1.925 (Simulation time: 00 hr 13 min 40 sec)
Heartbeat CPU 0 instructions: 177500702 cycles: 76869223 heartbeat IPC: 2.057 cumulative IPC: 1.925 (Simulation time: 00 hr 13 min 42 sec)
Heartbeat CPU 0 instructions: 178000704 cycles: 77112514 heartbeat IPC: 2.055 cumulative IPC: 1.926 (Simulation time: 00 hr 13 min 45 sec)
Heartbeat CPU 0 instructions: 178500706 cycles: 77355832 heartbeat IPC: 2.055 cumulative IPC: 1.926 (Simulation time: 00 hr 13 min 47 sec)
Heartbeat CPU 0 instructions: 179000707 cycles: 77600322 heartbeat IPC: 2.045 cumulative IPC: 1.927 (Simulation time: 00 hr 13 min 49 sec)
Heartbeat CPU 0 instructions: 179500709 cycles: 77843407 heartbeat IPC: 2.057 cumulative IPC: 1.927 (Simulation time: 00 hr 13 min 52 sec)
Heartbeat CPU 0 instructions: 180000710 cycles: 78086691 heartbeat IPC: 2.055 cumulative IPC: 1.928 (Simulation time: 00 hr 13 min 54 sec)
Heartbeat CPU 0 instructions: 180500712 cycles: 78330734 heartbeat IPC: 2.049 cumulative IPC: 1.928 (Simulation time: 00 hr 13 min 56 sec)
Heartbeat CPU 0 instructions: 181000713 cycles: 78574024 heartbeat IPC: 2.055 cumulative IPC: 1.929 (Simulation time: 00 hr 13 min 58 sec)
Heartbeat CPU 0 instructions: 181500715 cycles: 78817397 heartbeat IPC: 2.054 cumulative IPC: 1.929 (Simulation time: 00 hr 14 min 01 sec)
Heartbeat CPU 0 instructions: 182000717 cycles: 79060679 heartbeat IPC: 2.055 cumulative IPC: 1.93 (Simulation time: 00 hr 14 min 03 sec)
Heartbeat CPU 0 instructions: 182500719 cycles: 79304695 heartbeat IPC: 2.049 cumulative IPC: 1.93 (Simulation time: 00 hr 14 min 05 sec)
Heartbeat CPU 0 instructions: 183000719 cycles: 79547995 heartbeat IPC: 2.055 cumulative IPC: 1.93 (Simulation time: 00 hr 14 min 07 sec)
Heartbeat CPU 0 instructions: 183500722 cycles: 79791116 heartbeat IPC: 2.057 cumulative IPC: 1.931 (Simulation time: 00 hr 14 min 10 sec)
Heartbeat CPU 0 instructions: 184000722 cycles: 80032716 heartbeat IPC: 2.07 cumulative IPC: 1.931 (Simulation time: 00 hr 14 min 12 sec)
Heartbeat CPU 0 instructions: 184500725 cycles: 80272295 heartbeat IPC: 2.087 cumulative IPC: 1.932 (Simulation time: 00 hr 14 min 14 sec)
Heartbeat CPU 0 instructions: 185000725 cycles: 80510217 heartbeat IPC: 2.102 cumulative IPC: 1.932 (Simulation time: 00 hr 14 min 17 sec)
Heartbeat CPU 0 instructions: 185500730 cycles: 80786524 heartbeat IPC: 1.81 cumulative IPC: 1.932 (Simulation time: 00 hr 14 min 19 sec)
Heartbeat CPU 0 instructions: 186000731 cycles: 81164792 heartbeat IPC: 1.322 cumulative IPC: 1.929 (Simulation time: 00 hr 14 min 22 sec)
Heartbeat CPU 0 instructions: 186500736 cycles: 81541552 heartbeat IPC: 1.327 cumulative IPC: 1.926 (Simulation time: 00 hr 14 min 25 sec)
Heartbeat CPU 0 instructions: 187000737 cycles: 81922617 heartbeat IPC: 1.312 cumulative IPC: 1.922 (Simulation time: 00 hr 14 min 29 sec)
Heartbeat CPU 0 instructions: 187500742 cycles: 82303098 heartbeat IPC: 1.314 cumulative IPC: 1.919 (Simulation time: 00 hr 14 min 32 sec)
Heartbeat CPU 0 instructions: 188000743 cycles: 82685379 heartbeat IPC: 1.308 cumulative IPC: 1.916 (Simulation time: 00 hr 14 min 35 sec)
Heartbeat CPU 0 instructions: 188500748 cycles: 83061404 heartbeat IPC: 1.33 cumulative IPC: 1.913 (Simulation time: 00 hr 14 min 38 sec)
Heartbeat CPU 0 instructions: 189000749 cycles: 83440944 heartbeat IPC: 1.317 cumulative IPC: 1.91 (Simulation time: 00 hr 14 min 42 sec)
Heartbeat CPU 0 instructions: 189500753 cycles: 83818799 heartbeat IPC: 1.323 cumulative IPC: 1.907 (Simulation time: 00 hr 14 min 45 sec)
Heartbeat CPU 0 instructions: 190000757 cycles: 84199695 heartbeat IPC: 1.313 cumulative IPC: 1.904 (Simulation time: 00 hr 14 min 48 sec)
Heartbeat CPU 0 instructions: 190500760 cycles: 84580208 heartbeat IPC: 1.314 cumulative IPC: 1.9 (Simulation time: 00 hr 14 min 51 sec)
Heartbeat CPU 0 instructions: 191000761 cycles: 84962855 heartbeat IPC: 1.307 cumulative IPC: 1.897 (Simulation time: 00 hr 14 min 55 sec)
Heartbeat CPU 0 instructions: 191500767 cycles: 85342548 heartbeat IPC: 1.317 cumulative IPC: 1.894 (Simulation time: 00 hr 14 min 58 sec)
Heartbeat CPU 0 instructions: 192000769 cycles: 85727143 heartbeat IPC: 1.3 cumulative IPC: 1.891 (Simulation time: 00 hr 15 min 01 sec)
Heartbeat CPU 0 instructions: 192500772 cycles: 86105699 heartbeat IPC: 1.321 cumulative IPC: 1.889 (Simulation time: 00 hr 15 min 04 sec)
Heartbeat CPU 0 instructions: 193000775 cycles: 86485838 heartbeat IPC: 1.315 cumulative IPC: 1.886 (Simulation time: 00 hr 15 min 08 sec)
Heartbeat CPU 0 instructions: 193500775 cycles: 86872003 heartbeat IPC: 1.295 cumulative IPC: 1.883 (Simulation time: 00 hr 15 min 11 sec)
Heartbeat CPU 0 instructions: 194000781 cycles: 87250463 heartbeat IPC: 1.321 cumulative IPC: 1.88 (Simulation time: 00 hr 15 min 14 sec)
Heartbeat CPU 0 instructions: 194500781 cycles: 87629247 heartbeat IPC: 1.32 cumulative IPC: 1.877 (Simulation time: 00 hr 15 min 17 sec)
Heartbeat CPU 0 instructions: 195000786 cycles: 88005650 heartbeat IPC: 1.328 cumulative IPC: 1.874 (Simulation time: 00 hr 15 min 20 sec)
Heartbeat CPU 0 instructions: 195500786 cycles: 88386432 heartbeat IPC: 1.313 cumulative IPC: 1.872 (Simulation time: 00 hr 15 min 24 sec)
Heartbeat CPU 0 instructions: 196000788 cycles: 88763774 heartbeat IPC: 1.325 cumulative IPC: 1.869 (Simulation time: 00 hr 15 min 27 sec)
Heartbeat CPU 0 instructions: 196500789 cycles: 89144854 heartbeat IPC: 1.312 cumulative IPC: 1.866 (Simulation time: 00 hr 15 min 30 sec)
Heartbeat CPU 0 instructions: 197000792 cycles: 89524976 heartbeat IPC: 1.315 cumulative IPC: 1.864 (Simulation time: 00 hr 15 min 33 sec)
Heartbeat CPU 0 instructions: 197500795 cycles: 89905248 heartbeat IPC: 1.315 cumulative IPC: 1.861 (Simulation time: 00 hr 15 min 37 sec)
Heartbeat CPU 0 instructions: 198000797 cycles: 90287027 heartbeat IPC: 1.31 cumulative IPC: 1.858 (Simulation time: 00 hr 15 min 40 sec)
Heartbeat CPU 0 instructions: 198500801 cycles: 90667989 heartbeat IPC: 1.312 cumulative IPC: 1.856 (Simulation time: 00 hr 15 min 43 sec)
Heartbeat CPU 0 instructions: 199000801 cycles: 91047876 heartbeat IPC: 1.316 cumulative IPC: 1.853 (Simulation time: 00 hr 15 min 46 sec)
Heartbeat CPU 0 instructions: 199500807 cycles: 91426426 heartbeat IPC: 1.321 cumulative IPC: 1.851 (Simulation time: 00 hr 15 min 50 sec)
Heartbeat CPU 0 instructions: 200000807 cycles: 91806072 heartbeat IPC: 1.317 cumulative IPC: 1.848 (Simulation time: 00 hr 15 min 53 sec)
Heartbeat CPU 0 instructions: 200500813 cycles: 92185686 heartbeat IPC: 1.317 cumulative IPC: 1.846 (Simulation time: 00 hr 15 min 56 sec)
Heartbeat CPU 0 instructions: 201000813 cycles: 92562845 heartbeat IPC: 1.326 cumulative IPC: 1.843 (Simulation time: 00 hr 15 min 59 sec)
Heartbeat CPU 0 instructions: 201500818 cycles: 92939120 heartbeat IPC: 1.329 cumulative IPC: 1.841 (Simulation time: 00 hr 16 min 02 sec)
Heartbeat CPU 0 instructions: 202000818 cycles: 93317693 heartbeat IPC: 1.321 cumulative IPC: 1.839 (Simulation time: 00 hr 16 min 06 sec)
Heartbeat CPU 0 instructions: 202500820 cycles: 93700966 heartbeat IPC: 1.305 cumulative IPC: 1.836 (Simulation time: 00 hr 16 min 09 sec)
Heartbeat CPU 0 instructions: 203000824 cycles: 94077725 heartbeat IPC: 1.327 cumulative IPC: 1.834 (Simulation time: 00 hr 16 min 12 sec)
Heartbeat CPU 0 instructions: 203500824 cycles: 94450932 heartbeat IPC: 1.34 cumulative IPC: 1.832 (Simulation time: 00 hr 16 min 15 sec)
Heartbeat CPU 0 instructions: 204000827 cycles: 94830378 heartbeat IPC: 1.318 cumulative IPC: 1.829 (Simulation time: 00 hr 16 min 19 sec)
Heartbeat CPU 0 instructions: 204500827 cycles: 95213695 heartbeat IPC: 1.304 cumulative IPC: 1.827 (Simulation time: 00 hr 16 min 22 sec)
Heartbeat CPU 0 instructions: 205000833 cycles: 95591665 heartbeat IPC: 1.323 cumulative IPC: 1.825 (Simulation time: 00 hr 16 min 25 sec)
Heartbeat CPU 0 instructions: 205500833 cycles: 95974137 heartbeat IPC: 1.307 cumulative IPC: 1.822 (Simulation time: 00 hr 16 min 28 sec)
Heartbeat CPU 0 instructions: 206000839 cycles: 96353778 heartbeat IPC: 1.317 cumulative IPC: 1.82 (Simulation time: 00 hr 16 min 31 sec)
Heartbeat CPU 0 instructions: 206500839 cycles: 96735019 heartbeat IPC: 1.312 cumulative IPC: 1.818 (Simulation time: 00 hr 16 min 35 sec)
Heartbeat CPU 0 instructions: 207000845 cycles: 97120556 heartbeat IPC: 1.297 cumulative IPC: 1.816 (Simulation time: 00 hr 16 min 38 sec)
Heartbeat CPU 0 instructions: 207500845 cycles: 97502046 heartbeat IPC: 1.311 cumulative IPC: 1.813 (Simulation time: 00 hr 16 min 41 sec)
Heartbeat CPU 0 instructions: 208000850 cycles: 97881849 heartbeat IPC: 1.316 cumulative IPC: 1.811 (Simulation time: 00 hr 16 min 44 sec)
Heartbeat CPU 0 instructions: 208500854 cycles: 98260628 heartbeat IPC: 1.32 cumulative IPC: 1.809 (Simulation time: 00 hr 16 min 48 sec)
Heartbeat CPU 0 instructions: 209000857 cycles: 98641609 heartbeat IPC: 1.312 cumulative IPC: 1.807 (Simulation time: 00 hr 16 min 51 sec)
Heartbeat CPU 0 instructions: 209500857 cycles: 99022961 heartbeat IPC: 1.311 cumulative IPC: 1.805 (Simulation time: 00 hr 16 min 54 sec)
Heartbeat CPU 0 instructions: 210000858 cycles: 99400672 heartbeat IPC: 1.324 cumulative IPC: 1.803 (Simulation time: 00 hr 16 min 57 sec)
Heartbeat CPU 0 instructions: 210500859 cycles: 99780129 heartbeat IPC: 1.318 cumulative IPC: 1.801 (Simulation time: 00 hr 17 min 00 sec)
Heartbeat CPU 0 instructions: 211000859 cycles: 100155533 heartbeat IPC: 1.332 cumulative IPC: 1.799 (Simulation time: 00 hr 17 min 04 sec)
Heartbeat CPU 0 instructions: 211500865 cycles: 100538120 heartbeat IPC: 1.307 cumulative IPC: 1.797 (Simulation time: 00 hr 17 min 07 sec)
Heartbeat CPU 0 instructions: 212000865 cycles: 100917210 heartbeat IPC: 1.319 cumulative IPC: 1.795 (Simulation time: 00 hr 17 min 10 sec)
Heartbeat CPU 0 instructions: 212500871 cycles: 101297891 heartbeat IPC: 1.313 cumulative IPC: 1.793 (Simulation time: 00 hr 17 min 13 sec)
Heartbeat CPU 0 instructions: 213000871 cycles: 101677400 heartbeat IPC: 1.317 cumulative IPC: 1.791 (Simulation time: 00 hr 17 min 16 sec)
Heartbeat CPU 0 instructions: 213500872 cycles: 102058268 heartbeat IPC: 1.313 cumulative IPC: 1.789 (Simulation time: 00 hr 17 min 20 sec)
Heartbeat CPU 0 instructions: 214000877 cycles: 102442299 heartbeat IPC: 1.302 cumulative IPC: 1.787 (Simulation time: 00 hr 17 min 23 sec)
Heartbeat CPU 0 instructions: 214500882 cycles: 102817791 heartbeat IPC: 1.332 cumulative IPC: 1.785 (Simulation time: 00 hr 17 min 26 sec)
Heartbeat CPU 0 instructions: 215000886 cycles: 103196780 heartbeat IPC: 1.319 cumulative IPC: 1.783 (Simulation time: 00 hr 17 min 29 sec)
Heartbeat CPU 0 instructions: 215500889 cycles: 103570794 heartbeat IPC: 1.337 cumulative IPC: 1.781 (Simulation time: 00 hr 17 min 32 sec)
Heartbeat CPU 0 instructions: 216000893 cycles: 103947245 heartbeat IPC: 1.328 cumulative IPC: 1.779 (Simulation time: 00 hr 17 min 35 sec)
Heartbeat CPU 0 instructions: 216500895 cycles: 104325051 heartbeat IPC: 1.323 cumulative IPC: 1.777 (Simulation time: 00 hr 17 min 39 sec)
Heartbeat CPU 0 instructions: 217000898 cycles: 104703179 heartbeat IPC: 1.322 cumulative IPC: 1.776 (Simulation time: 00 hr 17 min 42 sec)
Heartbeat CPU 0 instructions: 217500901 cycles: 105083310 heartbeat IPC: 1.315 cumulative IPC: 1.774 (Simulation time: 00 hr 17 min 45 sec)
Heartbeat CPU 0 instructions: 218000904 cycles: 105461765 heartbeat IPC: 1.321 cumulative IPC: 1.772 (Simulation time: 00 hr 17 min 48 sec)
Heartbeat CPU 0 instructions: 218500907 cycles: 105840417 heartbeat IPC: 1.32 cumulative IPC: 1.77 (Simulation time: 00 hr 17 min 51 sec)
Heartbeat CPU 0 instructions: 219000910 cycles: 106214506 heartbeat IPC: 1.337 cumulative IPC: 1.768 (Simulation time: 00 hr 17 min 54 sec)
Heartbeat CPU 0 instructions: 219500913 cycles: 106593550 heartbeat IPC: 1.319 cumulative IPC: 1.767 (Simulation time: 00 hr 17 min 58 sec)
Heartbeat CPU 0 instructions: 220000918 cycles: 106971239 heartbeat IPC: 1.324 cumulative IPC: 1.765 (Simulation time: 00 hr 18 min 01 sec)
Heartbeat CPU 0 instructions: 220500919 cycles: 107352359 heartbeat IPC: 1.312 cumulative IPC: 1.763 (Simulation time: 00 hr 18 min 04 sec)
Heartbeat CPU 0 instructions: 221000924 cycles: 107728655 heartbeat IPC: 1.329 cumulative IPC: 1.761 (Simulation time: 00 hr 18 min 07 sec)
Heartbeat CPU 0 instructions: 221500925 cycles: 108110569 heartbeat IPC: 1.309 cumulative IPC: 1.76 (Simulation time: 00 hr 18 min 10 sec)
Heartbeat CPU 0 instructions: 222000929 cycles: 108492431 heartbeat IPC: 1.309 cumulative IPC: 1.758 (Simulation time: 00 hr 18 min 14 sec)
Heartbeat CPU 0 instructions: 222500931 cycles: 108870786 heartbeat IPC: 1.322 cumulative IPC: 1.756 (Simulation time: 00 hr 18 min 17 sec)
Heartbeat CPU 0 instructions: 223000936 cycles: 109251779 heartbeat IPC: 1.312 cumulative IPC: 1.755 (Simulation time: 00 hr 18 min 20 sec)
Heartbeat CPU 0 instructions: 223500937 cycles: 109628429 heartbeat IPC: 1.327 cumulative IPC: 1.753 (Simulation time: 00 hr 18 min 23 sec)
Heartbeat CPU 0 instructions: 224000942 cycles: 110004809 heartbeat IPC: 1.328 cumulative IPC: 1.751 (Simulation time: 00 hr 18 min 26 sec)
Heartbeat CPU 0 instructions: 224500943 cycles: 110381774 heartbeat IPC: 1.326 cumulative IPC: 1.75 (Simulation time: 00 hr 18 min 29 sec)
Heartbeat CPU 0 instructions: 225000947 cycles: 110758440 heartbeat IPC: 1.327 cumulative IPC: 1.748 (Simulation time: 00 hr 18 min 32 sec)
Heartbeat CPU 0 instructions: 225500948 cycles: 111138958 heartbeat IPC: 1.314 cumulative IPC: 1.746 (Simulation time: 00 hr 18 min 36 sec)
Heartbeat CPU 0 instructions: 226000953 cycles: 111520513 heartbeat IPC: 1.31 cumulative IPC: 1.745 (Simulation time: 00 hr 18 min 39 sec)
Heartbeat CPU 0 instructions: 226500955 cycles: 111899499 heartbeat IPC: 1.319 cumulative IPC: 1.743 (Simulation time: 00 hr 18 min 42 sec)
Heartbeat CPU 0 instructions: 227000960 cycles: 112281261 heartbeat IPC: 1.31 cumulative IPC: 1.742 (Simulation time: 00 hr 18 min 45 sec)
Heartbeat CPU 0 instructions: 227500962 cycles: 112662546 heartbeat IPC: 1.311 cumulative IPC: 1.74 (Simulation time: 00 hr 18 min 48 sec)
Heartbeat CPU 0 instructions: 228000962 cycles: 113039442 heartbeat IPC: 1.327 cumulative IPC: 1.738 (Simulation time: 00 hr 18 min 52 sec)
Heartbeat CPU 0 instructions: 228500962 cycles: 113423241 heartbeat IPC: 1.303 cumulative IPC: 1.737 (Simulation time: 00 hr 18 min 55 sec)
Heartbeat CPU 0 instructions: 229000963 cycles: 113806916 heartbeat IPC: 1.303 cumulative IPC: 1.735 (Simulation time: 00 hr 18 min 58 sec)
Heartbeat CPU 0 instructions: 229500968 cycles: 114190682 heartbeat IPC: 1.303 cumulative IPC: 1.734 (Simulation time: 00 hr 19 min 01 sec)
Heartbeat CPU 0 instructions: 230000969 cycles: 114569852 heartbeat IPC: 1.319 cumulative IPC: 1.732 (Simulation time: 00 hr 19 min 04 sec)
Heartbeat CPU 0 instructions: 230500971 cycles: 114948116 heartbeat IPC: 1.322 cumulative IPC: 1.731 (Simulation time: 00 hr 19 min 07 sec)
Heartbeat CPU 0 instructions: 231000975 cycles: 115329426 heartbeat IPC: 1.311 cumulative IPC: 1.729 (Simulation time: 00 hr 19 min 11 sec)
Heartbeat CPU 0 instructions: 231500980 cycles: 115704251 heartbeat IPC: 1.334 cumulative IPC: 1.728 (Simulation time: 00 hr 19 min 14 sec)
Heartbeat CPU 0 instructions: 232000983 cycles: 116085828 heartbeat IPC: 1.31 cumulative IPC: 1.726 (Simulation time: 00 hr 19 min 17 sec)
Heartbeat CPU 0 instructions: 232500983 cycles: 116462550 heartbeat IPC: 1.327 cumulative IPC: 1.725 (Simulation time: 00 hr 19 min 20 sec)
Heartbeat CPU 0 instructions: 233000987 cycles: 116845096 heartbeat IPC: 1.307 cumulative IPC: 1.723 (Simulation time: 00 hr 19 min 23 sec)
Heartbeat CPU 0 instructions: 233500989 cycles: 117222282 heartbeat IPC: 1.326 cumulative IPC: 1.722 (Simulation time: 00 hr 19 min 26 sec)
Heartbeat CPU 0 instructions: 234000993 cycles: 117599553 heartbeat IPC: 1.325 cumulative IPC: 1.72 (Simulation time: 00 hr 19 min 29 sec)
Heartbeat CPU 0 instructions: 234500994 cycles: 117974844 heartbeat IPC: 1.332 cumulative IPC: 1.719 (Simulation time: 00 hr 19 min 32 sec)
Heartbeat CPU 0 instructions: 235000999 cycles: 118350010 heartbeat IPC: 1.333 cumulative IPC: 1.718 (Simulation time: 00 hr 19 min 36 sec)
Heartbeat CPU 0 instructions: 235501000 cycles: 118731446 heartbeat IPC: 1.311 cumulative IPC: 1.716 (Simulation time: 00 hr 19 min 39 sec)
Heartbeat CPU 0 instructions: 236001000 cycles: 119109707 heartbeat IPC: 1.322 cumulative IPC: 1.715 (Simulation time: 00 hr 19 min 42 sec)
Heartbeat CPU 0 instructions: 236501005 cycles: 119486776 heartbeat IPC: 1.326 cumulative IPC: 1.714 (Simulation time: 00 hr 19 min 45 sec)
Heartbeat CPU 0 instructions: 237001008 cycles: 119866066 heartbeat IPC: 1.318 cumulative IPC: 1.712 (Simulation time: 00 hr 19 min 48 sec)
Heartbeat CPU 0 instructions: 237501012 cycles: 120246547 heartbeat IPC: 1.314 cumulative IPC: 1.711 (Simulation time: 00 hr 19 min 51 sec)
Heartbeat CPU 0 instructions: 238001012 cycles: 120629663 heartbeat IPC: 1.305 cumulative IPC: 1.709 (Simulation time: 00 hr 19 min 54 sec)
Heartbeat CPU 0 instructions: 238501015 cycles: 121011387 heartbeat IPC: 1.31 cumulative IPC: 1.708 (Simulation time: 00 hr 19 min 57 sec)
Heartbeat CPU 0 instructions: 239001015 cycles: 121398164 heartbeat IPC: 1.293 cumulative IPC: 1.707 (Simulation time: 00 hr 20 min 01 sec)
Heartbeat CPU 0 instructions: 239501019 cycles: 121775289 heartbeat IPC: 1.326 cumulative IPC: 1.705 (Simulation time: 00 hr 20 min 04 sec)
Heartbeat CPU 0 instructions: 240001021 cycles: 122158679 heartbeat IPC: 1.304 cumulative IPC: 1.704 (Simulation time: 00 hr 20 min 07 sec)
Heartbeat CPU 0 instructions: 240501026 cycles: 122537519 heartbeat IPC: 1.32 cumulative IPC: 1.703 (Simulation time: 00 hr 20 min 10 sec)
Heartbeat CPU 0 instructions: 241001026 cycles: 122917960 heartbeat IPC: 1.314 cumulative IPC: 1.701 (Simulation time: 00 hr 20 min 13 sec)
Heartbeat CPU 0 instructions: 241501026 cycles: 123294218 heartbeat IPC: 1.329 cumulative IPC: 1.7 (Simulation time: 00 hr 20 min 16 sec)
Heartbeat CPU 0 instructions: 242001027 cycles: 123673609 heartbeat IPC: 1.318 cumulative IPC: 1.699 (Simulation time: 00 hr 20 min 19 sec)
Heartbeat CPU 0 instructions: 242501032 cycles: 124053943 heartbeat IPC: 1.315 cumulative IPC: 1.697 (Simulation time: 00 hr 20 min 22 sec)
Heartbeat CPU 0 instructions: 243001035 cycles: 124432165 heartbeat IPC: 1.322 cumulative IPC: 1.696 (Simulation time: 00 hr 20 min 25 sec)
Heartbeat CPU 0 instructions: 243501035 cycles: 124811908 heartbeat IPC: 1.317 cumulative IPC: 1.695 (Simulation time: 00 hr 20 min 29 sec)
Heartbeat CPU 0 instructions: 244001039 cycles: 125190645 heartbeat IPC: 1.32 cumulative IPC: 1.694 (Simulation time: 00 hr 20 min 32 sec)
Heartbeat CPU 0 instructions: 244501041 cycles: 125570265 heartbeat IPC: 1.317 cumulative IPC: 1.693 (Simulation time: 00 hr 20 min 35 sec)
Heartbeat CPU 0 instructions: 245001047 cycles: 125954796 heartbeat IPC: 1.3 cumulative IPC: 1.691 (Simulation time: 00 hr 20 min 38 sec)
Heartbeat CPU 0 instructions: 245501053 cycles: 126333840 heartbeat IPC: 1.319 cumulative IPC: 1.69 (Simulation time: 00 hr 20 min 41 sec)
Heartbeat CPU 0 instructions: 246001057 cycles: 126712882 heartbeat IPC: 1.319 cumulative IPC: 1.689 (Simulation time: 00 hr 20 min 44 sec)
Heartbeat CPU 0 instructions: 246501058 cycles: 127090099 heartbeat IPC: 1.325 cumulative IPC: 1.688 (Simulation time: 00 hr 20 min 47 sec)
Heartbeat CPU 0 instructions: 247001058 cycles: 127464962 heartbeat IPC: 1.334 cumulative IPC: 1.686 (Simulation time: 00 hr 20 min 50 sec)
Heartbeat CPU 0 instructions: 247501058 cycles: 127847521 heartbeat IPC: 1.307 cumulative IPC: 1.685 (Simulation time: 00 hr 20 min 53 sec)
Heartbeat CPU 0 instructions: 248001058 cycles: 128226199 heartbeat IPC: 1.32 cumulative IPC: 1.684 (Simulation time: 00 hr 20 min 56 sec)
Heartbeat CPU 0 instructions: 248501059 cycles: 128606064 heartbeat IPC: 1.316 cumulative IPC: 1.683 (Simulation time: 00 hr 20 min 59 sec)
Heartbeat CPU 0 instructions: 249001064 cycles: 128981271 heartbeat IPC: 1.333 cumulative IPC: 1.682 (Simulation time: 00 hr 21 min 02 sec)
Heartbeat CPU 0 instructions: 249501067 cycles: 129360180 heartbeat IPC: 1.32 cumulative IPC: 1.681 (Simulation time: 00 hr 21 min 05 sec)
Simulation finished CPU 0 instructions: 200000005 cycles: 119090903 cumulative IPC: 1.679 (Simulation time: 00 hr 21 min 08 sec)
Simulation complete CPU 0 instructions: 200000005 cycles: 119090903 cumulative IPC: 1.679 (Simulation time: 00 hr 21 min 08 sec)

ChampSim completed all CPUs

=== Simulation ===
CPU 0 runs /local-ssd/ben/dpc4-traces/SPEC17/603.bwaves_s-891B.champsimtrace.xz

Region of Interest Statistics

CPU 0 cumulative IPC: 1.679 instructions: 200000005 cycles: 119090903
CPU 0 Branch Prediction Accuracy: 81.48% MPKI: 31.04 Average ROB Occupancy at Mispredict: 30.5
Branch type MPKI
BRANCH_DIRECT_JUMP: 0.06483
BRANCH_INDIRECT: 0
BRANCH_CONDITIONAL: 30.97
BRANCH_DIRECT_CALL: 0
BRANCH_INDIRECT_CALL: 0
BRANCH_RETURN: 0

cpu0->cpu0_STLB TOTAL        ACCESS:      61015 HIT:        696 MISS:      60319 MSHR_MERGE:          0
cpu0->cpu0_STLB LOAD         ACCESS:      61015 HIT:        696 MISS:      60319 MSHR_MERGE:          0
cpu0->cpu0_STLB RFO          ACCESS:          0 HIT:          0 MISS:          0 MSHR_MERGE:          0
cpu0->cpu0_STLB PREFETCH     ACCESS:          0 HIT:          0 MISS:          0 MSHR_MERGE:          0
cpu0->cpu0_STLB WRITE        ACCESS:          0 HIT:          0 MISS:          0 MSHR_MERGE:          0
cpu0->cpu0_STLB TRANSLATION  ACCESS:          0 HIT:          0 MISS:          0 MSHR_MERGE:          0
cpu0->cpu0_STLB PREFETCH REQUESTED:          0 ISSUED:          0 USEFUL:          0 USELESS:          0
cpu0->cpu0_STLB AVERAGE MISS LATENCY: 182.6 cycles
cpu0->cpu0_L2C TOTAL        ACCESS:   46318061 HIT:    1685226 MISS:   44632835 MSHR_MERGE:    1679696
cpu0->cpu0_L2C LOAD         ACCESS:     175071 HIT:       4942 MISS:     170129 MSHR_MERGE:        766
cpu0->cpu0_L2C RFO          ACCESS:       2571 HIT:       2570 MISS:          1 MSHR_MERGE:          0
cpu0->cpu0_L2C PREFETCH     ACCESS:   46129743 HIT:    1674679 MISS:   44455064 MSHR_MERGE:    1678930
cpu0->cpu0_L2C WRITE        ACCESS:       3011 HIT:       3009 MISS:          2 MSHR_MERGE:          0
cpu0->cpu0_L2C TRANSLATION  ACCESS:       7665 HIT:         26 MISS:       7639 MSHR_MERGE:          0
cpu0->cpu0_L2C PREFETCH REQUESTED:   75330241 ISSUED:   42440568 USEFUL:    1666164 USELESS:     821426
cpu0->cpu0_L2C AVERAGE MISS LATENCY: 268.9 cycles
cpu0->cpu0_L1I TOTAL        ACCESS:         16 HIT:          9 MISS:          7 MSHR_MERGE:          0
cpu0->cpu0_L1I LOAD         ACCESS:         16 HIT:          9 MISS:          7 MSHR_MERGE:          0
cpu0->cpu0_L1I RFO          ACCESS:          0 HIT:          0 MISS:          0 MSHR_MERGE:          0
cpu0->cpu0_L1I PREFETCH     ACCESS:          0 HIT:          0 MISS:          0 MSHR_MERGE:          0
cpu0->cpu0_L1I WRITE        ACCESS:          0 HIT:          0 MISS:          0 MSHR_MERGE:          0
cpu0->cpu0_L1I TRANSLATION  ACCESS:          0 HIT:          0 MISS:          0 MSHR_MERGE:          0
cpu0->cpu0_L1I PREFETCH REQUESTED:          0 ISSUED:          0 USEFUL:          0 USELESS:          0
cpu0->cpu0_L1I AVERAGE MISS LATENCY: 119.7 cycles
cpu0->cpu0_L1D TOTAL        ACCESS:   41079266 HIT:   35641852 MISS:    5437414 MSHR_MERGE:    1562505
cpu0->cpu0_L1D LOAD         ACCESS:   33767944 HIT:   32142125 MISS:    1625819 MSHR_MERGE:    1450755
cpu0->cpu0_L1D RFO          ACCESS:          0 HIT:          0 MISS:          0 MSHR_MERGE:          0
cpu0->cpu0_L1D PREFETCH     ACCESS:    3814744 HIT:      13823 MISS:    3800921 MSHR_MERGE:     111750
cpu0->cpu0_L1D WRITE        ACCESS:    3375819 HIT:    3372810 MISS:       3009 MSHR_MERGE:          0
cpu0->cpu0_L1D TRANSLATION  ACCESS:     120759 HIT:     113094 MISS:       7665 MSHR_MERGE:          0
cpu0->cpu0_L1D PREFETCH REQUESTED:    3815231 ISSUED:    3814744 USEFUL:    3686018 USELESS:       3154
cpu0->cpu0_L1D AVERAGE MISS LATENCY: 262.7 cycles
cpu0->cpu0_ITLB TOTAL        ACCESS:         12 HIT:         11 MISS:          1 MSHR_MERGE:          0
cpu0->cpu0_ITLB LOAD         ACCESS:         12 HIT:         11 MISS:          1 MSHR_MERGE:          0
cpu0->cpu0_ITLB RFO          ACCESS:          0 HIT:          0 MISS:          0 MSHR_MERGE:          0
cpu0->cpu0_ITLB PREFETCH     ACCESS:          0 HIT:          0 MISS:          0 MSHR_MERGE:          0
cpu0->cpu0_ITLB WRITE        ACCESS:          0 HIT:          0 MISS:          0 MSHR_MERGE:          0
cpu0->cpu0_ITLB TRANSLATION  ACCESS:          0 HIT:          0 MISS:          0 MSHR_MERGE:          0
cpu0->cpu0_ITLB PREFETCH REQUESTED:          0 ISSUED:          0 USEFUL:          0 USELESS:          0
cpu0->cpu0_ITLB AVERAGE MISS LATENCY: 701 cycles
cpu0->cpu0_DTLB TOTAL        ACCESS:   39215204 HIT:   38318821 MISS:     896383 MSHR_MERGE:     835369
cpu0->cpu0_DTLB LOAD         ACCESS:   39215204 HIT:   38318821 MISS:     896383 MSHR_MERGE:     835369
cpu0->cpu0_DTLB RFO          ACCESS:          0 HIT:          0 MISS:          0 MSHR_MERGE:          0
cpu0->cpu0_DTLB PREFETCH     ACCESS:          0 HIT:          0 MISS:          0 MSHR_MERGE:          0
cpu0->cpu0_DTLB WRITE        ACCESS:          0 HIT:          0 MISS:          0 MSHR_MERGE:          0
cpu0->cpu0_DTLB TRANSLATION  ACCESS:          0 HIT:          0 MISS:          0 MSHR_MERGE:          0
cpu0->cpu0_DTLB PREFETCH REQUESTED:          0 ISSUED:          0 USEFUL:          0 USELESS:          0
cpu0->cpu0_DTLB AVERAGE MISS LATENCY: 186.5 cycles
cpu0->LLC TOTAL        ACCESS:   46661519 HIT:   38450630 MISS:    8210889 MSHR_MERGE:    4341257
cpu0->LLC LOAD         ACCESS:     169363 HIT:       3592 MISS:     165771 MSHR_MERGE:      34229
cpu0->LLC RFO          ACCESS:          1 HIT:          0 MISS:          1 MSHR_MERGE:          0
cpu0->LLC PREFETCH     ACCESS:   46484511 HIT:   38447032 MISS:    8037479 MSHR_MERGE:    4307028
cpu0->LLC WRITE        ACCESS:          5 HIT:          0 MISS:          5 MSHR_MERGE:          0
cpu0->LLC TRANSLATION  ACCESS:       7639 HIT:          6 MISS:       7633 MSHR_MERGE:          0
cpu0->LLC PREFETCH REQUESTED:    3746616 ISSUED:    3743485 USEFUL:    3082039 USELESS:      97779
cpu0->LLC AVERAGE MISS LATENCY: 251.6 cycles

DRAM Statistics

Channel 0 RQ ROW_BUFFER_HIT:     991589
  ROW_BUFFER_MISS:    2878029
  AVG DBUS CONGESTED CYCLE: 3.994
Channel 0 WQ ROW_BUFFER_HIT:          0
  ROW_BUFFER_MISS:          6
  FULL:          0
Channel 0 REFRESHES ISSUED:       9924
