[VMEM] WARNING: physical memory size is smaller than virtual memory size.

*** ChampSim Multicore Out-of-Order Simulator ***
Warmup Instructions: 50000000
Simulation Instructions: 200000000
Number of CPUs: 1
Page size: 4096
Core 0: /local-ssd/ben/dpc4-traces/SPEC17/602.gcc_s-734B.champsimtrace.xz
Initialize SIGNATURE TABLE
ST_SET: 1
ST_WAY: 256
ST_TAG_BIT: 16

Initialize PATTERN TABLE
PT_SET: 512
PT_WAY: 4
SIG_DELTA_BIT: 7
C_SIG_BIT: 4
C_DELTA_BIT: 4

Initialize PREFETCH FILTER
FILTER_SET: 1024
 L1D Berti prefetcher
Off-chip DRAM Size: 64 GiB Channels: 1 Width: 64-bit Data Rate: 4807 MT/s
Heartbeat CPU 0 instructions: 500003 cycles: 114403 heartbeat IPC: 4.371 cumulative IPC: 4.371 (Simulation time: 00 hr 00 min 03 sec)
Heartbeat CPU 0 instructions: 1000004 cycles: 224256 heartbeat IPC: 4.552 cumulative IPC: 4.459 (Simulation time: 00 hr 00 min 05 sec)
Heartbeat CPU 0 instructions: 1500008 cycles: 333937 heartbeat IPC: 4.559 cumulative IPC: 4.492 (Simulation time: 00 hr 00 min 07 sec)
Heartbeat CPU 0 instructions: 2000012 cycles: 444485 heartbeat IPC: 4.523 cumulative IPC: 4.5 (Simulation time: 00 hr 00 min 09 sec)
Heartbeat CPU 0 instructions: 2500014 cycles: 552343 heartbeat IPC: 4.636 cumulative IPC: 4.526 (Simulation time: 00 hr 00 min 10 sec)
Heartbeat CPU 0 instructions: 3000018 cycles: 660338 heartbeat IPC: 4.63 cumulative IPC: 4.543 (Simulation time: 00 hr 00 min 12 sec)
Heartbeat CPU 0 instructions: 3500018 cycles: 768283 heartbeat IPC: 4.632 cumulative IPC: 4.556 (Simulation time: 00 hr 00 min 14 sec)
Heartbeat CPU 0 instructions: 4000018 cycles: 876830 heartbeat IPC: 4.606 cumulative IPC: 4.562 (Simulation time: 00 hr 00 min 16 sec)
Heartbeat CPU 0 instructions: 4500023 cycles: 985586 heartbeat IPC: 4.597 cumulative IPC: 4.566 (Simulation time: 00 hr 00 min 17 sec)
Heartbeat CPU 0 instructions: 5000026 cycles: 1094817 heartbeat IPC: 4.577 cumulative IPC: 4.567 (Simulation time: 00 hr 00 min 19 sec)
Heartbeat CPU 0 instructions: 5500031 cycles: 1203665 heartbeat IPC: 4.594 cumulative IPC: 4.569 (Simulation time: 00 hr 00 min 21 sec)
Heartbeat CPU 0 instructions: 6000031 cycles: 1310974 heartbeat IPC: 4.659 cumulative IPC: 4.577 (Simulation time: 00 hr 00 min 23 sec)
Heartbeat CPU 0 instructions: 6500034 cycles: 1418946 heartbeat IPC: 4.631 cumulative IPC: 4.581 (Simulation time: 00 hr 00 min 25 sec)
Heartbeat CPU 0 instructions: 7000036 cycles: 1529332 heartbeat IPC: 4.53 cumulative IPC: 4.577 (Simulation time: 00 hr 00 min 26 sec)
Heartbeat CPU 0 instructions: 7500036 cycles: 1639234 heartbeat IPC: 4.55 cumulative IPC: 4.575 (Simulation time: 00 hr 00 min 28 sec)
Heartbeat CPU 0 instructions: 8000038 cycles: 1749234 heartbeat IPC: 4.545 cumulative IPC: 4.573 (Simulation time: 00 hr 00 min 30 sec)
Heartbeat CPU 0 instructions: 8500041 cycles: 1859219 heartbeat IPC: 4.546 cumulative IPC: 4.572 (Simulation time: 00 hr 00 min 32 sec)
Heartbeat CPU 0 instructions: 9000048 cycles: 1968066 heartbeat IPC: 4.594 cumulative IPC: 4.573 (Simulation time: 00 hr 00 min 33 sec)
Heartbeat CPU 0 instructions: 9500053 cycles: 2076929 heartbeat IPC: 4.593 cumulative IPC: 4.574 (Simulation time: 00 hr 00 min 35 sec)
Heartbeat CPU 0 instructions: 10000056 cycles: 2188070 heartbeat IPC: 4.499 cumulative IPC: 4.57 (Simulation time: 00 hr 00 min 37 sec)
Heartbeat CPU 0 instructions: 10500057 cycles: 2296434 heartbeat IPC: 4.614 cumulative IPC: 4.572 (Simulation time: 00 hr 00 min 39 sec)
Heartbeat CPU 0 instructions: 11000060 cycles: 2404948 heartbeat IPC: 4.608 cumulative IPC: 4.574 (Simulation time: 00 hr 00 min 41 sec)
Heartbeat CPU 0 instructions: 11500064 cycles: 2513829 heartbeat IPC: 4.592 cumulative IPC: 4.575 (Simulation time: 00 hr 00 min 42 sec)
Heartbeat CPU 0 instructions: 12000064 cycles: 2622191 heartbeat IPC: 4.614 cumulative IPC: 4.576 (Simulation time: 00 hr 00 min 44 sec)
Heartbeat CPU 0 instructions: 12500068 cycles: 2732538 heartbeat IPC: 4.531 cumulative IPC: 4.575 (Simulation time: 00 hr 00 min 46 sec)
Heartbeat CPU 0 instructions: 13000071 cycles: 2840751 heartbeat IPC: 4.621 cumulative IPC: 4.576 (Simulation time: 00 hr 00 min 48 sec)
Heartbeat CPU 0 instructions: 13500075 cycles: 2950745 heartbeat IPC: 4.546 cumulative IPC: 4.575 (Simulation time: 00 hr 00 min 49 sec)
Heartbeat CPU 0 instructions: 14000080 cycles: 3063957 heartbeat IPC: 4.417 cumulative IPC: 4.569 (Simulation time: 00 hr 00 min 51 sec)
Heartbeat CPU 0 instructions: 14500083 cycles: 3174358 heartbeat IPC: 4.529 cumulative IPC: 4.568 (Simulation time: 00 hr 00 min 53 sec)
Heartbeat CPU 0 instructions: 15000090 cycles: 3293355 heartbeat IPC: 4.202 cumulative IPC: 4.555 (Simulation time: 00 hr 00 min 55 sec)
Heartbeat CPU 0 instructions: 15500092 cycles: 3401823 heartbeat IPC: 4.61 cumulative IPC: 4.556 (Simulation time: 00 hr 00 min 57 sec)
Heartbeat CPU 0 instructions: 16000093 cycles: 3510101 heartbeat IPC: 4.618 cumulative IPC: 4.558 (Simulation time: 00 hr 00 min 59 sec)
Heartbeat CPU 0 instructions: 16500097 cycles: 3618664 heartbeat IPC: 4.606 cumulative IPC: 4.56 (Simulation time: 00 hr 01 min 01 sec)
Heartbeat CPU 0 instructions: 17000097 cycles: 3726412 heartbeat IPC: 4.64 cumulative IPC: 4.562 (Simulation time: 00 hr 01 min 02 sec)
Heartbeat CPU 0 instructions: 17500103 cycles: 3834568 heartbeat IPC: 4.623 cumulative IPC: 4.564 (Simulation time: 00 hr 01 min 04 sec)
Heartbeat CPU 0 instructions: 18000110 cycles: 3943830 heartbeat IPC: 4.576 cumulative IPC: 4.564 (Simulation time: 00 hr 01 min 06 sec)
Heartbeat CPU 0 instructions: 18500112 cycles: 4052367 heartbeat IPC: 4.607 cumulative IPC: 4.565 (Simulation time: 00 hr 01 min 08 sec)
Heartbeat CPU 0 instructions: 19000119 cycles: 4160600 heartbeat IPC: 4.62 cumulative IPC: 4.567 (Simulation time: 00 hr 01 min 09 sec)
Heartbeat CPU 0 instructions: 19500120 cycles: 4267934 heartbeat IPC: 4.658 cumulative IPC: 4.569 (Simulation time: 00 hr 01 min 11 sec)
Heartbeat CPU 0 instructions: 20000124 cycles: 4375687 heartbeat IPC: 4.64 cumulative IPC: 4.571 (Simulation time: 00 hr 01 min 13 sec)
Heartbeat CPU 0 instructions: 20500130 cycles: 4483152 heartbeat IPC: 4.653 cumulative IPC: 4.573 (Simulation time: 00 hr 01 min 15 sec)
Heartbeat CPU 0 instructions: 21000131 cycles: 4591710 heartbeat IPC: 4.606 cumulative IPC: 4.573 (Simulation time: 00 hr 01 min 17 sec)
Heartbeat CPU 0 instructions: 21500136 cycles: 4699429 heartbeat IPC: 4.642 cumulative IPC: 4.575 (Simulation time: 00 hr 01 min 18 sec)
Heartbeat CPU 0 instructions: 22000142 cycles: 4807248 heartbeat IPC: 4.637 cumulative IPC: 4.576 (Simulation time: 00 hr 01 min 20 sec)
Heartbeat CPU 0 instructions: 22500144 cycles: 4914689 heartbeat IPC: 4.654 cumulative IPC: 4.578 (Simulation time: 00 hr 01 min 22 sec)
Heartbeat CPU 0 instructions: 23000147 cycles: 5023070 heartbeat IPC: 4.613 cumulative IPC: 4.579 (Simulation time: 00 hr 01 min 24 sec)
Heartbeat CPU 0 instructions: 23500153 cycles: 5130578 heartbeat IPC: 4.651 cumulative IPC: 4.58 (Simulation time: 00 hr 01 min 25 sec)
Heartbeat CPU 0 instructions: 24000159 cycles: 5238345 heartbeat IPC: 4.64 cumulative IPC: 4.582 (Simulation time: 00 hr 01 min 27 sec)
Heartbeat CPU 0 instructions: 24500162 cycles: 5346500 heartbeat IPC: 4.623 cumulative IPC: 4.582 (Simulation time: 00 hr 01 min 29 sec)
Heartbeat CPU 0 instructions: 25000162 cycles: 5453624 heartbeat IPC: 4.667 cumulative IPC: 4.584 (Simulation time: 00 hr 01 min 31 sec)
Heartbeat CPU 0 instructions: 25500167 cycles: 5560662 heartbeat IPC: 4.671 cumulative IPC: 4.586 (Simulation time: 00 hr 01 min 32 sec)
Heartbeat CPU 0 instructions: 26000168 cycles: 5667658 heartbeat IPC: 4.673 cumulative IPC: 4.587 (Simulation time: 00 hr 01 min 34 sec)
Heartbeat CPU 0 instructions: 26500169 cycles: 5774809 heartbeat IPC: 4.666 cumulative IPC: 4.589 (Simulation time: 00 hr 01 min 36 sec)
Heartbeat CPU 0 instructions: 27000170 cycles: 5882699 heartbeat IPC: 4.634 cumulative IPC: 4.59 (Simulation time: 00 hr 01 min 38 sec)
Heartbeat CPU 0 instructions: 27500174 cycles: 5989466 heartbeat IPC: 4.683 cumulative IPC: 4.591 (Simulation time: 00 hr 01 min 40 sec)
Heartbeat CPU 0 instructions: 28000178 cycles: 6097231 heartbeat IPC: 4.64 cumulative IPC: 4.592 (Simulation time: 00 hr 01 min 41 sec)
Heartbeat CPU 0 instructions: 28500181 cycles: 6203467 heartbeat IPC: 4.707 cumulative IPC: 4.594 (Simulation time: 00 hr 01 min 43 sec)
Heartbeat CPU 0 instructions: 29000181 cycles: 6311500 heartbeat IPC: 4.628 cumulative IPC: 4.595 (Simulation time: 00 hr 01 min 45 sec)
Heartbeat CPU 0 instructions: 29500185 cycles: 6419483 heartbeat IPC: 4.63 cumulative IPC: 4.595 (Simulation time: 00 hr 01 min 47 sec)
Heartbeat CPU 0 instructions: 30000191 cycles: 6520014 heartbeat IPC: 4.974 cumulative IPC: 4.601 (Simulation time: 00 hr 01 min 48 sec)
Heartbeat CPU 0 instructions: 30500197 cycles: 6620022 heartbeat IPC: 5 cumulative IPC: 4.607 (Simulation time: 00 hr 01 min 50 sec)
Heartbeat CPU 0 instructions: 31000198 cycles: 6720016 heartbeat IPC: 5 cumulative IPC: 4.613 (Simulation time: 00 hr 01 min 51 sec)
Heartbeat CPU 0 instructions: 31500198 cycles: 6820112 heartbeat IPC: 4.995 cumulative IPC: 4.619 (Simulation time: 00 hr 01 min 53 sec)
Heartbeat CPU 0 instructions: 32000201 cycles: 6920112 heartbeat IPC: 5 cumulative IPC: 4.624 (Simulation time: 00 hr 01 min 55 sec)
Heartbeat CPU 0 instructions: 32500201 cycles: 7020118 heartbeat IPC: 5 cumulative IPC: 4.63 (Simulation time: 00 hr 01 min 56 sec)
Heartbeat CPU 0 instructions: 33000205 cycles: 7120116 heartbeat IPC: 5 cumulative IPC: 4.635 (Simulation time: 00 hr 01 min 58 sec)
Heartbeat CPU 0 instructions: 33500209 cycles: 7220118 heartbeat IPC: 5 cumulative IPC: 4.64 (Simulation time: 00 hr 01 min 59 sec)
Heartbeat CPU 0 instructions: 34000209 cycles: 7320116 heartbeat IPC: 5 cumulative IPC: 4.645 (Simulation time: 00 hr 02 min 01 sec)
Heartbeat CPU 0 instructions: 34500213 cycles: 7420118 heartbeat IPC: 5 cumulative IPC: 4.65 (Simulation time: 00 hr 02 min 03 sec)
Heartbeat CPU 0 instructions: 35000219 cycles: 7520117 heartbeat IPC: 5 cumulative IPC: 4.654 (Simulation time: 00 hr 02 min 04 sec)
Heartbeat CPU 0 instructions: 35500222 cycles: 7620117 heartbeat IPC: 5 cumulative IPC: 4.659 (Simulation time: 00 hr 02 min 06 sec)
Heartbeat CPU 0 instructions: 36000224 cycles: 7720119 heartbeat IPC: 5 cumulative IPC: 4.663 (Simulation time: 00 hr 02 min 07 sec)
Heartbeat CPU 0 instructions: 36500231 cycles: 7820120 heartbeat IPC: 5 cumulative IPC: 4.667 (Simulation time: 00 hr 02 min 09 sec)
Heartbeat CPU 0 instructions: 37000234 cycles: 7920246 heartbeat IPC: 4.994 cumulative IPC: 4.672 (Simulation time: 00 hr 02 min 11 sec)
Heartbeat CPU 0 instructions: 37500235 cycles: 8020249 heartbeat IPC: 5 cumulative IPC: 4.676 (Simulation time: 00 hr 02 min 12 sec)
Heartbeat CPU 0 instructions: 38000241 cycles: 8120413 heartbeat IPC: 4.992 cumulative IPC: 4.68 (Simulation time: 00 hr 02 min 14 sec)
Heartbeat CPU 0 instructions: 38500245 cycles: 8221419 heartbeat IPC: 4.95 cumulative IPC: 4.683 (Simulation time: 00 hr 02 min 16 sec)
Heartbeat CPU 0 instructions: 39000251 cycles: 8321425 heartbeat IPC: 5 cumulative IPC: 4.687 (Simulation time: 00 hr 02 min 17 sec)
Heartbeat CPU 0 instructions: 39500258 cycles: 8421422 heartbeat IPC: 5 cumulative IPC: 4.69 (Simulation time: 00 hr 02 min 19 sec)
Heartbeat CPU 0 instructions: 40000260 cycles: 8521426 heartbeat IPC: 5 cumulative IPC: 4.694 (Simulation time: 00 hr 02 min 20 sec)
Heartbeat CPU 0 instructions: 40500263 cycles: 8621424 heartbeat IPC: 5 cumulative IPC: 4.698 (Simulation time: 00 hr 02 min 22 sec)
Heartbeat CPU 0 instructions: 41000266 cycles: 8721427 heartbeat IPC: 5 cumulative IPC: 4.701 (Simulation time: 00 hr 02 min 24 sec)
Heartbeat CPU 0 instructions: 41500272 cycles: 8821424 heartbeat IPC: 5 cumulative IPC: 4.704 (Simulation time: 00 hr 02 min 25 sec)
Heartbeat CPU 0 instructions: 42000277 cycles: 8921431 heartbeat IPC: 5 cumulative IPC: 4.708 (Simulation time: 00 hr 02 min 27 sec)
Heartbeat CPU 0 instructions: 42500277 cycles: 9021427 heartbeat IPC: 5 cumulative IPC: 4.711 (Simulation time: 00 hr 02 min 28 sec)
Heartbeat CPU 0 instructions: 43000277 cycles: 9121494 heartbeat IPC: 4.997 cumulative IPC: 4.714 (Simulation time: 00 hr 02 min 30 sec)
Heartbeat CPU 0 instructions: 43500283 cycles: 9221500 heartbeat IPC: 5 cumulative IPC: 4.717 (Simulation time: 00 hr 02 min 31 sec)
Heartbeat CPU 0 instructions: 44000287 cycles: 9321495 heartbeat IPC: 5 cumulative IPC: 4.72 (Simulation time: 00 hr 02 min 33 sec)
Heartbeat CPU 0 instructions: 44500290 cycles: 9421498 heartbeat IPC: 5 cumulative IPC: 4.723 (Simulation time: 00 hr 02 min 35 sec)
Heartbeat CPU 0 instructions: 45000290 cycles: 9521497 heartbeat IPC: 5 cumulative IPC: 4.726 (Simulation time: 00 hr 02 min 36 sec)
Heartbeat CPU 0 instructions: 45500297 cycles: 9621504 heartbeat IPC: 5 cumulative IPC: 4.729 (Simulation time: 00 hr 02 min 38 sec)
Heartbeat CPU 0 instructions: 46000303 cycles: 9721509 heartbeat IPC: 5 cumulative IPC: 4.732 (Simulation time: 00 hr 02 min 39 sec)
Heartbeat CPU 0 instructions: 46500303 cycles: 9821501 heartbeat IPC: 5 cumulative IPC: 4.735 (Simulation time: 00 hr 02 min 41 sec)
Heartbeat CPU 0 instructions: 47000303 cycles: 9921501 heartbeat IPC: 5 cumulative IPC: 4.737 (Simulation time: 00 hr 02 min 43 sec)
Heartbeat CPU 0 instructions: 47500310 cycles: 10021503 heartbeat IPC: 5 cumulative IPC: 4.74 (Simulation time: 00 hr 02 min 44 sec)
Heartbeat CPU 0 instructions: 48000316 cycles: 10121505 heartbeat IPC: 5 cumulative IPC: 4.742 (Simulation time: 00 hr 02 min 46 sec)
Heartbeat CPU 0 instructions: 48500319 cycles: 10221501 heartbeat IPC: 5 cumulative IPC: 4.745 (Simulation time: 00 hr 02 min 47 sec)
Heartbeat CPU 0 instructions: 49000326 cycles: 10321504 heartbeat IPC: 5 cumulative IPC: 4.747 (Simulation time: 00 hr 02 min 49 sec)
Heartbeat CPU 0 instructions: 49500330 cycles: 10421506 heartbeat IPC: 5 cumulative IPC: 4.75 (Simulation time: 00 hr 02 min 51 sec)
Warmup finished CPU 0 instructions: 50000005 cycles: 10521444 cumulative IPC: 4.752 (Simulation time: 00 hr 02 min 52 sec)
Warmup complete CPU 0 instructions: 50000005 cycles: 10521444 cumulative IPC: 4.752 (Simulation time: 00 hr 02 min 52 sec)
Heartbeat CPU 0 instructions: 50000335 cycles: 10521722 heartbeat IPC: 4.989 cumulative IPC: 1.187 (Simulation time: 00 hr 02 min 52 sec)
Heartbeat CPU 0 instructions: 50500340 cycles: 10719946 heartbeat IPC: 2.522 cumulative IPC: 2.521 (Simulation time: 00 hr 02 min 56 sec)
Heartbeat CPU 0 instructions: 51000340 cycles: 10927093 heartbeat IPC: 2.414 cumulative IPC: 2.466 (Simulation time: 00 hr 03 min 00 sec)
Heartbeat CPU 0 instructions: 51500342 cycles: 11134695 heartbeat IPC: 2.408 cumulative IPC: 2.447 (Simulation time: 00 hr 03 min 03 sec)
Heartbeat CPU 0 instructions: 52000342 cycles: 11335510 heartbeat IPC: 2.49 cumulative IPC: 2.457 (Simulation time: 00 hr 03 min 07 sec)
Heartbeat CPU 0 instructions: 52500347 cycles: 11530840 heartbeat IPC: 2.56 cumulative IPC: 2.477 (Simulation time: 00 hr 03 min 11 sec)
Heartbeat CPU 0 instructions: 53000347 cycles: 11745469 heartbeat IPC: 2.33 cumulative IPC: 2.451 (Simulation time: 00 hr 03 min 14 sec)
Heartbeat CPU 0 instructions: 53500347 cycles: 11954083 heartbeat IPC: 2.397 cumulative IPC: 2.443 (Simulation time: 00 hr 03 min 18 sec)
Heartbeat CPU 0 instructions: 54000347 cycles: 12164296 heartbeat IPC: 2.379 cumulative IPC: 2.435 (Simulation time: 00 hr 03 min 22 sec)
Heartbeat CPU 0 instructions: 54500354 cycles: 12385502 heartbeat IPC: 2.26 cumulative IPC: 2.414 (Simulation time: 00 hr 03 min 26 sec)
Heartbeat CPU 0 instructions: 55000358 cycles: 12603942 heartbeat IPC: 2.289 cumulative IPC: 2.401 (Simulation time: 00 hr 03 min 29 sec)
Heartbeat CPU 0 instructions: 55500360 cycles: 12826787 heartbeat IPC: 2.244 cumulative IPC: 2.386 (Simulation time: 00 hr 03 min 33 sec)
Heartbeat CPU 0 instructions: 56000367 cycles: 13034575 heartbeat IPC: 2.406 cumulative IPC: 2.388 (Simulation time: 00 hr 03 min 37 sec)
Heartbeat CPU 0 instructions: 56500371 cycles: 13244090 heartbeat IPC: 2.386 cumulative IPC: 2.388 (Simulation time: 00 hr 03 min 41 sec)
Heartbeat CPU 0 instructions: 57000371 cycles: 13443981 heartbeat IPC: 2.501 cumulative IPC: 2.395 (Simulation time: 00 hr 03 min 44 sec)
Heartbeat CPU 0 instructions: 57500377 cycles: 13655434 heartbeat IPC: 2.365 cumulative IPC: 2.393 (Simulation time: 00 hr 03 min 48 sec)
Heartbeat CPU 0 instructions: 58000382 cycles: 13863284 heartbeat IPC: 2.406 cumulative IPC: 2.394 (Simulation time: 00 hr 03 min 52 sec)
Heartbeat CPU 0 instructions: 58500386 cycles: 14065886 heartbeat IPC: 2.468 cumulative IPC: 2.398 (Simulation time: 00 hr 03 min 55 sec)
Heartbeat CPU 0 instructions: 59000390 cycles: 14278919 heartbeat IPC: 2.347 cumulative IPC: 2.395 (Simulation time: 00 hr 03 min 59 sec)
Heartbeat CPU 0 instructions: 59500397 cycles: 14473777 heartbeat IPC: 2.566 cumulative IPC: 2.404 (Simulation time: 00 hr 04 min 03 sec)
Heartbeat CPU 0 instructions: 60000398 cycles: 14677011 heartbeat IPC: 2.46 cumulative IPC: 2.407 (Simulation time: 00 hr 04 min 06 sec)
Heartbeat CPU 0 instructions: 60500398 cycles: 14937905 heartbeat IPC: 1.916 cumulative IPC: 2.378 (Simulation time: 00 hr 04 min 10 sec)
Heartbeat CPU 0 instructions: 61000403 cycles: 15254557 heartbeat IPC: 1.579 cumulative IPC: 2.324 (Simulation time: 00 hr 04 min 15 sec)
Heartbeat CPU 0 instructions: 61500405 cycles: 15496363 heartbeat IPC: 2.068 cumulative IPC: 2.312 (Simulation time: 00 hr 04 min 19 sec)
Heartbeat CPU 0 instructions: 62000406 cycles: 15830966 heartbeat IPC: 1.494 cumulative IPC: 2.26 (Simulation time: 00 hr 04 min 23 sec)
Heartbeat CPU 0 instructions: 62500406 cycles: 16335227 heartbeat IPC: 0.9916 cumulative IPC: 2.15 (Simulation time: 00 hr 04 min 28 sec)
Heartbeat CPU 0 instructions: 63000406 cycles: 16869195 heartbeat IPC: 0.9364 cumulative IPC: 2.048 (Simulation time: 00 hr 04 min 33 sec)
Heartbeat CPU 0 instructions: 63500406 cycles: 17097029 heartbeat IPC: 2.195 cumulative IPC: 2.053 (Simulation time: 00 hr 04 min 37 sec)
Heartbeat CPU 0 instructions: 64000409 cycles: 17301879 heartbeat IPC: 2.441 cumulative IPC: 2.065 (Simulation time: 00 hr 04 min 40 sec)
Heartbeat CPU 0 instructions: 64500413 cycles: 17506368 heartbeat IPC: 2.445 cumulative IPC: 2.076 (Simulation time: 00 hr 04 min 44 sec)
Heartbeat CPU 0 instructions: 65000416 cycles: 17709931 heartbeat IPC: 2.456 cumulative IPC: 2.087 (Simulation time: 00 hr 04 min 48 sec)
Heartbeat CPU 0 instructions: 65500417 cycles: 17911889 heartbeat IPC: 2.476 cumulative IPC: 2.097 (Simulation time: 00 hr 04 min 51 sec)
Heartbeat CPU 0 instructions: 66000419 cycles: 18115857 heartbeat IPC: 2.451 cumulative IPC: 2.107 (Simulation time: 00 hr 04 min 55 sec)
Heartbeat CPU 0 instructions: 66500419 cycles: 18326486 heartbeat IPC: 2.374 cumulative IPC: 2.114 (Simulation time: 00 hr 04 min 59 sec)
Heartbeat CPU 0 instructions: 67000424 cycles: 18533494 heartbeat IPC: 2.415 cumulative IPC: 2.122 (Simulation time: 00 hr 05 min 02 sec)
Heartbeat CPU 0 instructions: 67500428 cycles: 18741734 heartbeat IPC: 2.401 cumulative IPC: 2.129 (Simulation time: 00 hr 05 min 06 sec)
Heartbeat CPU 0 instructions: 68000429 cycles: 18946519 heartbeat IPC: 2.442 cumulative IPC: 2.137 (Simulation time: 00 hr 05 min 09 sec)
Heartbeat CPU 0 instructions: 68500430 cycles: 19149766 heartbeat IPC: 2.46 cumulative IPC: 2.144 (Simulation time: 00 hr 05 min 13 sec)
Heartbeat CPU 0 instructions: 69000430 cycles: 19349061 heartbeat IPC: 2.509 cumulative IPC: 2.152 (Simulation time: 00 hr 05 min 17 sec)
Heartbeat CPU 0 instructions: 69500434 cycles: 19560762 heartbeat IPC: 2.362 cumulative IPC: 2.157 (Simulation time: 00 hr 05 min 20 sec)
Heartbeat CPU 0 instructions: 70000435 cycles: 19763875 heartbeat IPC: 2.462 cumulative IPC: 2.164 (Simulation time: 00 hr 05 min 24 sec)
Heartbeat CPU 0 instructions: 70500438 cycles: 19966746 heartbeat IPC: 2.465 cumulative IPC: 2.17 (Simulation time: 00 hr 05 min 27 sec)
Heartbeat CPU 0 instructions: 71000438 cycles: 20177036 heartbeat IPC: 2.378 cumulative IPC: 2.175 (Simulation time: 00 hr 05 min 31 sec)
Heartbeat CPU 0 instructions: 71500442 cycles: 20385524 heartbeat IPC: 2.398 cumulative IPC: 2.18 (Simulation time: 00 hr 05 min 35 sec)
Heartbeat CPU 0 instructions: 72000444 cycles: 20589627 heartbeat IPC: 2.45 cumulative IPC: 2.185 (Simulation time: 00 hr 05 min 38 sec)
Heartbeat CPU 0 instructions: 72500450 cycles: 20803452 heartbeat IPC: 2.338 cumulative IPC: 2.188 (Simulation time: 00 hr 05 min 42 sec)
Heartbeat CPU 0 instructions: 73000451 cycles: 21020185 heartbeat IPC: 2.307 cumulative IPC: 2.191 (Simulation time: 00 hr 05 min 46 sec)
Heartbeat CPU 0 instructions: 73500454 cycles: 21222559 heartbeat IPC: 2.471 cumulative IPC: 2.196 (Simulation time: 00 hr 05 min 49 sec)
Heartbeat CPU 0 instructions: 74000455 cycles: 21417965 heartbeat IPC: 2.559 cumulative IPC: 2.203 (Simulation time: 00 hr 05 min 53 sec)
Heartbeat CPU 0 instructions: 74500457 cycles: 21618618 heartbeat IPC: 2.492 cumulative IPC: 2.208 (Simulation time: 00 hr 05 min 56 sec)
Heartbeat CPU 0 instructions: 75000461 cycles: 21816154 heartbeat IPC: 2.531 cumulative IPC: 2.213 (Simulation time: 00 hr 06 min 00 sec)
Heartbeat CPU 0 instructions: 75500463 cycles: 22025218 heartbeat IPC: 2.392 cumulative IPC: 2.217 (Simulation time: 00 hr 06 min 03 sec)
Heartbeat CPU 0 instructions: 76000464 cycles: 22230097 heartbeat IPC: 2.44 cumulative IPC: 2.221 (Simulation time: 00 hr 06 min 07 sec)
Heartbeat CPU 0 instructions: 76500468 cycles: 22429829 heartbeat IPC: 2.503 cumulative IPC: 2.225 (Simulation time: 00 hr 06 min 10 sec)
Heartbeat CPU 0 instructions: 77000475 cycles: 22626919 heartbeat IPC: 2.537 cumulative IPC: 2.23 (Simulation time: 00 hr 06 min 14 sec)
Heartbeat CPU 0 instructions: 77500475 cycles: 22838838 heartbeat IPC: 2.359 cumulative IPC: 2.233 (Simulation time: 00 hr 06 min 18 sec)
Heartbeat CPU 0 instructions: 78000476 cycles: 23045536 heartbeat IPC: 2.419 cumulative IPC: 2.236 (Simulation time: 00 hr 06 min 21 sec)
Heartbeat CPU 0 instructions: 78500477 cycles: 23263241 heartbeat IPC: 2.297 cumulative IPC: 2.237 (Simulation time: 00 hr 06 min 25 sec)
Heartbeat CPU 0 instructions: 79000479 cycles: 23481443 heartbeat IPC: 2.291 cumulative IPC: 2.238 (Simulation time: 00 hr 06 min 28 sec)
Heartbeat CPU 0 instructions: 79500482 cycles: 23697831 heartbeat IPC: 2.311 cumulative IPC: 2.239 (Simulation time: 00 hr 06 min 32 sec)
Heartbeat CPU 0 instructions: 80000482 cycles: 23916177 heartbeat IPC: 2.29 cumulative IPC: 2.24 (Simulation time: 00 hr 06 min 36 sec)
Heartbeat CPU 0 instructions: 80500487 cycles: 24125855 heartbeat IPC: 2.385 cumulative IPC: 2.242 (Simulation time: 00 hr 06 min 39 sec)
Heartbeat CPU 0 instructions: 81000487 cycles: 24329064 heartbeat IPC: 2.461 cumulative IPC: 2.245 (Simulation time: 00 hr 06 min 43 sec)
Heartbeat CPU 0 instructions: 81500487 cycles: 24530228 heartbeat IPC: 2.486 cumulative IPC: 2.249 (Simulation time: 00 hr 06 min 46 sec)
Heartbeat CPU 0 instructions: 82000487 cycles: 24737071 heartbeat IPC: 2.417 cumulative IPC: 2.251 (Simulation time: 00 hr 06 min 50 sec)
Heartbeat CPU 0 instructions: 82500492 cycles: 24949977 heartbeat IPC: 2.348 cumulative IPC: 2.253 (Simulation time: 00 hr 06 min 53 sec)
Heartbeat CPU 0 instructions: 83000492 cycles: 25151769 heartbeat IPC: 2.478 cumulative IPC: 2.256 (Simulation time: 00 hr 06 min 57 sec)
Heartbeat CPU 0 instructions: 83500494 cycles: 25364586 heartbeat IPC: 2.349 cumulative IPC: 2.257 (Simulation time: 00 hr 07 min 01 sec)
Heartbeat CPU 0 instructions: 84000496 cycles: 25560927 heartbeat IPC: 2.547 cumulative IPC: 2.261 (Simulation time: 00 hr 07 min 04 sec)
Heartbeat CPU 0 instructions: 84500497 cycles: 25763549 heartbeat IPC: 2.468 cumulative IPC: 2.263 (Simulation time: 00 hr 07 min 08 sec)
Heartbeat CPU 0 instructions: 85000501 cycles: 25993039 heartbeat IPC: 2.179 cumulative IPC: 2.262 (Simulation time: 00 hr 07 min 11 sec)
Heartbeat CPU 0 instructions: 85500502 cycles: 26227617 heartbeat IPC: 2.131 cumulative IPC: 2.26 (Simulation time: 00 hr 07 min 15 sec)
Heartbeat CPU 0 instructions: 86000505 cycles: 26453246 heartbeat IPC: 2.216 cumulative IPC: 2.26 (Simulation time: 00 hr 07 min 19 sec)
Heartbeat CPU 0 instructions: 86500506 cycles: 26689567 heartbeat IPC: 2.116 cumulative IPC: 2.258 (Simulation time: 00 hr 07 min 22 sec)
Heartbeat CPU 0 instructions: 87000512 cycles: 26911343 heartbeat IPC: 2.255 cumulative IPC: 2.258 (Simulation time: 00 hr 07 min 26 sec)
Heartbeat CPU 0 instructions: 87500512 cycles: 27122400 heartbeat IPC: 2.369 cumulative IPC: 2.259 (Simulation time: 00 hr 07 min 29 sec)
Heartbeat CPU 0 instructions: 88000513 cycles: 27369624 heartbeat IPC: 2.022 cumulative IPC: 2.255 (Simulation time: 00 hr 07 min 33 sec)
Heartbeat CPU 0 instructions: 88500515 cycles: 27571362 heartbeat IPC: 2.478 cumulative IPC: 2.258 (Simulation time: 00 hr 07 min 37 sec)
Heartbeat CPU 0 instructions: 89000515 cycles: 27781847 heartbeat IPC: 2.375 cumulative IPC: 2.26 (Simulation time: 00 hr 07 min 40 sec)
Heartbeat CPU 0 instructions: 89500520 cycles: 27993581 heartbeat IPC: 2.361 cumulative IPC: 2.261 (Simulation time: 00 hr 07 min 44 sec)
Heartbeat CPU 0 instructions: 90000520 cycles: 28212734 heartbeat IPC: 2.282 cumulative IPC: 2.261 (Simulation time: 00 hr 07 min 48 sec)
Heartbeat CPU 0 instructions: 90500526 cycles: 28459077 heartbeat IPC: 2.03 cumulative IPC: 2.258 (Simulation time: 00 hr 07 min 51 sec)
Heartbeat CPU 0 instructions: 91000529 cycles: 28671497 heartbeat IPC: 2.354 cumulative IPC: 2.259 (Simulation time: 00 hr 07 min 55 sec)
Heartbeat CPU 0 instructions: 91500531 cycles: 28914741 heartbeat IPC: 2.056 cumulative IPC: 2.256 (Simulation time: 00 hr 07 min 59 sec)
Heartbeat CPU 0 instructions: 92000534 cycles: 29204865 heartbeat IPC: 1.723 cumulative IPC: 2.248 (Simulation time: 00 hr 08 min 03 sec)
Heartbeat CPU 0 instructions: 92500534 cycles: 29705445 heartbeat IPC: 0.9988 cumulative IPC: 2.215 (Simulation time: 00 hr 08 min 09 sec)
Heartbeat CPU 0 instructions: 93000534 cycles: 30639642 heartbeat IPC: 0.5352 cumulative IPC: 2.137 (Simulation time: 00 hr 08 min 20 sec)
Heartbeat CPU 0 instructions: 93500534 cycles: 31549160 heartbeat IPC: 0.5497 cumulative IPC: 2.069 (Simulation time: 00 hr 08 min 31 sec)
Heartbeat CPU 0 instructions: 94000537 cycles: 32479554 heartbeat IPC: 0.5374 cumulative IPC: 2.004 (Simulation time: 00 hr 08 min 42 sec)
Heartbeat CPU 0 instructions: 94500537 cycles: 33433748 heartbeat IPC: 0.524 cumulative IPC: 1.942 (Simulation time: 00 hr 08 min 52 sec)
Heartbeat CPU 0 instructions: 95000544 cycles: 34345325 heartbeat IPC: 0.5485 cumulative IPC: 1.889 (Simulation time: 00 hr 09 min 01 sec)
Heartbeat CPU 0 instructions: 95500546 cycles: 36313335 heartbeat IPC: 0.2541 cumulative IPC: 1.764 (Simulation time: 00 hr 09 min 14 sec)
Heartbeat CPU 0 instructions: 96000550 cycles: 36995412 heartbeat IPC: 0.7331 cumulative IPC: 1.738 (Simulation time: 00 hr 09 min 19 sec)
Heartbeat CPU 0 instructions: 96500551 cycles: 37232246 heartbeat IPC: 2.111 cumulative IPC: 1.741 (Simulation time: 00 hr 09 min 23 sec)
Heartbeat CPU 0 instructions: 97000552 cycles: 37442171 heartbeat IPC: 2.382 cumulative IPC: 1.746 (Simulation time: 00 hr 09 min 26 sec)
Heartbeat CPU 0 instructions: 97500554 cycles: 37639891 heartbeat IPC: 2.529 cumulative IPC: 1.752 (Simulation time: 00 hr 09 min 30 sec)
Heartbeat CPU 0 instructions: 98000554 cycles: 37848821 heartbeat IPC: 2.393 cumulative IPC: 1.757 (Simulation time: 00 hr 09 min 33 sec)
Heartbeat CPU 0 instructions: 98500554 cycles: 38045740 heartbeat IPC: 2.539 cumulative IPC: 1.762 (Simulation time: 00 hr 09 min 36 sec)
Heartbeat CPU 0 instructions: 99000556 cycles: 38252647 heartbeat IPC: 2.417 cumulative IPC: 1.767 (Simulation time: 00 hr 09 min 40 sec)
Heartbeat CPU 0 instructions: 99500560 cycles: 38460254 heartbeat IPC: 2.408 cumulative IPC: 1.772 (Simulation time: 00 hr 09 min 43 sec)
Heartbeat CPU 0 instructions: 100000560 cycles: 38669643 heartbeat IPC: 2.388 cumulative IPC: 1.776 (Simulation time: 00 hr 09 min 47 sec)
Heartbeat CPU 0 instructions: 100500562 cycles: 38877084 heartbeat IPC: 2.41 cumulative IPC: 1.781 (Simulation time: 00 hr 09 min 50 sec)
Heartbeat CPU 0 instructions: 101000563 cycles: 39081094 heartbeat IPC: 2.451 cumulative IPC: 1.786 (Simulation time: 00 hr 09 min 54 sec)
Heartbeat CPU 0 instructions: 101500569 cycles: 39284412 heartbeat IPC: 2.459 cumulative IPC: 1.791 (Simulation time: 00 hr 09 min 57 sec)
Heartbeat CPU 0 instructions: 102000570 cycles: 39483250 heartbeat IPC: 2.515 cumulative IPC: 1.795 (Simulation time: 00 hr 10 min 01 sec)
Heartbeat CPU 0 instructions: 102500574 cycles: 39691888 heartbeat IPC: 2.397 cumulative IPC: 1.8 (Simulation time: 00 hr 10 min 04 sec)
Heartbeat CPU 0 instructions: 103000576 cycles: 39897284 heartbeat IPC: 2.434 cumulative IPC: 1.804 (Simulation time: 00 hr 10 min 08 sec)
Heartbeat CPU 0 instructions: 103500581 cycles: 40101486 heartbeat IPC: 2.449 cumulative IPC: 1.809 (Simulation time: 00 hr 10 min 11 sec)
Heartbeat CPU 0 instructions: 104000582 cycles: 40306070 heartbeat IPC: 2.444 cumulative IPC: 1.813 (Simulation time: 00 hr 10 min 15 sec)
Heartbeat CPU 0 instructions: 104500584 cycles: 40522088 heartbeat IPC: 2.315 cumulative IPC: 1.817 (Simulation time: 00 hr 10 min 18 sec)
Heartbeat CPU 0 instructions: 105000588 cycles: 40725583 heartbeat IPC: 2.457 cumulative IPC: 1.821 (Simulation time: 00 hr 10 min 22 sec)
Heartbeat CPU 0 instructions: 105500594 cycles: 40940383 heartbeat IPC: 2.328 cumulative IPC: 1.825 (Simulation time: 00 hr 10 min 25 sec)
Heartbeat CPU 0 instructions: 106000597 cycles: 41153681 heartbeat IPC: 2.344 cumulative IPC: 1.828 (Simulation time: 00 hr 10 min 29 sec)
Heartbeat CPU 0 instructions: 106500597 cycles: 41355657 heartbeat IPC: 2.476 cumulative IPC: 1.832 (Simulation time: 00 hr 10 min 32 sec)
Heartbeat CPU 0 instructions: 107000600 cycles: 41555768 heartbeat IPC: 2.499 cumulative IPC: 1.837 (Simulation time: 00 hr 10 min 36 sec)
Heartbeat CPU 0 instructions: 107500601 cycles: 41750384 heartbeat IPC: 2.569 cumulative IPC: 1.841 (Simulation time: 00 hr 10 min 39 sec)
Heartbeat CPU 0 instructions: 108000608 cycles: 41949735 heartbeat IPC: 2.508 cumulative IPC: 1.845 (Simulation time: 00 hr 10 min 43 sec)
Heartbeat CPU 0 instructions: 108500613 cycles: 42153857 heartbeat IPC: 2.45 cumulative IPC: 1.849 (Simulation time: 00 hr 10 min 46 sec)
Heartbeat CPU 0 instructions: 109000620 cycles: 42356329 heartbeat IPC: 2.47 cumulative IPC: 1.853 (Simulation time: 00 hr 10 min 49 sec)
Heartbeat CPU 0 instructions: 109500624 cycles: 42561547 heartbeat IPC: 2.436 cumulative IPC: 1.857 (Simulation time: 00 hr 10 min 53 sec)
Heartbeat CPU 0 instructions: 110000626 cycles: 42757654 heartbeat IPC: 2.55 cumulative IPC: 1.861 (Simulation time: 00 hr 10 min 56 sec)
Heartbeat CPU 0 instructions: 110500628 cycles: 42965445 heartbeat IPC: 2.406 cumulative IPC: 1.865 (Simulation time: 00 hr 11 min 00 sec)
Heartbeat CPU 0 instructions: 111000631 cycles: 43177693 heartbeat IPC: 2.356 cumulative IPC: 1.868 (Simulation time: 00 hr 11 min 03 sec)
Heartbeat CPU 0 instructions: 111500632 cycles: 43377055 heartbeat IPC: 2.508 cumulative IPC: 1.872 (Simulation time: 00 hr 11 min 06 sec)
Heartbeat CPU 0 instructions: 112000634 cycles: 43599095 heartbeat IPC: 2.252 cumulative IPC: 1.874 (Simulation time: 00 hr 11 min 10 sec)
Heartbeat CPU 0 instructions: 112500641 cycles: 43816439 heartbeat IPC: 2.301 cumulative IPC: 1.877 (Simulation time: 00 hr 11 min 14 sec)
Heartbeat CPU 0 instructions: 113000642 cycles: 44035306 heartbeat IPC: 2.284 cumulative IPC: 1.88 (Simulation time: 00 hr 11 min 17 sec)
Heartbeat CPU 0 instructions: 113500642 cycles: 44248159 heartbeat IPC: 2.349 cumulative IPC: 1.883 (Simulation time: 00 hr 11 min 21 sec)
Heartbeat CPU 0 instructions: 114000642 cycles: 44450037 heartbeat IPC: 2.477 cumulative IPC: 1.886 (Simulation time: 00 hr 11 min 24 sec)
Heartbeat CPU 0 instructions: 114500642 cycles: 44657718 heartbeat IPC: 2.408 cumulative IPC: 1.89 (Simulation time: 00 hr 11 min 27 sec)
Heartbeat CPU 0 instructions: 115000648 cycles: 44860293 heartbeat IPC: 2.468 cumulative IPC: 1.893 (Simulation time: 00 hr 11 min 31 sec)
Heartbeat CPU 0 instructions: 115500648 cycles: 45075155 heartbeat IPC: 2.327 cumulative IPC: 1.896 (Simulation time: 00 hr 11 min 34 sec)
Heartbeat CPU 0 instructions: 116000654 cycles: 45278531 heartbeat IPC: 2.459 cumulative IPC: 1.899 (Simulation time: 00 hr 11 min 38 sec)
Heartbeat CPU 0 instructions: 116500654 cycles: 45485792 heartbeat IPC: 2.412 cumulative IPC: 1.902 (Simulation time: 00 hr 11 min 41 sec)
Heartbeat CPU 0 instructions: 117000658 cycles: 45688449 heartbeat IPC: 2.467 cumulative IPC: 1.905 (Simulation time: 00 hr 11 min 44 sec)
Heartbeat CPU 0 instructions: 117500665 cycles: 45894648 heartbeat IPC: 2.425 cumulative IPC: 1.908 (Simulation time: 00 hr 11 min 48 sec)
Heartbeat CPU 0 instructions: 118000665 cycles: 46103180 heartbeat IPC: 2.398 cumulative IPC: 1.911 (Simulation time: 00 hr 11 min 51 sec)
Heartbeat CPU 0 instructions: 118500666 cycles: 46351918 heartbeat IPC: 2.01 cumulative IPC: 1.912 (Simulation time: 00 hr 11 min 55 sec)
Heartbeat CPU 0 instructions: 119000667 cycles: 46561097 heartbeat IPC: 2.39 cumulative IPC: 1.915 (Simulation time: 00 hr 11 min 58 sec)
Heartbeat CPU 0 instructions: 119500668 cycles: 46794654 heartbeat IPC: 2.141 cumulative IPC: 1.916 (Simulation time: 00 hr 12 min 02 sec)
Heartbeat CPU 0 instructions: 120000672 cycles: 47039341 heartbeat IPC: 2.043 cumulative IPC: 1.917 (Simulation time: 00 hr 12 min 06 sec)
Heartbeat CPU 0 instructions: 120500672 cycles: 47253314 heartbeat IPC: 2.337 cumulative IPC: 1.919 (Simulation time: 00 hr 12 min 09 sec)
Heartbeat CPU 0 instructions: 121000677 cycles: 47489339 heartbeat IPC: 2.118 cumulative IPC: 1.921 (Simulation time: 00 hr 12 min 13 sec)
Heartbeat CPU 0 instructions: 121500683 cycles: 47692555 heartbeat IPC: 2.46 cumulative IPC: 1.924 (Simulation time: 00 hr 12 min 16 sec)
Heartbeat CPU 0 instructions: 122000685 cycles: 47898917 heartbeat IPC: 2.423 cumulative IPC: 1.926 (Simulation time: 00 hr 12 min 19 sec)
Heartbeat CPU 0 instructions: 122500689 cycles: 48111978 heartbeat IPC: 2.347 cumulative IPC: 1.929 (Simulation time: 00 hr 12 min 23 sec)
Heartbeat CPU 0 instructions: 123000689 cycles: 48320829 heartbeat IPC: 2.394 cumulative IPC: 1.931 (Simulation time: 00 hr 12 min 26 sec)
Heartbeat CPU 0 instructions: 123500694 cycles: 48582307 heartbeat IPC: 1.912 cumulative IPC: 1.931 (Simulation time: 00 hr 12 min 30 sec)
Heartbeat CPU 0 instructions: 124000701 cycles: 48791275 heartbeat IPC: 2.393 cumulative IPC: 1.934 (Simulation time: 00 hr 12 min 33 sec)
Heartbeat CPU 0 instructions: 124500704 cycles: 49026625 heartbeat IPC: 2.125 cumulative IPC: 1.935 (Simulation time: 00 hr 12 min 37 sec)
Heartbeat CPU 0 instructions: 125000705 cycles: 49272985 heartbeat IPC: 2.03 cumulative IPC: 1.935 (Simulation time: 00 hr 12 min 41 sec)
Heartbeat CPU 0 instructions: 125500711 cycles: 49868339 heartbeat IPC: 0.8398 cumulative IPC: 1.919 (Simulation time: 00 hr 12 min 47 sec)
Heartbeat CPU 0 instructions: 126000711 cycles: 50834115 heartbeat IPC: 0.5177 cumulative IPC: 1.885 (Simulation time: 00 hr 12 min 56 sec)
Heartbeat CPU 0 instructions: 126500711 cycles: 51776973 heartbeat IPC: 0.5303 cumulative IPC: 1.854 (Simulation time: 00 hr 13 min 05 sec)
Heartbeat CPU 0 instructions: 127000716 cycles: 52359864 heartbeat IPC: 0.8578 cumulative IPC: 1.84 (Simulation time: 00 hr 13 min 11 sec)
Heartbeat CPU 0 instructions: 127500718 cycles: 52642145 heartbeat IPC: 1.771 cumulative IPC: 1.84 (Simulation time: 00 hr 13 min 15 sec)
Heartbeat CPU 0 instructions: 128000721 cycles: 52858870 heartbeat IPC: 2.307 cumulative IPC: 1.842 (Simulation time: 00 hr 13 min 19 sec)
Heartbeat CPU 0 instructions: 128500722 cycles: 53071259 heartbeat IPC: 2.354 cumulative IPC: 1.845 (Simulation time: 00 hr 13 min 22 sec)
Heartbeat CPU 0 instructions: 129000726 cycles: 53288989 heartbeat IPC: 2.296 cumulative IPC: 1.847 (Simulation time: 00 hr 13 min 26 sec)
Heartbeat CPU 0 instructions: 129500726 cycles: 53504413 heartbeat IPC: 2.321 cumulative IPC: 1.85 (Simulation time: 00 hr 13 min 29 sec)
Heartbeat CPU 0 instructions: 130000726 cycles: 53719781 heartbeat IPC: 2.322 cumulative IPC: 1.852 (Simulation time: 00 hr 13 min 33 sec)
Heartbeat CPU 0 instructions: 130500730 cycles: 53943988 heartbeat IPC: 2.23 cumulative IPC: 1.854 (Simulation time: 00 hr 13 min 36 sec)
Heartbeat CPU 0 instructions: 131000734 cycles: 54166397 heartbeat IPC: 2.248 cumulative IPC: 1.856 (Simulation time: 00 hr 13 min 40 sec)
Heartbeat CPU 0 instructions: 131500738 cycles: 54390218 heartbeat IPC: 2.234 cumulative IPC: 1.858 (Simulation time: 00 hr 13 min 44 sec)
Heartbeat CPU 0 instructions: 132000742 cycles: 54604528 heartbeat IPC: 2.333 cumulative IPC: 1.86 (Simulation time: 00 hr 13 min 47 sec)
Heartbeat CPU 0 instructions: 132500748 cycles: 54817408 heartbeat IPC: 2.349 cumulative IPC: 1.862 (Simulation time: 00 hr 13 min 51 sec)
Heartbeat CPU 0 instructions: 133000751 cycles: 55031316 heartbeat IPC: 2.337 cumulative IPC: 1.865 (Simulation time: 00 hr 13 min 54 sec)
Heartbeat CPU 0 instructions: 133500751 cycles: 55256914 heartbeat IPC: 2.216 cumulative IPC: 1.867 (Simulation time: 00 hr 13 min 58 sec)
Heartbeat CPU 0 instructions: 134000753 cycles: 55472127 heartbeat IPC: 2.323 cumulative IPC: 1.869 (Simulation time: 00 hr 14 min 02 sec)
Heartbeat CPU 0 instructions: 134500753 cycles: 55686059 heartbeat IPC: 2.337 cumulative IPC: 1.871 (Simulation time: 00 hr 14 min 05 sec)
Heartbeat CPU 0 instructions: 135000753 cycles: 55910572 heartbeat IPC: 2.227 cumulative IPC: 1.873 (Simulation time: 00 hr 14 min 09 sec)
Heartbeat CPU 0 instructions: 135500754 cycles: 56129768 heartbeat IPC: 2.281 cumulative IPC: 1.875 (Simulation time: 00 hr 14 min 12 sec)
Heartbeat CPU 0 instructions: 136000756 cycles: 56346854 heartbeat IPC: 2.303 cumulative IPC: 1.877 (Simulation time: 00 hr 14 min 16 sec)
Heartbeat CPU 0 instructions: 136500757 cycles: 56573733 heartbeat IPC: 2.204 cumulative IPC: 1.878 (Simulation time: 00 hr 14 min 19 sec)
Heartbeat CPU 0 instructions: 137000758 cycles: 56802669 heartbeat IPC: 2.184 cumulative IPC: 1.88 (Simulation time: 00 hr 14 min 23 sec)
Heartbeat CPU 0 instructions: 137500765 cycles: 57015081 heartbeat IPC: 2.354 cumulative IPC: 1.882 (Simulation time: 00 hr 14 min 26 sec)
Heartbeat CPU 0 instructions: 138000767 cycles: 57225161 heartbeat IPC: 2.38 cumulative IPC: 1.884 (Simulation time: 00 hr 14 min 30 sec)
Heartbeat CPU 0 instructions: 138500769 cycles: 57438587 heartbeat IPC: 2.343 cumulative IPC: 1.886 (Simulation time: 00 hr 14 min 33 sec)
Heartbeat CPU 0 instructions: 139000770 cycles: 57649106 heartbeat IPC: 2.375 cumulative IPC: 1.889 (Simulation time: 00 hr 14 min 37 sec)
Heartbeat CPU 0 instructions: 139500774 cycles: 57872687 heartbeat IPC: 2.236 cumulative IPC: 1.89 (Simulation time: 00 hr 14 min 40 sec)
Heartbeat CPU 0 instructions: 140000780 cycles: 58078890 heartbeat IPC: 2.425 cumulative IPC: 1.892 (Simulation time: 00 hr 14 min 44 sec)
Heartbeat CPU 0 instructions: 140500781 cycles: 58300793 heartbeat IPC: 2.253 cumulative IPC: 1.894 (Simulation time: 00 hr 14 min 47 sec)
Heartbeat CPU 0 instructions: 141000786 cycles: 58508521 heartbeat IPC: 2.407 cumulative IPC: 1.896 (Simulation time: 00 hr 14 min 51 sec)
Heartbeat CPU 0 instructions: 141500786 cycles: 58734294 heartbeat IPC: 2.215 cumulative IPC: 1.898 (Simulation time: 00 hr 14 min 55 sec)
Heartbeat CPU 0 instructions: 142000791 cycles: 58953011 heartbeat IPC: 2.286 cumulative IPC: 1.9 (Simulation time: 00 hr 14 min 58 sec)
Heartbeat CPU 0 instructions: 142500796 cycles: 59172329 heartbeat IPC: 2.28 cumulative IPC: 1.901 (Simulation time: 00 hr 15 min 02 sec)
Heartbeat CPU 0 instructions: 143000798 cycles: 59411492 heartbeat IPC: 2.091 cumulative IPC: 1.902 (Simulation time: 00 hr 15 min 05 sec)
Heartbeat CPU 0 instructions: 143500799 cycles: 59641080 heartbeat IPC: 2.178 cumulative IPC: 1.904 (Simulation time: 00 hr 15 min 09 sec)
Heartbeat CPU 0 instructions: 144000803 cycles: 59868247 heartbeat IPC: 2.201 cumulative IPC: 1.905 (Simulation time: 00 hr 15 min 12 sec)
Heartbeat CPU 0 instructions: 144500803 cycles: 60090801 heartbeat IPC: 2.247 cumulative IPC: 1.906 (Simulation time: 00 hr 15 min 16 sec)
Heartbeat CPU 0 instructions: 145000804 cycles: 60308780 heartbeat IPC: 2.294 cumulative IPC: 1.908 (Simulation time: 00 hr 15 min 20 sec)
Heartbeat CPU 0 instructions: 145500805 cycles: 60522743 heartbeat IPC: 2.337 cumulative IPC: 1.91 (Simulation time: 00 hr 15 min 23 sec)
Heartbeat CPU 0 instructions: 146000809 cycles: 60741857 heartbeat IPC: 2.282 cumulative IPC: 1.912 (Simulation time: 00 hr 15 min 27 sec)
Heartbeat CPU 0 instructions: 146500810 cycles: 60972006 heartbeat IPC: 2.173 cumulative IPC: 1.913 (Simulation time: 00 hr 15 min 30 sec)
Heartbeat CPU 0 instructions: 147000813 cycles: 61188642 heartbeat IPC: 2.308 cumulative IPC: 1.914 (Simulation time: 00 hr 15 min 34 sec)
Heartbeat CPU 0 instructions: 147500814 cycles: 61415299 heartbeat IPC: 2.206 cumulative IPC: 1.916 (Simulation time: 00 hr 15 min 37 sec)
Heartbeat CPU 0 instructions: 148000815 cycles: 61627574 heartbeat IPC: 2.355 cumulative IPC: 1.918 (Simulation time: 00 hr 15 min 41 sec)
Heartbeat CPU 0 instructions: 148500815 cycles: 61847288 heartbeat IPC: 2.276 cumulative IPC: 1.919 (Simulation time: 00 hr 15 min 44 sec)
Heartbeat CPU 0 instructions: 149000815 cycles: 62083362 heartbeat IPC: 2.118 cumulative IPC: 1.92 (Simulation time: 00 hr 15 min 48 sec)
Heartbeat CPU 0 instructions: 149500815 cycles: 62337875 heartbeat IPC: 1.965 cumulative IPC: 1.92 (Simulation time: 00 hr 15 min 52 sec)
Heartbeat CPU 0 instructions: 150000817 cycles: 62573959 heartbeat IPC: 2.118 cumulative IPC: 1.921 (Simulation time: 00 hr 15 min 55 sec)
Heartbeat CPU 0 instructions: 150500818 cycles: 62840566 heartbeat IPC: 1.875 cumulative IPC: 1.921 (Simulation time: 00 hr 15 min 59 sec)
Heartbeat CPU 0 instructions: 151000818 cycles: 63073091 heartbeat IPC: 2.15 cumulative IPC: 1.922 (Simulation time: 00 hr 16 min 02 sec)
Heartbeat CPU 0 instructions: 151500820 cycles: 63306960 heartbeat IPC: 2.138 cumulative IPC: 1.923 (Simulation time: 00 hr 16 min 06 sec)
Heartbeat CPU 0 instructions: 152000821 cycles: 63560680 heartbeat IPC: 1.971 cumulative IPC: 1.923 (Simulation time: 00 hr 16 min 10 sec)
Heartbeat CPU 0 instructions: 152500821 cycles: 63780027 heartbeat IPC: 2.279 cumulative IPC: 1.925 (Simulation time: 00 hr 16 min 13 sec)
Heartbeat CPU 0 instructions: 153000824 cycles: 64001698 heartbeat IPC: 2.256 cumulative IPC: 1.926 (Simulation time: 00 hr 16 min 17 sec)
Heartbeat CPU 0 instructions: 153500825 cycles: 64231686 heartbeat IPC: 2.174 cumulative IPC: 1.927 (Simulation time: 00 hr 16 min 20 sec)
Heartbeat CPU 0 instructions: 154000831 cycles: 64449413 heartbeat IPC: 2.296 cumulative IPC: 1.929 (Simulation time: 00 hr 16 min 24 sec)
Heartbeat CPU 0 instructions: 154500832 cycles: 64733836 heartbeat IPC: 1.758 cumulative IPC: 1.928 (Simulation time: 00 hr 16 min 28 sec)
Heartbeat CPU 0 instructions: 155000836 cycles: 64957247 heartbeat IPC: 2.238 cumulative IPC: 1.929 (Simulation time: 00 hr 16 min 31 sec)
Heartbeat CPU 0 instructions: 155500838 cycles: 65233184 heartbeat IPC: 1.812 cumulative IPC: 1.928 (Simulation time: 00 hr 16 min 35 sec)
Heartbeat CPU 0 instructions: 156000840 cycles: 65515589 heartbeat IPC: 1.771 cumulative IPC: 1.927 (Simulation time: 00 hr 16 min 39 sec)
Heartbeat CPU 0 instructions: 156500840 cycles: 65867892 heartbeat IPC: 1.419 cumulative IPC: 1.924 (Simulation time: 00 hr 16 min 43 sec)
Heartbeat CPU 0 instructions: 157000840 cycles: 66116890 heartbeat IPC: 2.008 cumulative IPC: 1.925 (Simulation time: 00 hr 16 min 46 sec)
Heartbeat CPU 0 instructions: 157500845 cycles: 66334492 heartbeat IPC: 2.298 cumulative IPC: 1.926 (Simulation time: 00 hr 16 min 50 sec)
Heartbeat CPU 0 instructions: 158000848 cycles: 66537285 heartbeat IPC: 2.466 cumulative IPC: 1.928 (Simulation time: 00 hr 16 min 53 sec)
Heartbeat CPU 0 instructions: 158500850 cycles: 66752557 heartbeat IPC: 2.323 cumulative IPC: 1.93 (Simulation time: 00 hr 16 min 56 sec)
Heartbeat CPU 0 instructions: 159000851 cycles: 66950220 heartbeat IPC: 2.53 cumulative IPC: 1.932 (Simulation time: 00 hr 17 min 00 sec)
Heartbeat CPU 0 instructions: 159500854 cycles: 67157389 heartbeat IPC: 2.414 cumulative IPC: 1.933 (Simulation time: 00 hr 17 min 03 sec)
Heartbeat CPU 0 instructions: 160000858 cycles: 67373832 heartbeat IPC: 2.31 cumulative IPC: 1.935 (Simulation time: 00 hr 17 min 06 sec)
Heartbeat CPU 0 instructions: 160500858 cycles: 67584981 heartbeat IPC: 2.368 cumulative IPC: 1.936 (Simulation time: 00 hr 17 min 10 sec)
Heartbeat CPU 0 instructions: 161000858 cycles: 67796228 heartbeat IPC: 2.367 cumulative IPC: 1.938 (Simulation time: 00 hr 17 min 13 sec)
Heartbeat CPU 0 instructions: 161500859 cycles: 67994421 heartbeat IPC: 2.523 cumulative IPC: 1.94 (Simulation time: 00 hr 17 min 16 sec)
Heartbeat CPU 0 instructions: 162000859 cycles: 68196895 heartbeat IPC: 2.469 cumulative IPC: 1.942 (Simulation time: 00 hr 17 min 20 sec)
Heartbeat CPU 0 instructions: 162500861 cycles: 68400855 heartbeat IPC: 2.451 cumulative IPC: 1.944 (Simulation time: 00 hr 17 min 23 sec)
Heartbeat CPU 0 instructions: 163000867 cycles: 68615043 heartbeat IPC: 2.334 cumulative IPC: 1.945 (Simulation time: 00 hr 17 min 26 sec)
Heartbeat CPU 0 instructions: 163500870 cycles: 68821570 heartbeat IPC: 2.421 cumulative IPC: 1.947 (Simulation time: 00 hr 17 min 30 sec)
Heartbeat CPU 0 instructions: 164000870 cycles: 69026706 heartbeat IPC: 2.437 cumulative IPC: 1.949 (Simulation time: 00 hr 17 min 33 sec)
Heartbeat CPU 0 instructions: 164500870 cycles: 69236201 heartbeat IPC: 2.387 cumulative IPC: 1.95 (Simulation time: 00 hr 17 min 36 sec)
Heartbeat CPU 0 instructions: 165000876 cycles: 69447406 heartbeat IPC: 2.367 cumulative IPC: 1.952 (Simulation time: 00 hr 17 min 40 sec)
Heartbeat CPU 0 instructions: 165500879 cycles: 69651916 heartbeat IPC: 2.445 cumulative IPC: 1.953 (Simulation time: 00 hr 17 min 43 sec)
Heartbeat CPU 0 instructions: 166000879 cycles: 69871651 heartbeat IPC: 2.275 cumulative IPC: 1.955 (Simulation time: 00 hr 17 min 46 sec)
Heartbeat CPU 0 instructions: 166500886 cycles: 70087506 heartbeat IPC: 2.316 cumulative IPC: 1.956 (Simulation time: 00 hr 17 min 50 sec)
Heartbeat CPU 0 instructions: 167000887 cycles: 70287989 heartbeat IPC: 2.494 cumulative IPC: 1.958 (Simulation time: 00 hr 17 min 53 sec)
Heartbeat CPU 0 instructions: 167500889 cycles: 70486693 heartbeat IPC: 2.516 cumulative IPC: 1.959 (Simulation time: 00 hr 17 min 56 sec)
Heartbeat CPU 0 instructions: 168000895 cycles: 70683666 heartbeat IPC: 2.538 cumulative IPC: 1.961 (Simulation time: 00 hr 18 min 00 sec)
Heartbeat CPU 0 instructions: 168500899 cycles: 70884396 heartbeat IPC: 2.491 cumulative IPC: 1.963 (Simulation time: 00 hr 18 min 03 sec)
Heartbeat CPU 0 instructions: 169000899 cycles: 71091484 heartbeat IPC: 2.414 cumulative IPC: 1.965 (Simulation time: 00 hr 18 min 06 sec)
Heartbeat CPU 0 instructions: 169500899 cycles: 71289981 heartbeat IPC: 2.519 cumulative IPC: 1.966 (Simulation time: 00 hr 18 min 09 sec)
Heartbeat CPU 0 instructions: 170000900 cycles: 71496577 heartbeat IPC: 2.42 cumulative IPC: 1.968 (Simulation time: 00 hr 18 min 13 sec)
Heartbeat CPU 0 instructions: 170500900 cycles: 71688206 heartbeat IPC: 2.609 cumulative IPC: 1.97 (Simulation time: 00 hr 18 min 16 sec)
Heartbeat CPU 0 instructions: 171000902 cycles: 71897375 heartbeat IPC: 2.39 cumulative IPC: 1.971 (Simulation time: 00 hr 18 min 19 sec)
Heartbeat CPU 0 instructions: 171500903 cycles: 72107200 heartbeat IPC: 2.383 cumulative IPC: 1.973 (Simulation time: 00 hr 18 min 22 sec)
Heartbeat CPU 0 instructions: 172000905 cycles: 72309955 heartbeat IPC: 2.466 cumulative IPC: 1.974 (Simulation time: 00 hr 18 min 26 sec)
Heartbeat CPU 0 instructions: 172500910 cycles: 72535066 heartbeat IPC: 2.221 cumulative IPC: 1.975 (Simulation time: 00 hr 18 min 29 sec)
Heartbeat CPU 0 instructions: 173000911 cycles: 72759962 heartbeat IPC: 2.223 cumulative IPC: 1.976 (Simulation time: 00 hr 18 min 32 sec)
Heartbeat CPU 0 instructions: 173500918 cycles: 72971115 heartbeat IPC: 2.368 cumulative IPC: 1.978 (Simulation time: 00 hr 18 min 36 sec)
Heartbeat CPU 0 instructions: 174000918 cycles: 73187519 heartbeat IPC: 2.31 cumulative IPC: 1.979 (Simulation time: 00 hr 18 min 39 sec)
Heartbeat CPU 0 instructions: 174500918 cycles: 73391955 heartbeat IPC: 2.446 cumulative IPC: 1.98 (Simulation time: 00 hr 18 min 42 sec)
Heartbeat CPU 0 instructions: 175000918 cycles: 73597787 heartbeat IPC: 2.429 cumulative IPC: 1.982 (Simulation time: 00 hr 18 min 45 sec)
Heartbeat CPU 0 instructions: 175500918 cycles: 73806857 heartbeat IPC: 2.392 cumulative IPC: 1.983 (Simulation time: 00 hr 18 min 49 sec)
Heartbeat CPU 0 instructions: 176000918 cycles: 74021559 heartbeat IPC: 2.329 cumulative IPC: 1.984 (Simulation time: 00 hr 18 min 52 sec)
Heartbeat CPU 0 instructions: 176500918 cycles: 74225386 heartbeat IPC: 2.453 cumulative IPC: 1.986 (Simulation time: 00 hr 18 min 55 sec)
Heartbeat CPU 0 instructions: 177000923 cycles: 74439359 heartbeat IPC: 2.337 cumulative IPC: 1.987 (Simulation time: 00 hr 18 min 58 sec)
Heartbeat CPU 0 instructions: 177500929 cycles: 74639105 heartbeat IPC: 2.503 cumulative IPC: 1.989 (Simulation time: 00 hr 19 min 02 sec)
Heartbeat CPU 0 instructions: 178000935 cycles: 74843449 heartbeat IPC: 2.447 cumulative IPC: 1.99 (Simulation time: 00 hr 19 min 05 sec)
Heartbeat CPU 0 instructions: 178500935 cycles: 75072479 heartbeat IPC: 2.183 cumulative IPC: 1.991 (Simulation time: 00 hr 19 min 08 sec)
Heartbeat CPU 0 instructions: 179000935 cycles: 75388826 heartbeat IPC: 1.581 cumulative IPC: 1.989 (Simulation time: 00 hr 19 min 12 sec)
Heartbeat CPU 0 instructions: 179500937 cycles: 75661559 heartbeat IPC: 1.833 cumulative IPC: 1.988 (Simulation time: 00 hr 19 min 16 sec)
Heartbeat CPU 0 instructions: 180000939 cycles: 75997366 heartbeat IPC: 1.489 cumulative IPC: 1.985 (Simulation time: 00 hr 19 min 20 sec)
Heartbeat CPU 0 instructions: 180500939 cycles: 76328376 heartbeat IPC: 1.511 cumulative IPC: 1.983 (Simulation time: 00 hr 19 min 23 sec)
Heartbeat CPU 0 instructions: 181000939 cycles: 76716584 heartbeat IPC: 1.288 cumulative IPC: 1.979 (Simulation time: 00 hr 19 min 27 sec)
Heartbeat CPU 0 instructions: 181500943 cycles: 77086102 heartbeat IPC: 1.353 cumulative IPC: 1.976 (Simulation time: 00 hr 19 min 30 sec)
Heartbeat CPU 0 instructions: 182000947 cycles: 77458175 heartbeat IPC: 1.344 cumulative IPC: 1.972 (Simulation time: 00 hr 19 min 34 sec)
Heartbeat CPU 0 instructions: 182500947 cycles: 77824049 heartbeat IPC: 1.367 cumulative IPC: 1.969 (Simulation time: 00 hr 19 min 37 sec)
Heartbeat CPU 0 instructions: 183000952 cycles: 78198850 heartbeat IPC: 1.334 cumulative IPC: 1.965 (Simulation time: 00 hr 19 min 41 sec)
Heartbeat CPU 0 instructions: 183500953 cycles: 78576599 heartbeat IPC: 1.324 cumulative IPC: 1.962 (Simulation time: 00 hr 19 min 44 sec)
Heartbeat CPU 0 instructions: 184000957 cycles: 78947197 heartbeat IPC: 1.349 cumulative IPC: 1.958 (Simulation time: 00 hr 19 min 48 sec)
Heartbeat CPU 0 instructions: 184500957 cycles: 79310102 heartbeat IPC: 1.378 cumulative IPC: 1.955 (Simulation time: 00 hr 19 min 51 sec)
Heartbeat CPU 0 instructions: 185000957 cycles: 79691269 heartbeat IPC: 1.312 cumulative IPC: 1.952 (Simulation time: 00 hr 19 min 55 sec)
Heartbeat CPU 0 instructions: 185500963 cycles: 80057762 heartbeat IPC: 1.364 cumulative IPC: 1.949 (Simulation time: 00 hr 19 min 58 sec)
Heartbeat CPU 0 instructions: 186000964 cycles: 80425920 heartbeat IPC: 1.358 cumulative IPC: 1.946 (Simulation time: 00 hr 20 min 02 sec)
Heartbeat CPU 0 instructions: 186500964 cycles: 80797851 heartbeat IPC: 1.344 cumulative IPC: 1.942 (Simulation time: 00 hr 20 min 05 sec)
Heartbeat CPU 0 instructions: 187000965 cycles: 81167123 heartbeat IPC: 1.354 cumulative IPC: 1.939 (Simulation time: 00 hr 20 min 08 sec)
Heartbeat CPU 0 instructions: 187500969 cycles: 81528933 heartbeat IPC: 1.382 cumulative IPC: 1.936 (Simulation time: 00 hr 20 min 12 sec)
Heartbeat CPU 0 instructions: 188000976 cycles: 81880937 heartbeat IPC: 1.42 cumulative IPC: 1.934 (Simulation time: 00 hr 20 min 15 sec)
Heartbeat CPU 0 instructions: 188500977 cycles: 82238909 heartbeat IPC: 1.397 cumulative IPC: 1.931 (Simulation time: 00 hr 20 min 18 sec)
Heartbeat CPU 0 instructions: 189000978 cycles: 82588650 heartbeat IPC: 1.43 cumulative IPC: 1.929 (Simulation time: 00 hr 20 min 22 sec)
Heartbeat CPU 0 instructions: 189500981 cycles: 82951763 heartbeat IPC: 1.377 cumulative IPC: 1.926 (Simulation time: 00 hr 20 min 25 sec)
Heartbeat CPU 0 instructions: 190000982 cycles: 83323020 heartbeat IPC: 1.347 cumulative IPC: 1.923 (Simulation time: 00 hr 20 min 29 sec)
Heartbeat CPU 0 instructions: 190500986 cycles: 83698013 heartbeat IPC: 1.333 cumulative IPC: 1.92 (Simulation time: 00 hr 20 min 32 sec)
Heartbeat CPU 0 instructions: 191000988 cycles: 84074525 heartbeat IPC: 1.328 cumulative IPC: 1.917 (Simulation time: 00 hr 20 min 36 sec)
Heartbeat CPU 0 instructions: 191500988 cycles: 84441961 heartbeat IPC: 1.361 cumulative IPC: 1.914 (Simulation time: 00 hr 20 min 39 sec)
Heartbeat CPU 0 instructions: 192000990 cycles: 84808213 heartbeat IPC: 1.365 cumulative IPC: 1.912 (Simulation time: 00 hr 20 min 42 sec)
Heartbeat CPU 0 instructions: 192500992 cycles: 85175185 heartbeat IPC: 1.363 cumulative IPC: 1.909 (Simulation time: 00 hr 20 min 46 sec)
Heartbeat CPU 0 instructions: 193000993 cycles: 85537018 heartbeat IPC: 1.382 cumulative IPC: 1.906 (Simulation time: 00 hr 20 min 49 sec)
Heartbeat CPU 0 instructions: 193500994 cycles: 85910377 heartbeat IPC: 1.339 cumulative IPC: 1.903 (Simulation time: 00 hr 20 min 53 sec)
Heartbeat CPU 0 instructions: 194000996 cycles: 86221490 heartbeat IPC: 1.607 cumulative IPC: 1.902 (Simulation time: 00 hr 20 min 57 sec)
Heartbeat CPU 0 instructions: 194500996 cycles: 86448940 heartbeat IPC: 2.198 cumulative IPC: 1.903 (Simulation time: 00 hr 21 min 00 sec)
Heartbeat CPU 0 instructions: 195000999 cycles: 86650041 heartbeat IPC: 2.486 cumulative IPC: 1.905 (Simulation time: 00 hr 21 min 03 sec)
Heartbeat CPU 0 instructions: 195501000 cycles: 86868033 heartbeat IPC: 2.294 cumulative IPC: 1.906 (Simulation time: 00 hr 21 min 06 sec)
Heartbeat CPU 0 instructions: 196001002 cycles: 87067748 heartbeat IPC: 2.504 cumulative IPC: 1.907 (Simulation time: 00 hr 21 min 09 sec)
Heartbeat CPU 0 instructions: 196501002 cycles: 87271918 heartbeat IPC: 2.449 cumulative IPC: 1.909 (Simulation time: 00 hr 21 min 13 sec)
Heartbeat CPU 0 instructions: 197001003 cycles: 87483161 heartbeat IPC: 2.367 cumulative IPC: 1.91 (Simulation time: 00 hr 21 min 16 sec)
Heartbeat CPU 0 instructions: 197501010 cycles: 87698618 heartbeat IPC: 2.321 cumulative IPC: 1.911 (Simulation time: 00 hr 21 min 19 sec)
Heartbeat CPU 0 instructions: 198001010 cycles: 87911742 heartbeat IPC: 2.346 cumulative IPC: 1.912 (Simulation time: 00 hr 21 min 22 sec)
Heartbeat CPU 0 instructions: 198501014 cycles: 88114849 heartbeat IPC: 2.462 cumulative IPC: 1.914 (Simulation time: 00 hr 21 min 25 sec)
Heartbeat CPU 0 instructions: 199001014 cycles: 88317969 heartbeat IPC: 2.462 cumulative IPC: 1.915 (Simulation time: 00 hr 21 min 29 sec)
Heartbeat CPU 0 instructions: 199501020 cycles: 88516234 heartbeat IPC: 2.522 cumulative IPC: 1.917 (Simulation time: 00 hr 21 min 32 sec)
Heartbeat CPU 0 instructions: 200001026 cycles: 88721897 heartbeat IPC: 2.431 cumulative IPC: 1.918 (Simulation time: 00 hr 21 min 35 sec)
Heartbeat CPU 0 instructions: 200501029 cycles: 88932630 heartbeat IPC: 2.373 cumulative IPC: 1.919 (Simulation time: 00 hr 21 min 38 sec)
Heartbeat CPU 0 instructions: 201001034 cycles: 89133571 heartbeat IPC: 2.488 cumulative IPC: 1.921 (Simulation time: 00 hr 21 min 41 sec)
Heartbeat CPU 0 instructions: 201501035 cycles: 89340057 heartbeat IPC: 2.421 cumulative IPC: 1.922 (Simulation time: 00 hr 21 min 44 sec)
Heartbeat CPU 0 instructions: 202001036 cycles: 89548598 heartbeat IPC: 2.398 cumulative IPC: 1.923 (Simulation time: 00 hr 21 min 48 sec)
Heartbeat CPU 0 instructions: 202501036 cycles: 89756560 heartbeat IPC: 2.404 cumulative IPC: 1.925 (Simulation time: 00 hr 21 min 51 sec)
Heartbeat CPU 0 instructions: 203001041 cycles: 89966858 heartbeat IPC: 2.378 cumulative IPC: 1.926 (Simulation time: 00 hr 21 min 54 sec)
Heartbeat CPU 0 instructions: 203501043 cycles: 90179437 heartbeat IPC: 2.352 cumulative IPC: 1.927 (Simulation time: 00 hr 21 min 57 sec)
Heartbeat CPU 0 instructions: 204001050 cycles: 90390105 heartbeat IPC: 2.373 cumulative IPC: 1.928 (Simulation time: 00 hr 22 min 00 sec)
Heartbeat CPU 0 instructions: 204501055 cycles: 90590534 heartbeat IPC: 2.495 cumulative IPC: 1.93 (Simulation time: 00 hr 22 min 03 sec)
Heartbeat CPU 0 instructions: 205001055 cycles: 90789366 heartbeat IPC: 2.515 cumulative IPC: 1.931 (Simulation time: 00 hr 22 min 06 sec)
Heartbeat CPU 0 instructions: 205501055 cycles: 90985828 heartbeat IPC: 2.545 cumulative IPC: 1.933 (Simulation time: 00 hr 22 min 10 sec)
Heartbeat CPU 0 instructions: 206001055 cycles: 91192055 heartbeat IPC: 2.425 cumulative IPC: 1.934 (Simulation time: 00 hr 22 min 13 sec)
Heartbeat CPU 0 instructions: 206501055 cycles: 91389759 heartbeat IPC: 2.529 cumulative IPC: 1.935 (Simulation time: 00 hr 22 min 16 sec)
Heartbeat CPU 0 instructions: 207001059 cycles: 91598232 heartbeat IPC: 2.398 cumulative IPC: 1.936 (Simulation time: 00 hr 22 min 19 sec)
Heartbeat CPU 0 instructions: 207501059 cycles: 91792828 heartbeat IPC: 2.569 cumulative IPC: 1.938 (Simulation time: 00 hr 22 min 22 sec)
Heartbeat CPU 0 instructions: 208001059 cycles: 91996457 heartbeat IPC: 2.455 cumulative IPC: 1.939 (Simulation time: 00 hr 22 min 25 sec)
Heartbeat CPU 0 instructions: 208501060 cycles: 92213706 heartbeat IPC: 2.302 cumulative IPC: 1.94 (Simulation time: 00 hr 22 min 28 sec)
Heartbeat CPU 0 instructions: 209001064 cycles: 92415259 heartbeat IPC: 2.481 cumulative IPC: 1.942 (Simulation time: 00 hr 22 min 31 sec)
Heartbeat CPU 0 instructions: 209501065 cycles: 92632649 heartbeat IPC: 2.3 cumulative IPC: 1.943 (Simulation time: 00 hr 22 min 35 sec)
Heartbeat CPU 0 instructions: 210001072 cycles: 92849922 heartbeat IPC: 2.301 cumulative IPC: 1.943 (Simulation time: 00 hr 22 min 38 sec)
Heartbeat CPU 0 instructions: 210501074 cycles: 93064560 heartbeat IPC: 2.33 cumulative IPC: 1.944 (Simulation time: 00 hr 22 min 41 sec)
Heartbeat CPU 0 instructions: 211001075 cycles: 93281893 heartbeat IPC: 2.301 cumulative IPC: 1.945 (Simulation time: 00 hr 22 min 44 sec)
Heartbeat CPU 0 instructions: 211501079 cycles: 93491313 heartbeat IPC: 2.388 cumulative IPC: 1.947 (Simulation time: 00 hr 22 min 47 sec)
Heartbeat CPU 0 instructions: 212001083 cycles: 93696940 heartbeat IPC: 2.432 cumulative IPC: 1.948 (Simulation time: 00 hr 22 min 50 sec)
Heartbeat CPU 0 instructions: 212501083 cycles: 93902953 heartbeat IPC: 2.427 cumulative IPC: 1.949 (Simulation time: 00 hr 22 min 53 sec)
Heartbeat CPU 0 instructions: 213001087 cycles: 94110203 heartbeat IPC: 2.413 cumulative IPC: 1.95 (Simulation time: 00 hr 22 min 56 sec)
Heartbeat CPU 0 instructions: 213501089 cycles: 94317368 heartbeat IPC: 2.414 cumulative IPC: 1.951 (Simulation time: 00 hr 22 min 59 sec)
Heartbeat CPU 0 instructions: 214001094 cycles: 94520555 heartbeat IPC: 2.461 cumulative IPC: 1.952 (Simulation time: 00 hr 23 min 02 sec)
Heartbeat CPU 0 instructions: 214501097 cycles: 94724541 heartbeat IPC: 2.451 cumulative IPC: 1.954 (Simulation time: 00 hr 23 min 06 sec)
Heartbeat CPU 0 instructions: 215001101 cycles: 94931289 heartbeat IPC: 2.418 cumulative IPC: 1.955 (Simulation time: 00 hr 23 min 09 sec)
Heartbeat CPU 0 instructions: 215501101 cycles: 95143831 heartbeat IPC: 2.352 cumulative IPC: 1.956 (Simulation time: 00 hr 23 min 12 sec)
Heartbeat CPU 0 instructions: 216001104 cycles: 95420261 heartbeat IPC: 1.809 cumulative IPC: 1.955 (Simulation time: 00 hr 23 min 15 sec)
Heartbeat CPU 0 instructions: 216501108 cycles: 95736005 heartbeat IPC: 1.584 cumulative IPC: 1.954 (Simulation time: 00 hr 23 min 19 sec)
Heartbeat CPU 0 instructions: 217001109 cycles: 96050048 heartbeat IPC: 1.592 cumulative IPC: 1.953 (Simulation time: 00 hr 23 min 23 sec)
Heartbeat CPU 0 instructions: 217501114 cycles: 96344754 heartbeat IPC: 1.697 cumulative IPC: 1.952 (Simulation time: 00 hr 23 min 26 sec)
Heartbeat CPU 0 instructions: 218001114 cycles: 96667720 heartbeat IPC: 1.548 cumulative IPC: 1.95 (Simulation time: 00 hr 23 min 30 sec)
Heartbeat CPU 0 instructions: 218501119 cycles: 96888624 heartbeat IPC: 2.263 cumulative IPC: 1.951 (Simulation time: 00 hr 23 min 33 sec)
Heartbeat CPU 0 instructions: 219001119 cycles: 97089521 heartbeat IPC: 2.489 cumulative IPC: 1.952 (Simulation time: 00 hr 23 min 36 sec)
Heartbeat CPU 0 instructions: 219501122 cycles: 97303828 heartbeat IPC: 2.333 cumulative IPC: 1.953 (Simulation time: 00 hr 23 min 39 sec)
Heartbeat CPU 0 instructions: 220001125 cycles: 97503912 heartbeat IPC: 2.499 cumulative IPC: 1.954 (Simulation time: 00 hr 23 min 42 sec)
Heartbeat CPU 0 instructions: 220501132 cycles: 97708571 heartbeat IPC: 2.443 cumulative IPC: 1.956 (Simulation time: 00 hr 23 min 45 sec)
Heartbeat CPU 0 instructions: 221001133 cycles: 97920160 heartbeat IPC: 2.363 cumulative IPC: 1.957 (Simulation time: 00 hr 23 min 48 sec)
Heartbeat CPU 0 instructions: 221501140 cycles: 98132617 heartbeat IPC: 2.353 cumulative IPC: 1.958 (Simulation time: 00 hr 23 min 52 sec)
Heartbeat CPU 0 instructions: 222001141 cycles: 98345734 heartbeat IPC: 2.346 cumulative IPC: 1.958 (Simulation time: 00 hr 23 min 55 sec)
Heartbeat CPU 0 instructions: 222501144 cycles: 98545377 heartbeat IPC: 2.504 cumulative IPC: 1.96 (Simulation time: 00 hr 23 min 58 sec)
Heartbeat CPU 0 instructions: 223001144 cycles: 98749575 heartbeat IPC: 2.449 cumulative IPC: 1.961 (Simulation time: 00 hr 24 min 01 sec)
Heartbeat CPU 0 instructions: 223501150 cycles: 98948516 heartbeat IPC: 2.513 cumulative IPC: 1.962 (Simulation time: 00 hr 24 min 04 sec)
Heartbeat CPU 0 instructions: 224001154 cycles: 99157177 heartbeat IPC: 2.396 cumulative IPC: 1.963 (Simulation time: 00 hr 24 min 07 sec)
Heartbeat CPU 0 instructions: 224501158 cycles: 99365647 heartbeat IPC: 2.398 cumulative IPC: 1.964 (Simulation time: 00 hr 24 min 10 sec)
Heartbeat CPU 0 instructions: 225001164 cycles: 99567299 heartbeat IPC: 2.48 cumulative IPC: 1.965 (Simulation time: 00 hr 24 min 13 sec)
Heartbeat CPU 0 instructions: 225501167 cycles: 99773495 heartbeat IPC: 2.425 cumulative IPC: 1.966 (Simulation time: 00 hr 24 min 16 sec)
Heartbeat CPU 0 instructions: 226001172 cycles: 99983862 heartbeat IPC: 2.377 cumulative IPC: 1.967 (Simulation time: 00 hr 24 min 19 sec)
Heartbeat CPU 0 instructions: 226501174 cycles: 100187194 heartbeat IPC: 2.459 cumulative IPC: 1.968 (Simulation time: 00 hr 24 min 22 sec)
Heartbeat CPU 0 instructions: 227001179 cycles: 100399163 heartbeat IPC: 2.359 cumulative IPC: 1.969 (Simulation time: 00 hr 24 min 25 sec)
Heartbeat CPU 0 instructions: 227501180 cycles: 100614272 heartbeat IPC: 2.324 cumulative IPC: 1.97 (Simulation time: 00 hr 24 min 28 sec)
Heartbeat CPU 0 instructions: 228001180 cycles: 100822191 heartbeat IPC: 2.405 cumulative IPC: 1.971 (Simulation time: 00 hr 24 min 31 sec)
Heartbeat CPU 0 instructions: 228501180 cycles: 101021079 heartbeat IPC: 2.514 cumulative IPC: 1.972 (Simulation time: 00 hr 24 min 34 sec)
Heartbeat CPU 0 instructions: 229001187 cycles: 101218089 heartbeat IPC: 2.538 cumulative IPC: 1.974 (Simulation time: 00 hr 24 min 37 sec)
Heartbeat CPU 0 instructions: 229501189 cycles: 101414083 heartbeat IPC: 2.551 cumulative IPC: 1.975 (Simulation time: 00 hr 24 min 40 sec)
Heartbeat CPU 0 instructions: 230001191 cycles: 101619607 heartbeat IPC: 2.433 cumulative IPC: 1.976 (Simulation time: 00 hr 24 min 43 sec)
Heartbeat CPU 0 instructions: 230501197 cycles: 101816864 heartbeat IPC: 2.535 cumulative IPC: 1.977 (Simulation time: 00 hr 24 min 46 sec)
Heartbeat CPU 0 instructions: 231001197 cycles: 102031240 heartbeat IPC: 2.332 cumulative IPC: 1.978 (Simulation time: 00 hr 24 min 50 sec)
Heartbeat CPU 0 instructions: 231501197 cycles: 102227374 heartbeat IPC: 2.549 cumulative IPC: 1.979 (Simulation time: 00 hr 24 min 53 sec)
Heartbeat CPU 0 instructions: 232001197 cycles: 102433239 heartbeat IPC: 2.429 cumulative IPC: 1.98 (Simulation time: 00 hr 24 min 56 sec)
Heartbeat CPU 0 instructions: 232501198 cycles: 102649673 heartbeat IPC: 2.31 cumulative IPC: 1.981 (Simulation time: 00 hr 24 min 59 sec)
Heartbeat CPU 0 instructions: 233001202 cycles: 102852752 heartbeat IPC: 2.462 cumulative IPC: 1.982 (Simulation time: 00 hr 25 min 02 sec)
Heartbeat CPU 0 instructions: 233501203 cycles: 103073589 heartbeat IPC: 2.264 cumulative IPC: 1.983 (Simulation time: 00 hr 25 min 05 sec)
Heartbeat CPU 0 instructions: 234001210 cycles: 103291107 heartbeat IPC: 2.299 cumulative IPC: 1.983 (Simulation time: 00 hr 25 min 08 sec)
Heartbeat CPU 0 instructions: 234501212 cycles: 103505480 heartbeat IPC: 2.332 cumulative IPC: 1.984 (Simulation time: 00 hr 25 min 11 sec)
Heartbeat CPU 0 instructions: 235001215 cycles: 103728787 heartbeat IPC: 2.239 cumulative IPC: 1.985 (Simulation time: 00 hr 25 min 14 sec)
Heartbeat CPU 0 instructions: 235501217 cycles: 103934180 heartbeat IPC: 2.434 cumulative IPC: 1.986 (Simulation time: 00 hr 25 min 17 sec)
Heartbeat CPU 0 instructions: 236001221 cycles: 104135623 heartbeat IPC: 2.482 cumulative IPC: 1.987 (Simulation time: 00 hr 25 min 20 sec)
Heartbeat CPU 0 instructions: 236501221 cycles: 104344463 heartbeat IPC: 2.394 cumulative IPC: 1.988 (Simulation time: 00 hr 25 min 23 sec)
Heartbeat CPU 0 instructions: 237001225 cycles: 104556866 heartbeat IPC: 2.354 cumulative IPC: 1.989 (Simulation time: 00 hr 25 min 26 sec)
Heartbeat CPU 0 instructions: 237501227 cycles: 104763046 heartbeat IPC: 2.425 cumulative IPC: 1.99 (Simulation time: 00 hr 25 min 29 sec)
Heartbeat CPU 0 instructions: 238001232 cycles: 104966402 heartbeat IPC: 2.459 cumulative IPC: 1.991 (Simulation time: 00 hr 25 min 32 sec)
Heartbeat CPU 0 instructions: 238501232 cycles: 105175140 heartbeat IPC: 2.395 cumulative IPC: 1.991 (Simulation time: 00 hr 25 min 35 sec)
Heartbeat CPU 0 instructions: 239001239 cycles: 105375212 heartbeat IPC: 2.499 cumulative IPC: 1.993 (Simulation time: 00 hr 25 min 38 sec)
Heartbeat CPU 0 instructions: 239501239 cycles: 105590840 heartbeat IPC: 2.319 cumulative IPC: 1.993 (Simulation time: 00 hr 25 min 41 sec)
Heartbeat CPU 0 instructions: 240001241 cycles: 105870014 heartbeat IPC: 1.791 cumulative IPC: 1.993 (Simulation time: 00 hr 25 min 45 sec)
Heartbeat CPU 0 instructions: 240501244 cycles: 106188813 heartbeat IPC: 1.568 cumulative IPC: 1.991 (Simulation time: 00 hr 25 min 48 sec)
Heartbeat CPU 0 instructions: 241001246 cycles: 106500311 heartbeat IPC: 1.605 cumulative IPC: 1.99 (Simulation time: 00 hr 25 min 52 sec)
Heartbeat CPU 0 instructions: 241501246 cycles: 106793307 heartbeat IPC: 1.707 cumulative IPC: 1.989 (Simulation time: 00 hr 25 min 55 sec)
Heartbeat CPU 0 instructions: 242001247 cycles: 107452162 heartbeat IPC: 0.7589 cumulative IPC: 1.981 (Simulation time: 00 hr 26 min 00 sec)
Heartbeat CPU 0 instructions: 242501251 cycles: 107859036 heartbeat IPC: 1.229 cumulative IPC: 1.978 (Simulation time: 00 hr 26 min 04 sec)
Heartbeat CPU 0 instructions: 243001252 cycles: 108068274 heartbeat IPC: 2.39 cumulative IPC: 1.979 (Simulation time: 00 hr 26 min 07 sec)
Heartbeat CPU 0 instructions: 243501254 cycles: 108272599 heartbeat IPC: 2.447 cumulative IPC: 1.98 (Simulation time: 00 hr 26 min 10 sec)
Heartbeat CPU 0 instructions: 244001254 cycles: 108478316 heartbeat IPC: 2.431 cumulative IPC: 1.98 (Simulation time: 00 hr 26 min 13 sec)
Heartbeat CPU 0 instructions: 244501260 cycles: 108680521 heartbeat IPC: 2.473 cumulative IPC: 1.981 (Simulation time: 00 hr 26 min 16 sec)
Heartbeat CPU 0 instructions: 245001260 cycles: 108882719 heartbeat IPC: 2.473 cumulative IPC: 1.983 (Simulation time: 00 hr 26 min 19 sec)
Heartbeat CPU 0 instructions: 245501260 cycles: 109086607 heartbeat IPC: 2.452 cumulative IPC: 1.983 (Simulation time: 00 hr 26 min 22 sec)
Heartbeat CPU 0 instructions: 246001260 cycles: 109296281 heartbeat IPC: 2.385 cumulative IPC: 1.984 (Simulation time: 00 hr 26 min 25 sec)
Heartbeat CPU 0 instructions: 246501264 cycles: 109504698 heartbeat IPC: 2.399 cumulative IPC: 1.985 (Simulation time: 00 hr 26 min 28 sec)
Heartbeat CPU 0 instructions: 247001269 cycles: 109717544 heartbeat IPC: 2.349 cumulative IPC: 1.986 (Simulation time: 00 hr 26 min 31 sec)
Heartbeat CPU 0 instructions: 247501270 cycles: 109917033 heartbeat IPC: 2.506 cumulative IPC: 1.987 (Simulation time: 00 hr 26 min 34 sec)
Heartbeat CPU 0 instructions: 248001275 cycles: 110119073 heartbeat IPC: 2.475 cumulative IPC: 1.988 (Simulation time: 00 hr 26 min 37 sec)
Heartbeat CPU 0 instructions: 248501276 cycles: 110318751 heartbeat IPC: 2.504 cumulative IPC: 1.989 (Simulation time: 00 hr 26 min 40 sec)
Heartbeat CPU 0 instructions: 249001276 cycles: 110532590 heartbeat IPC: 2.338 cumulative IPC: 1.99 (Simulation time: 00 hr 26 min 43 sec)
Heartbeat CPU 0 instructions: 249501277 cycles: 110737614 heartbeat IPC: 2.439 cumulative IPC: 1.991 (Simulation time: 00 hr 26 min 46 sec)
Simulation finished CPU 0 instructions: 200000001 cycles: 100424599 cumulative IPC: 1.992 (Simulation time: 00 hr 26 min 49 sec)
Simulation complete CPU 0 instructions: 200000001 cycles: 100424599 cumulative IPC: 1.992 (Simulation time: 00 hr 26 min 49 sec)

ChampSim completed all CPUs

=== Simulation ===
CPU 0 runs /local-ssd/ben/dpc4-traces/SPEC17/602.gcc_s-734B.champsimtrace.xz

Region of Interest Statistics

CPU 0 cumulative IPC: 1.992 instructions: 200000001 cycles: 100424599
CPU 0 Branch Prediction Accuracy: 99.52% MPKI: 1.161 Average ROB Occupancy at Mispredict: 44.14
Branch type MPKI
BRANCH_DIRECT_JUMP: 0.1592
BRANCH_INDIRECT: 0
BRANCH_CONDITIONAL: 0.892
BRANCH_DIRECT_CALL: 0.1092
BRANCH_INDIRECT_CALL: 3e-05
BRANCH_RETURN: 0.000135

cpu0->cpu0_STLB TOTAL        ACCESS:     210069 HIT:     156815 MISS:      53254 MSHR_MERGE:          0
cpu0->cpu0_STLB LOAD         ACCESS:     210069 HIT:     156815 MISS:      53254 MSHR_MERGE:          0
cpu0->cpu0_STLB RFO          ACCESS:          0 HIT:          0 MISS:          0 MSHR_MERGE:          0
cpu0->cpu0_STLB PREFETCH     ACCESS:          0 HIT:          0 MISS:          0 MSHR_MERGE:          0
cpu0->cpu0_STLB WRITE        ACCESS:          0 HIT:          0 MISS:          0 MSHR_MERGE:          0
cpu0->cpu0_STLB TRANSLATION  ACCESS:          0 HIT:          0 MISS:          0 MSHR_MERGE:          0
cpu0->cpu0_STLB PREFETCH REQUESTED:          0 ISSUED:          0 USEFUL:          0 USELESS:          0
cpu0->cpu0_STLB AVERAGE MISS LATENCY: 118.3 cycles
cpu0->cpu0_L2C TOTAL        ACCESS:   37398355 HIT:   15426762 MISS:   21971593 MSHR_MERGE:     700857
cpu0->cpu0_L2C LOAD         ACCESS:     383739 HIT:     264197 MISS:     119542 MSHR_MERGE:       2667
cpu0->cpu0_L2C RFO          ACCESS:       7974 HIT:       5909 MISS:       2065 MSHR_MERGE:          2
cpu0->cpu0_L2C PREFETCH     ACCESS:   36934566 HIT:   15103167 MISS:   21831399 MSHR_MERGE:     698188
cpu0->cpu0_L2C WRITE        ACCESS:      44934 HIT:      44924 MISS:         10 MSHR_MERGE:          0
cpu0->cpu0_L2C TRANSLATION  ACCESS:      27142 HIT:       8565 MISS:      18577 MSHR_MERGE:          0
cpu0->cpu0_L2C PREFETCH REQUESTED:   43537001 ISSUED:   33665061 USEFUL:     694179 USELESS:     269754
cpu0->cpu0_L2C AVERAGE MISS LATENCY: 157.8 cycles
cpu0->cpu0_L1I TOTAL        ACCESS:   37287665 HIT:   37287572 MISS:         93 MSHR_MERGE:          4
cpu0->cpu0_L1I LOAD         ACCESS:   37287665 HIT:   37287572 MISS:         93 MSHR_MERGE:          4
cpu0->cpu0_L1I RFO          ACCESS:          0 HIT:          0 MISS:          0 MSHR_MERGE:          0
cpu0->cpu0_L1I PREFETCH     ACCESS:          0 HIT:          0 MISS:          0 MSHR_MERGE:          0
cpu0->cpu0_L1I WRITE        ACCESS:          0 HIT:          0 MISS:          0 MSHR_MERGE:          0
cpu0->cpu0_L1I TRANSLATION  ACCESS:          0 HIT:          0 MISS:          0 MSHR_MERGE:          0
cpu0->cpu0_L1I PREFETCH REQUESTED:          0 ISSUED:          0 USEFUL:          0 USELESS:          0
cpu0->cpu0_L1I AVERAGE MISS LATENCY: 176.4 cycles
cpu0->cpu0_L1D TOTAL        ACCESS:   52341299 HIT:   48183528 MISS:    4157771 MSHR_MERGE:     467956
cpu0->cpu0_L1D LOAD         ACCESS:   29257765 HIT:   28467354 MISS:     790411 MSHR_MERGE:     406761
cpu0->cpu0_L1D RFO          ACCESS:          0 HIT:          0 MISS:          0 MSHR_MERGE:          0
cpu0->cpu0_L1D PREFETCH     ACCESS:    3428466 HIT:     125896 MISS:    3302570 MSHR_MERGE:      33062
cpu0->cpu0_L1D WRITE        ACCESS:   19544505 HIT:   19506941 MISS:      37564 MSHR_MERGE:      28049
cpu0->cpu0_L1D TRANSLATION  ACCESS:     110563 HIT:      83337 MISS:      27226 MSHR_MERGE:         84
cpu0->cpu0_L1D PREFETCH REQUESTED:    3428459 ISSUED:    3428458 USEFUL:    3198903 USELESS:      70586
cpu0->cpu0_L1D AVERAGE MISS LATENCY: 59.68 cycles
cpu0->cpu0_ITLB TOTAL        ACCESS:   34930350 HIT:   34930337 MISS:         13 MSHR_MERGE:          3
cpu0->cpu0_ITLB LOAD         ACCESS:   34930350 HIT:   34930337 MISS:         13 MSHR_MERGE:          3
cpu0->cpu0_ITLB RFO          ACCESS:          0 HIT:          0 MISS:          0 MSHR_MERGE:          0
cpu0->cpu0_ITLB PREFETCH     ACCESS:          0 HIT:          0 MISS:          0 MSHR_MERGE:          0
cpu0->cpu0_ITLB WRITE        ACCESS:          0 HIT:          0 MISS:          0 MSHR_MERGE:          0
cpu0->cpu0_ITLB TRANSLATION  ACCESS:          0 HIT:          0 MISS:          0 MSHR_MERGE:          0
cpu0->cpu0_ITLB PREFETCH REQUESTED:          0 ISSUED:          0 USEFUL:          0 USELESS:          0
cpu0->cpu0_ITLB AVERAGE MISS LATENCY: 469.8 cycles
cpu0->cpu0_DTLB TOTAL        ACCESS:   48303260 HIT:   47974901 MISS:     328359 MSHR_MERGE:     118300
cpu0->cpu0_DTLB LOAD         ACCESS:   48303260 HIT:   47974901 MISS:     328359 MSHR_MERGE:     118300
cpu0->cpu0_DTLB RFO          ACCESS:          0 HIT:          0 MISS:          0 MSHR_MERGE:          0
cpu0->cpu0_DTLB PREFETCH     ACCESS:          0 HIT:          0 MISS:          0 MSHR_MERGE:          0
cpu0->cpu0_DTLB WRITE        ACCESS:          0 HIT:          0 MISS:          0 MSHR_MERGE:          0
cpu0->cpu0_DTLB TRANSLATION  ACCESS:          0 HIT:          0 MISS:          0 MSHR_MERGE:          0
cpu0->cpu0_DTLB PREFETCH REQUESTED:          0 ISSUED:          0 USEFUL:          0 USELESS:          0
cpu0->cpu0_DTLB AVERAGE MISS LATENCY: 35.22 cycles
cpu0->LLC TOTAL        ACCESS:   23258362 HIT:   18834151 MISS:    4424211 MSHR_MERGE:    2204729
cpu0->LLC LOAD         ACCESS:     116875 HIT:      55294 MISS:      61581 MSHR_MERGE:       1691
cpu0->LLC RFO          ACCESS:       2063 HIT:        371 MISS:       1692 MSHR_MERGE:         31
cpu0->LLC PREFETCH     ACCESS:   23100499 HIT:   18768344 MISS:    4332155 MSHR_MERGE:    2203007
cpu0->LLC WRITE        ACCESS:      20348 HIT:      10104 MISS:      10244 MSHR_MERGE:          0
cpu0->LLC TRANSLATION  ACCESS:      18577 HIT:         38 MISS:      18539 MSHR_MERGE:          0
cpu0->LLC PREFETCH REQUESTED:    1985905 ISSUED:    1979485 USEFUL:    1384690 USELESS:     195765
cpu0->LLC AVERAGE MISS LATENCY: 206.5 cycles

DRAM Statistics

Channel 0 RQ ROW_BUFFER_HIT:     713557
  ROW_BUFFER_MISS:    1495666
  AVG DBUS CONGESTED CYCLE: 4.688
Channel 0 WQ ROW_BUFFER_HIT:       1166
  ROW_BUFFER_MISS:      18543
  FULL:          0
Channel 0 REFRESHES ISSUED:       8368
