[VMEM] WARNING: physical memory size is smaller than virtual memory size.

*** ChampSim Multicore Out-of-Order Simulator ***
Warmup Instructions: 50000000
Simulation Instructions: 200000000
Number of CPUs: 1
Page size: 4096
Core 0: /local-ssd/ben/dpc4-traces/SPEC17/602.gcc_s-1850B.champsimtrace.xz
Initialize SIGNATURE TABLE
ST_SET: 1
ST_WAY: 256
ST_TAG_BIT: 16

Initialize PATTERN TABLE
PT_SET: 512
PT_WAY: 4
SIG_DELTA_BIT: 7
C_SIG_BIT: 4
C_DELTA_BIT: 4

Initialize PREFETCH FILTER
FILTER_SET: 1024
 L1D Berti prefetcher
Off-chip DRAM Size: 64 GiB Channels: 1 Width: 64-bit Data Rate: 4807 MT/s
Heartbeat CPU 0 instructions: 500002 cycles: 120941 heartbeat IPC: 4.134 cumulative IPC: 4.134 (Simulation time: 00 hr 00 min 03 sec)
Heartbeat CPU 0 instructions: 1000009 cycles: 236055 heartbeat IPC: 4.344 cumulative IPC: 4.236 (Simulation time: 00 hr 00 min 05 sec)
Heartbeat CPU 0 instructions: 1500014 cycles: 352128 heartbeat IPC: 4.308 cumulative IPC: 4.26 (Simulation time: 00 hr 00 min 07 sec)
Heartbeat CPU 0 instructions: 2000016 cycles: 466859 heartbeat IPC: 4.358 cumulative IPC: 4.284 (Simulation time: 00 hr 00 min 09 sec)
Heartbeat CPU 0 instructions: 2500023 cycles: 581373 heartbeat IPC: 4.366 cumulative IPC: 4.3 (Simulation time: 00 hr 00 min 11 sec)
Heartbeat CPU 0 instructions: 3000027 cycles: 697620 heartbeat IPC: 4.301 cumulative IPC: 4.3 (Simulation time: 00 hr 00 min 13 sec)
Heartbeat CPU 0 instructions: 3500034 cycles: 812839 heartbeat IPC: 4.34 cumulative IPC: 4.306 (Simulation time: 00 hr 00 min 15 sec)
Heartbeat CPU 0 instructions: 4000034 cycles: 927632 heartbeat IPC: 4.356 cumulative IPC: 4.312 (Simulation time: 00 hr 00 min 17 sec)
Heartbeat CPU 0 instructions: 4500040 cycles: 1042335 heartbeat IPC: 4.359 cumulative IPC: 4.317 (Simulation time: 00 hr 00 min 19 sec)
Heartbeat CPU 0 instructions: 5000043 cycles: 1157213 heartbeat IPC: 4.352 cumulative IPC: 4.321 (Simulation time: 00 hr 00 min 21 sec)
Heartbeat CPU 0 instructions: 5500044 cycles: 1271712 heartbeat IPC: 4.367 cumulative IPC: 4.325 (Simulation time: 00 hr 00 min 23 sec)
Heartbeat CPU 0 instructions: 6000049 cycles: 1389115 heartbeat IPC: 4.259 cumulative IPC: 4.319 (Simulation time: 00 hr 00 min 25 sec)
Heartbeat CPU 0 instructions: 6500054 cycles: 1503308 heartbeat IPC: 4.379 cumulative IPC: 4.324 (Simulation time: 00 hr 00 min 27 sec)
Heartbeat CPU 0 instructions: 7000055 cycles: 1618156 heartbeat IPC: 4.354 cumulative IPC: 4.326 (Simulation time: 00 hr 00 min 29 sec)
Heartbeat CPU 0 instructions: 7500057 cycles: 1732908 heartbeat IPC: 4.357 cumulative IPC: 4.328 (Simulation time: 00 hr 00 min 31 sec)
Heartbeat CPU 0 instructions: 8000060 cycles: 1847704 heartbeat IPC: 4.356 cumulative IPC: 4.33 (Simulation time: 00 hr 00 min 33 sec)
Heartbeat CPU 0 instructions: 8500061 cycles: 1962423 heartbeat IPC: 4.358 cumulative IPC: 4.331 (Simulation time: 00 hr 00 min 35 sec)
Heartbeat CPU 0 instructions: 9000065 cycles: 2076633 heartbeat IPC: 4.378 cumulative IPC: 4.334 (Simulation time: 00 hr 00 min 37 sec)
Heartbeat CPU 0 instructions: 9500069 cycles: 2190432 heartbeat IPC: 4.394 cumulative IPC: 4.337 (Simulation time: 00 hr 00 min 39 sec)
Heartbeat CPU 0 instructions: 10000070 cycles: 2305949 heartbeat IPC: 4.328 cumulative IPC: 4.337 (Simulation time: 00 hr 00 min 41 sec)
Heartbeat CPU 0 instructions: 10500072 cycles: 2421135 heartbeat IPC: 4.341 cumulative IPC: 4.337 (Simulation time: 00 hr 00 min 43 sec)
Heartbeat CPU 0 instructions: 11000072 cycles: 2535509 heartbeat IPC: 4.372 cumulative IPC: 4.338 (Simulation time: 00 hr 00 min 45 sec)
Heartbeat CPU 0 instructions: 11500075 cycles: 2651099 heartbeat IPC: 4.326 cumulative IPC: 4.338 (Simulation time: 00 hr 00 min 47 sec)
Heartbeat CPU 0 instructions: 12000080 cycles: 2766316 heartbeat IPC: 4.34 cumulative IPC: 4.338 (Simulation time: 00 hr 00 min 49 sec)
Heartbeat CPU 0 instructions: 12500085 cycles: 2882010 heartbeat IPC: 4.322 cumulative IPC: 4.337 (Simulation time: 00 hr 00 min 51 sec)
Heartbeat CPU 0 instructions: 13000091 cycles: 2996579 heartbeat IPC: 4.364 cumulative IPC: 4.338 (Simulation time: 00 hr 00 min 53 sec)
Heartbeat CPU 0 instructions: 13500098 cycles: 3113308 heartbeat IPC: 4.283 cumulative IPC: 4.336 (Simulation time: 00 hr 00 min 55 sec)
Heartbeat CPU 0 instructions: 14000101 cycles: 3227621 heartbeat IPC: 4.374 cumulative IPC: 4.338 (Simulation time: 00 hr 00 min 57 sec)
Heartbeat CPU 0 instructions: 14500103 cycles: 3343358 heartbeat IPC: 4.32 cumulative IPC: 4.337 (Simulation time: 00 hr 00 min 59 sec)
Heartbeat CPU 0 instructions: 15000108 cycles: 3457986 heartbeat IPC: 4.362 cumulative IPC: 4.338 (Simulation time: 00 hr 01 min 01 sec)
Heartbeat CPU 0 instructions: 15500115 cycles: 3572126 heartbeat IPC: 4.381 cumulative IPC: 4.339 (Simulation time: 00 hr 01 min 03 sec)
Heartbeat CPU 0 instructions: 16000116 cycles: 3688141 heartbeat IPC: 4.31 cumulative IPC: 4.338 (Simulation time: 00 hr 01 min 05 sec)
Heartbeat CPU 0 instructions: 16500116 cycles: 3802223 heartbeat IPC: 4.383 cumulative IPC: 4.34 (Simulation time: 00 hr 01 min 07 sec)
Heartbeat CPU 0 instructions: 17000119 cycles: 3917188 heartbeat IPC: 4.349 cumulative IPC: 4.34 (Simulation time: 00 hr 01 min 09 sec)
Heartbeat CPU 0 instructions: 17500124 cycles: 4032667 heartbeat IPC: 4.33 cumulative IPC: 4.34 (Simulation time: 00 hr 01 min 11 sec)
Heartbeat CPU 0 instructions: 18000124 cycles: 4147461 heartbeat IPC: 4.356 cumulative IPC: 4.34 (Simulation time: 00 hr 01 min 13 sec)
Heartbeat CPU 0 instructions: 18500130 cycles: 4261880 heartbeat IPC: 4.37 cumulative IPC: 4.341 (Simulation time: 00 hr 01 min 15 sec)
Heartbeat CPU 0 instructions: 19000132 cycles: 4376297 heartbeat IPC: 4.37 cumulative IPC: 4.342 (Simulation time: 00 hr 01 min 17 sec)
Heartbeat CPU 0 instructions: 19500137 cycles: 4490420 heartbeat IPC: 4.381 cumulative IPC: 4.343 (Simulation time: 00 hr 01 min 19 sec)
Heartbeat CPU 0 instructions: 20000137 cycles: 4604749 heartbeat IPC: 4.373 cumulative IPC: 4.343 (Simulation time: 00 hr 01 min 21 sec)
Heartbeat CPU 0 instructions: 20500143 cycles: 4718863 heartbeat IPC: 4.382 cumulative IPC: 4.344 (Simulation time: 00 hr 01 min 23 sec)
Heartbeat CPU 0 instructions: 21000144 cycles: 4833997 heartbeat IPC: 4.343 cumulative IPC: 4.344 (Simulation time: 00 hr 01 min 25 sec)
Heartbeat CPU 0 instructions: 21500151 cycles: 4948110 heartbeat IPC: 4.382 cumulative IPC: 4.345 (Simulation time: 00 hr 01 min 27 sec)
Heartbeat CPU 0 instructions: 22000151 cycles: 5062183 heartbeat IPC: 4.383 cumulative IPC: 4.346 (Simulation time: 00 hr 01 min 29 sec)
Heartbeat CPU 0 instructions: 22500154 cycles: 5176388 heartbeat IPC: 4.378 cumulative IPC: 4.347 (Simulation time: 00 hr 01 min 31 sec)
Heartbeat CPU 0 instructions: 23000161 cycles: 5290505 heartbeat IPC: 4.382 cumulative IPC: 4.347 (Simulation time: 00 hr 01 min 33 sec)
Heartbeat CPU 0 instructions: 23500166 cycles: 5404061 heartbeat IPC: 4.403 cumulative IPC: 4.349 (Simulation time: 00 hr 01 min 35 sec)
Heartbeat CPU 0 instructions: 24000172 cycles: 5517837 heartbeat IPC: 4.395 cumulative IPC: 4.35 (Simulation time: 00 hr 01 min 37 sec)
Heartbeat CPU 0 instructions: 24500178 cycles: 5632183 heartbeat IPC: 4.373 cumulative IPC: 4.35 (Simulation time: 00 hr 01 min 39 sec)
Heartbeat CPU 0 instructions: 25000180 cycles: 5746447 heartbeat IPC: 4.376 cumulative IPC: 4.351 (Simulation time: 00 hr 01 min 41 sec)
Heartbeat CPU 0 instructions: 25500183 cycles: 5862481 heartbeat IPC: 4.309 cumulative IPC: 4.35 (Simulation time: 00 hr 01 min 43 sec)
Heartbeat CPU 0 instructions: 26000188 cycles: 5978247 heartbeat IPC: 4.319 cumulative IPC: 4.349 (Simulation time: 00 hr 01 min 45 sec)
Heartbeat CPU 0 instructions: 26500192 cycles: 6093627 heartbeat IPC: 4.334 cumulative IPC: 4.349 (Simulation time: 00 hr 01 min 47 sec)
Heartbeat CPU 0 instructions: 27000199 cycles: 6209549 heartbeat IPC: 4.313 cumulative IPC: 4.348 (Simulation time: 00 hr 01 min 49 sec)
Heartbeat CPU 0 instructions: 27500203 cycles: 6326737 heartbeat IPC: 4.267 cumulative IPC: 4.347 (Simulation time: 00 hr 01 min 51 sec)
Heartbeat CPU 0 instructions: 28000205 cycles: 6444081 heartbeat IPC: 4.261 cumulative IPC: 4.345 (Simulation time: 00 hr 01 min 53 sec)
Heartbeat CPU 0 instructions: 28500210 cycles: 6559545 heartbeat IPC: 4.33 cumulative IPC: 4.345 (Simulation time: 00 hr 01 min 55 sec)
Heartbeat CPU 0 instructions: 29000212 cycles: 6674970 heartbeat IPC: 4.332 cumulative IPC: 4.345 (Simulation time: 00 hr 01 min 57 sec)
Heartbeat CPU 0 instructions: 29500219 cycles: 6790623 heartbeat IPC: 4.323 cumulative IPC: 4.344 (Simulation time: 00 hr 01 min 59 sec)
Heartbeat CPU 0 instructions: 30000221 cycles: 6906861 heartbeat IPC: 4.302 cumulative IPC: 4.344 (Simulation time: 00 hr 02 min 01 sec)
Heartbeat CPU 0 instructions: 30500228 cycles: 7022618 heartbeat IPC: 4.319 cumulative IPC: 4.343 (Simulation time: 00 hr 02 min 03 sec)
Heartbeat CPU 0 instructions: 31000235 cycles: 7137550 heartbeat IPC: 4.35 cumulative IPC: 4.343 (Simulation time: 00 hr 02 min 05 sec)
Heartbeat CPU 0 instructions: 31500235 cycles: 7253880 heartbeat IPC: 4.298 cumulative IPC: 4.343 (Simulation time: 00 hr 02 min 07 sec)
Heartbeat CPU 0 instructions: 32000235 cycles: 7368499 heartbeat IPC: 4.362 cumulative IPC: 4.343 (Simulation time: 00 hr 02 min 09 sec)
Heartbeat CPU 0 instructions: 32500236 cycles: 7484614 heartbeat IPC: 4.306 cumulative IPC: 4.342 (Simulation time: 00 hr 02 min 11 sec)
Heartbeat CPU 0 instructions: 33000242 cycles: 7600314 heartbeat IPC: 4.322 cumulative IPC: 4.342 (Simulation time: 00 hr 02 min 14 sec)
Heartbeat CPU 0 instructions: 33500244 cycles: 7714646 heartbeat IPC: 4.373 cumulative IPC: 4.342 (Simulation time: 00 hr 02 min 16 sec)
Heartbeat CPU 0 instructions: 34000249 cycles: 7830662 heartbeat IPC: 4.31 cumulative IPC: 4.342 (Simulation time: 00 hr 02 min 18 sec)
Heartbeat CPU 0 instructions: 34500249 cycles: 7946444 heartbeat IPC: 4.318 cumulative IPC: 4.342 (Simulation time: 00 hr 02 min 20 sec)
Heartbeat CPU 0 instructions: 35000255 cycles: 8061745 heartbeat IPC: 4.337 cumulative IPC: 4.342 (Simulation time: 00 hr 02 min 22 sec)
Heartbeat CPU 0 instructions: 35500260 cycles: 8176336 heartbeat IPC: 4.363 cumulative IPC: 4.342 (Simulation time: 00 hr 02 min 24 sec)
Heartbeat CPU 0 instructions: 36000263 cycles: 8290402 heartbeat IPC: 4.383 cumulative IPC: 4.342 (Simulation time: 00 hr 02 min 26 sec)
Heartbeat CPU 0 instructions: 36500266 cycles: 8406236 heartbeat IPC: 4.317 cumulative IPC: 4.342 (Simulation time: 00 hr 02 min 28 sec)
Heartbeat CPU 0 instructions: 37000270 cycles: 8522240 heartbeat IPC: 4.31 cumulative IPC: 4.342 (Simulation time: 00 hr 02 min 30 sec)
Heartbeat CPU 0 instructions: 37500274 cycles: 8638303 heartbeat IPC: 4.308 cumulative IPC: 4.341 (Simulation time: 00 hr 02 min 32 sec)
Heartbeat CPU 0 instructions: 38000279 cycles: 8752872 heartbeat IPC: 4.364 cumulative IPC: 4.341 (Simulation time: 00 hr 02 min 34 sec)
Heartbeat CPU 0 instructions: 38500285 cycles: 8867458 heartbeat IPC: 4.364 cumulative IPC: 4.342 (Simulation time: 00 hr 02 min 36 sec)
Heartbeat CPU 0 instructions: 39000292 cycles: 8981603 heartbeat IPC: 4.38 cumulative IPC: 4.342 (Simulation time: 00 hr 02 min 38 sec)
Heartbeat CPU 0 instructions: 39500299 cycles: 9096120 heartbeat IPC: 4.366 cumulative IPC: 4.343 (Simulation time: 00 hr 02 min 40 sec)
Heartbeat CPU 0 instructions: 40000299 cycles: 9210218 heartbeat IPC: 4.382 cumulative IPC: 4.343 (Simulation time: 00 hr 02 min 42 sec)
Heartbeat CPU 0 instructions: 40500301 cycles: 9324041 heartbeat IPC: 4.393 cumulative IPC: 4.344 (Simulation time: 00 hr 02 min 44 sec)
Heartbeat CPU 0 instructions: 41000304 cycles: 9438167 heartbeat IPC: 4.381 cumulative IPC: 4.344 (Simulation time: 00 hr 02 min 46 sec)
Heartbeat CPU 0 instructions: 41500307 cycles: 9551853 heartbeat IPC: 4.398 cumulative IPC: 4.345 (Simulation time: 00 hr 02 min 48 sec)
Heartbeat CPU 0 instructions: 42000309 cycles: 9666058 heartbeat IPC: 4.378 cumulative IPC: 4.345 (Simulation time: 00 hr 02 min 50 sec)
Heartbeat CPU 0 instructions: 42500314 cycles: 9780391 heartbeat IPC: 4.373 cumulative IPC: 4.345 (Simulation time: 00 hr 02 min 52 sec)
Heartbeat CPU 0 instructions: 43000316 cycles: 9895175 heartbeat IPC: 4.356 cumulative IPC: 4.346 (Simulation time: 00 hr 02 min 54 sec)
Heartbeat CPU 0 instructions: 43500320 cycles: 10009814 heartbeat IPC: 4.362 cumulative IPC: 4.346 (Simulation time: 00 hr 02 min 56 sec)
Heartbeat CPU 0 instructions: 44000324 cycles: 10125172 heartbeat IPC: 4.334 cumulative IPC: 4.346 (Simulation time: 00 hr 02 min 58 sec)
Heartbeat CPU 0 instructions: 44500324 cycles: 10239967 heartbeat IPC: 4.356 cumulative IPC: 4.346 (Simulation time: 00 hr 03 min 00 sec)
Heartbeat CPU 0 instructions: 45000326 cycles: 10354858 heartbeat IPC: 4.352 cumulative IPC: 4.346 (Simulation time: 00 hr 03 min 02 sec)
Heartbeat CPU 0 instructions: 45500333 cycles: 10469146 heartbeat IPC: 4.375 cumulative IPC: 4.346 (Simulation time: 00 hr 03 min 04 sec)
Heartbeat CPU 0 instructions: 46000340 cycles: 10583433 heartbeat IPC: 4.375 cumulative IPC: 4.346 (Simulation time: 00 hr 03 min 06 sec)
Heartbeat CPU 0 instructions: 46500341 cycles: 10698125 heartbeat IPC: 4.36 cumulative IPC: 4.347 (Simulation time: 00 hr 03 min 08 sec)
Heartbeat CPU 0 instructions: 47000342 cycles: 10813247 heartbeat IPC: 4.343 cumulative IPC: 4.347 (Simulation time: 00 hr 03 min 10 sec)
Heartbeat CPU 0 instructions: 47500343 cycles: 10927432 heartbeat IPC: 4.379 cumulative IPC: 4.347 (Simulation time: 00 hr 03 min 12 sec)
Heartbeat CPU 0 instructions: 48000344 cycles: 11043337 heartbeat IPC: 4.314 cumulative IPC: 4.347 (Simulation time: 00 hr 03 min 14 sec)
Heartbeat CPU 0 instructions: 48500350 cycles: 11159665 heartbeat IPC: 4.298 cumulative IPC: 4.346 (Simulation time: 00 hr 03 min 16 sec)
Heartbeat CPU 0 instructions: 49000351 cycles: 11274738 heartbeat IPC: 4.345 cumulative IPC: 4.346 (Simulation time: 00 hr 03 min 18 sec)
Heartbeat CPU 0 instructions: 49500358 cycles: 11389832 heartbeat IPC: 4.344 cumulative IPC: 4.346 (Simulation time: 00 hr 03 min 20 sec)
Warmup finished CPU 0 instructions: 50000001 cycles: 11504563 cumulative IPC: 4.346 (Simulation time: 00 hr 03 min 22 sec)
Warmup complete CPU 0 instructions: 50000001 cycles: 11504563 cumulative IPC: 4.346 (Simulation time: 00 hr 03 min 22 sec)
Heartbeat CPU 0 instructions: 50000361 cycles: 11504629 heartbeat IPC: 4.356 cumulative IPC: 5.455 (Simulation time: 00 hr 03 min 22 sec)
Heartbeat CPU 0 instructions: 50500368 cycles: 11871352 heartbeat IPC: 1.363 cumulative IPC: 1.364 (Simulation time: 00 hr 03 min 26 sec)
Heartbeat CPU 0 instructions: 51000372 cycles: 12248121 heartbeat IPC: 1.327 cumulative IPC: 1.345 (Simulation time: 00 hr 03 min 30 sec)
Heartbeat CPU 0 instructions: 51500378 cycles: 12612378 heartbeat IPC: 1.373 cumulative IPC: 1.354 (Simulation time: 00 hr 03 min 34 sec)
Heartbeat CPU 0 instructions: 52000380 cycles: 12979824 heartbeat IPC: 1.361 cumulative IPC: 1.356 (Simulation time: 00 hr 03 min 38 sec)
Heartbeat CPU 0 instructions: 52500387 cycles: 13340238 heartbeat IPC: 1.387 cumulative IPC: 1.362 (Simulation time: 00 hr 03 min 42 sec)
Heartbeat CPU 0 instructions: 53000389 cycles: 13706441 heartbeat IPC: 1.365 cumulative IPC: 1.363 (Simulation time: 00 hr 03 min 46 sec)
Heartbeat CPU 0 instructions: 53500393 cycles: 14068480 heartbeat IPC: 1.381 cumulative IPC: 1.365 (Simulation time: 00 hr 03 min 50 sec)
Heartbeat CPU 0 instructions: 54000396 cycles: 14432918 heartbeat IPC: 1.372 cumulative IPC: 1.366 (Simulation time: 00 hr 03 min 53 sec)
Heartbeat CPU 0 instructions: 54500400 cycles: 14798797 heartbeat IPC: 1.367 cumulative IPC: 1.366 (Simulation time: 00 hr 03 min 57 sec)
Heartbeat CPU 0 instructions: 55000401 cycles: 15165426 heartbeat IPC: 1.364 cumulative IPC: 1.366 (Simulation time: 00 hr 04 min 01 sec)
Heartbeat CPU 0 instructions: 55500404 cycles: 15524221 heartbeat IPC: 1.394 cumulative IPC: 1.368 (Simulation time: 00 hr 04 min 05 sec)
Heartbeat CPU 0 instructions: 56000404 cycles: 15899720 heartbeat IPC: 1.332 cumulative IPC: 1.365 (Simulation time: 00 hr 04 min 09 sec)
Heartbeat CPU 0 instructions: 56500404 cycles: 16277486 heartbeat IPC: 1.324 cumulative IPC: 1.362 (Simulation time: 00 hr 04 min 13 sec)
Heartbeat CPU 0 instructions: 57000408 cycles: 16648182 heartbeat IPC: 1.349 cumulative IPC: 1.361 (Simulation time: 00 hr 04 min 17 sec)
Heartbeat CPU 0 instructions: 57500413 cycles: 17011625 heartbeat IPC: 1.376 cumulative IPC: 1.362 (Simulation time: 00 hr 04 min 21 sec)
Heartbeat CPU 0 instructions: 58000416 cycles: 17375175 heartbeat IPC: 1.375 cumulative IPC: 1.363 (Simulation time: 00 hr 04 min 25 sec)
Heartbeat CPU 0 instructions: 58500416 cycles: 17739626 heartbeat IPC: 1.372 cumulative IPC: 1.363 (Simulation time: 00 hr 04 min 29 sec)
Heartbeat CPU 0 instructions: 59000417 cycles: 18103879 heartbeat IPC: 1.373 cumulative IPC: 1.364 (Simulation time: 00 hr 04 min 32 sec)
Heartbeat CPU 0 instructions: 59500418 cycles: 18466954 heartbeat IPC: 1.377 cumulative IPC: 1.365 (Simulation time: 00 hr 04 min 36 sec)
Heartbeat CPU 0 instructions: 60000418 cycles: 18832209 heartbeat IPC: 1.369 cumulative IPC: 1.365 (Simulation time: 00 hr 04 min 40 sec)
Heartbeat CPU 0 instructions: 60500419 cycles: 19211553 heartbeat IPC: 1.318 cumulative IPC: 1.362 (Simulation time: 00 hr 04 min 44 sec)
Heartbeat CPU 0 instructions: 61000422 cycles: 19578104 heartbeat IPC: 1.364 cumulative IPC: 1.363 (Simulation time: 00 hr 04 min 48 sec)
Heartbeat CPU 0 instructions: 61500426 cycles: 19940706 heartbeat IPC: 1.379 cumulative IPC: 1.363 (Simulation time: 00 hr 04 min 52 sec)
Heartbeat CPU 0 instructions: 62000430 cycles: 20321082 heartbeat IPC: 1.314 cumulative IPC: 1.361 (Simulation time: 00 hr 04 min 56 sec)
Heartbeat CPU 0 instructions: 62500430 cycles: 20697855 heartbeat IPC: 1.327 cumulative IPC: 1.36 (Simulation time: 00 hr 05 min 00 sec)
Heartbeat CPU 0 instructions: 63000432 cycles: 21072339 heartbeat IPC: 1.335 cumulative IPC: 1.359 (Simulation time: 00 hr 05 min 04 sec)
Heartbeat CPU 0 instructions: 63500436 cycles: 21432273 heartbeat IPC: 1.389 cumulative IPC: 1.36 (Simulation time: 00 hr 05 min 08 sec)
Heartbeat CPU 0 instructions: 64000437 cycles: 21807271 heartbeat IPC: 1.333 cumulative IPC: 1.359 (Simulation time: 00 hr 05 min 11 sec)
Heartbeat CPU 0 instructions: 64500439 cycles: 22170904 heartbeat IPC: 1.375 cumulative IPC: 1.359 (Simulation time: 00 hr 05 min 15 sec)
Heartbeat CPU 0 instructions: 65000440 cycles: 22530871 heartbeat IPC: 1.389 cumulative IPC: 1.36 (Simulation time: 00 hr 05 min 19 sec)
Heartbeat CPU 0 instructions: 65500440 cycles: 22890085 heartbeat IPC: 1.392 cumulative IPC: 1.361 (Simulation time: 00 hr 05 min 23 sec)
Heartbeat CPU 0 instructions: 66000440 cycles: 23267736 heartbeat IPC: 1.324 cumulative IPC: 1.36 (Simulation time: 00 hr 05 min 27 sec)
Heartbeat CPU 0 instructions: 66500440 cycles: 23631689 heartbeat IPC: 1.374 cumulative IPC: 1.361 (Simulation time: 00 hr 05 min 31 sec)
Heartbeat CPU 0 instructions: 67000442 cycles: 23986686 heartbeat IPC: 1.408 cumulative IPC: 1.362 (Simulation time: 00 hr 05 min 34 sec)
Heartbeat CPU 0 instructions: 67500442 cycles: 24345486 heartbeat IPC: 1.394 cumulative IPC: 1.363 (Simulation time: 00 hr 05 min 38 sec)
Heartbeat CPU 0 instructions: 68000449 cycles: 24719916 heartbeat IPC: 1.335 cumulative IPC: 1.362 (Simulation time: 00 hr 05 min 42 sec)
Heartbeat CPU 0 instructions: 68500456 cycles: 25073950 heartbeat IPC: 1.412 cumulative IPC: 1.363 (Simulation time: 00 hr 05 min 46 sec)
Heartbeat CPU 0 instructions: 69000456 cycles: 25431700 heartbeat IPC: 1.398 cumulative IPC: 1.364 (Simulation time: 00 hr 05 min 49 sec)
Heartbeat CPU 0 instructions: 69500460 cycles: 25785800 heartbeat IPC: 1.412 cumulative IPC: 1.365 (Simulation time: 00 hr 05 min 53 sec)
Heartbeat CPU 0 instructions: 70000462 cycles: 26141677 heartbeat IPC: 1.405 cumulative IPC: 1.366 (Simulation time: 00 hr 05 min 57 sec)
Heartbeat CPU 0 instructions: 70500462 cycles: 26497890 heartbeat IPC: 1.404 cumulative IPC: 1.367 (Simulation time: 00 hr 06 min 00 sec)
Heartbeat CPU 0 instructions: 71000466 cycles: 26857292 heartbeat IPC: 1.391 cumulative IPC: 1.368 (Simulation time: 00 hr 06 min 04 sec)
Heartbeat CPU 0 instructions: 71500467 cycles: 27241342 heartbeat IPC: 1.302 cumulative IPC: 1.366 (Simulation time: 00 hr 06 min 08 sec)
Heartbeat CPU 0 instructions: 72000467 cycles: 27599669 heartbeat IPC: 1.395 cumulative IPC: 1.367 (Simulation time: 00 hr 06 min 12 sec)
Heartbeat CPU 0 instructions: 72500468 cycles: 27977013 heartbeat IPC: 1.325 cumulative IPC: 1.366 (Simulation time: 00 hr 06 min 16 sec)
Heartbeat CPU 0 instructions: 73000472 cycles: 28335591 heartbeat IPC: 1.394 cumulative IPC: 1.367 (Simulation time: 00 hr 06 min 19 sec)
Heartbeat CPU 0 instructions: 73500476 cycles: 28709200 heartbeat IPC: 1.338 cumulative IPC: 1.366 (Simulation time: 00 hr 06 min 23 sec)
Heartbeat CPU 0 instructions: 74000481 cycles: 29070073 heartbeat IPC: 1.386 cumulative IPC: 1.366 (Simulation time: 00 hr 06 min 27 sec)
Heartbeat CPU 0 instructions: 74500482 cycles: 29439986 heartbeat IPC: 1.352 cumulative IPC: 1.366 (Simulation time: 00 hr 06 min 31 sec)
Heartbeat CPU 0 instructions: 75000486 cycles: 29800579 heartbeat IPC: 1.387 cumulative IPC: 1.366 (Simulation time: 00 hr 06 min 34 sec)
Heartbeat CPU 0 instructions: 75500487 cycles: 30159388 heartbeat IPC: 1.394 cumulative IPC: 1.367 (Simulation time: 00 hr 06 min 38 sec)
Heartbeat CPU 0 instructions: 76000489 cycles: 30520898 heartbeat IPC: 1.383 cumulative IPC: 1.367 (Simulation time: 00 hr 06 min 42 sec)
Heartbeat CPU 0 instructions: 76500490 cycles: 30880534 heartbeat IPC: 1.39 cumulative IPC: 1.368 (Simulation time: 00 hr 06 min 45 sec)
Heartbeat CPU 0 instructions: 77000490 cycles: 31234176 heartbeat IPC: 1.414 cumulative IPC: 1.369 (Simulation time: 00 hr 06 min 49 sec)
Heartbeat CPU 0 instructions: 77500492 cycles: 31601999 heartbeat IPC: 1.359 cumulative IPC: 1.368 (Simulation time: 00 hr 06 min 53 sec)
Heartbeat CPU 0 instructions: 78000492 cycles: 31968329 heartbeat IPC: 1.365 cumulative IPC: 1.368 (Simulation time: 00 hr 06 min 57 sec)
Heartbeat CPU 0 instructions: 78500493 cycles: 32340155 heartbeat IPC: 1.345 cumulative IPC: 1.368 (Simulation time: 00 hr 07 min 00 sec)
Heartbeat CPU 0 instructions: 79000494 cycles: 32697692 heartbeat IPC: 1.398 cumulative IPC: 1.368 (Simulation time: 00 hr 07 min 04 sec)
Heartbeat CPU 0 instructions: 79500496 cycles: 33072038 heartbeat IPC: 1.336 cumulative IPC: 1.368 (Simulation time: 00 hr 07 min 08 sec)
Heartbeat CPU 0 instructions: 80000499 cycles: 33448746 heartbeat IPC: 1.327 cumulative IPC: 1.367 (Simulation time: 00 hr 07 min 12 sec)
Heartbeat CPU 0 instructions: 80500500 cycles: 33832685 heartbeat IPC: 1.302 cumulative IPC: 1.366 (Simulation time: 00 hr 07 min 16 sec)
Heartbeat CPU 0 instructions: 81000505 cycles: 34198065 heartbeat IPC: 1.368 cumulative IPC: 1.366 (Simulation time: 00 hr 07 min 19 sec)
Heartbeat CPU 0 instructions: 81500511 cycles: 34579555 heartbeat IPC: 1.311 cumulative IPC: 1.365 (Simulation time: 00 hr 07 min 23 sec)
Heartbeat CPU 0 instructions: 82000512 cycles: 34953047 heartbeat IPC: 1.339 cumulative IPC: 1.365 (Simulation time: 00 hr 07 min 27 sec)
Heartbeat CPU 0 instructions: 82500513 cycles: 35318174 heartbeat IPC: 1.369 cumulative IPC: 1.365 (Simulation time: 00 hr 07 min 31 sec)
Heartbeat CPU 0 instructions: 83000514 cycles: 35695141 heartbeat IPC: 1.326 cumulative IPC: 1.364 (Simulation time: 00 hr 07 min 35 sec)
Heartbeat CPU 0 instructions: 83500518 cycles: 36054105 heartbeat IPC: 1.393 cumulative IPC: 1.365 (Simulation time: 00 hr 07 min 38 sec)
Heartbeat CPU 0 instructions: 84000522 cycles: 36419735 heartbeat IPC: 1.368 cumulative IPC: 1.365 (Simulation time: 00 hr 07 min 42 sec)
Heartbeat CPU 0 instructions: 84500524 cycles: 36777967 heartbeat IPC: 1.396 cumulative IPC: 1.365 (Simulation time: 00 hr 07 min 46 sec)
Heartbeat CPU 0 instructions: 85000524 cycles: 37145282 heartbeat IPC: 1.361 cumulative IPC: 1.365 (Simulation time: 00 hr 07 min 50 sec)
Heartbeat CPU 0 instructions: 85500524 cycles: 37505775 heartbeat IPC: 1.387 cumulative IPC: 1.365 (Simulation time: 00 hr 07 min 53 sec)
Heartbeat CPU 0 instructions: 86000525 cycles: 37870525 heartbeat IPC: 1.371 cumulative IPC: 1.365 (Simulation time: 00 hr 07 min 57 sec)
Heartbeat CPU 0 instructions: 86500526 cycles: 38233710 heartbeat IPC: 1.377 cumulative IPC: 1.366 (Simulation time: 00 hr 08 min 01 sec)
Heartbeat CPU 0 instructions: 87000526 cycles: 38590993 heartbeat IPC: 1.399 cumulative IPC: 1.366 (Simulation time: 00 hr 08 min 04 sec)
Heartbeat CPU 0 instructions: 87500529 cycles: 38959203 heartbeat IPC: 1.358 cumulative IPC: 1.366 (Simulation time: 00 hr 08 min 08 sec)
Heartbeat CPU 0 instructions: 88000533 cycles: 39320872 heartbeat IPC: 1.382 cumulative IPC: 1.366 (Simulation time: 00 hr 08 min 12 sec)
Heartbeat CPU 0 instructions: 88500534 cycles: 39681208 heartbeat IPC: 1.388 cumulative IPC: 1.366 (Simulation time: 00 hr 08 min 16 sec)
Heartbeat CPU 0 instructions: 89000539 cycles: 40052560 heartbeat IPC: 1.346 cumulative IPC: 1.366 (Simulation time: 00 hr 08 min 19 sec)
Heartbeat CPU 0 instructions: 89500540 cycles: 40409656 heartbeat IPC: 1.4 cumulative IPC: 1.367 (Simulation time: 00 hr 08 min 23 sec)
Heartbeat CPU 0 instructions: 90000540 cycles: 40772416 heartbeat IPC: 1.378 cumulative IPC: 1.367 (Simulation time: 00 hr 08 min 27 sec)
Heartbeat CPU 0 instructions: 90500541 cycles: 41137028 heartbeat IPC: 1.371 cumulative IPC: 1.367 (Simulation time: 00 hr 08 min 30 sec)
Heartbeat CPU 0 instructions: 91000541 cycles: 41495336 heartbeat IPC: 1.395 cumulative IPC: 1.367 (Simulation time: 00 hr 08 min 34 sec)
Heartbeat CPU 0 instructions: 91500541 cycles: 41860286 heartbeat IPC: 1.37 cumulative IPC: 1.367 (Simulation time: 00 hr 08 min 38 sec)
Heartbeat CPU 0 instructions: 92000541 cycles: 42223430 heartbeat IPC: 1.377 cumulative IPC: 1.367 (Simulation time: 00 hr 08 min 42 sec)
Heartbeat CPU 0 instructions: 92500546 cycles: 42582897 heartbeat IPC: 1.391 cumulative IPC: 1.368 (Simulation time: 00 hr 08 min 45 sec)
Heartbeat CPU 0 instructions: 93000549 cycles: 42945007 heartbeat IPC: 1.381 cumulative IPC: 1.368 (Simulation time: 00 hr 08 min 49 sec)
Heartbeat CPU 0 instructions: 93500556 cycles: 43306896 heartbeat IPC: 1.382 cumulative IPC: 1.368 (Simulation time: 00 hr 08 min 53 sec)
Heartbeat CPU 0 instructions: 94000560 cycles: 43678834 heartbeat IPC: 1.344 cumulative IPC: 1.368 (Simulation time: 00 hr 08 min 56 sec)
Heartbeat CPU 0 instructions: 94500565 cycles: 44047548 heartbeat IPC: 1.356 cumulative IPC: 1.367 (Simulation time: 00 hr 09 min 00 sec)
Heartbeat CPU 0 instructions: 95000572 cycles: 44425102 heartbeat IPC: 1.324 cumulative IPC: 1.367 (Simulation time: 00 hr 09 min 04 sec)
Heartbeat CPU 0 instructions: 95500574 cycles: 44792488 heartbeat IPC: 1.361 cumulative IPC: 1.367 (Simulation time: 00 hr 09 min 08 sec)
Heartbeat CPU 0 instructions: 96000574 cycles: 45151788 heartbeat IPC: 1.392 cumulative IPC: 1.367 (Simulation time: 00 hr 09 min 11 sec)
Heartbeat CPU 0 instructions: 96500574 cycles: 45514219 heartbeat IPC: 1.38 cumulative IPC: 1.367 (Simulation time: 00 hr 09 min 15 sec)
Heartbeat CPU 0 instructions: 97000576 cycles: 45881862 heartbeat IPC: 1.36 cumulative IPC: 1.367 (Simulation time: 00 hr 09 min 19 sec)
Heartbeat CPU 0 instructions: 97500577 cycles: 46256531 heartbeat IPC: 1.335 cumulative IPC: 1.367 (Simulation time: 00 hr 09 min 23 sec)
Heartbeat CPU 0 instructions: 98000577 cycles: 46621347 heartbeat IPC: 1.371 cumulative IPC: 1.367 (Simulation time: 00 hr 09 min 26 sec)
Heartbeat CPU 0 instructions: 98500578 cycles: 46984618 heartbeat IPC: 1.376 cumulative IPC: 1.367 (Simulation time: 00 hr 09 min 30 sec)
Heartbeat CPU 0 instructions: 99000578 cycles: 47340359 heartbeat IPC: 1.406 cumulative IPC: 1.367 (Simulation time: 00 hr 09 min 34 sec)
Heartbeat CPU 0 instructions: 99500578 cycles: 47696120 heartbeat IPC: 1.405 cumulative IPC: 1.368 (Simulation time: 00 hr 09 min 37 sec)
Heartbeat CPU 0 instructions: 100000581 cycles: 48055158 heartbeat IPC: 1.393 cumulative IPC: 1.368 (Simulation time: 00 hr 09 min 41 sec)
Heartbeat CPU 0 instructions: 100500581 cycles: 48411044 heartbeat IPC: 1.405 cumulative IPC: 1.368 (Simulation time: 00 hr 09 min 45 sec)
Heartbeat CPU 0 instructions: 101000583 cycles: 48789198 heartbeat IPC: 1.322 cumulative IPC: 1.368 (Simulation time: 00 hr 09 min 48 sec)
Heartbeat CPU 0 instructions: 101500584 cycles: 49205071 heartbeat IPC: 1.202 cumulative IPC: 1.366 (Simulation time: 00 hr 09 min 52 sec)
Heartbeat CPU 0 instructions: 102000584 cycles: 49577398 heartbeat IPC: 1.343 cumulative IPC: 1.366 (Simulation time: 00 hr 09 min 56 sec)
Heartbeat CPU 0 instructions: 102500587 cycles: 49946828 heartbeat IPC: 1.353 cumulative IPC: 1.366 (Simulation time: 00 hr 10 min 00 sec)
Heartbeat CPU 0 instructions: 103000588 cycles: 50317085 heartbeat IPC: 1.35 cumulative IPC: 1.366 (Simulation time: 00 hr 10 min 04 sec)
Heartbeat CPU 0 instructions: 103500590 cycles: 50685185 heartbeat IPC: 1.358 cumulative IPC: 1.365 (Simulation time: 00 hr 10 min 07 sec)
Heartbeat CPU 0 instructions: 104000590 cycles: 51052897 heartbeat IPC: 1.36 cumulative IPC: 1.365 (Simulation time: 00 hr 10 min 11 sec)
Heartbeat CPU 0 instructions: 104500593 cycles: 51412907 heartbeat IPC: 1.389 cumulative IPC: 1.366 (Simulation time: 00 hr 10 min 14 sec)
Heartbeat CPU 0 instructions: 105000594 cycles: 51773895 heartbeat IPC: 1.385 cumulative IPC: 1.366 (Simulation time: 00 hr 10 min 18 sec)
Heartbeat CPU 0 instructions: 105500595 cycles: 52137748 heartbeat IPC: 1.374 cumulative IPC: 1.366 (Simulation time: 00 hr 10 min 22 sec)
Heartbeat CPU 0 instructions: 106000595 cycles: 52498314 heartbeat IPC: 1.387 cumulative IPC: 1.366 (Simulation time: 00 hr 10 min 25 sec)
Heartbeat CPU 0 instructions: 106500595 cycles: 52858280 heartbeat IPC: 1.389 cumulative IPC: 1.366 (Simulation time: 00 hr 10 min 29 sec)
Heartbeat CPU 0 instructions: 107000596 cycles: 53237326 heartbeat IPC: 1.319 cumulative IPC: 1.366 (Simulation time: 00 hr 10 min 33 sec)
Heartbeat CPU 0 instructions: 107500597 cycles: 53605403 heartbeat IPC: 1.358 cumulative IPC: 1.366 (Simulation time: 00 hr 10 min 36 sec)
Heartbeat CPU 0 instructions: 108000603 cycles: 53979535 heartbeat IPC: 1.336 cumulative IPC: 1.366 (Simulation time: 00 hr 10 min 40 sec)
Heartbeat CPU 0 instructions: 108500603 cycles: 54368739 heartbeat IPC: 1.285 cumulative IPC: 1.365 (Simulation time: 00 hr 10 min 44 sec)
Heartbeat CPU 0 instructions: 109000607 cycles: 54739395 heartbeat IPC: 1.349 cumulative IPC: 1.365 (Simulation time: 00 hr 10 min 48 sec)
Heartbeat CPU 0 instructions: 109500607 cycles: 55094124 heartbeat IPC: 1.41 cumulative IPC: 1.365 (Simulation time: 00 hr 10 min 51 sec)
Heartbeat CPU 0 instructions: 110000610 cycles: 55474668 heartbeat IPC: 1.314 cumulative IPC: 1.365 (Simulation time: 00 hr 10 min 55 sec)
Heartbeat CPU 0 instructions: 110500610 cycles: 55830426 heartbeat IPC: 1.405 cumulative IPC: 1.365 (Simulation time: 00 hr 10 min 59 sec)
Heartbeat CPU 0 instructions: 111000610 cycles: 56186104 heartbeat IPC: 1.406 cumulative IPC: 1.365 (Simulation time: 00 hr 11 min 02 sec)
Heartbeat CPU 0 instructions: 111500612 cycles: 56545526 heartbeat IPC: 1.391 cumulative IPC: 1.365 (Simulation time: 00 hr 11 min 06 sec)
Heartbeat CPU 0 instructions: 112000613 cycles: 56901424 heartbeat IPC: 1.405 cumulative IPC: 1.366 (Simulation time: 00 hr 11 min 09 sec)
Heartbeat CPU 0 instructions: 112500613 cycles: 57260211 heartbeat IPC: 1.394 cumulative IPC: 1.366 (Simulation time: 00 hr 11 min 13 sec)
Heartbeat CPU 0 instructions: 113000614 cycles: 57630862 heartbeat IPC: 1.349 cumulative IPC: 1.366 (Simulation time: 00 hr 11 min 17 sec)
Heartbeat CPU 0 instructions: 113500619 cycles: 58008337 heartbeat IPC: 1.325 cumulative IPC: 1.365 (Simulation time: 00 hr 11 min 20 sec)
Heartbeat CPU 0 instructions: 114000619 cycles: 58375612 heartbeat IPC: 1.361 cumulative IPC: 1.365 (Simulation time: 00 hr 11 min 24 sec)
Heartbeat CPU 0 instructions: 114500621 cycles: 58746449 heartbeat IPC: 1.348 cumulative IPC: 1.365 (Simulation time: 00 hr 11 min 28 sec)
Heartbeat CPU 0 instructions: 115000622 cycles: 59114311 heartbeat IPC: 1.359 cumulative IPC: 1.365 (Simulation time: 00 hr 11 min 31 sec)
Heartbeat CPU 0 instructions: 115500622 cycles: 59498582 heartbeat IPC: 1.301 cumulative IPC: 1.365 (Simulation time: 00 hr 11 min 35 sec)
Heartbeat CPU 0 instructions: 116000622 cycles: 59875635 heartbeat IPC: 1.326 cumulative IPC: 1.364 (Simulation time: 00 hr 11 min 39 sec)
Heartbeat CPU 0 instructions: 116500626 cycles: 60255488 heartbeat IPC: 1.316 cumulative IPC: 1.364 (Simulation time: 00 hr 11 min 43 sec)
Heartbeat CPU 0 instructions: 117000627 cycles: 60634227 heartbeat IPC: 1.32 cumulative IPC: 1.364 (Simulation time: 00 hr 11 min 46 sec)
Heartbeat CPU 0 instructions: 117500631 cycles: 60993939 heartbeat IPC: 1.39 cumulative IPC: 1.364 (Simulation time: 00 hr 11 min 50 sec)
Heartbeat CPU 0 instructions: 118000632 cycles: 61410597 heartbeat IPC: 1.2 cumulative IPC: 1.363 (Simulation time: 00 hr 11 min 54 sec)
Heartbeat CPU 0 instructions: 118500632 cycles: 61796696 heartbeat IPC: 1.295 cumulative IPC: 1.362 (Simulation time: 00 hr 11 min 58 sec)
Heartbeat CPU 0 instructions: 119000632 cycles: 62159175 heartbeat IPC: 1.379 cumulative IPC: 1.362 (Simulation time: 00 hr 12 min 01 sec)
Heartbeat CPU 0 instructions: 119500632 cycles: 62531481 heartbeat IPC: 1.343 cumulative IPC: 1.362 (Simulation time: 00 hr 12 min 05 sec)
Heartbeat CPU 0 instructions: 120000634 cycles: 62903032 heartbeat IPC: 1.346 cumulative IPC: 1.362 (Simulation time: 00 hr 12 min 09 sec)
Heartbeat CPU 0 instructions: 120500636 cycles: 63269907 heartbeat IPC: 1.363 cumulative IPC: 1.362 (Simulation time: 00 hr 12 min 12 sec)
Heartbeat CPU 0 instructions: 121000643 cycles: 63641673 heartbeat IPC: 1.345 cumulative IPC: 1.362 (Simulation time: 00 hr 12 min 16 sec)
Heartbeat CPU 0 instructions: 121500643 cycles: 64007140 heartbeat IPC: 1.368 cumulative IPC: 1.362 (Simulation time: 00 hr 12 min 20 sec)
Heartbeat CPU 0 instructions: 122000643 cycles: 64370226 heartbeat IPC: 1.377 cumulative IPC: 1.362 (Simulation time: 00 hr 12 min 23 sec)
Heartbeat CPU 0 instructions: 122500644 cycles: 64744888 heartbeat IPC: 1.335 cumulative IPC: 1.362 (Simulation time: 00 hr 12 min 27 sec)
Heartbeat CPU 0 instructions: 123000645 cycles: 65113373 heartbeat IPC: 1.357 cumulative IPC: 1.362 (Simulation time: 00 hr 12 min 31 sec)
Heartbeat CPU 0 instructions: 123500647 cycles: 65487534 heartbeat IPC: 1.336 cumulative IPC: 1.362 (Simulation time: 00 hr 12 min 34 sec)
Heartbeat CPU 0 instructions: 124000651 cycles: 65852793 heartbeat IPC: 1.369 cumulative IPC: 1.362 (Simulation time: 00 hr 12 min 38 sec)
Heartbeat CPU 0 instructions: 124500652 cycles: 66220251 heartbeat IPC: 1.361 cumulative IPC: 1.362 (Simulation time: 00 hr 12 min 41 sec)
Heartbeat CPU 0 instructions: 125000652 cycles: 66588653 heartbeat IPC: 1.357 cumulative IPC: 1.362 (Simulation time: 00 hr 12 min 45 sec)
Heartbeat CPU 0 instructions: 125500653 cycles: 66959449 heartbeat IPC: 1.348 cumulative IPC: 1.361 (Simulation time: 00 hr 12 min 49 sec)
Heartbeat CPU 0 instructions: 126000655 cycles: 67333498 heartbeat IPC: 1.337 cumulative IPC: 1.361 (Simulation time: 00 hr 12 min 52 sec)
Heartbeat CPU 0 instructions: 126500656 cycles: 67702836 heartbeat IPC: 1.354 cumulative IPC: 1.361 (Simulation time: 00 hr 12 min 56 sec)
Heartbeat CPU 0 instructions: 127000656 cycles: 68061357 heartbeat IPC: 1.395 cumulative IPC: 1.361 (Simulation time: 00 hr 13 min 00 sec)
Heartbeat CPU 0 instructions: 127500659 cycles: 68430527 heartbeat IPC: 1.354 cumulative IPC: 1.361 (Simulation time: 00 hr 13 min 03 sec)
Heartbeat CPU 0 instructions: 128000661 cycles: 68811683 heartbeat IPC: 1.312 cumulative IPC: 1.361 (Simulation time: 00 hr 13 min 07 sec)
Heartbeat CPU 0 instructions: 128500661 cycles: 69180620 heartbeat IPC: 1.355 cumulative IPC: 1.361 (Simulation time: 00 hr 13 min 11 sec)
Heartbeat CPU 0 instructions: 129000662 cycles: 69552906 heartbeat IPC: 1.343 cumulative IPC: 1.361 (Simulation time: 00 hr 13 min 14 sec)
Heartbeat CPU 0 instructions: 129500668 cycles: 69933538 heartbeat IPC: 1.314 cumulative IPC: 1.361 (Simulation time: 00 hr 13 min 18 sec)
Heartbeat CPU 0 instructions: 130000671 cycles: 70292420 heartbeat IPC: 1.393 cumulative IPC: 1.361 (Simulation time: 00 hr 13 min 21 sec)
Heartbeat CPU 0 instructions: 130500672 cycles: 70649498 heartbeat IPC: 1.4 cumulative IPC: 1.361 (Simulation time: 00 hr 13 min 25 sec)
Heartbeat CPU 0 instructions: 131000676 cycles: 71005928 heartbeat IPC: 1.403 cumulative IPC: 1.361 (Simulation time: 00 hr 13 min 28 sec)
Heartbeat CPU 0 instructions: 131500677 cycles: 71369791 heartbeat IPC: 1.374 cumulative IPC: 1.361 (Simulation time: 00 hr 13 min 32 sec)
Heartbeat CPU 0 instructions: 132000677 cycles: 71727679 heartbeat IPC: 1.397 cumulative IPC: 1.362 (Simulation time: 00 hr 13 min 36 sec)
Heartbeat CPU 0 instructions: 132500681 cycles: 72086427 heartbeat IPC: 1.394 cumulative IPC: 1.362 (Simulation time: 00 hr 13 min 39 sec)
Heartbeat CPU 0 instructions: 133000681 cycles: 72456390 heartbeat IPC: 1.351 cumulative IPC: 1.362 (Simulation time: 00 hr 13 min 43 sec)
Heartbeat CPU 0 instructions: 133500682 cycles: 72819177 heartbeat IPC: 1.378 cumulative IPC: 1.362 (Simulation time: 00 hr 13 min 46 sec)
Heartbeat CPU 0 instructions: 134000683 cycles: 73175582 heartbeat IPC: 1.403 cumulative IPC: 1.362 (Simulation time: 00 hr 13 min 50 sec)
Heartbeat CPU 0 instructions: 134500685 cycles: 73539747 heartbeat IPC: 1.373 cumulative IPC: 1.362 (Simulation time: 00 hr 13 min 53 sec)
Heartbeat CPU 0 instructions: 135000685 cycles: 73902657 heartbeat IPC: 1.378 cumulative IPC: 1.362 (Simulation time: 00 hr 13 min 57 sec)
Heartbeat CPU 0 instructions: 135500686 cycles: 74286910 heartbeat IPC: 1.301 cumulative IPC: 1.362 (Simulation time: 00 hr 14 min 01 sec)
Heartbeat CPU 0 instructions: 136000691 cycles: 74659618 heartbeat IPC: 1.342 cumulative IPC: 1.362 (Simulation time: 00 hr 14 min 04 sec)
Heartbeat CPU 0 instructions: 136500692 cycles: 75024978 heartbeat IPC: 1.369 cumulative IPC: 1.362 (Simulation time: 00 hr 14 min 08 sec)
Heartbeat CPU 0 instructions: 137000692 cycles: 75390473 heartbeat IPC: 1.368 cumulative IPC: 1.362 (Simulation time: 00 hr 14 min 11 sec)
Heartbeat CPU 0 instructions: 137500696 cycles: 75751980 heartbeat IPC: 1.383 cumulative IPC: 1.362 (Simulation time: 00 hr 14 min 15 sec)
Heartbeat CPU 0 instructions: 138000699 cycles: 76110975 heartbeat IPC: 1.393 cumulative IPC: 1.362 (Simulation time: 00 hr 14 min 18 sec)
Heartbeat CPU 0 instructions: 138500700 cycles: 76477865 heartbeat IPC: 1.363 cumulative IPC: 1.362 (Simulation time: 00 hr 14 min 22 sec)
Heartbeat CPU 0 instructions: 139000702 cycles: 76848192 heartbeat IPC: 1.35 cumulative IPC: 1.362 (Simulation time: 00 hr 14 min 26 sec)
Heartbeat CPU 0 instructions: 139500702 cycles: 77209833 heartbeat IPC: 1.383 cumulative IPC: 1.362 (Simulation time: 00 hr 14 min 29 sec)
Heartbeat CPU 0 instructions: 140000708 cycles: 77565009 heartbeat IPC: 1.408 cumulative IPC: 1.362 (Simulation time: 00 hr 14 min 33 sec)
Heartbeat CPU 0 instructions: 140500708 cycles: 77939638 heartbeat IPC: 1.335 cumulative IPC: 1.362 (Simulation time: 00 hr 14 min 36 sec)
Heartbeat CPU 0 instructions: 141000709 cycles: 78310641 heartbeat IPC: 1.348 cumulative IPC: 1.362 (Simulation time: 00 hr 14 min 40 sec)
Heartbeat CPU 0 instructions: 141500709 cycles: 78669361 heartbeat IPC: 1.394 cumulative IPC: 1.362 (Simulation time: 00 hr 14 min 43 sec)
Heartbeat CPU 0 instructions: 142000715 cycles: 79050267 heartbeat IPC: 1.313 cumulative IPC: 1.362 (Simulation time: 00 hr 14 min 47 sec)
Heartbeat CPU 0 instructions: 142500715 cycles: 79424387 heartbeat IPC: 1.336 cumulative IPC: 1.362 (Simulation time: 00 hr 14 min 51 sec)
Heartbeat CPU 0 instructions: 143000722 cycles: 79789741 heartbeat IPC: 1.369 cumulative IPC: 1.362 (Simulation time: 00 hr 14 min 54 sec)
Heartbeat CPU 0 instructions: 143500727 cycles: 80150805 heartbeat IPC: 1.385 cumulative IPC: 1.362 (Simulation time: 00 hr 14 min 58 sec)
Heartbeat CPU 0 instructions: 144000734 cycles: 80512725 heartbeat IPC: 1.382 cumulative IPC: 1.362 (Simulation time: 00 hr 15 min 01 sec)
Heartbeat CPU 0 instructions: 144500735 cycles: 80872916 heartbeat IPC: 1.388 cumulative IPC: 1.362 (Simulation time: 00 hr 15 min 05 sec)
Heartbeat CPU 0 instructions: 145000736 cycles: 81234666 heartbeat IPC: 1.382 cumulative IPC: 1.362 (Simulation time: 00 hr 15 min 08 sec)
Heartbeat CPU 0 instructions: 145500737 cycles: 81588294 heartbeat IPC: 1.414 cumulative IPC: 1.363 (Simulation time: 00 hr 15 min 12 sec)
Heartbeat CPU 0 instructions: 146000738 cycles: 81951017 heartbeat IPC: 1.378 cumulative IPC: 1.363 (Simulation time: 00 hr 15 min 15 sec)
Heartbeat CPU 0 instructions: 146500738 cycles: 82309120 heartbeat IPC: 1.396 cumulative IPC: 1.363 (Simulation time: 00 hr 15 min 19 sec)
Heartbeat CPU 0 instructions: 147000740 cycles: 82670188 heartbeat IPC: 1.385 cumulative IPC: 1.363 (Simulation time: 00 hr 15 min 22 sec)
Heartbeat CPU 0 instructions: 147500740 cycles: 83038312 heartbeat IPC: 1.358 cumulative IPC: 1.363 (Simulation time: 00 hr 15 min 26 sec)
Heartbeat CPU 0 instructions: 148000741 cycles: 83400007 heartbeat IPC: 1.382 cumulative IPC: 1.363 (Simulation time: 00 hr 15 min 29 sec)
Heartbeat CPU 0 instructions: 148500745 cycles: 83762160 heartbeat IPC: 1.381 cumulative IPC: 1.363 (Simulation time: 00 hr 15 min 33 sec)
Heartbeat CPU 0 instructions: 149000745 cycles: 84123836 heartbeat IPC: 1.382 cumulative IPC: 1.363 (Simulation time: 00 hr 15 min 36 sec)
Heartbeat CPU 0 instructions: 149500751 cycles: 84487949 heartbeat IPC: 1.373 cumulative IPC: 1.363 (Simulation time: 00 hr 15 min 40 sec)
Heartbeat CPU 0 instructions: 150000754 cycles: 84854043 heartbeat IPC: 1.366 cumulative IPC: 1.363 (Simulation time: 00 hr 15 min 43 sec)
Heartbeat CPU 0 instructions: 150500755 cycles: 85240282 heartbeat IPC: 1.295 cumulative IPC: 1.363 (Simulation time: 00 hr 15 min 47 sec)
Heartbeat CPU 0 instructions: 151000755 cycles: 85637403 heartbeat IPC: 1.259 cumulative IPC: 1.362 (Simulation time: 00 hr 15 min 51 sec)
Heartbeat CPU 0 instructions: 151500756 cycles: 86003461 heartbeat IPC: 1.366 cumulative IPC: 1.362 (Simulation time: 00 hr 15 min 55 sec)
Heartbeat CPU 0 instructions: 152000757 cycles: 86365590 heartbeat IPC: 1.381 cumulative IPC: 1.363 (Simulation time: 00 hr 15 min 58 sec)
Heartbeat CPU 0 instructions: 152500757 cycles: 86729487 heartbeat IPC: 1.374 cumulative IPC: 1.363 (Simulation time: 00 hr 16 min 02 sec)
Heartbeat CPU 0 instructions: 153000759 cycles: 87137670 heartbeat IPC: 1.225 cumulative IPC: 1.362 (Simulation time: 00 hr 16 min 05 sec)
Heartbeat CPU 0 instructions: 153500759 cycles: 87518123 heartbeat IPC: 1.314 cumulative IPC: 1.362 (Simulation time: 00 hr 16 min 09 sec)
Heartbeat CPU 0 instructions: 154000763 cycles: 87887461 heartbeat IPC: 1.354 cumulative IPC: 1.362 (Simulation time: 00 hr 16 min 13 sec)
Heartbeat CPU 0 instructions: 154500763 cycles: 88255215 heartbeat IPC: 1.36 cumulative IPC: 1.362 (Simulation time: 00 hr 16 min 16 sec)
Heartbeat CPU 0 instructions: 155000763 cycles: 88631063 heartbeat IPC: 1.33 cumulative IPC: 1.361 (Simulation time: 00 hr 16 min 20 sec)
Heartbeat CPU 0 instructions: 155500763 cycles: 88992022 heartbeat IPC: 1.385 cumulative IPC: 1.362 (Simulation time: 00 hr 16 min 23 sec)
Heartbeat CPU 0 instructions: 156000765 cycles: 89354269 heartbeat IPC: 1.38 cumulative IPC: 1.362 (Simulation time: 00 hr 16 min 27 sec)
Heartbeat CPU 0 instructions: 156500766 cycles: 89711879 heartbeat IPC: 1.398 cumulative IPC: 1.362 (Simulation time: 00 hr 16 min 30 sec)
Heartbeat CPU 0 instructions: 157000767 cycles: 90075827 heartbeat IPC: 1.374 cumulative IPC: 1.362 (Simulation time: 00 hr 16 min 34 sec)
Heartbeat CPU 0 instructions: 157500774 cycles: 90444426 heartbeat IPC: 1.357 cumulative IPC: 1.362 (Simulation time: 00 hr 16 min 37 sec)
Heartbeat CPU 0 instructions: 158000777 cycles: 90808300 heartbeat IPC: 1.374 cumulative IPC: 1.362 (Simulation time: 00 hr 16 min 41 sec)
Heartbeat CPU 0 instructions: 158500779 cycles: 91171786 heartbeat IPC: 1.376 cumulative IPC: 1.362 (Simulation time: 00 hr 16 min 44 sec)
Heartbeat CPU 0 instructions: 159000779 cycles: 91538580 heartbeat IPC: 1.363 cumulative IPC: 1.362 (Simulation time: 00 hr 16 min 48 sec)
Heartbeat CPU 0 instructions: 159500779 cycles: 91900044 heartbeat IPC: 1.383 cumulative IPC: 1.362 (Simulation time: 00 hr 16 min 51 sec)
Heartbeat CPU 0 instructions: 160000780 cycles: 92263303 heartbeat IPC: 1.376 cumulative IPC: 1.362 (Simulation time: 00 hr 16 min 55 sec)
Heartbeat CPU 0 instructions: 160500784 cycles: 92619838 heartbeat IPC: 1.402 cumulative IPC: 1.362 (Simulation time: 00 hr 16 min 58 sec)
Heartbeat CPU 0 instructions: 161000785 cycles: 92983677 heartbeat IPC: 1.374 cumulative IPC: 1.362 (Simulation time: 00 hr 17 min 02 sec)
Heartbeat CPU 0 instructions: 161500788 cycles: 93348762 heartbeat IPC: 1.37 cumulative IPC: 1.362 (Simulation time: 00 hr 17 min 05 sec)
Heartbeat CPU 0 instructions: 162000791 cycles: 93715703 heartbeat IPC: 1.363 cumulative IPC: 1.362 (Simulation time: 00 hr 17 min 09 sec)
Heartbeat CPU 0 instructions: 162500793 cycles: 94087864 heartbeat IPC: 1.344 cumulative IPC: 1.362 (Simulation time: 00 hr 17 min 13 sec)
Heartbeat CPU 0 instructions: 163000799 cycles: 94451314 heartbeat IPC: 1.376 cumulative IPC: 1.362 (Simulation time: 00 hr 17 min 16 sec)
Heartbeat CPU 0 instructions: 163500804 cycles: 94818112 heartbeat IPC: 1.363 cumulative IPC: 1.362 (Simulation time: 00 hr 17 min 20 sec)
Heartbeat CPU 0 instructions: 164000807 cycles: 95194389 heartbeat IPC: 1.329 cumulative IPC: 1.362 (Simulation time: 00 hr 17 min 23 sec)
Heartbeat CPU 0 instructions: 164500814 cycles: 95561647 heartbeat IPC: 1.361 cumulative IPC: 1.362 (Simulation time: 00 hr 17 min 27 sec)
Heartbeat CPU 0 instructions: 165000814 cycles: 95946266 heartbeat IPC: 1.3 cumulative IPC: 1.362 (Simulation time: 00 hr 17 min 30 sec)
Heartbeat CPU 0 instructions: 165500820 cycles: 96318675 heartbeat IPC: 1.343 cumulative IPC: 1.362 (Simulation time: 00 hr 17 min 34 sec)
Heartbeat CPU 0 instructions: 166000821 cycles: 96687877 heartbeat IPC: 1.354 cumulative IPC: 1.362 (Simulation time: 00 hr 17 min 38 sec)
Heartbeat CPU 0 instructions: 166500826 cycles: 97058160 heartbeat IPC: 1.35 cumulative IPC: 1.362 (Simulation time: 00 hr 17 min 41 sec)
Heartbeat CPU 0 instructions: 167000827 cycles: 97431598 heartbeat IPC: 1.339 cumulative IPC: 1.362 (Simulation time: 00 hr 17 min 45 sec)
Heartbeat CPU 0 instructions: 167500827 cycles: 97811257 heartbeat IPC: 1.317 cumulative IPC: 1.361 (Simulation time: 00 hr 17 min 48 sec)
Heartbeat CPU 0 instructions: 168000828 cycles: 98186982 heartbeat IPC: 1.331 cumulative IPC: 1.361 (Simulation time: 00 hr 17 min 52 sec)
Heartbeat CPU 0 instructions: 168500829 cycles: 98549063 heartbeat IPC: 1.381 cumulative IPC: 1.361 (Simulation time: 00 hr 17 min 56 sec)
Heartbeat CPU 0 instructions: 169000830 cycles: 98925296 heartbeat IPC: 1.329 cumulative IPC: 1.361 (Simulation time: 00 hr 17 min 59 sec)
Heartbeat CPU 0 instructions: 169500837 cycles: 99302293 heartbeat IPC: 1.326 cumulative IPC: 1.361 (Simulation time: 00 hr 18 min 03 sec)
Heartbeat CPU 0 instructions: 170000838 cycles: 99662386 heartbeat IPC: 1.389 cumulative IPC: 1.361 (Simulation time: 00 hr 18 min 06 sec)
Heartbeat CPU 0 instructions: 170500844 cycles: 100027236 heartbeat IPC: 1.37 cumulative IPC: 1.361 (Simulation time: 00 hr 18 min 10 sec)
Heartbeat CPU 0 instructions: 171000850 cycles: 100392351 heartbeat IPC: 1.369 cumulative IPC: 1.361 (Simulation time: 00 hr 18 min 13 sec)
Heartbeat CPU 0 instructions: 171500853 cycles: 100753845 heartbeat IPC: 1.383 cumulative IPC: 1.361 (Simulation time: 00 hr 18 min 17 sec)
Heartbeat CPU 0 instructions: 172000853 cycles: 101121426 heartbeat IPC: 1.36 cumulative IPC: 1.361 (Simulation time: 00 hr 18 min 20 sec)
Heartbeat CPU 0 instructions: 172500853 cycles: 101483864 heartbeat IPC: 1.38 cumulative IPC: 1.361 (Simulation time: 00 hr 18 min 24 sec)
Heartbeat CPU 0 instructions: 173000857 cycles: 101860251 heartbeat IPC: 1.328 cumulative IPC: 1.361 (Simulation time: 00 hr 18 min 27 sec)
Heartbeat CPU 0 instructions: 173500861 cycles: 102236141 heartbeat IPC: 1.33 cumulative IPC: 1.361 (Simulation time: 00 hr 18 min 31 sec)
Heartbeat CPU 0 instructions: 174000861 cycles: 102603373 heartbeat IPC: 1.362 cumulative IPC: 1.361 (Simulation time: 00 hr 18 min 34 sec)
Heartbeat CPU 0 instructions: 174500864 cycles: 102977461 heartbeat IPC: 1.337 cumulative IPC: 1.361 (Simulation time: 00 hr 18 min 38 sec)
Heartbeat CPU 0 instructions: 175000864 cycles: 103346142 heartbeat IPC: 1.356 cumulative IPC: 1.361 (Simulation time: 00 hr 18 min 42 sec)
Heartbeat CPU 0 instructions: 175500866 cycles: 103719116 heartbeat IPC: 1.341 cumulative IPC: 1.361 (Simulation time: 00 hr 18 min 45 sec)
Heartbeat CPU 0 instructions: 176000866 cycles: 104089612 heartbeat IPC: 1.35 cumulative IPC: 1.361 (Simulation time: 00 hr 18 min 49 sec)
Heartbeat CPU 0 instructions: 176500866 cycles: 104458739 heartbeat IPC: 1.355 cumulative IPC: 1.361 (Simulation time: 00 hr 18 min 52 sec)
Heartbeat CPU 0 instructions: 177000868 cycles: 104826622 heartbeat IPC: 1.359 cumulative IPC: 1.361 (Simulation time: 00 hr 18 min 56 sec)
Heartbeat CPU 0 instructions: 177500868 cycles: 105191034 heartbeat IPC: 1.372 cumulative IPC: 1.361 (Simulation time: 00 hr 18 min 59 sec)
Heartbeat CPU 0 instructions: 178000875 cycles: 105554158 heartbeat IPC: 1.377 cumulative IPC: 1.361 (Simulation time: 00 hr 19 min 03 sec)
Heartbeat CPU 0 instructions: 178500875 cycles: 105915448 heartbeat IPC: 1.384 cumulative IPC: 1.361 (Simulation time: 00 hr 19 min 06 sec)
Heartbeat CPU 0 instructions: 179000876 cycles: 106274881 heartbeat IPC: 1.391 cumulative IPC: 1.361 (Simulation time: 00 hr 19 min 09 sec)
Heartbeat CPU 0 instructions: 179500883 cycles: 106634748 heartbeat IPC: 1.389 cumulative IPC: 1.361 (Simulation time: 00 hr 19 min 13 sec)
Heartbeat CPU 0 instructions: 180000885 cycles: 107008129 heartbeat IPC: 1.339 cumulative IPC: 1.361 (Simulation time: 00 hr 19 min 16 sec)
Heartbeat CPU 0 instructions: 180500886 cycles: 107381442 heartbeat IPC: 1.339 cumulative IPC: 1.361 (Simulation time: 00 hr 19 min 20 sec)
Heartbeat CPU 0 instructions: 181000887 cycles: 107749804 heartbeat IPC: 1.357 cumulative IPC: 1.361 (Simulation time: 00 hr 19 min 23 sec)
Heartbeat CPU 0 instructions: 181500892 cycles: 108118941 heartbeat IPC: 1.355 cumulative IPC: 1.361 (Simulation time: 00 hr 19 min 27 sec)
Heartbeat CPU 0 instructions: 182000893 cycles: 108484330 heartbeat IPC: 1.368 cumulative IPC: 1.361 (Simulation time: 00 hr 19 min 30 sec)
Heartbeat CPU 0 instructions: 182500896 cycles: 108842228 heartbeat IPC: 1.397 cumulative IPC: 1.361 (Simulation time: 00 hr 19 min 34 sec)
Heartbeat CPU 0 instructions: 183000902 cycles: 109206995 heartbeat IPC: 1.371 cumulative IPC: 1.361 (Simulation time: 00 hr 19 min 37 sec)
Heartbeat CPU 0 instructions: 183500902 cycles: 109572613 heartbeat IPC: 1.368 cumulative IPC: 1.361 (Simulation time: 00 hr 19 min 41 sec)
Heartbeat CPU 0 instructions: 184000903 cycles: 109932740 heartbeat IPC: 1.388 cumulative IPC: 1.361 (Simulation time: 00 hr 19 min 44 sec)
Heartbeat CPU 0 instructions: 184500903 cycles: 110295528 heartbeat IPC: 1.378 cumulative IPC: 1.361 (Simulation time: 00 hr 19 min 47 sec)
Heartbeat CPU 0 instructions: 185000905 cycles: 110658916 heartbeat IPC: 1.376 cumulative IPC: 1.362 (Simulation time: 00 hr 19 min 51 sec)
Heartbeat CPU 0 instructions: 185500907 cycles: 111025971 heartbeat IPC: 1.362 cumulative IPC: 1.362 (Simulation time: 00 hr 19 min 54 sec)
Heartbeat CPU 0 instructions: 186000911 cycles: 111394831 heartbeat IPC: 1.356 cumulative IPC: 1.362 (Simulation time: 00 hr 19 min 58 sec)
Heartbeat CPU 0 instructions: 186500915 cycles: 111770391 heartbeat IPC: 1.331 cumulative IPC: 1.361 (Simulation time: 00 hr 20 min 01 sec)
Heartbeat CPU 0 instructions: 187000915 cycles: 112140545 heartbeat IPC: 1.351 cumulative IPC: 1.361 (Simulation time: 00 hr 20 min 05 sec)
Heartbeat CPU 0 instructions: 187500917 cycles: 112507780 heartbeat IPC: 1.362 cumulative IPC: 1.361 (Simulation time: 00 hr 20 min 08 sec)
Heartbeat CPU 0 instructions: 188000921 cycles: 112877868 heartbeat IPC: 1.351 cumulative IPC: 1.361 (Simulation time: 00 hr 20 min 12 sec)
Heartbeat CPU 0 instructions: 188500922 cycles: 113266924 heartbeat IPC: 1.285 cumulative IPC: 1.361 (Simulation time: 00 hr 20 min 15 sec)
Heartbeat CPU 0 instructions: 189000923 cycles: 113738096 heartbeat IPC: 1.061 cumulative IPC: 1.36 (Simulation time: 00 hr 20 min 19 sec)
Heartbeat CPU 0 instructions: 189500925 cycles: 114099118 heartbeat IPC: 1.385 cumulative IPC: 1.36 (Simulation time: 00 hr 20 min 23 sec)
Heartbeat CPU 0 instructions: 190000932 cycles: 114470793 heartbeat IPC: 1.345 cumulative IPC: 1.36 (Simulation time: 00 hr 20 min 26 sec)
Heartbeat CPU 0 instructions: 190500936 cycles: 114832139 heartbeat IPC: 1.384 cumulative IPC: 1.36 (Simulation time: 00 hr 20 min 30 sec)
Heartbeat CPU 0 instructions: 191000939 cycles: 115201014 heartbeat IPC: 1.355 cumulative IPC: 1.36 (Simulation time: 00 hr 20 min 33 sec)
Heartbeat CPU 0 instructions: 191500940 cycles: 115557800 heartbeat IPC: 1.401 cumulative IPC: 1.36 (Simulation time: 00 hr 20 min 36 sec)
Heartbeat CPU 0 instructions: 192000941 cycles: 115921646 heartbeat IPC: 1.374 cumulative IPC: 1.36 (Simulation time: 00 hr 20 min 40 sec)
Heartbeat CPU 0 instructions: 192500942 cycles: 116279739 heartbeat IPC: 1.396 cumulative IPC: 1.36 (Simulation time: 00 hr 20 min 43 sec)
Heartbeat CPU 0 instructions: 193000946 cycles: 116640416 heartbeat IPC: 1.386 cumulative IPC: 1.36 (Simulation time: 00 hr 20 min 46 sec)
Heartbeat CPU 0 instructions: 193500947 cycles: 117003664 heartbeat IPC: 1.376 cumulative IPC: 1.36 (Simulation time: 00 hr 20 min 50 sec)
Heartbeat CPU 0 instructions: 194000949 cycles: 117377799 heartbeat IPC: 1.336 cumulative IPC: 1.36 (Simulation time: 00 hr 20 min 53 sec)
Heartbeat CPU 0 instructions: 194500949 cycles: 117741792 heartbeat IPC: 1.374 cumulative IPC: 1.36 (Simulation time: 00 hr 20 min 56 sec)
Heartbeat CPU 0 instructions: 195000949 cycles: 118105138 heartbeat IPC: 1.376 cumulative IPC: 1.36 (Simulation time: 00 hr 21 min 00 sec)
Heartbeat CPU 0 instructions: 195500953 cycles: 118472052 heartbeat IPC: 1.363 cumulative IPC: 1.36 (Simulation time: 00 hr 21 min 03 sec)
Heartbeat CPU 0 instructions: 196000954 cycles: 118831041 heartbeat IPC: 1.393 cumulative IPC: 1.36 (Simulation time: 00 hr 21 min 06 sec)
Heartbeat CPU 0 instructions: 196500954 cycles: 119191475 heartbeat IPC: 1.387 cumulative IPC: 1.36 (Simulation time: 00 hr 21 min 10 sec)
Heartbeat CPU 0 instructions: 197000954 cycles: 119554493 heartbeat IPC: 1.377 cumulative IPC: 1.36 (Simulation time: 00 hr 21 min 13 sec)
Heartbeat CPU 0 instructions: 197500955 cycles: 119926825 heartbeat IPC: 1.343 cumulative IPC: 1.36 (Simulation time: 00 hr 21 min 16 sec)
Heartbeat CPU 0 instructions: 198000956 cycles: 120297389 heartbeat IPC: 1.349 cumulative IPC: 1.36 (Simulation time: 00 hr 21 min 20 sec)
Heartbeat CPU 0 instructions: 198500960 cycles: 120666928 heartbeat IPC: 1.353 cumulative IPC: 1.36 (Simulation time: 00 hr 21 min 23 sec)
Heartbeat CPU 0 instructions: 199000961 cycles: 121034732 heartbeat IPC: 1.359 cumulative IPC: 1.36 (Simulation time: 00 hr 21 min 27 sec)
Heartbeat CPU 0 instructions: 199500963 cycles: 121392727 heartbeat IPC: 1.397 cumulative IPC: 1.36 (Simulation time: 00 hr 21 min 30 sec)
Heartbeat CPU 0 instructions: 200000966 cycles: 121749231 heartbeat IPC: 1.403 cumulative IPC: 1.361 (Simulation time: 00 hr 21 min 33 sec)
Heartbeat CPU 0 instructions: 200500966 cycles: 122109537 heartbeat IPC: 1.388 cumulative IPC: 1.361 (Simulation time: 00 hr 21 min 37 sec)
Heartbeat CPU 0 instructions: 201000967 cycles: 122480119 heartbeat IPC: 1.349 cumulative IPC: 1.361 (Simulation time: 00 hr 21 min 40 sec)
Heartbeat CPU 0 instructions: 201500969 cycles: 122854488 heartbeat IPC: 1.336 cumulative IPC: 1.361 (Simulation time: 00 hr 21 min 44 sec)
Heartbeat CPU 0 instructions: 202000971 cycles: 123221260 heartbeat IPC: 1.363 cumulative IPC: 1.361 (Simulation time: 00 hr 21 min 47 sec)
Heartbeat CPU 0 instructions: 202500971 cycles: 123604674 heartbeat IPC: 1.304 cumulative IPC: 1.36 (Simulation time: 00 hr 21 min 50 sec)
Heartbeat CPU 0 instructions: 203000974 cycles: 123969908 heartbeat IPC: 1.369 cumulative IPC: 1.36 (Simulation time: 00 hr 21 min 54 sec)
Heartbeat CPU 0 instructions: 203500976 cycles: 124329365 heartbeat IPC: 1.391 cumulative IPC: 1.361 (Simulation time: 00 hr 21 min 57 sec)
Heartbeat CPU 0 instructions: 204000977 cycles: 124693428 heartbeat IPC: 1.373 cumulative IPC: 1.361 (Simulation time: 00 hr 22 min 00 sec)
Heartbeat CPU 0 instructions: 204500979 cycles: 125062339 heartbeat IPC: 1.355 cumulative IPC: 1.361 (Simulation time: 00 hr 22 min 04 sec)
Heartbeat CPU 0 instructions: 205000979 cycles: 125426581 heartbeat IPC: 1.373 cumulative IPC: 1.361 (Simulation time: 00 hr 22 min 07 sec)
Heartbeat CPU 0 instructions: 205500979 cycles: 125786202 heartbeat IPC: 1.39 cumulative IPC: 1.361 (Simulation time: 00 hr 22 min 10 sec)
Heartbeat CPU 0 instructions: 206000980 cycles: 126159046 heartbeat IPC: 1.341 cumulative IPC: 1.361 (Simulation time: 00 hr 22 min 14 sec)
Heartbeat CPU 0 instructions: 206500982 cycles: 126541177 heartbeat IPC: 1.308 cumulative IPC: 1.36 (Simulation time: 00 hr 22 min 17 sec)
Heartbeat CPU 0 instructions: 207000983 cycles: 126913369 heartbeat IPC: 1.343 cumulative IPC: 1.36 (Simulation time: 00 hr 22 min 21 sec)
Heartbeat CPU 0 instructions: 207500988 cycles: 127282785 heartbeat IPC: 1.354 cumulative IPC: 1.36 (Simulation time: 00 hr 22 min 24 sec)
Heartbeat CPU 0 instructions: 208000990 cycles: 127643772 heartbeat IPC: 1.385 cumulative IPC: 1.36 (Simulation time: 00 hr 22 min 28 sec)
Heartbeat CPU 0 instructions: 208500990 cycles: 128007730 heartbeat IPC: 1.374 cumulative IPC: 1.36 (Simulation time: 00 hr 22 min 31 sec)
Heartbeat CPU 0 instructions: 209000992 cycles: 128380710 heartbeat IPC: 1.341 cumulative IPC: 1.36 (Simulation time: 00 hr 22 min 34 sec)
Heartbeat CPU 0 instructions: 209500996 cycles: 128748422 heartbeat IPC: 1.36 cumulative IPC: 1.36 (Simulation time: 00 hr 22 min 38 sec)
Heartbeat CPU 0 instructions: 210000997 cycles: 129116888 heartbeat IPC: 1.357 cumulative IPC: 1.36 (Simulation time: 00 hr 22 min 41 sec)
Heartbeat CPU 0 instructions: 210501000 cycles: 129481487 heartbeat IPC: 1.371 cumulative IPC: 1.36 (Simulation time: 00 hr 22 min 44 sec)
Heartbeat CPU 0 instructions: 211001001 cycles: 129851880 heartbeat IPC: 1.35 cumulative IPC: 1.36 (Simulation time: 00 hr 22 min 48 sec)
Heartbeat CPU 0 instructions: 211501004 cycles: 130219344 heartbeat IPC: 1.361 cumulative IPC: 1.36 (Simulation time: 00 hr 22 min 51 sec)
Heartbeat CPU 0 instructions: 212001005 cycles: 130592383 heartbeat IPC: 1.34 cumulative IPC: 1.36 (Simulation time: 00 hr 22 min 54 sec)
Heartbeat CPU 0 instructions: 212501006 cycles: 130961688 heartbeat IPC: 1.354 cumulative IPC: 1.36 (Simulation time: 00 hr 22 min 58 sec)
Heartbeat CPU 0 instructions: 213001006 cycles: 131337615 heartbeat IPC: 1.33 cumulative IPC: 1.36 (Simulation time: 00 hr 23 min 01 sec)
Heartbeat CPU 0 instructions: 213501007 cycles: 131703567 heartbeat IPC: 1.366 cumulative IPC: 1.36 (Simulation time: 00 hr 23 min 04 sec)
Heartbeat CPU 0 instructions: 214001007 cycles: 132064776 heartbeat IPC: 1.384 cumulative IPC: 1.36 (Simulation time: 00 hr 23 min 08 sec)
Heartbeat CPU 0 instructions: 214501007 cycles: 132432291 heartbeat IPC: 1.36 cumulative IPC: 1.36 (Simulation time: 00 hr 23 min 11 sec)
Heartbeat CPU 0 instructions: 215001008 cycles: 132809962 heartbeat IPC: 1.324 cumulative IPC: 1.36 (Simulation time: 00 hr 23 min 14 sec)
Heartbeat CPU 0 instructions: 215501008 cycles: 133182847 heartbeat IPC: 1.341 cumulative IPC: 1.36 (Simulation time: 00 hr 23 min 18 sec)
Heartbeat CPU 0 instructions: 216001008 cycles: 133603009 heartbeat IPC: 1.19 cumulative IPC: 1.36 (Simulation time: 00 hr 23 min 21 sec)
Heartbeat CPU 0 instructions: 216501008 cycles: 133966156 heartbeat IPC: 1.377 cumulative IPC: 1.36 (Simulation time: 00 hr 23 min 25 sec)
Heartbeat CPU 0 instructions: 217001009 cycles: 134336688 heartbeat IPC: 1.349 cumulative IPC: 1.36 (Simulation time: 00 hr 23 min 28 sec)
Heartbeat CPU 0 instructions: 217501010 cycles: 134710628 heartbeat IPC: 1.337 cumulative IPC: 1.36 (Simulation time: 00 hr 23 min 31 sec)
Heartbeat CPU 0 instructions: 218001014 cycles: 135082021 heartbeat IPC: 1.346 cumulative IPC: 1.359 (Simulation time: 00 hr 23 min 35 sec)
Heartbeat CPU 0 instructions: 218501018 cycles: 135451843 heartbeat IPC: 1.352 cumulative IPC: 1.359 (Simulation time: 00 hr 23 min 38 sec)
Heartbeat CPU 0 instructions: 219001022 cycles: 135826701 heartbeat IPC: 1.334 cumulative IPC: 1.359 (Simulation time: 00 hr 23 min 42 sec)
Heartbeat CPU 0 instructions: 219501022 cycles: 136190487 heartbeat IPC: 1.374 cumulative IPC: 1.359 (Simulation time: 00 hr 23 min 45 sec)
Heartbeat CPU 0 instructions: 220001023 cycles: 136567511 heartbeat IPC: 1.326 cumulative IPC: 1.359 (Simulation time: 00 hr 23 min 48 sec)
Heartbeat CPU 0 instructions: 220501028 cycles: 136938201 heartbeat IPC: 1.349 cumulative IPC: 1.359 (Simulation time: 00 hr 23 min 51 sec)
Heartbeat CPU 0 instructions: 221001031 cycles: 137302724 heartbeat IPC: 1.372 cumulative IPC: 1.359 (Simulation time: 00 hr 23 min 55 sec)
Heartbeat CPU 0 instructions: 221501032 cycles: 137679004 heartbeat IPC: 1.329 cumulative IPC: 1.359 (Simulation time: 00 hr 23 min 58 sec)
Heartbeat CPU 0 instructions: 222001033 cycles: 138053676 heartbeat IPC: 1.335 cumulative IPC: 1.359 (Simulation time: 00 hr 24 min 01 sec)
Heartbeat CPU 0 instructions: 222501035 cycles: 138433327 heartbeat IPC: 1.317 cumulative IPC: 1.359 (Simulation time: 00 hr 24 min 05 sec)
Heartbeat CPU 0 instructions: 223001035 cycles: 138798850 heartbeat IPC: 1.368 cumulative IPC: 1.359 (Simulation time: 00 hr 24 min 08 sec)
Heartbeat CPU 0 instructions: 223501036 cycles: 139167524 heartbeat IPC: 1.356 cumulative IPC: 1.359 (Simulation time: 00 hr 24 min 11 sec)
Heartbeat CPU 0 instructions: 224001037 cycles: 139538320 heartbeat IPC: 1.348 cumulative IPC: 1.359 (Simulation time: 00 hr 24 min 15 sec)
Heartbeat CPU 0 instructions: 224501044 cycles: 139899580 heartbeat IPC: 1.384 cumulative IPC: 1.359 (Simulation time: 00 hr 24 min 18 sec)
Heartbeat CPU 0 instructions: 225001049 cycles: 140262103 heartbeat IPC: 1.379 cumulative IPC: 1.359 (Simulation time: 00 hr 24 min 21 sec)
Heartbeat CPU 0 instructions: 225501050 cycles: 140627030 heartbeat IPC: 1.37 cumulative IPC: 1.359 (Simulation time: 00 hr 24 min 24 sec)
Heartbeat CPU 0 instructions: 226001052 cycles: 140994546 heartbeat IPC: 1.36 cumulative IPC: 1.359 (Simulation time: 00 hr 24 min 27 sec)
Heartbeat CPU 0 instructions: 226501054 cycles: 141362372 heartbeat IPC: 1.359 cumulative IPC: 1.359 (Simulation time: 00 hr 24 min 31 sec)
Heartbeat CPU 0 instructions: 227001054 cycles: 141730407 heartbeat IPC: 1.359 cumulative IPC: 1.359 (Simulation time: 00 hr 24 min 34 sec)
Heartbeat CPU 0 instructions: 227501059 cycles: 142098818 heartbeat IPC: 1.357 cumulative IPC: 1.359 (Simulation time: 00 hr 24 min 37 sec)
Heartbeat CPU 0 instructions: 228001062 cycles: 142458036 heartbeat IPC: 1.392 cumulative IPC: 1.359 (Simulation time: 00 hr 24 min 40 sec)
Heartbeat CPU 0 instructions: 228501063 cycles: 142826961 heartbeat IPC: 1.355 cumulative IPC: 1.359 (Simulation time: 00 hr 24 min 44 sec)
Heartbeat CPU 0 instructions: 229001063 cycles: 143192804 heartbeat IPC: 1.367 cumulative IPC: 1.359 (Simulation time: 00 hr 24 min 47 sec)
Heartbeat CPU 0 instructions: 229501063 cycles: 143562860 heartbeat IPC: 1.351 cumulative IPC: 1.359 (Simulation time: 00 hr 24 min 50 sec)
Heartbeat CPU 0 instructions: 230001063 cycles: 143928263 heartbeat IPC: 1.368 cumulative IPC: 1.359 (Simulation time: 00 hr 24 min 54 sec)
Heartbeat CPU 0 instructions: 230501069 cycles: 144286729 heartbeat IPC: 1.395 cumulative IPC: 1.359 (Simulation time: 00 hr 24 min 57 sec)
Heartbeat CPU 0 instructions: 231001073 cycles: 144642373 heartbeat IPC: 1.406 cumulative IPC: 1.36 (Simulation time: 00 hr 25 min 00 sec)
Heartbeat CPU 0 instructions: 231501073 cycles: 145003773 heartbeat IPC: 1.384 cumulative IPC: 1.36 (Simulation time: 00 hr 25 min 03 sec)
Heartbeat CPU 0 instructions: 232001073 cycles: 145370889 heartbeat IPC: 1.362 cumulative IPC: 1.36 (Simulation time: 00 hr 25 min 06 sec)
Heartbeat CPU 0 instructions: 232501079 cycles: 145798271 heartbeat IPC: 1.17 cumulative IPC: 1.359 (Simulation time: 00 hr 25 min 10 sec)
Heartbeat CPU 0 instructions: 233001082 cycles: 146166093 heartbeat IPC: 1.359 cumulative IPC: 1.359 (Simulation time: 00 hr 25 min 13 sec)
Heartbeat CPU 0 instructions: 233501084 cycles: 146535666 heartbeat IPC: 1.353 cumulative IPC: 1.359 (Simulation time: 00 hr 25 min 17 sec)
Heartbeat CPU 0 instructions: 234001087 cycles: 146889237 heartbeat IPC: 1.414 cumulative IPC: 1.359 (Simulation time: 00 hr 25 min 20 sec)
Heartbeat CPU 0 instructions: 234501087 cycles: 147246540 heartbeat IPC: 1.399 cumulative IPC: 1.359 (Simulation time: 00 hr 25 min 23 sec)
Heartbeat CPU 0 instructions: 235001090 cycles: 147606896 heartbeat IPC: 1.388 cumulative IPC: 1.359 (Simulation time: 00 hr 25 min 26 sec)
Heartbeat CPU 0 instructions: 235501091 cycles: 147969289 heartbeat IPC: 1.38 cumulative IPC: 1.359 (Simulation time: 00 hr 25 min 29 sec)
Heartbeat CPU 0 instructions: 236001093 cycles: 148332475 heartbeat IPC: 1.377 cumulative IPC: 1.359 (Simulation time: 00 hr 25 min 32 sec)
Heartbeat CPU 0 instructions: 236501099 cycles: 148695774 heartbeat IPC: 1.376 cumulative IPC: 1.359 (Simulation time: 00 hr 25 min 36 sec)
Heartbeat CPU 0 instructions: 237001099 cycles: 149053257 heartbeat IPC: 1.399 cumulative IPC: 1.36 (Simulation time: 00 hr 25 min 39 sec)
Heartbeat CPU 0 instructions: 237501102 cycles: 149422912 heartbeat IPC: 1.353 cumulative IPC: 1.36 (Simulation time: 00 hr 25 min 42 sec)
Heartbeat CPU 0 instructions: 238001106 cycles: 149797765 heartbeat IPC: 1.334 cumulative IPC: 1.359 (Simulation time: 00 hr 25 min 45 sec)
Heartbeat CPU 0 instructions: 238501107 cycles: 150163452 heartbeat IPC: 1.367 cumulative IPC: 1.359 (Simulation time: 00 hr 25 min 49 sec)
Heartbeat CPU 0 instructions: 239001108 cycles: 150529158 heartbeat IPC: 1.367 cumulative IPC: 1.359 (Simulation time: 00 hr 25 min 52 sec)
Heartbeat CPU 0 instructions: 239501113 cycles: 150902120 heartbeat IPC: 1.341 cumulative IPC: 1.359 (Simulation time: 00 hr 25 min 55 sec)
Heartbeat CPU 0 instructions: 240001120 cycles: 151263504 heartbeat IPC: 1.384 cumulative IPC: 1.359 (Simulation time: 00 hr 25 min 58 sec)
Heartbeat CPU 0 instructions: 240501121 cycles: 151622022 heartbeat IPC: 1.395 cumulative IPC: 1.36 (Simulation time: 00 hr 26 min 01 sec)
Heartbeat CPU 0 instructions: 241001121 cycles: 151981454 heartbeat IPC: 1.391 cumulative IPC: 1.36 (Simulation time: 00 hr 26 min 04 sec)
Heartbeat CPU 0 instructions: 241501123 cycles: 152346863 heartbeat IPC: 1.368 cumulative IPC: 1.36 (Simulation time: 00 hr 26 min 08 sec)
Heartbeat CPU 0 instructions: 242001124 cycles: 152750463 heartbeat IPC: 1.239 cumulative IPC: 1.359 (Simulation time: 00 hr 26 min 11 sec)
Heartbeat CPU 0 instructions: 242501130 cycles: 153120510 heartbeat IPC: 1.351 cumulative IPC: 1.359 (Simulation time: 00 hr 26 min 14 sec)
Heartbeat CPU 0 instructions: 243001130 cycles: 153486906 heartbeat IPC: 1.365 cumulative IPC: 1.359 (Simulation time: 00 hr 26 min 18 sec)
Heartbeat CPU 0 instructions: 243501134 cycles: 153845118 heartbeat IPC: 1.396 cumulative IPC: 1.359 (Simulation time: 00 hr 26 min 21 sec)
Heartbeat CPU 0 instructions: 244001139 cycles: 154215397 heartbeat IPC: 1.35 cumulative IPC: 1.359 (Simulation time: 00 hr 26 min 24 sec)
Heartbeat CPU 0 instructions: 244501144 cycles: 154576372 heartbeat IPC: 1.385 cumulative IPC: 1.359 (Simulation time: 00 hr 26 min 27 sec)
Heartbeat CPU 0 instructions: 245001147 cycles: 154944144 heartbeat IPC: 1.36 cumulative IPC: 1.359 (Simulation time: 00 hr 26 min 30 sec)
Heartbeat CPU 0 instructions: 245501154 cycles: 155342504 heartbeat IPC: 1.255 cumulative IPC: 1.359 (Simulation time: 00 hr 26 min 34 sec)
Heartbeat CPU 0 instructions: 246001156 cycles: 155709135 heartbeat IPC: 1.364 cumulative IPC: 1.359 (Simulation time: 00 hr 26 min 37 sec)
Heartbeat CPU 0 instructions: 246501160 cycles: 156089759 heartbeat IPC: 1.314 cumulative IPC: 1.359 (Simulation time: 00 hr 26 min 40 sec)
Heartbeat CPU 0 instructions: 247001160 cycles: 156460203 heartbeat IPC: 1.35 cumulative IPC: 1.359 (Simulation time: 00 hr 26 min 43 sec)
Heartbeat CPU 0 instructions: 247501160 cycles: 156829094 heartbeat IPC: 1.355 cumulative IPC: 1.359 (Simulation time: 00 hr 26 min 47 sec)
Heartbeat CPU 0 instructions: 248001160 cycles: 157203671 heartbeat IPC: 1.335 cumulative IPC: 1.359 (Simulation time: 00 hr 26 min 50 sec)
Heartbeat CPU 0 instructions: 248501161 cycles: 157566927 heartbeat IPC: 1.376 cumulative IPC: 1.359 (Simulation time: 00 hr 26 min 53 sec)
Heartbeat CPU 0 instructions: 249001165 cycles: 157933396 heartbeat IPC: 1.364 cumulative IPC: 1.359 (Simulation time: 00 hr 26 min 56 sec)
Heartbeat CPU 0 instructions: 249501165 cycles: 158300933 heartbeat IPC: 1.36 cumulative IPC: 1.359 (Simulation time: 00 hr 27 min 00 sec)
Simulation finished CPU 0 instructions: 200000000 cycles: 147161698 cumulative IPC: 1.359 (Simulation time: 00 hr 27 min 03 sec)
Simulation complete CPU 0 instructions: 200000000 cycles: 147161698 cumulative IPC: 1.359 (Simulation time: 00 hr 27 min 03 sec)

ChampSim completed all CPUs

=== Simulation ===
CPU 0 runs /local-ssd/ben/dpc4-traces/SPEC17/602.gcc_s-1850B.champsimtrace.xz

Region of Interest Statistics

CPU 0 cumulative IPC: 1.359 instructions: 200000000 cycles: 147161698
CPU 0 Branch Prediction Accuracy: 96.74% MPKI: 8.371 Average ROB Occupancy at Mispredict: 43.19
Branch type MPKI
BRANCH_DIRECT_JUMP: 0.009825
BRANCH_INDIRECT: 0
BRANCH_CONDITIONAL: 8.361
BRANCH_DIRECT_CALL: 0
BRANCH_INDIRECT_CALL: 0
BRANCH_RETURN: 0

cpu0->cpu0_STLB TOTAL        ACCESS:      66695 HIT:       5503 MISS:      61192 MSHR_MERGE:          0
cpu0->cpu0_STLB LOAD         ACCESS:      66695 HIT:       5503 MISS:      61192 MSHR_MERGE:          0
cpu0->cpu0_STLB RFO          ACCESS:          0 HIT:          0 MISS:          0 MSHR_MERGE:          0
cpu0->cpu0_STLB PREFETCH     ACCESS:          0 HIT:          0 MISS:          0 MSHR_MERGE:          0
cpu0->cpu0_STLB WRITE        ACCESS:          0 HIT:          0 MISS:          0 MSHR_MERGE:          0
cpu0->cpu0_STLB TRANSLATION  ACCESS:          0 HIT:          0 MISS:          0 MSHR_MERGE:          0
cpu0->cpu0_STLB PREFETCH REQUESTED:          0 ISSUED:          0 USEFUL:          0 USELESS:          0
cpu0->cpu0_STLB AVERAGE MISS LATENCY: 258.4 cycles
cpu0->cpu0_L2C TOTAL        ACCESS:   32387165 HIT:    4936573 MISS:   27450592 MSHR_MERGE:    1855378
cpu0->cpu0_L2C LOAD         ACCESS:     800376 HIT:     590170 MISS:     210206 MSHR_MERGE:      10373
cpu0->cpu0_L2C RFO          ACCESS:       1413 HIT:        471 MISS:        942 MSHR_MERGE:          2
cpu0->cpu0_L2C PREFETCH     ACCESS:   31563300 HIT:    4334390 MISS:   27228910 MSHR_MERGE:    1845003
cpu0->cpu0_L2C WRITE        ACCESS:       7469 HIT:       7451 MISS:         18 MSHR_MERGE:          0
cpu0->cpu0_L2C TRANSLATION  ACCESS:      14607 HIT:       4091 MISS:      10516 MSHR_MERGE:          0
cpu0->cpu0_L2C PREFETCH REQUESTED:   29658762 ISSUED:   27394148 USEFUL:     756990 USELESS:     274904
cpu0->cpu0_L2C AVERAGE MISS LATENCY: 107.2 cycles
cpu0->cpu0_L1I TOTAL        ACCESS:   11925601 HIT:   11925601 MISS:          0 MSHR_MERGE:          0
cpu0->cpu0_L1I LOAD         ACCESS:   11925601 HIT:   11925601 MISS:          0 MSHR_MERGE:          0
cpu0->cpu0_L1I RFO          ACCESS:          0 HIT:          0 MISS:          0 MSHR_MERGE:          0
cpu0->cpu0_L1I PREFETCH     ACCESS:          0 HIT:          0 MISS:          0 MSHR_MERGE:          0
cpu0->cpu0_L1I WRITE        ACCESS:          0 HIT:          0 MISS:          0 MSHR_MERGE:          0
cpu0->cpu0_L1I TRANSLATION  ACCESS:          0 HIT:          0 MISS:          0 MSHR_MERGE:          0
cpu0->cpu0_L1I PREFETCH REQUESTED:          0 ISSUED:          0 USEFUL:          0 USELESS:          0
cpu0->cpu0_L1I AVERAGE MISS LATENCY: - cycles
cpu0->cpu0_L1D TOTAL        ACCESS:   57078435 HIT:   50978015 MISS:    6100420 MSHR_MERGE:    1114878
cpu0->cpu0_L1D LOAD         ACCESS:   34689714 HIT:   32807801 MISS:    1881913 MSHR_MERGE:    1081537
cpu0->cpu0_L1D RFO          ACCESS:          0 HIT:          0 MISS:          0 MSHR_MERGE:          0
cpu0->cpu0_L1D PREFETCH     ACCESS:    5002549 HIT:     800105 MISS:    4202444 MSHR_MERGE:      33298
cpu0->cpu0_L1D WRITE        ACCESS:   17263190 HIT:   17261756 MISS:       1434 MSHR_MERGE:         21
cpu0->cpu0_L1D TRANSLATION  ACCESS:     122982 HIT:     108353 MISS:      14629 MSHR_MERGE:         22
cpu0->cpu0_L1D PREFETCH REQUESTED:    5002571 ISSUED:    5002541 USEFUL:    4054355 USELESS:     114773
cpu0->cpu0_L1D AVERAGE MISS LATENCY: 31.2 cycles
cpu0->cpu0_ITLB TOTAL        ACCESS:   10702299 HIT:   10702299 MISS:          0 MSHR_MERGE:          0
cpu0->cpu0_ITLB LOAD         ACCESS:   10702299 HIT:   10702299 MISS:          0 MSHR_MERGE:          0
cpu0->cpu0_ITLB RFO          ACCESS:          0 HIT:          0 MISS:          0 MSHR_MERGE:          0
cpu0->cpu0_ITLB PREFETCH     ACCESS:          0 HIT:          0 MISS:          0 MSHR_MERGE:          0
cpu0->cpu0_ITLB WRITE        ACCESS:          0 HIT:          0 MISS:          0 MSHR_MERGE:          0
cpu0->cpu0_ITLB TRANSLATION  ACCESS:          0 HIT:          0 MISS:          0 MSHR_MERGE:          0
cpu0->cpu0_ITLB PREFETCH REQUESTED:          0 ISSUED:          0 USEFUL:          0 USELESS:          0
cpu0->cpu0_ITLB AVERAGE MISS LATENCY: - cycles
cpu0->cpu0_DTLB TOTAL        ACCESS:   53460378 HIT:   53316865 MISS:     143513 MSHR_MERGE:      76818
cpu0->cpu0_DTLB LOAD         ACCESS:   53460378 HIT:   53316865 MISS:     143513 MSHR_MERGE:      76818
cpu0->cpu0_DTLB RFO          ACCESS:          0 HIT:          0 MISS:          0 MSHR_MERGE:          0
cpu0->cpu0_DTLB PREFETCH     ACCESS:          0 HIT:          0 MISS:          0 MSHR_MERGE:          0
cpu0->cpu0_DTLB WRITE        ACCESS:          0 HIT:          0 MISS:          0 MSHR_MERGE:          0
cpu0->cpu0_DTLB TRANSLATION  ACCESS:          0 HIT:          0 MISS:          0 MSHR_MERGE:          0
cpu0->cpu0_DTLB PREFETCH REQUESTED:          0 ISSUED:          0 USEFUL:          0 USELESS:          0
cpu0->cpu0_DTLB AVERAGE MISS LATENCY: 243 cycles
cpu0->LLC TOTAL        ACCESS:   29078710 HIT:   22581829 MISS:    6496881 MSHR_MERGE:    2782489
cpu0->LLC LOAD         ACCESS:     199833 HIT:     133147 MISS:      66686 MSHR_MERGE:       1542
cpu0->LLC RFO          ACCESS:        940 HIT:        775 MISS:        165 MSHR_MERGE:         30
cpu0->LLC PREFETCH     ACCESS:   28862501 HIT:   22444297 MISS:    6418204 MSHR_MERGE:    2780917
cpu0->LLC WRITE        ACCESS:       4920 HIT:       3607 MISS:       1313 MSHR_MERGE:          0
cpu0->LLC TRANSLATION  ACCESS:      10516 HIT:          3 MISS:      10513 MSHR_MERGE:          0
cpu0->LLC PREFETCH REQUESTED:    3497754 ISSUED:    3494961 USEFUL:    2880525 USELESS:     131075
cpu0->LLC AVERAGE MISS LATENCY: 240.6 cycles

DRAM Statistics

Channel 0 RQ ROW_BUFFER_HIT:    1519764
  ROW_BUFFER_MISS:    2193285
  AVG DBUS CONGESTED CYCLE: 4.01
Channel 0 WQ ROW_BUFFER_HIT:        141
  ROW_BUFFER_MISS:       4705
  FULL:          0
Channel 0 REFRESHES ISSUED:      12263
