[VMEM] WARNING: physical memory size is smaller than virtual memory size.

*** ChampSim Multicore Out-of-Order Simulator ***
Warmup Instructions: 50000000
Simulation Instructions: 200000000
Number of CPUs: 1
Page size: 4096
Core 0: /local-ssd/ben/dpc4-traces/ai-ml/stable-diffusion.cpp-sd-v1-4.ckpt.1.champsimtrace.gz
sBerti (Smart Stride + Berti) Prefetcher Initialized
Off-chip DRAM Size: 64 GiB Channels: 1 Width: 64-bit Data Rate: 4807 MT/s
Heartbeat CPU 0 instructions: 500006 cycles: 218636 heartbeat IPC: 2.287 cumulative IPC: 2.287 (Simulation time: 00 hr 00 min 05 sec)
Heartbeat CPU 0 instructions: 1000006 cycles: 396112 heartbeat IPC: 2.817 cumulative IPC: 2.525 (Simulation time: 00 hr 00 min 09 sec)
Heartbeat CPU 0 instructions: 1500006 cycles: 609306 heartbeat IPC: 2.345 cumulative IPC: 2.462 (Simulation time: 00 hr 00 min 14 sec)
Heartbeat CPU 0 instructions: 2000006 cycles: 768706 heartbeat IPC: 3.137 cumulative IPC: 2.602 (Simulation time: 00 hr 00 min 18 sec)
Heartbeat CPU 0 instructions: 2500013 cycles: 928073 heartbeat IPC: 3.137 cumulative IPC: 2.694 (Simulation time: 00 hr 00 min 22 sec)
Heartbeat CPU 0 instructions: 3000013 cycles: 1129262 heartbeat IPC: 2.485 cumulative IPC: 2.657 (Simulation time: 00 hr 00 min 26 sec)
Heartbeat CPU 0 instructions: 3500013 cycles: 1288700 heartbeat IPC: 3.136 cumulative IPC: 2.716 (Simulation time: 00 hr 00 min 30 sec)
Heartbeat CPU 0 instructions: 4000013 cycles: 1448081 heartbeat IPC: 3.137 cumulative IPC: 2.762 (Simulation time: 00 hr 00 min 34 sec)
Heartbeat CPU 0 instructions: 4500013 cycles: 1648870 heartbeat IPC: 2.49 cumulative IPC: 2.729 (Simulation time: 00 hr 00 min 38 sec)
Heartbeat CPU 0 instructions: 5000013 cycles: 1808241 heartbeat IPC: 3.137 cumulative IPC: 2.765 (Simulation time: 00 hr 00 min 42 sec)
Heartbeat CPU 0 instructions: 5500013 cycles: 1967449 heartbeat IPC: 3.141 cumulative IPC: 2.796 (Simulation time: 00 hr 00 min 46 sec)
Heartbeat CPU 0 instructions: 6000017 cycles: 2169961 heartbeat IPC: 2.469 cumulative IPC: 2.765 (Simulation time: 00 hr 00 min 50 sec)
Heartbeat CPU 0 instructions: 6500021 cycles: 2329055 heartbeat IPC: 3.143 cumulative IPC: 2.791 (Simulation time: 00 hr 00 min 54 sec)
Heartbeat CPU 0 instructions: 7000027 cycles: 2488288 heartbeat IPC: 3.14 cumulative IPC: 2.813 (Simulation time: 00 hr 00 min 58 sec)
Heartbeat CPU 0 instructions: 7500028 cycles: 2690543 heartbeat IPC: 2.472 cumulative IPC: 2.788 (Simulation time: 00 hr 01 min 02 sec)
Heartbeat CPU 0 instructions: 8000028 cycles: 2849959 heartbeat IPC: 3.136 cumulative IPC: 2.807 (Simulation time: 00 hr 01 min 06 sec)
Heartbeat CPU 0 instructions: 8500030 cycles: 3009400 heartbeat IPC: 3.136 cumulative IPC: 2.824 (Simulation time: 00 hr 01 min 10 sec)
Heartbeat CPU 0 instructions: 9000032 cycles: 3211643 heartbeat IPC: 2.472 cumulative IPC: 2.802 (Simulation time: 00 hr 01 min 15 sec)
Heartbeat CPU 0 instructions: 9500036 cycles: 3371173 heartbeat IPC: 3.134 cumulative IPC: 2.818 (Simulation time: 00 hr 01 min 18 sec)
Heartbeat CPU 0 instructions: 10000038 cycles: 3530515 heartbeat IPC: 3.138 cumulative IPC: 2.832 (Simulation time: 00 hr 01 min 22 sec)
Heartbeat CPU 0 instructions: 10500043 cycles: 3733187 heartbeat IPC: 2.467 cumulative IPC: 2.813 (Simulation time: 00 hr 01 min 27 sec)
Heartbeat CPU 0 instructions: 11000050 cycles: 3892639 heartbeat IPC: 3.136 cumulative IPC: 2.826 (Simulation time: 00 hr 01 min 30 sec)
Heartbeat CPU 0 instructions: 11500054 cycles: 4051960 heartbeat IPC: 3.138 cumulative IPC: 2.838 (Simulation time: 00 hr 01 min 34 sec)
Heartbeat CPU 0 instructions: 12000060 cycles: 4253880 heartbeat IPC: 2.476 cumulative IPC: 2.821 (Simulation time: 00 hr 01 min 39 sec)
Heartbeat CPU 0 instructions: 12500066 cycles: 4413211 heartbeat IPC: 3.138 cumulative IPC: 2.832 (Simulation time: 00 hr 01 min 43 sec)
Heartbeat CPU 0 instructions: 13000069 cycles: 4572584 heartbeat IPC: 3.137 cumulative IPC: 2.843 (Simulation time: 00 hr 01 min 47 sec)
Heartbeat CPU 0 instructions: 13500071 cycles: 4774924 heartbeat IPC: 2.471 cumulative IPC: 2.827 (Simulation time: 00 hr 01 min 51 sec)
Heartbeat CPU 0 instructions: 14000073 cycles: 4934576 heartbeat IPC: 3.132 cumulative IPC: 2.837 (Simulation time: 00 hr 01 min 55 sec)
Heartbeat CPU 0 instructions: 14500073 cycles: 5094139 heartbeat IPC: 3.134 cumulative IPC: 2.846 (Simulation time: 00 hr 02 min 00 sec)
Heartbeat CPU 0 instructions: 15000075 cycles: 5296567 heartbeat IPC: 2.47 cumulative IPC: 2.832 (Simulation time: 00 hr 02 min 04 sec)
Heartbeat CPU 0 instructions: 15500081 cycles: 5455910 heartbeat IPC: 3.138 cumulative IPC: 2.841 (Simulation time: 00 hr 02 min 08 sec)
Heartbeat CPU 0 instructions: 16000085 cycles: 5615290 heartbeat IPC: 3.137 cumulative IPC: 2.849 (Simulation time: 00 hr 02 min 12 sec)
Heartbeat CPU 0 instructions: 16500085 cycles: 5827535 heartbeat IPC: 2.356 cumulative IPC: 2.831 (Simulation time: 00 hr 02 min 17 sec)
Heartbeat CPU 0 instructions: 17000085 cycles: 6006552 heartbeat IPC: 2.793 cumulative IPC: 2.83 (Simulation time: 00 hr 02 min 21 sec)
Heartbeat CPU 0 instructions: 17500085 cycles: 6186457 heartbeat IPC: 2.779 cumulative IPC: 2.829 (Simulation time: 00 hr 02 min 25 sec)
Heartbeat CPU 0 instructions: 18000088 cycles: 6392112 heartbeat IPC: 2.431 cumulative IPC: 2.816 (Simulation time: 00 hr 02 min 29 sec)
Heartbeat CPU 0 instructions: 18500092 cycles: 6551559 heartbeat IPC: 3.136 cumulative IPC: 2.824 (Simulation time: 00 hr 02 min 33 sec)
Heartbeat CPU 0 instructions: 19000096 cycles: 6711084 heartbeat IPC: 3.134 cumulative IPC: 2.831 (Simulation time: 00 hr 02 min 37 sec)
Heartbeat CPU 0 instructions: 19500100 cycles: 6913382 heartbeat IPC: 2.472 cumulative IPC: 2.821 (Simulation time: 00 hr 02 min 42 sec)
Heartbeat CPU 0 instructions: 20000107 cycles: 7072947 heartbeat IPC: 3.134 cumulative IPC: 2.828 (Simulation time: 00 hr 02 min 45 sec)
Heartbeat CPU 0 instructions: 20500114 cycles: 7232638 heartbeat IPC: 3.131 cumulative IPC: 2.834 (Simulation time: 00 hr 02 min 49 sec)
Heartbeat CPU 0 instructions: 21000117 cycles: 7435511 heartbeat IPC: 2.465 cumulative IPC: 2.824 (Simulation time: 00 hr 02 min 54 sec)
Heartbeat CPU 0 instructions: 21500124 cycles: 7594770 heartbeat IPC: 3.14 cumulative IPC: 2.831 (Simulation time: 00 hr 02 min 58 sec)
Heartbeat CPU 0 instructions: 22000125 cycles: 7754263 heartbeat IPC: 3.135 cumulative IPC: 2.837 (Simulation time: 00 hr 03 min 02 sec)
Heartbeat CPU 0 instructions: 22500132 cycles: 7957128 heartbeat IPC: 2.465 cumulative IPC: 2.828 (Simulation time: 00 hr 03 min 06 sec)
Heartbeat CPU 0 instructions: 23000132 cycles: 8116357 heartbeat IPC: 3.14 cumulative IPC: 2.834 (Simulation time: 00 hr 03 min 10 sec)
Heartbeat CPU 0 instructions: 23500138 cycles: 8275737 heartbeat IPC: 3.137 cumulative IPC: 2.84 (Simulation time: 00 hr 03 min 14 sec)
Heartbeat CPU 0 instructions: 24000143 cycles: 8434547 heartbeat IPC: 3.148 cumulative IPC: 2.845 (Simulation time: 00 hr 03 min 18 sec)
Heartbeat CPU 0 instructions: 24500147 cycles: 8593983 heartbeat IPC: 3.136 cumulative IPC: 2.851 (Simulation time: 00 hr 03 min 21 sec)
Heartbeat CPU 0 instructions: 25000149 cycles: 8753488 heartbeat IPC: 3.135 cumulative IPC: 2.856 (Simulation time: 00 hr 03 min 25 sec)
Heartbeat CPU 0 instructions: 25500150 cycles: 8912140 heartbeat IPC: 3.152 cumulative IPC: 2.861 (Simulation time: 00 hr 03 min 29 sec)
Heartbeat CPU 0 instructions: 26000153 cycles: 9071671 heartbeat IPC: 3.134 cumulative IPC: 2.866 (Simulation time: 00 hr 03 min 33 sec)
Heartbeat CPU 0 instructions: 26500157 cycles: 9231168 heartbeat IPC: 3.135 cumulative IPC: 2.871 (Simulation time: 00 hr 03 min 37 sec)
Heartbeat CPU 0 instructions: 27000163 cycles: 9390335 heartbeat IPC: 3.141 cumulative IPC: 2.875 (Simulation time: 00 hr 03 min 41 sec)
Heartbeat CPU 0 instructions: 27500169 cycles: 9549798 heartbeat IPC: 3.136 cumulative IPC: 2.88 (Simulation time: 00 hr 03 min 45 sec)
Heartbeat CPU 0 instructions: 28000169 cycles: 9709063 heartbeat IPC: 3.139 cumulative IPC: 2.884 (Simulation time: 00 hr 03 min 49 sec)
Heartbeat CPU 0 instructions: 28500171 cycles: 9868077 heartbeat IPC: 3.144 cumulative IPC: 2.888 (Simulation time: 00 hr 03 min 53 sec)
Heartbeat CPU 0 instructions: 29000172 cycles: 10027503 heartbeat IPC: 3.136 cumulative IPC: 2.892 (Simulation time: 00 hr 03 min 57 sec)
Heartbeat CPU 0 instructions: 29500176 cycles: 10186996 heartbeat IPC: 3.135 cumulative IPC: 2.896 (Simulation time: 00 hr 04 min 00 sec)
Heartbeat CPU 0 instructions: 30000180 cycles: 10345997 heartbeat IPC: 3.145 cumulative IPC: 2.9 (Simulation time: 00 hr 04 min 04 sec)
Heartbeat CPU 0 instructions: 30500180 cycles: 10505281 heartbeat IPC: 3.139 cumulative IPC: 2.903 (Simulation time: 00 hr 04 min 08 sec)
Heartbeat CPU 0 instructions: 31000180 cycles: 10664266 heartbeat IPC: 3.145 cumulative IPC: 2.907 (Simulation time: 00 hr 04 min 12 sec)
Heartbeat CPU 0 instructions: 31500180 cycles: 10823109 heartbeat IPC: 3.148 cumulative IPC: 2.91 (Simulation time: 00 hr 04 min 16 sec)
Heartbeat CPU 0 instructions: 32000184 cycles: 10982475 heartbeat IPC: 3.137 cumulative IPC: 2.914 (Simulation time: 00 hr 04 min 20 sec)
Heartbeat CPU 0 instructions: 32500188 cycles: 11141778 heartbeat IPC: 3.139 cumulative IPC: 2.917 (Simulation time: 00 hr 04 min 24 sec)
Heartbeat CPU 0 instructions: 33000188 cycles: 11300713 heartbeat IPC: 3.146 cumulative IPC: 2.92 (Simulation time: 00 hr 04 min 28 sec)
Heartbeat CPU 0 instructions: 33500188 cycles: 11460152 heartbeat IPC: 3.136 cumulative IPC: 2.923 (Simulation time: 00 hr 04 min 32 sec)
Heartbeat CPU 0 instructions: 34000192 cycles: 11619436 heartbeat IPC: 3.139 cumulative IPC: 2.926 (Simulation time: 00 hr 04 min 36 sec)
Heartbeat CPU 0 instructions: 34500192 cycles: 11778058 heartbeat IPC: 3.152 cumulative IPC: 2.929 (Simulation time: 00 hr 04 min 39 sec)
Heartbeat CPU 0 instructions: 35000195 cycles: 11937258 heartbeat IPC: 3.141 cumulative IPC: 2.932 (Simulation time: 00 hr 04 min 43 sec)
Heartbeat CPU 0 instructions: 35500195 cycles: 12096461 heartbeat IPC: 3.141 cumulative IPC: 2.935 (Simulation time: 00 hr 04 min 47 sec)
Heartbeat CPU 0 instructions: 36000195 cycles: 12255561 heartbeat IPC: 3.143 cumulative IPC: 2.937 (Simulation time: 00 hr 04 min 51 sec)
Heartbeat CPU 0 instructions: 36500200 cycles: 12415061 heartbeat IPC: 3.135 cumulative IPC: 2.94 (Simulation time: 00 hr 04 min 55 sec)
Heartbeat CPU 0 instructions: 37000203 cycles: 12574424 heartbeat IPC: 3.138 cumulative IPC: 2.942 (Simulation time: 00 hr 04 min 59 sec)
Heartbeat CPU 0 instructions: 37500204 cycles: 12733513 heartbeat IPC: 3.143 cumulative IPC: 2.945 (Simulation time: 00 hr 05 min 03 sec)
Heartbeat CPU 0 instructions: 38000211 cycles: 12892945 heartbeat IPC: 3.136 cumulative IPC: 2.947 (Simulation time: 00 hr 05 min 07 sec)
Heartbeat CPU 0 instructions: 38500211 cycles: 13052008 heartbeat IPC: 3.143 cumulative IPC: 2.95 (Simulation time: 00 hr 05 min 10 sec)
Heartbeat CPU 0 instructions: 39000216 cycles: 13211387 heartbeat IPC: 3.137 cumulative IPC: 2.952 (Simulation time: 00 hr 05 min 14 sec)
Heartbeat CPU 0 instructions: 39500216 cycles: 13370677 heartbeat IPC: 3.139 cumulative IPC: 2.954 (Simulation time: 00 hr 05 min 18 sec)
Heartbeat CPU 0 instructions: 40000222 cycles: 13532430 heartbeat IPC: 3.091 cumulative IPC: 2.956 (Simulation time: 00 hr 05 min 22 sec)
Heartbeat CPU 0 instructions: 40500226 cycles: 13710542 heartbeat IPC: 2.807 cumulative IPC: 2.954 (Simulation time: 00 hr 05 min 26 sec)
Heartbeat CPU 0 instructions: 41000232 cycles: 13888849 heartbeat IPC: 2.804 cumulative IPC: 2.952 (Simulation time: 00 hr 05 min 30 sec)
Heartbeat CPU 0 instructions: 41500238 cycles: 14060723 heartbeat IPC: 2.909 cumulative IPC: 2.952 (Simulation time: 00 hr 05 min 34 sec)
Heartbeat CPU 0 instructions: 42000238 cycles: 14219685 heartbeat IPC: 3.145 cumulative IPC: 2.954 (Simulation time: 00 hr 05 min 38 sec)
Heartbeat CPU 0 instructions: 42500244 cycles: 14378989 heartbeat IPC: 3.139 cumulative IPC: 2.956 (Simulation time: 00 hr 05 min 42 sec)
Heartbeat CPU 0 instructions: 43000246 cycles: 14538418 heartbeat IPC: 3.136 cumulative IPC: 2.958 (Simulation time: 00 hr 05 min 46 sec)
Heartbeat CPU 0 instructions: 43500252 cycles: 14697745 heartbeat IPC: 3.138 cumulative IPC: 2.96 (Simulation time: 00 hr 05 min 50 sec)
Heartbeat CPU 0 instructions: 44000257 cycles: 14856913 heartbeat IPC: 3.141 cumulative IPC: 2.962 (Simulation time: 00 hr 05 min 54 sec)
Heartbeat CPU 0 instructions: 44500258 cycles: 15016110 heartbeat IPC: 3.141 cumulative IPC: 2.964 (Simulation time: 00 hr 05 min 58 sec)
Heartbeat CPU 0 instructions: 45000263 cycles: 15175274 heartbeat IPC: 3.141 cumulative IPC: 2.965 (Simulation time: 00 hr 06 min 02 sec)
Heartbeat CPU 0 instructions: 45500267 cycles: 15334613 heartbeat IPC: 3.138 cumulative IPC: 2.967 (Simulation time: 00 hr 06 min 06 sec)
Heartbeat CPU 0 instructions: 46000273 cycles: 15493645 heartbeat IPC: 3.144 cumulative IPC: 2.969 (Simulation time: 00 hr 06 min 10 sec)
Heartbeat CPU 0 instructions: 46500275 cycles: 15653045 heartbeat IPC: 3.137 cumulative IPC: 2.971 (Simulation time: 00 hr 06 min 13 sec)
Heartbeat CPU 0 instructions: 47000275 cycles: 15812597 heartbeat IPC: 3.134 cumulative IPC: 2.972 (Simulation time: 00 hr 06 min 17 sec)
Heartbeat CPU 0 instructions: 47500281 cycles: 15971443 heartbeat IPC: 3.148 cumulative IPC: 2.974 (Simulation time: 00 hr 06 min 21 sec)
Heartbeat CPU 0 instructions: 48000283 cycles: 16130790 heartbeat IPC: 3.138 cumulative IPC: 2.976 (Simulation time: 00 hr 06 min 25 sec)
Heartbeat CPU 0 instructions: 48500287 cycles: 16290128 heartbeat IPC: 3.138 cumulative IPC: 2.977 (Simulation time: 00 hr 06 min 29 sec)
Heartbeat CPU 0 instructions: 49000287 cycles: 16449125 heartbeat IPC: 3.145 cumulative IPC: 2.979 (Simulation time: 00 hr 06 min 33 sec)
Heartbeat CPU 0 instructions: 49500291 cycles: 16608655 heartbeat IPC: 3.134 cumulative IPC: 2.98 (Simulation time: 00 hr 06 min 37 sec)
Warmup halting CPU 0 at instruction 50000003 cycle 16767936 for remainder of phase
Warmup finished CPU 0 instructions: 50000003 cycles: 16767936 cumulative IPC: 2.982 (Simulation time: 00 hr 06 min 41 sec)
Warmup complete CPU 0 instructions: 50000003 cycles: 16767936 cumulative IPC: 2.982 (Simulation time: 00 hr 06 min 41 sec)
Heartbeat CPU 0 instructions: 50000291 cycles: 16767972 heartbeat IPC: 3.138 cumulative IPC: 8 (Simulation time: 00 hr 06 min 41 sec)
Heartbeat CPU 0 instructions: 50500293 cycles: 17079498 heartbeat IPC: 1.605 cumulative IPC: 1.606 (Simulation time: 00 hr 06 min 47 sec)
Heartbeat CPU 0 instructions: 51000298 cycles: 17267220 heartbeat IPC: 2.664 cumulative IPC: 2.003 (Simulation time: 00 hr 06 min 51 sec)
Heartbeat CPU 0 instructions: 51500301 cycles: 17458787 heartbeat IPC: 2.61 cumulative IPC: 2.172 (Simulation time: 00 hr 06 min 55 sec)
Heartbeat CPU 0 instructions: 52000303 cycles: 17773766 heartbeat IPC: 1.587 cumulative IPC: 1.989 (Simulation time: 00 hr 07 min 00 sec)
Heartbeat CPU 0 instructions: 52500305 cycles: 17968293 heartbeat IPC: 2.57 cumulative IPC: 2.083 (Simulation time: 00 hr 07 min 04 sec)
Heartbeat CPU 0 instructions: 53000310 cycles: 18158943 heartbeat IPC: 2.623 cumulative IPC: 2.157 (Simulation time: 00 hr 07 min 08 sec)
Heartbeat CPU 0 instructions: 53500312 cycles: 18473780 heartbeat IPC: 1.588 cumulative IPC: 2.052 (Simulation time: 00 hr 07 min 14 sec)
Heartbeat CPU 0 instructions: 54000313 cycles: 18666834 heartbeat IPC: 2.59 cumulative IPC: 2.107 (Simulation time: 00 hr 07 min 18 sec)
Heartbeat CPU 0 instructions: 54500317 cycles: 18859071 heartbeat IPC: 2.601 cumulative IPC: 2.152 (Simulation time: 00 hr 07 min 22 sec)
Heartbeat CPU 0 instructions: 55000320 cycles: 19174736 heartbeat IPC: 1.584 cumulative IPC: 2.078 (Simulation time: 00 hr 07 min 28 sec)
Heartbeat CPU 0 instructions: 55500324 cycles: 19367391 heartbeat IPC: 2.595 cumulative IPC: 2.116 (Simulation time: 00 hr 07 min 32 sec)
Heartbeat CPU 0 instructions: 56000329 cycles: 19561370 heartbeat IPC: 2.578 cumulative IPC: 2.148 (Simulation time: 00 hr 07 min 36 sec)
Heartbeat CPU 0 instructions: 56500331 cycles: 19875595 heartbeat IPC: 1.591 cumulative IPC: 2.092 (Simulation time: 00 hr 07 min 42 sec)
Heartbeat CPU 0 instructions: 57000332 cycles: 20065391 heartbeat IPC: 2.634 cumulative IPC: 2.123 (Simulation time: 00 hr 07 min 46 sec)
Heartbeat CPU 0 instructions: 57500332 cycles: 20259148 heartbeat IPC: 2.581 cumulative IPC: 2.148 (Simulation time: 00 hr 07 min 50 sec)
Heartbeat CPU 0 instructions: 58000334 cycles: 20571131 heartbeat IPC: 1.603 cumulative IPC: 2.104 (Simulation time: 00 hr 07 min 56 sec)
Heartbeat CPU 0 instructions: 58500336 cycles: 20767713 heartbeat IPC: 2.543 cumulative IPC: 2.125 (Simulation time: 00 hr 08 min 00 sec)
Heartbeat CPU 0 instructions: 59000337 cycles: 20960438 heartbeat IPC: 2.594 cumulative IPC: 2.147 (Simulation time: 00 hr 08 min 04 sec)
Heartbeat CPU 0 instructions: 59500341 cycles: 21273698 heartbeat IPC: 1.596 cumulative IPC: 2.108 (Simulation time: 00 hr 08 min 10 sec)
Heartbeat CPU 0 instructions: 60000346 cycles: 21467312 heartbeat IPC: 2.582 cumulative IPC: 2.128 (Simulation time: 00 hr 08 min 14 sec)
Heartbeat CPU 0 instructions: 60500351 cycles: 21657531 heartbeat IPC: 2.629 cumulative IPC: 2.147 (Simulation time: 00 hr 08 min 18 sec)
Heartbeat CPU 0 instructions: 61000355 cycles: 21970945 heartbeat IPC: 1.595 cumulative IPC: 2.114 (Simulation time: 00 hr 08 min 23 sec)
Heartbeat CPU 0 instructions: 61500356 cycles: 22165102 heartbeat IPC: 2.575 cumulative IPC: 2.131 (Simulation time: 00 hr 08 min 27 sec)
Heartbeat CPU 0 instructions: 62000356 cycles: 22359436 heartbeat IPC: 2.573 cumulative IPC: 2.146 (Simulation time: 00 hr 08 min 31 sec)
Heartbeat CPU 0 instructions: 62500363 cycles: 22673593 heartbeat IPC: 1.592 cumulative IPC: 2.117 (Simulation time: 00 hr 08 min 37 sec)
Heartbeat CPU 0 instructions: 63000365 cycles: 22865326 heartbeat IPC: 2.608 cumulative IPC: 2.132 (Simulation time: 00 hr 08 min 41 sec)
Heartbeat CPU 0 instructions: 63500372 cycles: 23054517 heartbeat IPC: 2.643 cumulative IPC: 2.147 (Simulation time: 00 hr 08 min 45 sec)
Heartbeat CPU 0 instructions: 64000372 cycles: 23393790 heartbeat IPC: 1.474 cumulative IPC: 2.113 (Simulation time: 00 hr 08 min 51 sec)
Heartbeat CPU 0 instructions: 64500379 cycles: 23620636 heartbeat IPC: 2.204 cumulative IPC: 2.116 (Simulation time: 00 hr 08 min 56 sec)
Heartbeat CPU 0 instructions: 65000379 cycles: 23851401 heartbeat IPC: 2.167 cumulative IPC: 2.118 (Simulation time: 00 hr 09 min 00 sec)
Heartbeat CPU 0 instructions: 65500379 cycles: 24192341 heartbeat IPC: 1.467 cumulative IPC: 2.088 (Simulation time: 00 hr 09 min 07 sec)
Heartbeat CPU 0 instructions: 66000379 cycles: 24389979 heartbeat IPC: 2.53 cumulative IPC: 2.099 (Simulation time: 00 hr 09 min 11 sec)
Heartbeat CPU 0 instructions: 66500385 cycles: 24580268 heartbeat IPC: 2.628 cumulative IPC: 2.112 (Simulation time: 00 hr 09 min 15 sec)
Heartbeat CPU 0 instructions: 67000385 cycles: 24900779 heartbeat IPC: 1.56 cumulative IPC: 2.09 (Simulation time: 00 hr 09 min 21 sec)
Heartbeat CPU 0 instructions: 67500389 cycles: 25093695 heartbeat IPC: 2.592 cumulative IPC: 2.102 (Simulation time: 00 hr 09 min 25 sec)
Heartbeat CPU 0 instructions: 68000391 cycles: 25287619 heartbeat IPC: 2.578 cumulative IPC: 2.113 (Simulation time: 00 hr 09 min 29 sec)
Heartbeat CPU 0 instructions: 68500391 cycles: 25602233 heartbeat IPC: 1.589 cumulative IPC: 2.094 (Simulation time: 00 hr 09 min 34 sec)
Heartbeat CPU 0 instructions: 69000394 cycles: 25794764 heartbeat IPC: 2.597 cumulative IPC: 2.105 (Simulation time: 00 hr 09 min 38 sec)
Heartbeat CPU 0 instructions: 69500395 cycles: 25989221 heartbeat IPC: 2.571 cumulative IPC: 2.115 (Simulation time: 00 hr 09 min 43 sec)
Heartbeat CPU 0 instructions: 70000399 cycles: 26302994 heartbeat IPC: 1.594 cumulative IPC: 2.098 (Simulation time: 00 hr 09 min 48 sec)
Heartbeat CPU 0 instructions: 70500406 cycles: 26496492 heartbeat IPC: 2.584 cumulative IPC: 2.107 (Simulation time: 00 hr 09 min 52 sec)
Heartbeat CPU 0 instructions: 71000413 cycles: 26693251 heartbeat IPC: 2.541 cumulative IPC: 2.116 (Simulation time: 00 hr 09 min 56 sec)
Heartbeat CPU 0 instructions: 71500414 cycles: 27005049 heartbeat IPC: 1.604 cumulative IPC: 2.1 (Simulation time: 00 hr 10 min 02 sec)
Heartbeat CPU 0 instructions: 72000417 cycles: 27196014 heartbeat IPC: 2.618 cumulative IPC: 2.11 (Simulation time: 00 hr 10 min 06 sec)
Heartbeat CPU 0 instructions: 72500418 cycles: 27390370 heartbeat IPC: 2.573 cumulative IPC: 2.118 (Simulation time: 00 hr 10 min 10 sec)
Heartbeat CPU 0 instructions: 73000425 cycles: 27702531 heartbeat IPC: 1.602 cumulative IPC: 2.103 (Simulation time: 00 hr 10 min 16 sec)
Heartbeat CPU 0 instructions: 73500431 cycles: 27899728 heartbeat IPC: 2.536 cumulative IPC: 2.111 (Simulation time: 00 hr 10 min 20 sec)
Heartbeat CPU 0 instructions: 74000437 cycles: 28088869 heartbeat IPC: 2.644 cumulative IPC: 2.12 (Simulation time: 00 hr 10 min 24 sec)
Heartbeat CPU 0 instructions: 74500437 cycles: 28403631 heartbeat IPC: 1.589 cumulative IPC: 2.106 (Simulation time: 00 hr 10 min 30 sec)
Heartbeat CPU 0 instructions: 75000439 cycles: 28597042 heartbeat IPC: 2.585 cumulative IPC: 2.113 (Simulation time: 00 hr 10 min 34 sec)
Heartbeat CPU 0 instructions: 75500443 cycles: 28789420 heartbeat IPC: 2.599 cumulative IPC: 2.121 (Simulation time: 00 hr 10 min 38 sec)
Heartbeat CPU 0 instructions: 76000447 cycles: 29097418 heartbeat IPC: 1.623 cumulative IPC: 2.109 (Simulation time: 00 hr 10 min 44 sec)
Heartbeat CPU 0 instructions: 76500452 cycles: 29285947 heartbeat IPC: 2.652 cumulative IPC: 2.117 (Simulation time: 00 hr 10 min 48 sec)
Heartbeat CPU 0 instructions: 77000459 cycles: 29479494 heartbeat IPC: 2.583 cumulative IPC: 2.124 (Simulation time: 00 hr 10 min 52 sec)
Heartbeat CPU 0 instructions: 77500464 cycles: 29793349 heartbeat IPC: 1.593 cumulative IPC: 2.111 (Simulation time: 00 hr 10 min 57 sec)
Heartbeat CPU 0 instructions: 78000466 cycles: 29983833 heartbeat IPC: 2.625 cumulative IPC: 2.119 (Simulation time: 00 hr 11 min 01 sec)
Heartbeat CPU 0 instructions: 78500467 cycles: 30177728 heartbeat IPC: 2.579 cumulative IPC: 2.125 (Simulation time: 00 hr 11 min 06 sec)
Heartbeat CPU 0 instructions: 79000470 cycles: 30495013 heartbeat IPC: 1.576 cumulative IPC: 2.113 (Simulation time: 00 hr 11 min 11 sec)
Heartbeat CPU 0 instructions: 79500476 cycles: 30685192 heartbeat IPC: 2.629 cumulative IPC: 2.12 (Simulation time: 00 hr 11 min 15 sec)
Heartbeat CPU 0 instructions: 80000478 cycles: 30877425 heartbeat IPC: 2.601 cumulative IPC: 2.126 (Simulation time: 00 hr 11 min 19 sec)
Heartbeat CPU 0 instructions: 80500480 cycles: 31194297 heartbeat IPC: 1.578 cumulative IPC: 2.114 (Simulation time: 00 hr 11 min 25 sec)
Heartbeat CPU 0 instructions: 81000481 cycles: 31385322 heartbeat IPC: 2.617 cumulative IPC: 2.121 (Simulation time: 00 hr 11 min 29 sec)
Heartbeat CPU 0 instructions: 81500481 cycles: 31581138 heartbeat IPC: 2.553 cumulative IPC: 2.127 (Simulation time: 00 hr 11 min 33 sec)
Heartbeat CPU 0 instructions: 82000483 cycles: 31892379 heartbeat IPC: 1.606 cumulative IPC: 2.116 (Simulation time: 00 hr 11 min 39 sec)
Heartbeat CPU 0 instructions: 82500484 cycles: 32083154 heartbeat IPC: 2.621 cumulative IPC: 2.122 (Simulation time: 00 hr 11 min 43 sec)
Heartbeat CPU 0 instructions: 83000486 cycles: 32278850 heartbeat IPC: 2.555 cumulative IPC: 2.128 (Simulation time: 00 hr 11 min 47 sec)
Heartbeat CPU 0 instructions: 83500493 cycles: 32589097 heartbeat IPC: 1.612 cumulative IPC: 2.117 (Simulation time: 00 hr 11 min 53 sec)
Heartbeat CPU 0 instructions: 84000497 cycles: 32778674 heartbeat IPC: 2.637 cumulative IPC: 2.124 (Simulation time: 00 hr 11 min 57 sec)
Heartbeat CPU 0 instructions: 84500503 cycles: 32965635 heartbeat IPC: 2.674 cumulative IPC: 2.13 (Simulation time: 00 hr 12 min 01 sec)
Heartbeat CPU 0 instructions: 85000509 cycles: 33282236 heartbeat IPC: 1.579 cumulative IPC: 2.119 (Simulation time: 00 hr 12 min 07 sec)
Heartbeat CPU 0 instructions: 85500515 cycles: 33473397 heartbeat IPC: 2.616 cumulative IPC: 2.125 (Simulation time: 00 hr 12 min 11 sec)
Heartbeat CPU 0 instructions: 86000518 cycles: 33673349 heartbeat IPC: 2.501 cumulative IPC: 2.13 (Simulation time: 00 hr 12 min 15 sec)
Heartbeat CPU 0 instructions: 86500521 cycles: 33990596 heartbeat IPC: 1.576 cumulative IPC: 2.119 (Simulation time: 00 hr 12 min 21 sec)
Heartbeat CPU 0 instructions: 87000525 cycles: 34186172 heartbeat IPC: 2.557 cumulative IPC: 2.124 (Simulation time: 00 hr 12 min 25 sec)
Heartbeat CPU 0 instructions: 87500531 cycles: 34378680 heartbeat IPC: 2.597 cumulative IPC: 2.129 (Simulation time: 00 hr 12 min 29 sec)
Heartbeat CPU 0 instructions: 88000532 cycles: 34729045 heartbeat IPC: 1.427 cumulative IPC: 2.116 (Simulation time: 00 hr 12 min 35 sec)
Heartbeat CPU 0 instructions: 88500536 cycles: 34970099 heartbeat IPC: 2.074 cumulative IPC: 2.115 (Simulation time: 00 hr 12 min 40 sec)
Heartbeat CPU 0 instructions: 89000543 cycles: 35199343 heartbeat IPC: 2.181 cumulative IPC: 2.116 (Simulation time: 00 hr 12 min 45 sec)
Heartbeat CPU 0 instructions: 89500548 cycles: 35522313 heartbeat IPC: 1.548 cumulative IPC: 2.106 (Simulation time: 00 hr 12 min 51 sec)
Heartbeat CPU 0 instructions: 90000550 cycles: 35719804 heartbeat IPC: 2.532 cumulative IPC: 2.111 (Simulation time: 00 hr 12 min 55 sec)
Heartbeat CPU 0 instructions: 90500550 cycles: 35909858 heartbeat IPC: 2.631 cumulative IPC: 2.116 (Simulation time: 00 hr 12 min 59 sec)
Heartbeat CPU 0 instructions: 91000554 cycles: 36226680 heartbeat IPC: 1.578 cumulative IPC: 2.107 (Simulation time: 00 hr 13 min 04 sec)
Heartbeat CPU 0 instructions: 91500554 cycles: 36418380 heartbeat IPC: 2.608 cumulative IPC: 2.112 (Simulation time: 00 hr 13 min 09 sec)
Heartbeat CPU 0 instructions: 92000559 cycles: 36608811 heartbeat IPC: 2.626 cumulative IPC: 2.117 (Simulation time: 00 hr 13 min 13 sec)
Heartbeat CPU 0 instructions: 92500561 cycles: 36927891 heartbeat IPC: 1.567 cumulative IPC: 2.108 (Simulation time: 00 hr 13 min 18 sec)
Heartbeat CPU 0 instructions: 93000562 cycles: 37122930 heartbeat IPC: 2.564 cumulative IPC: 2.113 (Simulation time: 00 hr 13 min 23 sec)
Heartbeat CPU 0 instructions: 93500567 cycles: 37316792 heartbeat IPC: 2.579 cumulative IPC: 2.117 (Simulation time: 00 hr 13 min 27 sec)
Heartbeat CPU 0 instructions: 94000567 cycles: 37630330 heartbeat IPC: 1.595 cumulative IPC: 2.109 (Simulation time: 00 hr 13 min 32 sec)
Heartbeat CPU 0 instructions: 94500571 cycles: 37821116 heartbeat IPC: 2.621 cumulative IPC: 2.114 (Simulation time: 00 hr 13 min 36 sec)
Heartbeat CPU 0 instructions: 95000575 cycles: 38011733 heartbeat IPC: 2.623 cumulative IPC: 2.118 (Simulation time: 00 hr 13 min 40 sec)
Heartbeat CPU 0 instructions: 95500578 cycles: 38323812 heartbeat IPC: 1.602 cumulative IPC: 2.111 (Simulation time: 00 hr 13 min 46 sec)
Heartbeat CPU 0 instructions: 96000581 cycles: 38516146 heartbeat IPC: 2.6 cumulative IPC: 2.115 (Simulation time: 00 hr 13 min 50 sec)
Heartbeat CPU 0 instructions: 96500583 cycles: 38705971 heartbeat IPC: 2.634 cumulative IPC: 2.12 (Simulation time: 00 hr 13 min 54 sec)
Heartbeat CPU 0 instructions: 97000589 cycles: 39014131 heartbeat IPC: 1.623 cumulative IPC: 2.113 (Simulation time: 00 hr 14 min 00 sec)
Heartbeat CPU 0 instructions: 97500590 cycles: 39206656 heartbeat IPC: 2.597 cumulative IPC: 2.117 (Simulation time: 00 hr 14 min 04 sec)
Heartbeat CPU 0 instructions: 98000595 cycles: 39398558 heartbeat IPC: 2.606 cumulative IPC: 2.121 (Simulation time: 00 hr 14 min 08 sec)
Heartbeat CPU 0 instructions: 98500599 cycles: 39710745 heartbeat IPC: 1.602 cumulative IPC: 2.114 (Simulation time: 00 hr 14 min 14 sec)
Heartbeat CPU 0 instructions: 99000603 cycles: 39904384 heartbeat IPC: 2.582 cumulative IPC: 2.118 (Simulation time: 00 hr 14 min 18 sec)
Heartbeat CPU 0 instructions: 99500608 cycles: 40096122 heartbeat IPC: 2.608 cumulative IPC: 2.122 (Simulation time: 00 hr 14 min 22 sec)
Heartbeat CPU 0 instructions: 100000613 cycles: 40409650 heartbeat IPC: 1.595 cumulative IPC: 2.115 (Simulation time: 00 hr 14 min 28 sec)
Heartbeat CPU 0 instructions: 100500615 cycles: 40603689 heartbeat IPC: 2.577 cumulative IPC: 2.119 (Simulation time: 00 hr 14 min 32 sec)
Heartbeat CPU 0 instructions: 101000616 cycles: 40795631 heartbeat IPC: 2.605 cumulative IPC: 2.123 (Simulation time: 00 hr 14 min 36 sec)
Heartbeat CPU 0 instructions: 101500619 cycles: 41110545 heartbeat IPC: 1.588 cumulative IPC: 2.116 (Simulation time: 00 hr 14 min 42 sec)
Heartbeat CPU 0 instructions: 102000626 cycles: 41303684 heartbeat IPC: 2.589 cumulative IPC: 2.119 (Simulation time: 00 hr 14 min 46 sec)
Heartbeat CPU 0 instructions: 102500630 cycles: 41495815 heartbeat IPC: 2.602 cumulative IPC: 2.123 (Simulation time: 00 hr 14 min 50 sec)
Heartbeat CPU 0 instructions: 103000636 cycles: 41810970 heartbeat IPC: 1.587 cumulative IPC: 2.116 (Simulation time: 00 hr 14 min 56 sec)
Heartbeat CPU 0 instructions: 103500636 cycles: 42005543 heartbeat IPC: 2.57 cumulative IPC: 2.12 (Simulation time: 00 hr 15 min 00 sec)
Heartbeat CPU 0 instructions: 104000642 cycles: 42199049 heartbeat IPC: 2.584 cumulative IPC: 2.123 (Simulation time: 00 hr 15 min 04 sec)
Heartbeat CPU 0 instructions: 104500648 cycles: 42515341 heartbeat IPC: 1.581 cumulative IPC: 2.117 (Simulation time: 00 hr 15 min 10 sec)
Heartbeat CPU 0 instructions: 105000650 cycles: 42703875 heartbeat IPC: 2.652 cumulative IPC: 2.121 (Simulation time: 00 hr 15 min 14 sec)
Heartbeat CPU 0 instructions: 105500653 cycles: 42894476 heartbeat IPC: 2.623 cumulative IPC: 2.124 (Simulation time: 00 hr 15 min 18 sec)
Heartbeat CPU 0 instructions: 106000653 cycles: 43210977 heartbeat IPC: 1.58 cumulative IPC: 2.118 (Simulation time: 00 hr 15 min 23 sec)
Heartbeat CPU 0 instructions: 106500653 cycles: 43403683 heartbeat IPC: 2.595 cumulative IPC: 2.121 (Simulation time: 00 hr 15 min 27 sec)
Heartbeat CPU 0 instructions: 107000654 cycles: 43593268 heartbeat IPC: 2.637 cumulative IPC: 2.125 (Simulation time: 00 hr 15 min 31 sec)
Heartbeat CPU 0 instructions: 107500659 cycles: 43911826 heartbeat IPC: 1.57 cumulative IPC: 2.118 (Simulation time: 00 hr 15 min 37 sec)
Heartbeat CPU 0 instructions: 108000661 cycles: 44104273 heartbeat IPC: 2.598 cumulative IPC: 2.122 (Simulation time: 00 hr 15 min 41 sec)
Heartbeat CPU 0 instructions: 108500661 cycles: 44297672 heartbeat IPC: 2.585 cumulative IPC: 2.125 (Simulation time: 00 hr 15 min 45 sec)
Heartbeat CPU 0 instructions: 109000662 cycles: 44610482 heartbeat IPC: 1.598 cumulative IPC: 2.119 (Simulation time: 00 hr 15 min 51 sec)
Heartbeat CPU 0 instructions: 109500666 cycles: 44803515 heartbeat IPC: 2.59 cumulative IPC: 2.122 (Simulation time: 00 hr 15 min 55 sec)
Heartbeat CPU 0 instructions: 110000668 cycles: 45010895 heartbeat IPC: 2.411 cumulative IPC: 2.124 (Simulation time: 00 hr 15 min 59 sec)
Heartbeat CPU 0 instructions: 110500673 cycles: 45310035 heartbeat IPC: 1.671 cumulative IPC: 2.12 (Simulation time: 00 hr 16 min 05 sec)
Heartbeat CPU 0 instructions: 111000674 cycles: 45503689 heartbeat IPC: 2.582 cumulative IPC: 2.123 (Simulation time: 00 hr 16 min 09 sec)
Heartbeat CPU 0 instructions: 111500679 cycles: 45734292 heartbeat IPC: 2.168 cumulative IPC: 2.123 (Simulation time: 00 hr 16 min 14 sec)
Heartbeat CPU 0 instructions: 112000679 cycles: 46058393 heartbeat IPC: 1.543 cumulative IPC: 2.117 (Simulation time: 00 hr 16 min 20 sec)
Heartbeat CPU 0 instructions: 112500680 cycles: 46288572 heartbeat IPC: 2.172 cumulative IPC: 2.117 (Simulation time: 00 hr 16 min 24 sec)
Heartbeat CPU 0 instructions: 113000680 cycles: 46558568 heartbeat IPC: 1.852 cumulative IPC: 2.115 (Simulation time: 00 hr 16 min 29 sec)
Heartbeat CPU 0 instructions: 113500681 cycles: 46833365 heartbeat IPC: 1.82 cumulative IPC: 2.112 (Simulation time: 00 hr 16 min 34 sec)
Heartbeat CPU 0 instructions: 114000688 cycles: 47025101 heartbeat IPC: 2.608 cumulative IPC: 2.115 (Simulation time: 00 hr 16 min 38 sec)
Heartbeat CPU 0 instructions: 114500690 cycles: 47271119 heartbeat IPC: 2.032 cumulative IPC: 2.115 (Simulation time: 00 hr 16 min 43 sec)
Heartbeat CPU 0 instructions: 115000692 cycles: 47532958 heartbeat IPC: 1.91 cumulative IPC: 2.113 (Simulation time: 00 hr 16 min 48 sec)
Heartbeat CPU 0 instructions: 115500693 cycles: 47728613 heartbeat IPC: 2.556 cumulative IPC: 2.116 (Simulation time: 00 hr 16 min 52 sec)
Heartbeat CPU 0 instructions: 116000699 cycles: 47989312 heartbeat IPC: 1.918 cumulative IPC: 2.114 (Simulation time: 00 hr 16 min 57 sec)
Heartbeat CPU 0 instructions: 116500705 cycles: 48243805 heartbeat IPC: 1.965 cumulative IPC: 2.113 (Simulation time: 00 hr 17 min 02 sec)
Heartbeat CPU 0 instructions: 117000705 cycles: 48437789 heartbeat IPC: 2.578 cumulative IPC: 2.116 (Simulation time: 00 hr 17 min 06 sec)
Heartbeat CPU 0 instructions: 117500706 cycles: 48710942 heartbeat IPC: 1.83 cumulative IPC: 2.113 (Simulation time: 00 hr 17 min 12 sec)
Heartbeat CPU 0 instructions: 118000713 cycles: 48946479 heartbeat IPC: 2.123 cumulative IPC: 2.113 (Simulation time: 00 hr 17 min 16 sec)
Heartbeat CPU 0 instructions: 118500713 cycles: 49139479 heartbeat IPC: 2.591 cumulative IPC: 2.116 (Simulation time: 00 hr 17 min 20 sec)
Heartbeat CPU 0 instructions: 119000715 cycles: 49422191 heartbeat IPC: 1.769 cumulative IPC: 2.113 (Simulation time: 00 hr 17 min 26 sec)
Heartbeat CPU 0 instructions: 119500717 cycles: 49642841 heartbeat IPC: 2.266 cumulative IPC: 2.114 (Simulation time: 00 hr 17 min 30 sec)
Heartbeat CPU 0 instructions: 120000721 cycles: 49836841 heartbeat IPC: 2.577 cumulative IPC: 2.117 (Simulation time: 00 hr 17 min 34 sec)
Heartbeat CPU 0 instructions: 120500722 cycles: 50130667 heartbeat IPC: 1.702 cumulative IPC: 2.113 (Simulation time: 00 hr 17 min 40 sec)
Heartbeat CPU 0 instructions: 121000729 cycles: 50342391 heartbeat IPC: 2.362 cumulative IPC: 2.115 (Simulation time: 00 hr 17 min 44 sec)
Heartbeat CPU 0 instructions: 121500732 cycles: 50535103 heartbeat IPC: 2.595 cumulative IPC: 2.117 (Simulation time: 00 hr 17 min 48 sec)
Heartbeat CPU 0 instructions: 122000736 cycles: 50844603 heartbeat IPC: 1.616 cumulative IPC: 2.113 (Simulation time: 00 hr 17 min 54 sec)
Heartbeat CPU 0 instructions: 122500741 cycles: 51041735 heartbeat IPC: 2.536 cumulative IPC: 2.115 (Simulation time: 00 hr 17 min 58 sec)
Heartbeat CPU 0 instructions: 123000744 cycles: 51234016 heartbeat IPC: 2.6 cumulative IPC: 2.118 (Simulation time: 00 hr 18 min 02 sec)
Heartbeat CPU 0 instructions: 123500750 cycles: 51548231 heartbeat IPC: 1.591 cumulative IPC: 2.113 (Simulation time: 00 hr 18 min 08 sec)
Heartbeat CPU 0 instructions: 124000755 cycles: 51739308 heartbeat IPC: 2.617 cumulative IPC: 2.116 (Simulation time: 00 hr 18 min 12 sec)
Heartbeat CPU 0 instructions: 124500759 cycles: 51934793 heartbeat IPC: 2.558 cumulative IPC: 2.118 (Simulation time: 00 hr 18 min 16 sec)
Heartbeat CPU 0 instructions: 125000760 cycles: 52248951 heartbeat IPC: 1.592 cumulative IPC: 2.114 (Simulation time: 00 hr 18 min 22 sec)
Heartbeat CPU 0 instructions: 125500763 cycles: 52441400 heartbeat IPC: 2.598 cumulative IPC: 2.116 (Simulation time: 00 hr 18 min 26 sec)
Heartbeat CPU 0 instructions: 126000768 cycles: 52632425 heartbeat IPC: 2.617 cumulative IPC: 2.119 (Simulation time: 00 hr 18 min 30 sec)
Heartbeat CPU 0 instructions: 126500772 cycles: 52953785 heartbeat IPC: 1.556 cumulative IPC: 2.114 (Simulation time: 00 hr 18 min 36 sec)
Heartbeat CPU 0 instructions: 127000775 cycles: 53143044 heartbeat IPC: 2.642 cumulative IPC: 2.117 (Simulation time: 00 hr 18 min 40 sec)
Heartbeat CPU 0 instructions: 127500777 cycles: 53334885 heartbeat IPC: 2.606 cumulative IPC: 2.119 (Simulation time: 00 hr 18 min 44 sec)
Heartbeat CPU 0 instructions: 128000777 cycles: 53648371 heartbeat IPC: 1.595 cumulative IPC: 2.115 (Simulation time: 00 hr 18 min 49 sec)
Heartbeat CPU 0 instructions: 128500781 cycles: 53839724 heartbeat IPC: 2.613 cumulative IPC: 2.118 (Simulation time: 00 hr 18 min 53 sec)
Heartbeat CPU 0 instructions: 129000785 cycles: 54036743 heartbeat IPC: 2.538 cumulative IPC: 2.12 (Simulation time: 00 hr 18 min 58 sec)
Heartbeat CPU 0 instructions: 129500787 cycles: 54348030 heartbeat IPC: 1.606 cumulative IPC: 2.116 (Simulation time: 00 hr 19 min 03 sec)
Heartbeat CPU 0 instructions: 130000789 cycles: 54539515 heartbeat IPC: 2.611 cumulative IPC: 2.118 (Simulation time: 00 hr 19 min 07 sec)
Heartbeat CPU 0 instructions: 130500794 cycles: 54737310 heartbeat IPC: 2.528 cumulative IPC: 2.12 (Simulation time: 00 hr 19 min 11 sec)
Heartbeat CPU 0 instructions: 131000795 cycles: 55051997 heartbeat IPC: 1.589 cumulative IPC: 2.116 (Simulation time: 00 hr 19 min 17 sec)
Heartbeat CPU 0 instructions: 131500797 cycles: 55241628 heartbeat IPC: 2.637 cumulative IPC: 2.118 (Simulation time: 00 hr 19 min 21 sec)
Heartbeat CPU 0 instructions: 132000797 cycles: 55434911 heartbeat IPC: 2.587 cumulative IPC: 2.121 (Simulation time: 00 hr 19 min 25 sec)
Heartbeat CPU 0 instructions: 132500799 cycles: 55748435 heartbeat IPC: 1.595 cumulative IPC: 2.116 (Simulation time: 00 hr 19 min 31 sec)
Heartbeat CPU 0 instructions: 133000800 cycles: 55943295 heartbeat IPC: 2.566 cumulative IPC: 2.119 (Simulation time: 00 hr 19 min 35 sec)
Heartbeat CPU 0 instructions: 133500802 cycles: 56134073 heartbeat IPC: 2.621 cumulative IPC: 2.121 (Simulation time: 00 hr 19 min 39 sec)
Heartbeat CPU 0 instructions: 134000807 cycles: 56443853 heartbeat IPC: 1.614 cumulative IPC: 2.117 (Simulation time: 00 hr 19 min 45 sec)
Heartbeat CPU 0 instructions: 134500814 cycles: 56639772 heartbeat IPC: 2.552 cumulative IPC: 2.119 (Simulation time: 00 hr 19 min 49 sec)
Heartbeat CPU 0 instructions: 135000816 cycles: 56829537 heartbeat IPC: 2.635 cumulative IPC: 2.122 (Simulation time: 00 hr 19 min 53 sec)
Heartbeat CPU 0 instructions: 135500823 cycles: 57161551 heartbeat IPC: 1.506 cumulative IPC: 2.117 (Simulation time: 00 hr 19 min 59 sec)
Heartbeat CPU 0 instructions: 136000823 cycles: 57400580 heartbeat IPC: 2.092 cumulative IPC: 2.117 (Simulation time: 00 hr 20 min 04 sec)
Heartbeat CPU 0 instructions: 136500823 cycles: 57629634 heartbeat IPC: 2.183 cumulative IPC: 2.117 (Simulation time: 00 hr 20 min 08 sec)
Heartbeat CPU 0 instructions: 137000824 cycles: 57966240 heartbeat IPC: 1.485 cumulative IPC: 2.112 (Simulation time: 00 hr 20 min 14 sec)
Heartbeat CPU 0 instructions: 137500825 cycles: 58155746 heartbeat IPC: 2.638 cumulative IPC: 2.114 (Simulation time: 00 hr 20 min 18 sec)
Heartbeat CPU 0 instructions: 138000831 cycles: 58344802 heartbeat IPC: 2.645 cumulative IPC: 2.117 (Simulation time: 00 hr 20 min 22 sec)
Heartbeat CPU 0 instructions: 138500832 cycles: 58655195 heartbeat IPC: 1.611 cumulative IPC: 2.113 (Simulation time: 00 hr 20 min 28 sec)
Heartbeat CPU 0 instructions: 139000836 cycles: 58846338 heartbeat IPC: 2.616 cumulative IPC: 2.115 (Simulation time: 00 hr 20 min 32 sec)
Heartbeat CPU 0 instructions: 139500840 cycles: 59042088 heartbeat IPC: 2.554 cumulative IPC: 2.117 (Simulation time: 00 hr 20 min 36 sec)
Heartbeat CPU 0 instructions: 140000845 cycles: 59358564 heartbeat IPC: 1.58 cumulative IPC: 2.113 (Simulation time: 00 hr 20 min 42 sec)
Heartbeat CPU 0 instructions: 140500847 cycles: 59548854 heartbeat IPC: 2.628 cumulative IPC: 2.115 (Simulation time: 00 hr 20 min 46 sec)
Heartbeat CPU 0 instructions: 141000849 cycles: 59746348 heartbeat IPC: 2.532 cumulative IPC: 2.117 (Simulation time: 00 hr 20 min 50 sec)
Heartbeat CPU 0 instructions: 141500856 cycles: 60060950 heartbeat IPC: 1.589 cumulative IPC: 2.114 (Simulation time: 00 hr 20 min 56 sec)
Heartbeat CPU 0 instructions: 142000859 cycles: 60255469 heartbeat IPC: 2.57 cumulative IPC: 2.116 (Simulation time: 00 hr 21 min 00 sec)
Heartbeat CPU 0 instructions: 142500861 cycles: 60449266 heartbeat IPC: 2.58 cumulative IPC: 2.118 (Simulation time: 00 hr 21 min 04 sec)
Heartbeat CPU 0 instructions: 143000865 cycles: 60761833 heartbeat IPC: 1.6 cumulative IPC: 2.114 (Simulation time: 00 hr 21 min 10 sec)
Heartbeat CPU 0 instructions: 143500866 cycles: 60954525 heartbeat IPC: 2.595 cumulative IPC: 2.116 (Simulation time: 00 hr 21 min 14 sec)
Heartbeat CPU 0 instructions: 144000870 cycles: 61145637 heartbeat IPC: 2.616 cumulative IPC: 2.118 (Simulation time: 00 hr 21 min 18 sec)
Heartbeat CPU 0 instructions: 144500875 cycles: 61451515 heartbeat IPC: 1.635 cumulative IPC: 2.115 (Simulation time: 00 hr 21 min 24 sec)
Heartbeat CPU 0 instructions: 145000882 cycles: 61641355 heartbeat IPC: 2.634 cumulative IPC: 2.117 (Simulation time: 00 hr 21 min 28 sec)
Heartbeat CPU 0 instructions: 145500884 cycles: 61834562 heartbeat IPC: 2.588 cumulative IPC: 2.119 (Simulation time: 00 hr 21 min 32 sec)
Heartbeat CPU 0 instructions: 146000886 cycles: 62143564 heartbeat IPC: 1.618 cumulative IPC: 2.116 (Simulation time: 00 hr 21 min 38 sec)
Heartbeat CPU 0 instructions: 146500893 cycles: 62337102 heartbeat IPC: 2.584 cumulative IPC: 2.118 (Simulation time: 00 hr 21 min 42 sec)
Heartbeat CPU 0 instructions: 147000896 cycles: 62530269 heartbeat IPC: 2.588 cumulative IPC: 2.12 (Simulation time: 00 hr 21 min 46 sec)
Heartbeat CPU 0 instructions: 147500899 cycles: 62839392 heartbeat IPC: 1.617 cumulative IPC: 2.116 (Simulation time: 00 hr 21 min 51 sec)
Heartbeat CPU 0 instructions: 148000904 cycles: 63036884 heartbeat IPC: 2.532 cumulative IPC: 2.118 (Simulation time: 00 hr 21 min 55 sec)
Heartbeat CPU 0 instructions: 148500910 cycles: 63229694 heartbeat IPC: 2.593 cumulative IPC: 2.12 (Simulation time: 00 hr 22 min 00 sec)
Heartbeat CPU 0 instructions: 149000910 cycles: 63543047 heartbeat IPC: 1.596 cumulative IPC: 2.117 (Simulation time: 00 hr 22 min 05 sec)
Heartbeat CPU 0 instructions: 149500912 cycles: 63736504 heartbeat IPC: 2.585 cumulative IPC: 2.118 (Simulation time: 00 hr 22 min 09 sec)
Heartbeat CPU 0 instructions: 150000919 cycles: 63926125 heartbeat IPC: 2.637 cumulative IPC: 2.121 (Simulation time: 00 hr 22 min 13 sec)
Heartbeat CPU 0 instructions: 150500923 cycles: 64240134 heartbeat IPC: 1.592 cumulative IPC: 2.117 (Simulation time: 00 hr 22 min 19 sec)
Heartbeat CPU 0 instructions: 151000927 cycles: 64435878 heartbeat IPC: 2.554 cumulative IPC: 2.119 (Simulation time: 00 hr 22 min 23 sec)
Heartbeat CPU 0 instructions: 151500927 cycles: 64627702 heartbeat IPC: 2.607 cumulative IPC: 2.121 (Simulation time: 00 hr 22 min 27 sec)
Heartbeat CPU 0 instructions: 152000927 cycles: 64940659 heartbeat IPC: 1.598 cumulative IPC: 2.117 (Simulation time: 00 hr 22 min 33 sec)
Heartbeat CPU 0 instructions: 152500928 cycles: 65136945 heartbeat IPC: 2.547 cumulative IPC: 2.119 (Simulation time: 00 hr 22 min 37 sec)
Heartbeat CPU 0 instructions: 153000932 cycles: 65328140 heartbeat IPC: 2.615 cumulative IPC: 2.121 (Simulation time: 00 hr 22 min 41 sec)
Heartbeat CPU 0 instructions: 153500938 cycles: 65644999 heartbeat IPC: 1.578 cumulative IPC: 2.118 (Simulation time: 00 hr 22 min 47 sec)
Heartbeat CPU 0 instructions: 154000944 cycles: 65837753 heartbeat IPC: 2.594 cumulative IPC: 2.119 (Simulation time: 00 hr 22 min 51 sec)
Heartbeat CPU 0 instructions: 154500950 cycles: 66027153 heartbeat IPC: 2.64 cumulative IPC: 2.121 (Simulation time: 00 hr 22 min 55 sec)
Heartbeat CPU 0 instructions: 155000956 cycles: 66341871 heartbeat IPC: 1.589 cumulative IPC: 2.118 (Simulation time: 00 hr 23 min 01 sec)
Heartbeat CPU 0 instructions: 155500958 cycles: 66535939 heartbeat IPC: 2.576 cumulative IPC: 2.12 (Simulation time: 00 hr 23 min 05 sec)
Heartbeat CPU 0 instructions: 156000965 cycles: 66728732 heartbeat IPC: 2.593 cumulative IPC: 2.122 (Simulation time: 00 hr 23 min 09 sec)
Heartbeat CPU 0 instructions: 156500970 cycles: 67040751 heartbeat IPC: 1.602 cumulative IPC: 2.118 (Simulation time: 00 hr 23 min 15 sec)
Heartbeat CPU 0 instructions: 157000970 cycles: 67231720 heartbeat IPC: 2.618 cumulative IPC: 2.12 (Simulation time: 00 hr 23 min 19 sec)
Heartbeat CPU 0 instructions: 157500971 cycles: 67439980 heartbeat IPC: 2.401 cumulative IPC: 2.122 (Simulation time: 00 hr 23 min 23 sec)
Heartbeat CPU 0 instructions: 158000972 cycles: 67751008 heartbeat IPC: 1.608 cumulative IPC: 2.118 (Simulation time: 00 hr 23 min 29 sec)
Heartbeat CPU 0 instructions: 158500974 cycles: 67944483 heartbeat IPC: 2.584 cumulative IPC: 2.12 (Simulation time: 00 hr 23 min 33 sec)
Heartbeat CPU 0 instructions: 159000976 cycles: 68140736 heartbeat IPC: 2.548 cumulative IPC: 2.122 (Simulation time: 00 hr 23 min 37 sec)
Heartbeat CPU 0 instructions: 159500976 cycles: 68489269 heartbeat IPC: 1.435 cumulative IPC: 2.117 (Simulation time: 00 hr 23 min 43 sec)
Heartbeat CPU 0 instructions: 160000978 cycles: 68724530 heartbeat IPC: 2.125 cumulative IPC: 2.117 (Simulation time: 00 hr 23 min 48 sec)
Heartbeat CPU 0 instructions: 160500982 cycles: 68956262 heartbeat IPC: 2.158 cumulative IPC: 2.117 (Simulation time: 00 hr 23 min 52 sec)
Heartbeat CPU 0 instructions: 161000989 cycles: 69281190 heartbeat IPC: 1.539 cumulative IPC: 2.114 (Simulation time: 00 hr 23 min 58 sec)
Heartbeat CPU 0 instructions: 161500996 cycles: 69471689 heartbeat IPC: 2.625 cumulative IPC: 2.116 (Simulation time: 00 hr 24 min 02 sec)
Heartbeat CPU 0 instructions: 162000997 cycles: 69664874 heartbeat IPC: 2.588 cumulative IPC: 2.117 (Simulation time: 00 hr 24 min 06 sec)
Heartbeat CPU 0 instructions: 162501002 cycles: 69978181 heartbeat IPC: 1.596 cumulative IPC: 2.114 (Simulation time: 00 hr 24 min 12 sec)
Heartbeat CPU 0 instructions: 163001002 cycles: 70169270 heartbeat IPC: 2.617 cumulative IPC: 2.116 (Simulation time: 00 hr 24 min 16 sec)
Heartbeat CPU 0 instructions: 163501003 cycles: 70362415 heartbeat IPC: 2.589 cumulative IPC: 2.118 (Simulation time: 00 hr 24 min 20 sec)
Heartbeat CPU 0 instructions: 164001008 cycles: 70675929 heartbeat IPC: 1.595 cumulative IPC: 2.115 (Simulation time: 00 hr 24 min 26 sec)
Heartbeat CPU 0 instructions: 164501011 cycles: 70870178 heartbeat IPC: 2.574 cumulative IPC: 2.116 (Simulation time: 00 hr 24 min 30 sec)
Heartbeat CPU 0 instructions: 165001014 cycles: 71067387 heartbeat IPC: 2.535 cumulative IPC: 2.118 (Simulation time: 00 hr 24 min 34 sec)
Heartbeat CPU 0 instructions: 165501019 cycles: 71380144 heartbeat IPC: 1.599 cumulative IPC: 2.115 (Simulation time: 00 hr 24 min 40 sec)
Heartbeat CPU 0 instructions: 166001020 cycles: 71570403 heartbeat IPC: 2.628 cumulative IPC: 2.117 (Simulation time: 00 hr 24 min 44 sec)
Heartbeat CPU 0 instructions: 166501026 cycles: 71764358 heartbeat IPC: 2.578 cumulative IPC: 2.118 (Simulation time: 00 hr 24 min 48 sec)
Heartbeat CPU 0 instructions: 167001032 cycles: 72075976 heartbeat IPC: 1.605 cumulative IPC: 2.115 (Simulation time: 00 hr 24 min 54 sec)
Heartbeat CPU 0 instructions: 167501037 cycles: 72267343 heartbeat IPC: 2.613 cumulative IPC: 2.117 (Simulation time: 00 hr 24 min 58 sec)
Heartbeat CPU 0 instructions: 168001037 cycles: 72460263 heartbeat IPC: 2.592 cumulative IPC: 2.119 (Simulation time: 00 hr 25 min 02 sec)
Heartbeat CPU 0 instructions: 168501042 cycles: 72773032 heartbeat IPC: 1.599 cumulative IPC: 2.116 (Simulation time: 00 hr 25 min 08 sec)
Heartbeat CPU 0 instructions: 169001044 cycles: 72965836 heartbeat IPC: 2.593 cumulative IPC: 2.118 (Simulation time: 00 hr 25 min 12 sec)
Heartbeat CPU 0 instructions: 169501049 cycles: 73160818 heartbeat IPC: 2.564 cumulative IPC: 2.119 (Simulation time: 00 hr 25 min 16 sec)
Heartbeat CPU 0 instructions: 170001054 cycles: 73471235 heartbeat IPC: 1.611 cumulative IPC: 2.116 (Simulation time: 00 hr 25 min 21 sec)
Heartbeat CPU 0 instructions: 170501058 cycles: 73659536 heartbeat IPC: 2.655 cumulative IPC: 2.118 (Simulation time: 00 hr 25 min 25 sec)
Heartbeat CPU 0 instructions: 171001060 cycles: 73849104 heartbeat IPC: 2.638 cumulative IPC: 2.12 (Simulation time: 00 hr 25 min 29 sec)
Heartbeat CPU 0 instructions: 171501060 cycles: 74161620 heartbeat IPC: 1.6 cumulative IPC: 2.117 (Simulation time: 00 hr 25 min 35 sec)
Heartbeat CPU 0 instructions: 172001061 cycles: 74355196 heartbeat IPC: 2.583 cumulative IPC: 2.119 (Simulation time: 00 hr 25 min 39 sec)
Heartbeat CPU 0 instructions: 172501068 cycles: 74548019 heartbeat IPC: 2.593 cumulative IPC: 2.12 (Simulation time: 00 hr 25 min 43 sec)
Heartbeat CPU 0 instructions: 173001069 cycles: 74862345 heartbeat IPC: 1.591 cumulative IPC: 2.117 (Simulation time: 00 hr 25 min 49 sec)
Heartbeat CPU 0 instructions: 173501071 cycles: 75054805 heartbeat IPC: 2.598 cumulative IPC: 2.119 (Simulation time: 00 hr 25 min 53 sec)
Heartbeat CPU 0 instructions: 174001073 cycles: 75247375 heartbeat IPC: 2.596 cumulative IPC: 2.12 (Simulation time: 00 hr 25 min 57 sec)
Heartbeat CPU 0 instructions: 174501075 cycles: 75565841 heartbeat IPC: 1.57 cumulative IPC: 2.117 (Simulation time: 00 hr 26 min 03 sec)
Heartbeat CPU 0 instructions: 175001075 cycles: 75755221 heartbeat IPC: 2.64 cumulative IPC: 2.119 (Simulation time: 00 hr 26 min 07 sec)
Heartbeat CPU 0 instructions: 175501079 cycles: 75947192 heartbeat IPC: 2.605 cumulative IPC: 2.121 (Simulation time: 00 hr 26 min 11 sec)
Heartbeat CPU 0 instructions: 176001086 cycles: 76262423 heartbeat IPC: 1.586 cumulative IPC: 2.118 (Simulation time: 00 hr 26 min 17 sec)
Heartbeat CPU 0 instructions: 176501090 cycles: 76454385 heartbeat IPC: 2.605 cumulative IPC: 2.119 (Simulation time: 00 hr 26 min 21 sec)
Heartbeat CPU 0 instructions: 177001090 cycles: 76647138 heartbeat IPC: 2.594 cumulative IPC: 2.121 (Simulation time: 00 hr 26 min 25 sec)
Heartbeat CPU 0 instructions: 177501094 cycles: 76960821 heartbeat IPC: 1.594 cumulative IPC: 2.118 (Simulation time: 00 hr 26 min 31 sec)
Heartbeat CPU 0 instructions: 178001096 cycles: 77152363 heartbeat IPC: 2.61 cumulative IPC: 2.12 (Simulation time: 00 hr 26 min 35 sec)
Heartbeat CPU 0 instructions: 178501098 cycles: 77342898 heartbeat IPC: 2.624 cumulative IPC: 2.121 (Simulation time: 00 hr 26 min 39 sec)
Heartbeat CPU 0 instructions: 179001103 cycles: 77652336 heartbeat IPC: 1.616 cumulative IPC: 2.119 (Simulation time: 00 hr 26 min 44 sec)
Heartbeat CPU 0 instructions: 179501106 cycles: 77842211 heartbeat IPC: 2.633 cumulative IPC: 2.12 (Simulation time: 00 hr 26 min 48 sec)
Heartbeat CPU 0 instructions: 180001106 cycles: 78033064 heartbeat IPC: 2.62 cumulative IPC: 2.122 (Simulation time: 00 hr 26 min 52 sec)
Heartbeat CPU 0 instructions: 180501106 cycles: 78349337 heartbeat IPC: 1.581 cumulative IPC: 2.119 (Simulation time: 00 hr 26 min 58 sec)
Heartbeat CPU 0 instructions: 181001108 cycles: 78541549 heartbeat IPC: 2.601 cumulative IPC: 2.121 (Simulation time: 00 hr 27 min 02 sec)
Heartbeat CPU 0 instructions: 181501111 cycles: 78733107 heartbeat IPC: 2.61 cumulative IPC: 2.122 (Simulation time: 00 hr 27 min 06 sec)
Heartbeat CPU 0 instructions: 182001111 cycles: 79048314 heartbeat IPC: 1.586 cumulative IPC: 2.119 (Simulation time: 00 hr 27 min 12 sec)
Heartbeat CPU 0 instructions: 182501112 cycles: 79241172 heartbeat IPC: 2.593 cumulative IPC: 2.121 (Simulation time: 00 hr 27 min 16 sec)
Heartbeat CPU 0 instructions: 183001116 cycles: 79447909 heartbeat IPC: 2.419 cumulative IPC: 2.122 (Simulation time: 00 hr 27 min 20 sec)
Heartbeat CPU 0 instructions: 183501117 cycles: 79803876 heartbeat IPC: 1.405 cumulative IPC: 2.118 (Simulation time: 00 hr 27 min 27 sec)
Heartbeat CPU 0 instructions: 184001118 cycles: 80031998 heartbeat IPC: 2.192 cumulative IPC: 2.118 (Simulation time: 00 hr 27 min 31 sec)
Heartbeat CPU 0 instructions: 184501121 cycles: 80283132 heartbeat IPC: 1.991 cumulative IPC: 2.118 (Simulation time: 00 hr 27 min 36 sec)
Heartbeat CPU 0 instructions: 185001122 cycles: 80581717 heartbeat IPC: 1.675 cumulative IPC: 2.116 (Simulation time: 00 hr 27 min 42 sec)
Heartbeat CPU 0 instructions: 185501123 cycles: 80774696 heartbeat IPC: 2.591 cumulative IPC: 2.117 (Simulation time: 00 hr 27 min 46 sec)
Heartbeat CPU 0 instructions: 186001128 cycles: 80999244 heartbeat IPC: 2.227 cumulative IPC: 2.117 (Simulation time: 00 hr 27 min 50 sec)
Heartbeat CPU 0 instructions: 186501132 cycles: 81284698 heartbeat IPC: 1.752 cumulative IPC: 2.116 (Simulation time: 00 hr 27 min 56 sec)
Heartbeat CPU 0 instructions: 187001134 cycles: 81477930 heartbeat IPC: 2.588 cumulative IPC: 2.117 (Simulation time: 00 hr 28 min 00 sec)
Heartbeat CPU 0 instructions: 187501134 cycles: 81709921 heartbeat IPC: 2.155 cumulative IPC: 2.117 (Simulation time: 00 hr 28 min 04 sec)
Heartbeat CPU 0 instructions: 188001136 cycles: 81982843 heartbeat IPC: 1.832 cumulative IPC: 2.116 (Simulation time: 00 hr 28 min 10 sec)
Heartbeat CPU 0 instructions: 188501143 cycles: 82177469 heartbeat IPC: 2.569 cumulative IPC: 2.117 (Simulation time: 00 hr 28 min 14 sec)
Heartbeat CPU 0 instructions: 189001150 cycles: 82425128 heartbeat IPC: 2.019 cumulative IPC: 2.117 (Simulation time: 00 hr 28 min 18 sec)
Heartbeat CPU 0 instructions: 189501154 cycles: 82681015 heartbeat IPC: 1.954 cumulative IPC: 2.116 (Simulation time: 00 hr 28 min 23 sec)
Heartbeat CPU 0 instructions: 190001158 cycles: 82876345 heartbeat IPC: 2.56 cumulative IPC: 2.118 (Simulation time: 00 hr 28 min 28 sec)
Heartbeat CPU 0 instructions: 190501163 cycles: 83136779 heartbeat IPC: 1.92 cumulative IPC: 2.117 (Simulation time: 00 hr 28 min 33 sec)
Heartbeat CPU 0 instructions: 191001165 cycles: 83381002 heartbeat IPC: 2.047 cumulative IPC: 2.117 (Simulation time: 00 hr 28 min 37 sec)
Heartbeat CPU 0 instructions: 191501170 cycles: 83575075 heartbeat IPC: 2.576 cumulative IPC: 2.118 (Simulation time: 00 hr 28 min 41 sec)
Heartbeat CPU 0 instructions: 192001175 cycles: 83842967 heartbeat IPC: 1.866 cumulative IPC: 2.117 (Simulation time: 00 hr 28 min 47 sec)
Heartbeat CPU 0 instructions: 192501181 cycles: 84082330 heartbeat IPC: 2.089 cumulative IPC: 2.117 (Simulation time: 00 hr 28 min 51 sec)
Heartbeat CPU 0 instructions: 193001186 cycles: 84275107 heartbeat IPC: 2.594 cumulative IPC: 2.118 (Simulation time: 00 hr 28 min 55 sec)
Heartbeat CPU 0 instructions: 193501191 cycles: 84560730 heartbeat IPC: 1.751 cumulative IPC: 2.117 (Simulation time: 00 hr 29 min 01 sec)
Heartbeat CPU 0 instructions: 194001195 cycles: 84781701 heartbeat IPC: 2.263 cumulative IPC: 2.117 (Simulation time: 00 hr 29 min 05 sec)
Heartbeat CPU 0 instructions: 194501202 cycles: 84974296 heartbeat IPC: 2.596 cumulative IPC: 2.119 (Simulation time: 00 hr 29 min 09 sec)
Heartbeat CPU 0 instructions: 195001209 cycles: 85272267 heartbeat IPC: 1.678 cumulative IPC: 2.117 (Simulation time: 00 hr 29 min 15 sec)
Heartbeat CPU 0 instructions: 195501209 cycles: 85481538 heartbeat IPC: 2.389 cumulative IPC: 2.118 (Simulation time: 00 hr 29 min 19 sec)
Heartbeat CPU 0 instructions: 196001210 cycles: 85672789 heartbeat IPC: 2.614 cumulative IPC: 2.119 (Simulation time: 00 hr 29 min 23 sec)
Heartbeat CPU 0 instructions: 196501210 cycles: 85983264 heartbeat IPC: 1.61 cumulative IPC: 2.117 (Simulation time: 00 hr 29 min 29 sec)
Heartbeat CPU 0 instructions: 197001212 cycles: 86176791 heartbeat IPC: 2.584 cumulative IPC: 2.118 (Simulation time: 00 hr 29 min 33 sec)
Heartbeat CPU 0 instructions: 197501212 cycles: 86362977 heartbeat IPC: 2.685 cumulative IPC: 2.119 (Simulation time: 00 hr 29 min 37 sec)
Heartbeat CPU 0 instructions: 198001213 cycles: 86676676 heartbeat IPC: 1.594 cumulative IPC: 2.117 (Simulation time: 00 hr 29 min 43 sec)
Heartbeat CPU 0 instructions: 198501217 cycles: 86867327 heartbeat IPC: 2.623 cumulative IPC: 2.118 (Simulation time: 00 hr 29 min 47 sec)
Heartbeat CPU 0 instructions: 199001219 cycles: 87057968 heartbeat IPC: 2.623 cumulative IPC: 2.12 (Simulation time: 00 hr 29 min 51 sec)
Heartbeat CPU 0 instructions: 199501221 cycles: 87371951 heartbeat IPC: 1.592 cumulative IPC: 2.117 (Simulation time: 00 hr 29 min 56 sec)
Heartbeat CPU 0 instructions: 200001228 cycles: 87564277 heartbeat IPC: 2.6 cumulative IPC: 2.119 (Simulation time: 00 hr 30 min 00 sec)
Heartbeat CPU 0 instructions: 200501229 cycles: 87752693 heartbeat IPC: 2.654 cumulative IPC: 2.12 (Simulation time: 00 hr 30 min 04 sec)
Heartbeat CPU 0 instructions: 201001234 cycles: 88067870 heartbeat IPC: 1.586 cumulative IPC: 2.118 (Simulation time: 00 hr 30 min 10 sec)
Heartbeat CPU 0 instructions: 201501240 cycles: 88257110 heartbeat IPC: 2.642 cumulative IPC: 2.119 (Simulation time: 00 hr 30 min 14 sec)
Heartbeat CPU 0 instructions: 202001246 cycles: 88449737 heartbeat IPC: 2.596 cumulative IPC: 2.12 (Simulation time: 00 hr 30 min 18 sec)
Heartbeat CPU 0 instructions: 202501248 cycles: 88764460 heartbeat IPC: 1.589 cumulative IPC: 2.118 (Simulation time: 00 hr 30 min 24 sec)
Heartbeat CPU 0 instructions: 203001255 cycles: 88953803 heartbeat IPC: 2.641 cumulative IPC: 2.12 (Simulation time: 00 hr 30 min 28 sec)
Heartbeat CPU 0 instructions: 203501259 cycles: 89141537 heartbeat IPC: 2.663 cumulative IPC: 2.121 (Simulation time: 00 hr 30 min 32 sec)
Heartbeat CPU 0 instructions: 204001264 cycles: 89456959 heartbeat IPC: 1.585 cumulative IPC: 2.119 (Simulation time: 00 hr 30 min 38 sec)
Heartbeat CPU 0 instructions: 204501271 cycles: 89643251 heartbeat IPC: 2.684 cumulative IPC: 2.12 (Simulation time: 00 hr 30 min 42 sec)
Heartbeat CPU 0 instructions: 205001275 cycles: 89836306 heartbeat IPC: 2.59 cumulative IPC: 2.121 (Simulation time: 00 hr 30 min 46 sec)
Heartbeat CPU 0 instructions: 205501275 cycles: 90149209 heartbeat IPC: 1.598 cumulative IPC: 2.119 (Simulation time: 00 hr 30 min 52 sec)
Heartbeat CPU 0 instructions: 206001281 cycles: 90341938 heartbeat IPC: 2.594 cumulative IPC: 2.12 (Simulation time: 00 hr 30 min 56 sec)
Heartbeat CPU 0 instructions: 206501281 cycles: 90532855 heartbeat IPC: 2.619 cumulative IPC: 2.122 (Simulation time: 00 hr 31 min 00 sec)
Heartbeat CPU 0 instructions: 207001282 cycles: 90867478 heartbeat IPC: 1.494 cumulative IPC: 2.119 (Simulation time: 00 hr 31 min 06 sec)
Heartbeat CPU 0 instructions: 207501284 cycles: 91109327 heartbeat IPC: 2.067 cumulative IPC: 2.119 (Simulation time: 00 hr 31 min 11 sec)
Heartbeat CPU 0 instructions: 208001287 cycles: 91339802 heartbeat IPC: 2.169 cumulative IPC: 2.119 (Simulation time: 00 hr 31 min 15 sec)
Heartbeat CPU 0 instructions: 208501291 cycles: 91679328 heartbeat IPC: 1.473 cumulative IPC: 2.116 (Simulation time: 00 hr 31 min 21 sec)
Heartbeat CPU 0 instructions: 209001296 cycles: 91878971 heartbeat IPC: 2.504 cumulative IPC: 2.117 (Simulation time: 00 hr 31 min 26 sec)
Heartbeat CPU 0 instructions: 209501300 cycles: 92069943 heartbeat IPC: 2.618 cumulative IPC: 2.118 (Simulation time: 00 hr 31 min 30 sec)
Heartbeat CPU 0 instructions: 210001306 cycles: 92385628 heartbeat IPC: 1.584 cumulative IPC: 2.116 (Simulation time: 00 hr 31 min 35 sec)
Heartbeat CPU 0 instructions: 210501306 cycles: 92581270 heartbeat IPC: 2.556 cumulative IPC: 2.117 (Simulation time: 00 hr 31 min 39 sec)
Heartbeat CPU 0 instructions: 211001308 cycles: 92773835 heartbeat IPC: 2.597 cumulative IPC: 2.118 (Simulation time: 00 hr 31 min 44 sec)
Heartbeat CPU 0 instructions: 211501313 cycles: 93094026 heartbeat IPC: 1.562 cumulative IPC: 2.116 (Simulation time: 00 hr 31 min 49 sec)
Heartbeat CPU 0 instructions: 212001315 cycles: 93288658 heartbeat IPC: 2.569 cumulative IPC: 2.117 (Simulation time: 00 hr 31 min 53 sec)
Heartbeat CPU 0 instructions: 212501316 cycles: 93483047 heartbeat IPC: 2.572 cumulative IPC: 2.118 (Simulation time: 00 hr 31 min 58 sec)
Heartbeat CPU 0 instructions: 213001318 cycles: 93800007 heartbeat IPC: 1.577 cumulative IPC: 2.116 (Simulation time: 00 hr 32 min 03 sec)
Heartbeat CPU 0 instructions: 213501319 cycles: 93993297 heartbeat IPC: 2.587 cumulative IPC: 2.117 (Simulation time: 00 hr 32 min 07 sec)
Heartbeat CPU 0 instructions: 214001321 cycles: 94184604 heartbeat IPC: 2.614 cumulative IPC: 2.118 (Simulation time: 00 hr 32 min 11 sec)
Heartbeat CPU 0 instructions: 214501327 cycles: 94497083 heartbeat IPC: 1.6 cumulative IPC: 2.116 (Simulation time: 00 hr 32 min 17 sec)
Heartbeat CPU 0 instructions: 215001333 cycles: 94687265 heartbeat IPC: 2.629 cumulative IPC: 2.118 (Simulation time: 00 hr 32 min 21 sec)
Heartbeat CPU 0 instructions: 215501337 cycles: 94881032 heartbeat IPC: 2.58 cumulative IPC: 2.119 (Simulation time: 00 hr 32 min 25 sec)
Heartbeat CPU 0 instructions: 216001339 cycles: 95190510 heartbeat IPC: 1.616 cumulative IPC: 2.117 (Simulation time: 00 hr 32 min 31 sec)
Heartbeat CPU 0 instructions: 216501342 cycles: 95386705 heartbeat IPC: 2.549 cumulative IPC: 2.118 (Simulation time: 00 hr 32 min 35 sec)
Heartbeat CPU 0 instructions: 217001346 cycles: 95581571 heartbeat IPC: 2.566 cumulative IPC: 2.119 (Simulation time: 00 hr 32 min 39 sec)
Heartbeat CPU 0 instructions: 217501347 cycles: 95891836 heartbeat IPC: 1.612 cumulative IPC: 2.117 (Simulation time: 00 hr 32 min 45 sec)
Heartbeat CPU 0 instructions: 218001347 cycles: 96087061 heartbeat IPC: 2.561 cumulative IPC: 2.118 (Simulation time: 00 hr 32 min 49 sec)
Heartbeat CPU 0 instructions: 218501351 cycles: 96280733 heartbeat IPC: 2.582 cumulative IPC: 2.119 (Simulation time: 00 hr 32 min 53 sec)
Heartbeat CPU 0 instructions: 219001358 cycles: 96591619 heartbeat IPC: 1.608 cumulative IPC: 2.117 (Simulation time: 00 hr 32 min 59 sec)
Heartbeat CPU 0 instructions: 219501362 cycles: 96787209 heartbeat IPC: 2.556 cumulative IPC: 2.118 (Simulation time: 00 hr 33 min 03 sec)
Heartbeat CPU 0 instructions: 220001362 cycles: 96981028 heartbeat IPC: 2.58 cumulative IPC: 2.119 (Simulation time: 00 hr 33 min 07 sec)
Heartbeat CPU 0 instructions: 220501364 cycles: 97296858 heartbeat IPC: 1.583 cumulative IPC: 2.117 (Simulation time: 00 hr 33 min 13 sec)
Heartbeat CPU 0 instructions: 221001364 cycles: 97490419 heartbeat IPC: 2.583 cumulative IPC: 2.118 (Simulation time: 00 hr 33 min 17 sec)
Heartbeat CPU 0 instructions: 221501365 cycles: 97681268 heartbeat IPC: 2.62 cumulative IPC: 2.12 (Simulation time: 00 hr 33 min 21 sec)
Heartbeat CPU 0 instructions: 222001366 cycles: 97992586 heartbeat IPC: 1.606 cumulative IPC: 2.118 (Simulation time: 00 hr 33 min 27 sec)
Heartbeat CPU 0 instructions: 222501368 cycles: 98186815 heartbeat IPC: 2.574 cumulative IPC: 2.119 (Simulation time: 00 hr 33 min 31 sec)
Heartbeat CPU 0 instructions: 223001368 cycles: 98381484 heartbeat IPC: 2.568 cumulative IPC: 2.12 (Simulation time: 00 hr 33 min 35 sec)
Heartbeat CPU 0 instructions: 223501372 cycles: 98693715 heartbeat IPC: 1.601 cumulative IPC: 2.118 (Simulation time: 00 hr 33 min 40 sec)
Heartbeat CPU 0 instructions: 224001372 cycles: 98885965 heartbeat IPC: 2.601 cumulative IPC: 2.119 (Simulation time: 00 hr 33 min 44 sec)
Heartbeat CPU 0 instructions: 224501379 cycles: 99075920 heartbeat IPC: 2.632 cumulative IPC: 2.12 (Simulation time: 00 hr 33 min 48 sec)
Heartbeat CPU 0 instructions: 225001384 cycles: 99392606 heartbeat IPC: 1.579 cumulative IPC: 2.118 (Simulation time: 00 hr 33 min 54 sec)
Heartbeat CPU 0 instructions: 225501387 cycles: 99586341 heartbeat IPC: 2.581 cumulative IPC: 2.119 (Simulation time: 00 hr 33 min 58 sec)
Heartbeat CPU 0 instructions: 226001389 cycles: 99777919 heartbeat IPC: 2.61 cumulative IPC: 2.12 (Simulation time: 00 hr 34 min 02 sec)
Heartbeat CPU 0 instructions: 226501392 cycles: 100093615 heartbeat IPC: 1.584 cumulative IPC: 2.118 (Simulation time: 00 hr 34 min 08 sec)
Heartbeat CPU 0 instructions: 227001395 cycles: 100286462 heartbeat IPC: 2.593 cumulative IPC: 2.119 (Simulation time: 00 hr 34 min 12 sec)
Heartbeat CPU 0 instructions: 227501397 cycles: 100477284 heartbeat IPC: 2.62 cumulative IPC: 2.12 (Simulation time: 00 hr 34 min 16 sec)
Heartbeat CPU 0 instructions: 228001398 cycles: 100793756 heartbeat IPC: 1.58 cumulative IPC: 2.118 (Simulation time: 00 hr 34 min 22 sec)
Heartbeat CPU 0 instructions: 228501403 cycles: 100986501 heartbeat IPC: 2.594 cumulative IPC: 2.12 (Simulation time: 00 hr 34 min 26 sec)
Heartbeat CPU 0 instructions: 229001403 cycles: 101176270 heartbeat IPC: 2.635 cumulative IPC: 2.121 (Simulation time: 00 hr 34 min 30 sec)
Heartbeat CPU 0 instructions: 229501405 cycles: 101493713 heartbeat IPC: 1.575 cumulative IPC: 2.119 (Simulation time: 00 hr 34 min 36 sec)
Heartbeat CPU 0 instructions: 230001412 cycles: 101686146 heartbeat IPC: 2.598 cumulative IPC: 2.12 (Simulation time: 00 hr 34 min 40 sec)
Heartbeat CPU 0 instructions: 230501412 cycles: 101880558 heartbeat IPC: 2.572 cumulative IPC: 2.121 (Simulation time: 00 hr 34 min 44 sec)
Heartbeat CPU 0 instructions: 231001414 cycles: 102228995 heartbeat IPC: 1.435 cumulative IPC: 2.118 (Simulation time: 00 hr 34 min 50 sec)
Heartbeat CPU 0 instructions: 231501415 cycles: 102454978 heartbeat IPC: 2.213 cumulative IPC: 2.118 (Simulation time: 00 hr 34 min 55 sec)
Heartbeat CPU 0 instructions: 232001422 cycles: 102694240 heartbeat IPC: 2.09 cumulative IPC: 2.118 (Simulation time: 00 hr 35 min 00 sec)
Heartbeat CPU 0 instructions: 232501422 cycles: 103015535 heartbeat IPC: 1.556 cumulative IPC: 2.116 (Simulation time: 00 hr 35 min 05 sec)
Heartbeat CPU 0 instructions: 233001422 cycles: 103211133 heartbeat IPC: 2.556 cumulative IPC: 2.117 (Simulation time: 00 hr 35 min 09 sec)
Heartbeat CPU 0 instructions: 233501424 cycles: 103405768 heartbeat IPC: 2.569 cumulative IPC: 2.118 (Simulation time: 00 hr 35 min 14 sec)
Heartbeat CPU 0 instructions: 234001427 cycles: 103719218 heartbeat IPC: 1.595 cumulative IPC: 2.116 (Simulation time: 00 hr 35 min 19 sec)
Heartbeat CPU 0 instructions: 234501434 cycles: 103916107 heartbeat IPC: 2.54 cumulative IPC: 2.117 (Simulation time: 00 hr 35 min 23 sec)
Heartbeat CPU 0 instructions: 235001435 cycles: 104106587 heartbeat IPC: 2.625 cumulative IPC: 2.118 (Simulation time: 00 hr 35 min 27 sec)
Heartbeat CPU 0 instructions: 235501438 cycles: 104425410 heartbeat IPC: 1.568 cumulative IPC: 2.116 (Simulation time: 00 hr 35 min 33 sec)
Heartbeat CPU 0 instructions: 236001439 cycles: 104620775 heartbeat IPC: 2.559 cumulative IPC: 2.117 (Simulation time: 00 hr 35 min 37 sec)
Heartbeat CPU 0 instructions: 236501439 cycles: 104818628 heartbeat IPC: 2.527 cumulative IPC: 2.118 (Simulation time: 00 hr 35 min 41 sec)
Heartbeat CPU 0 instructions: 237001443 cycles: 105130909 heartbeat IPC: 1.601 cumulative IPC: 2.116 (Simulation time: 00 hr 35 min 47 sec)
Heartbeat CPU 0 instructions: 237501443 cycles: 105319475 heartbeat IPC: 2.652 cumulative IPC: 2.117 (Simulation time: 00 hr 35 min 51 sec)
Heartbeat CPU 0 instructions: 238001443 cycles: 105512458 heartbeat IPC: 2.591 cumulative IPC: 2.118 (Simulation time: 00 hr 35 min 55 sec)
Heartbeat CPU 0 instructions: 238501444 cycles: 105833131 heartbeat IPC: 1.559 cumulative IPC: 2.116 (Simulation time: 00 hr 36 min 01 sec)
Heartbeat CPU 0 instructions: 239001446 cycles: 106027430 heartbeat IPC: 2.573 cumulative IPC: 2.117 (Simulation time: 00 hr 36 min 05 sec)
Heartbeat CPU 0 instructions: 239501449 cycles: 106225573 heartbeat IPC: 2.523 cumulative IPC: 2.118 (Simulation time: 00 hr 36 min 09 sec)
Heartbeat CPU 0 instructions: 240001449 cycles: 106537361 heartbeat IPC: 1.604 cumulative IPC: 2.117 (Simulation time: 00 hr 36 min 15 sec)
Heartbeat CPU 0 instructions: 240501449 cycles: 106729501 heartbeat IPC: 2.602 cumulative IPC: 2.118 (Simulation time: 00 hr 36 min 19 sec)
Heartbeat CPU 0 instructions: 241001452 cycles: 106922676 heartbeat IPC: 2.588 cumulative IPC: 2.119 (Simulation time: 00 hr 36 min 23 sec)
Heartbeat CPU 0 instructions: 241501458 cycles: 107234909 heartbeat IPC: 1.601 cumulative IPC: 2.117 (Simulation time: 00 hr 36 min 29 sec)
Heartbeat CPU 0 instructions: 242001459 cycles: 107427673 heartbeat IPC: 2.594 cumulative IPC: 2.118 (Simulation time: 00 hr 36 min 33 sec)
Heartbeat CPU 0 instructions: 242501465 cycles: 107623962 heartbeat IPC: 2.547 cumulative IPC: 2.119 (Simulation time: 00 hr 36 min 37 sec)
Heartbeat CPU 0 instructions: 243001466 cycles: 107949837 heartbeat IPC: 1.534 cumulative IPC: 2.117 (Simulation time: 00 hr 36 min 43 sec)
Heartbeat CPU 0 instructions: 243501466 cycles: 108140586 heartbeat IPC: 2.621 cumulative IPC: 2.118 (Simulation time: 00 hr 36 min 47 sec)
Heartbeat CPU 0 instructions: 244001466 cycles: 108333746 heartbeat IPC: 2.589 cumulative IPC: 2.119 (Simulation time: 00 hr 36 min 51 sec)
Heartbeat CPU 0 instructions: 244501466 cycles: 108648495 heartbeat IPC: 1.589 cumulative IPC: 2.117 (Simulation time: 00 hr 36 min 57 sec)
Heartbeat CPU 0 instructions: 245001470 cycles: 108837852 heartbeat IPC: 2.641 cumulative IPC: 2.118 (Simulation time: 00 hr 37 min 01 sec)
Heartbeat CPU 0 instructions: 245501476 cycles: 109029177 heartbeat IPC: 2.613 cumulative IPC: 2.119 (Simulation time: 00 hr 37 min 05 sec)
Heartbeat CPU 0 instructions: 246001481 cycles: 109351092 heartbeat IPC: 1.553 cumulative IPC: 2.117 (Simulation time: 00 hr 37 min 11 sec)
Heartbeat CPU 0 instructions: 246501485 cycles: 109540035 heartbeat IPC: 2.646 cumulative IPC: 2.118 (Simulation time: 00 hr 37 min 15 sec)
Heartbeat CPU 0 instructions: 247001485 cycles: 109735992 heartbeat IPC: 2.552 cumulative IPC: 2.119 (Simulation time: 00 hr 37 min 19 sec)
Heartbeat CPU 0 instructions: 247501489 cycles: 110053183 heartbeat IPC: 1.576 cumulative IPC: 2.117 (Simulation time: 00 hr 37 min 24 sec)
Heartbeat CPU 0 instructions: 248001492 cycles: 110246567 heartbeat IPC: 2.586 cumulative IPC: 2.118 (Simulation time: 00 hr 37 min 28 sec)
Heartbeat CPU 0 instructions: 248501499 cycles: 110438307 heartbeat IPC: 2.608 cumulative IPC: 2.119 (Simulation time: 00 hr 37 min 33 sec)
Heartbeat CPU 0 instructions: 249001506 cycles: 110750876 heartbeat IPC: 1.6 cumulative IPC: 2.117 (Simulation time: 00 hr 37 min 38 sec)
Heartbeat CPU 0 instructions: 249501513 cycles: 110941024 heartbeat IPC: 2.63 cumulative IPC: 2.118 (Simulation time: 00 hr 37 min 42 sec)
Simulation finished CPU 0 instructions: 200000000 cycles: 94364615 cumulative IPC: 2.119 (Simulation time: 00 hr 37 min 46 sec)
Simulation complete CPU 0 instructions: 200000000 cycles: 94364615 cumulative IPC: 2.119 (Simulation time: 00 hr 37 min 46 sec)

ChampSim completed all CPUs

=== Simulation ===
CPU 0 runs /local-ssd/ben/dpc4-traces/ai-ml/stable-diffusion.cpp-sd-v1-4.ckpt.1.champsimtrace.gz

Region of Interest Statistics

CPU 0 cumulative IPC: 2.119 instructions: 200000000 cycles: 94364615
CPU 0 Branch Prediction Accuracy: 99.71% MPKI: 0.1832 Average ROB Occupancy at Mispredict: 516.6
Branch type MPKI
BRANCH_DIRECT_JUMP: 0
BRANCH_INDIRECT: 0
BRANCH_CONDITIONAL: 0.1832
BRANCH_DIRECT_CALL: 0
BRANCH_INDIRECT_CALL: 0
BRANCH_RETURN: 0

cpu0->cpu0_STLB TOTAL        ACCESS:     421780 HIT:     396170 MISS:      25610 MSHR_MERGE:          0
cpu0->cpu0_STLB LOAD         ACCESS:     421780 HIT:     396170 MISS:      25610 MSHR_MERGE:          0
cpu0->cpu0_STLB RFO          ACCESS:          0 HIT:          0 MISS:          0 MSHR_MERGE:          0
cpu0->cpu0_STLB PREFETCH     ACCESS:          0 HIT:          0 MISS:          0 MSHR_MERGE:          0
cpu0->cpu0_STLB WRITE        ACCESS:          0 HIT:          0 MISS:          0 MSHR_MERGE:          0
cpu0->cpu0_STLB TRANSLATION  ACCESS:          0 HIT:          0 MISS:          0 MSHR_MERGE:          0
cpu0->cpu0_STLB PREFETCH REQUESTED:          0 ISSUED:          0 USEFUL:          0 USELESS:          0
cpu0->cpu0_STLB AVERAGE MISS LATENCY: 65.94 cycles
cpu0->cpu0_L2C TOTAL        ACCESS:   49878758 HIT:   47427691 MISS:    2451067 MSHR_MERGE:          0
cpu0->cpu0_L2C LOAD         ACCESS:   35151122 HIT:   33122455 MISS:    2028667 MSHR_MERGE:          0
cpu0->cpu0_L2C RFO          ACCESS:      35811 HIT:      33663 MISS:       2148 MSHR_MERGE:          0
cpu0->cpu0_L2C PREFETCH     ACCESS:   14612887 HIT:   14195864 MISS:     417023 MSHR_MERGE:          0
cpu0->cpu0_L2C WRITE        ACCESS:      75416 HIT:      75416 MISS:          0 MSHR_MERGE:          0
cpu0->cpu0_L2C TRANSLATION  ACCESS:       3522 HIT:        293 MISS:       3229 MSHR_MERGE:          0
cpu0->cpu0_L2C PREFETCH REQUESTED:          0 ISSUED:          0 USEFUL:          0 USELESS:          0
cpu0->cpu0_L2C AVERAGE MISS LATENCY: 155.2 cycles
cpu0->cpu0_L1I TOTAL        ACCESS:   49785847 HIT:   49785847 MISS:          0 MSHR_MERGE:          0
cpu0->cpu0_L1I LOAD         ACCESS:   49785847 HIT:   49785847 MISS:          0 MSHR_MERGE:          0
cpu0->cpu0_L1I RFO          ACCESS:          0 HIT:          0 MISS:          0 MSHR_MERGE:          0
cpu0->cpu0_L1I PREFETCH     ACCESS:          0 HIT:          0 MISS:          0 MSHR_MERGE:          0
cpu0->cpu0_L1I WRITE        ACCESS:          0 HIT:          0 MISS:          0 MSHR_MERGE:          0
cpu0->cpu0_L1I TRANSLATION  ACCESS:          0 HIT:          0 MISS:          0 MSHR_MERGE:          0
cpu0->cpu0_L1I PREFETCH REQUESTED:          0 ISSUED:          0 USEFUL:          0 USELESS:          0
cpu0->cpu0_L1I AVERAGE MISS LATENCY: - cycles
cpu0->cpu0_L1D TOTAL        ACCESS:   84597820 HIT:   26373188 MISS:   58224632 MSHR_MERGE:    8421285
cpu0->cpu0_L1D LOAD         ACCESS:   58120804 HIT:   17719070 MISS:   40401734 MSHR_MERGE:    5250609
cpu0->cpu0_L1D RFO          ACCESS:          0 HIT:          0 MISS:          0 MSHR_MERGE:          0
cpu0->cpu0_L1D PREFETCH     ACCESS:   26264466 HIT:    8483352 MISS:   17781114 MSHR_MERGE:    3168225
cpu0->cpu0_L1D WRITE        ACCESS:     161334 HIT:     123080 MISS:      38254 MSHR_MERGE:       2443
cpu0->cpu0_L1D TRANSLATION  ACCESS:      51216 HIT:      47686 MISS:       3530 MSHR_MERGE:          8
cpu0->cpu0_L1D PREFETCH REQUESTED:  537956550 ISSUED:   26264467 USEFUL:   14448040 USELESS:     164851
cpu0->cpu0_L1D AVERAGE MISS LATENCY: 16.88 cycles
cpu0->cpu0_ITLB TOTAL        ACCESS:   34315876 HIT:   34315876 MISS:          0 MSHR_MERGE:          0
cpu0->cpu0_ITLB LOAD         ACCESS:   34315876 HIT:   34315876 MISS:          0 MSHR_MERGE:          0
cpu0->cpu0_ITLB RFO          ACCESS:          0 HIT:          0 MISS:          0 MSHR_MERGE:          0
cpu0->cpu0_ITLB PREFETCH     ACCESS:          0 HIT:          0 MISS:          0 MSHR_MERGE:          0
cpu0->cpu0_ITLB WRITE        ACCESS:          0 HIT:          0 MISS:          0 MSHR_MERGE:          0
cpu0->cpu0_ITLB TRANSLATION  ACCESS:          0 HIT:          0 MISS:          0 MSHR_MERGE:          0
cpu0->cpu0_ITLB PREFETCH REQUESTED:          0 ISSUED:          0 USEFUL:          0 USELESS:          0
cpu0->cpu0_ITLB AVERAGE MISS LATENCY: - cycles
cpu0->cpu0_DTLB TOTAL        ACCESS:   66903508 HIT:   66020533 MISS:     882975 MSHR_MERGE:     461195
cpu0->cpu0_DTLB LOAD         ACCESS:   66903508 HIT:   66020533 MISS:     882975 MSHR_MERGE:     461195
cpu0->cpu0_DTLB RFO          ACCESS:          0 HIT:          0 MISS:          0 MSHR_MERGE:          0
cpu0->cpu0_DTLB PREFETCH     ACCESS:          0 HIT:          0 MISS:          0 MSHR_MERGE:          0
cpu0->cpu0_DTLB WRITE        ACCESS:          0 HIT:          0 MISS:          0 MSHR_MERGE:          0
cpu0->cpu0_DTLB TRANSLATION  ACCESS:          0 HIT:          0 MISS:          0 MSHR_MERGE:          0
cpu0->cpu0_DTLB PREFETCH REQUESTED:          0 ISSUED:          0 USEFUL:          0 USELESS:          0
cpu0->cpu0_DTLB AVERAGE MISS LATENCY: 9.064 cycles
cpu0->LLC TOTAL        ACCESS:    2453233 HIT:     715031 MISS:    1738202 MSHR_MERGE:          0
cpu0->LLC LOAD         ACCESS:    2028667 HIT:     471869 MISS:    1556798 MSHR_MERGE:          0
cpu0->LLC RFO          ACCESS:       2148 HIT:          0 MISS:       2148 MSHR_MERGE:          0
cpu0->LLC PREFETCH     ACCESS:     417023 HIT:     241413 MISS:     175610 MSHR_MERGE:          0
cpu0->LLC WRITE        ACCESS:       2166 HIT:       1648 MISS:        518 MSHR_MERGE:          0
cpu0->LLC TRANSLATION  ACCESS:       3229 HIT:        101 MISS:       3128 MSHR_MERGE:          0
cpu0->LLC PREFETCH REQUESTED:          0 ISSUED:          0 USEFUL:          0 USELESS:          0
cpu0->LLC AVERAGE MISS LATENCY: 172.4 cycles

DRAM Statistics

Channel 0 RQ ROW_BUFFER_HIT:     745138
  ROW_BUFFER_MISS:     992546
  AVG DBUS CONGESTED CYCLE: 4.123
Channel 0 WQ ROW_BUFFER_HIT:        845
  ROW_BUFFER_MISS:       1276
  FULL:          0
Channel 0 REFRESHES ISSUED:       7863
