[VMEM] WARNING: physical memory size is smaller than virtual memory size.

*** ChampSim Multicore Out-of-Order Simulator ***
Warmup Instructions: 50000000
Simulation Instructions: 200000000
Number of CPUs: 1
Page size: 4096
Core 0: /local-ssd/ben/dpc4-traces/ai-ml/stable-diffusion.cpp-sd-v1-4.ckpt.2.champsimtrace.gz
sBerti (Smart Stride + Berti) Prefetcher Initialized
Off-chip DRAM Size: 64 GiB Channels: 1 Width: 64-bit Data Rate: 4807 MT/s
Heartbeat CPU 0 instructions: 500005 cycles: 198846 heartbeat IPC: 2.515 cumulative IPC: 2.515 (Simulation time: 00 hr 00 min 05 sec)
Heartbeat CPU 0 instructions: 1000007 cycles: 365506 heartbeat IPC: 3 cumulative IPC: 2.736 (Simulation time: 00 hr 00 min 08 sec)
Heartbeat CPU 0 instructions: 1500014 cycles: 533630 heartbeat IPC: 2.974 cumulative IPC: 2.811 (Simulation time: 00 hr 00 min 12 sec)
Heartbeat CPU 0 instructions: 2000017 cycles: 714752 heartbeat IPC: 2.761 cumulative IPC: 2.798 (Simulation time: 00 hr 00 min 16 sec)
Heartbeat CPU 0 instructions: 2500023 cycles: 881254 heartbeat IPC: 3.003 cumulative IPC: 2.837 (Simulation time: 00 hr 00 min 20 sec)
Heartbeat CPU 0 instructions: 3000024 cycles: 1048736 heartbeat IPC: 2.985 cumulative IPC: 2.861 (Simulation time: 00 hr 00 min 24 sec)
Heartbeat CPU 0 instructions: 3500031 cycles: 1231245 heartbeat IPC: 2.74 cumulative IPC: 2.843 (Simulation time: 00 hr 00 min 28 sec)
Heartbeat CPU 0 instructions: 4000037 cycles: 1398409 heartbeat IPC: 2.991 cumulative IPC: 2.86 (Simulation time: 00 hr 00 min 31 sec)
Heartbeat CPU 0 instructions: 4500044 cycles: 1566250 heartbeat IPC: 2.979 cumulative IPC: 2.873 (Simulation time: 00 hr 00 min 35 sec)
Heartbeat CPU 0 instructions: 5000047 cycles: 1741793 heartbeat IPC: 2.848 cumulative IPC: 2.871 (Simulation time: 00 hr 00 min 39 sec)
Heartbeat CPU 0 instructions: 5500052 cycles: 1912922 heartbeat IPC: 2.922 cumulative IPC: 2.875 (Simulation time: 00 hr 00 min 43 sec)
Heartbeat CPU 0 instructions: 6000054 cycles: 2081137 heartbeat IPC: 2.972 cumulative IPC: 2.883 (Simulation time: 00 hr 00 min 47 sec)
Heartbeat CPU 0 instructions: 6500059 cycles: 2248743 heartbeat IPC: 2.983 cumulative IPC: 2.891 (Simulation time: 00 hr 00 min 50 sec)
Heartbeat CPU 0 instructions: 7000066 cycles: 2426067 heartbeat IPC: 2.82 cumulative IPC: 2.885 (Simulation time: 00 hr 00 min 54 sec)
Heartbeat CPU 0 instructions: 7500069 cycles: 2593827 heartbeat IPC: 2.98 cumulative IPC: 2.892 (Simulation time: 00 hr 00 min 58 sec)
Heartbeat CPU 0 instructions: 8000071 cycles: 2760213 heartbeat IPC: 3.005 cumulative IPC: 2.898 (Simulation time: 00 hr 01 min 02 sec)
Heartbeat CPU 0 instructions: 8500074 cycles: 2941372 heartbeat IPC: 2.76 cumulative IPC: 2.89 (Simulation time: 00 hr 01 min 06 sec)
Heartbeat CPU 0 instructions: 9000079 cycles: 3108847 heartbeat IPC: 2.986 cumulative IPC: 2.895 (Simulation time: 00 hr 01 min 10 sec)
Heartbeat CPU 0 instructions: 9500084 cycles: 3278004 heartbeat IPC: 2.956 cumulative IPC: 2.898 (Simulation time: 00 hr 01 min 14 sec)
Heartbeat CPU 0 instructions: 10000084 cycles: 3457193 heartbeat IPC: 2.79 cumulative IPC: 2.893 (Simulation time: 00 hr 01 min 18 sec)
Heartbeat CPU 0 instructions: 10500091 cycles: 3623663 heartbeat IPC: 3.004 cumulative IPC: 2.898 (Simulation time: 00 hr 01 min 21 sec)
Heartbeat CPU 0 instructions: 11000096 cycles: 3791738 heartbeat IPC: 2.975 cumulative IPC: 2.901 (Simulation time: 00 hr 01 min 25 sec)
Heartbeat CPU 0 instructions: 11500098 cycles: 3958769 heartbeat IPC: 2.993 cumulative IPC: 2.905 (Simulation time: 00 hr 01 min 29 sec)
Heartbeat CPU 0 instructions: 12000101 cycles: 4138691 heartbeat IPC: 2.779 cumulative IPC: 2.899 (Simulation time: 00 hr 01 min 33 sec)
Heartbeat CPU 0 instructions: 12500106 cycles: 4306974 heartbeat IPC: 2.971 cumulative IPC: 2.902 (Simulation time: 00 hr 01 min 37 sec)
Heartbeat CPU 0 instructions: 13000112 cycles: 4473358 heartbeat IPC: 3.005 cumulative IPC: 2.906 (Simulation time: 00 hr 01 min 40 sec)
Heartbeat CPU 0 instructions: 13500117 cycles: 4652667 heartbeat IPC: 2.789 cumulative IPC: 2.902 (Simulation time: 00 hr 01 min 44 sec)
Heartbeat CPU 0 instructions: 14000118 cycles: 4820203 heartbeat IPC: 2.984 cumulative IPC: 2.904 (Simulation time: 00 hr 01 min 48 sec)
Heartbeat CPU 0 instructions: 14500120 cycles: 4986044 heartbeat IPC: 3.015 cumulative IPC: 2.908 (Simulation time: 00 hr 01 min 52 sec)
Heartbeat CPU 0 instructions: 15000127 cycles: 5167751 heartbeat IPC: 2.752 cumulative IPC: 2.903 (Simulation time: 00 hr 01 min 56 sec)
Heartbeat CPU 0 instructions: 15500132 cycles: 5337597 heartbeat IPC: 2.944 cumulative IPC: 2.904 (Simulation time: 00 hr 02 min 00 sec)
Heartbeat CPU 0 instructions: 16000136 cycles: 5504653 heartbeat IPC: 2.993 cumulative IPC: 2.907 (Simulation time: 00 hr 02 min 03 sec)
Heartbeat CPU 0 instructions: 16500142 cycles: 5671161 heartbeat IPC: 3.003 cumulative IPC: 2.909 (Simulation time: 00 hr 02 min 07 sec)
Heartbeat CPU 0 instructions: 17000143 cycles: 5851848 heartbeat IPC: 2.767 cumulative IPC: 2.905 (Simulation time: 00 hr 02 min 11 sec)
Heartbeat CPU 0 instructions: 17500150 cycles: 6019655 heartbeat IPC: 2.98 cumulative IPC: 2.907 (Simulation time: 00 hr 02 min 15 sec)
Heartbeat CPU 0 instructions: 18000150 cycles: 6188595 heartbeat IPC: 2.96 cumulative IPC: 2.909 (Simulation time: 00 hr 02 min 19 sec)
Heartbeat CPU 0 instructions: 18500155 cycles: 6368478 heartbeat IPC: 2.78 cumulative IPC: 2.905 (Simulation time: 00 hr 02 min 23 sec)
Heartbeat CPU 0 instructions: 19000157 cycles: 6537172 heartbeat IPC: 2.964 cumulative IPC: 2.906 (Simulation time: 00 hr 02 min 26 sec)
Heartbeat CPU 0 instructions: 19500158 cycles: 6704786 heartbeat IPC: 2.983 cumulative IPC: 2.908 (Simulation time: 00 hr 02 min 30 sec)
Heartbeat CPU 0 instructions: 20000162 cycles: 6885415 heartbeat IPC: 2.768 cumulative IPC: 2.905 (Simulation time: 00 hr 02 min 34 sec)
Heartbeat CPU 0 instructions: 20500167 cycles: 7052229 heartbeat IPC: 2.997 cumulative IPC: 2.907 (Simulation time: 00 hr 02 min 38 sec)
Heartbeat CPU 0 instructions: 21000168 cycles: 7219531 heartbeat IPC: 2.989 cumulative IPC: 2.909 (Simulation time: 00 hr 02 min 42 sec)
Heartbeat CPU 0 instructions: 21500171 cycles: 7388790 heartbeat IPC: 2.954 cumulative IPC: 2.91 (Simulation time: 00 hr 02 min 45 sec)
Heartbeat CPU 0 instructions: 22000171 cycles: 7566487 heartbeat IPC: 2.814 cumulative IPC: 2.908 (Simulation time: 00 hr 02 min 49 sec)
Heartbeat CPU 0 instructions: 22500176 cycles: 7732448 heartbeat IPC: 3.013 cumulative IPC: 2.91 (Simulation time: 00 hr 02 min 53 sec)
Heartbeat CPU 0 instructions: 23000177 cycles: 7899005 heartbeat IPC: 3.002 cumulative IPC: 2.912 (Simulation time: 00 hr 02 min 57 sec)
Heartbeat CPU 0 instructions: 23500180 cycles: 8077327 heartbeat IPC: 2.804 cumulative IPC: 2.909 (Simulation time: 00 hr 03 min 01 sec)
Heartbeat CPU 0 instructions: 24000182 cycles: 8243708 heartbeat IPC: 3.005 cumulative IPC: 2.911 (Simulation time: 00 hr 03 min 05 sec)
Heartbeat CPU 0 instructions: 24500183 cycles: 8408697 heartbeat IPC: 3.031 cumulative IPC: 2.914 (Simulation time: 00 hr 03 min 08 sec)
Heartbeat CPU 0 instructions: 25000187 cycles: 8589356 heartbeat IPC: 2.768 cumulative IPC: 2.911 (Simulation time: 00 hr 03 min 12 sec)
Heartbeat CPU 0 instructions: 25500194 cycles: 8756558 heartbeat IPC: 2.99 cumulative IPC: 2.912 (Simulation time: 00 hr 03 min 16 sec)
Heartbeat CPU 0 instructions: 26000195 cycles: 8924681 heartbeat IPC: 2.974 cumulative IPC: 2.913 (Simulation time: 00 hr 03 min 20 sec)
Heartbeat CPU 0 instructions: 26500202 cycles: 9096541 heartbeat IPC: 2.909 cumulative IPC: 2.913 (Simulation time: 00 hr 03 min 24 sec)
Heartbeat CPU 0 instructions: 27000203 cycles: 9270329 heartbeat IPC: 2.877 cumulative IPC: 2.913 (Simulation time: 00 hr 03 min 28 sec)
Heartbeat CPU 0 instructions: 27500205 cycles: 9435731 heartbeat IPC: 3.023 cumulative IPC: 2.914 (Simulation time: 00 hr 03 min 31 sec)
Heartbeat CPU 0 instructions: 28000208 cycles: 9604188 heartbeat IPC: 2.968 cumulative IPC: 2.915 (Simulation time: 00 hr 03 min 35 sec)
Heartbeat CPU 0 instructions: 28500212 cycles: 9781948 heartbeat IPC: 2.813 cumulative IPC: 2.914 (Simulation time: 00 hr 03 min 39 sec)
Heartbeat CPU 0 instructions: 29000212 cycles: 9951636 heartbeat IPC: 2.947 cumulative IPC: 2.914 (Simulation time: 00 hr 03 min 43 sec)
Heartbeat CPU 0 instructions: 29500218 cycles: 10118856 heartbeat IPC: 2.99 cumulative IPC: 2.915 (Simulation time: 00 hr 03 min 47 sec)
Heartbeat CPU 0 instructions: 30000225 cycles: 10298880 heartbeat IPC: 2.777 cumulative IPC: 2.913 (Simulation time: 00 hr 03 min 51 sec)
Heartbeat CPU 0 instructions: 30500226 cycles: 10466456 heartbeat IPC: 2.984 cumulative IPC: 2.914 (Simulation time: 00 hr 03 min 55 sec)
Heartbeat CPU 0 instructions: 31000226 cycles: 10632895 heartbeat IPC: 3.004 cumulative IPC: 2.916 (Simulation time: 00 hr 03 min 58 sec)
Heartbeat CPU 0 instructions: 31500229 cycles: 10808211 heartbeat IPC: 2.852 cumulative IPC: 2.914 (Simulation time: 00 hr 04 min 02 sec)
Heartbeat CPU 0 instructions: 32000234 cycles: 10982131 heartbeat IPC: 2.875 cumulative IPC: 2.914 (Simulation time: 00 hr 04 min 06 sec)
Heartbeat CPU 0 instructions: 32500235 cycles: 11149386 heartbeat IPC: 2.989 cumulative IPC: 2.915 (Simulation time: 00 hr 04 min 10 sec)
Heartbeat CPU 0 instructions: 33000237 cycles: 11316104 heartbeat IPC: 2.999 cumulative IPC: 2.916 (Simulation time: 00 hr 04 min 14 sec)
Heartbeat CPU 0 instructions: 33500244 cycles: 11491502 heartbeat IPC: 2.851 cumulative IPC: 2.915 (Simulation time: 00 hr 04 min 17 sec)
Heartbeat CPU 0 instructions: 34000248 cycles: 11659481 heartbeat IPC: 2.977 cumulative IPC: 2.916 (Simulation time: 00 hr 04 min 21 sec)
Heartbeat CPU 0 instructions: 34500248 cycles: 11825730 heartbeat IPC: 3.008 cumulative IPC: 2.917 (Simulation time: 00 hr 04 min 25 sec)
Heartbeat CPU 0 instructions: 35000248 cycles: 12005407 heartbeat IPC: 2.783 cumulative IPC: 2.915 (Simulation time: 00 hr 04 min 29 sec)
Heartbeat CPU 0 instructions: 35500253 cycles: 12171785 heartbeat IPC: 3.005 cumulative IPC: 2.917 (Simulation time: 00 hr 04 min 33 sec)
Heartbeat CPU 0 instructions: 36000255 cycles: 12340330 heartbeat IPC: 2.967 cumulative IPC: 2.917 (Simulation time: 00 hr 04 min 36 sec)
Heartbeat CPU 0 instructions: 36500261 cycles: 12521453 heartbeat IPC: 2.761 cumulative IPC: 2.915 (Simulation time: 00 hr 04 min 40 sec)
Heartbeat CPU 0 instructions: 37000265 cycles: 12691358 heartbeat IPC: 2.943 cumulative IPC: 2.915 (Simulation time: 00 hr 04 min 44 sec)
Heartbeat CPU 0 instructions: 37500270 cycles: 12859030 heartbeat IPC: 2.982 cumulative IPC: 2.916 (Simulation time: 00 hr 04 min 48 sec)
Heartbeat CPU 0 instructions: 38000271 cycles: 13025337 heartbeat IPC: 3.006 cumulative IPC: 2.917 (Simulation time: 00 hr 04 min 52 sec)
Heartbeat CPU 0 instructions: 38500271 cycles: 13206161 heartbeat IPC: 2.765 cumulative IPC: 2.915 (Simulation time: 00 hr 04 min 56 sec)
Heartbeat CPU 0 instructions: 39000272 cycles: 13374076 heartbeat IPC: 2.978 cumulative IPC: 2.916 (Simulation time: 00 hr 04 min 59 sec)
Heartbeat CPU 0 instructions: 39500275 cycles: 13542517 heartbeat IPC: 2.968 cumulative IPC: 2.917 (Simulation time: 00 hr 05 min 03 sec)
Heartbeat CPU 0 instructions: 40000281 cycles: 13722595 heartbeat IPC: 2.777 cumulative IPC: 2.915 (Simulation time: 00 hr 05 min 07 sec)
Heartbeat CPU 0 instructions: 40500284 cycles: 13889056 heartbeat IPC: 3.004 cumulative IPC: 2.916 (Simulation time: 00 hr 05 min 11 sec)
Heartbeat CPU 0 instructions: 41000289 cycles: 14057203 heartbeat IPC: 2.974 cumulative IPC: 2.917 (Simulation time: 00 hr 05 min 15 sec)
Heartbeat CPU 0 instructions: 41500293 cycles: 14238355 heartbeat IPC: 2.76 cumulative IPC: 2.915 (Simulation time: 00 hr 05 min 19 sec)
Heartbeat CPU 0 instructions: 42000294 cycles: 14405950 heartbeat IPC: 2.983 cumulative IPC: 2.915 (Simulation time: 00 hr 05 min 22 sec)
Heartbeat CPU 0 instructions: 42500301 cycles: 14572749 heartbeat IPC: 2.998 cumulative IPC: 2.916 (Simulation time: 00 hr 05 min 26 sec)
Heartbeat CPU 0 instructions: 43000306 cycles: 14741350 heartbeat IPC: 2.966 cumulative IPC: 2.917 (Simulation time: 00 hr 05 min 30 sec)
Heartbeat CPU 0 instructions: 43500306 cycles: 14924130 heartbeat IPC: 2.736 cumulative IPC: 2.915 (Simulation time: 00 hr 05 min 34 sec)
Heartbeat CPU 0 instructions: 44000311 cycles: 15091970 heartbeat IPC: 2.979 cumulative IPC: 2.915 (Simulation time: 00 hr 05 min 38 sec)
Heartbeat CPU 0 instructions: 44500313 cycles: 15258772 heartbeat IPC: 2.998 cumulative IPC: 2.916 (Simulation time: 00 hr 05 min 42 sec)
Heartbeat CPU 0 instructions: 45000316 cycles: 15439689 heartbeat IPC: 2.764 cumulative IPC: 2.915 (Simulation time: 00 hr 05 min 46 sec)
Heartbeat CPU 0 instructions: 45500323 cycles: 15606118 heartbeat IPC: 3.004 cumulative IPC: 2.916 (Simulation time: 00 hr 05 min 49 sec)
Heartbeat CPU 0 instructions: 46000328 cycles: 15771563 heartbeat IPC: 3.022 cumulative IPC: 2.917 (Simulation time: 00 hr 05 min 53 sec)
Heartbeat CPU 0 instructions: 46500331 cycles: 15950465 heartbeat IPC: 2.795 cumulative IPC: 2.915 (Simulation time: 00 hr 05 min 57 sec)
Heartbeat CPU 0 instructions: 47000333 cycles: 16119028 heartbeat IPC: 2.966 cumulative IPC: 2.916 (Simulation time: 00 hr 06 min 01 sec)
Heartbeat CPU 0 instructions: 47500338 cycles: 16286865 heartbeat IPC: 2.979 cumulative IPC: 2.916 (Simulation time: 00 hr 06 min 04 sec)
Heartbeat CPU 0 instructions: 48000341 cycles: 16454805 heartbeat IPC: 2.977 cumulative IPC: 2.917 (Simulation time: 00 hr 06 min 08 sec)
Heartbeat CPU 0 instructions: 48500344 cycles: 16632329 heartbeat IPC: 2.817 cumulative IPC: 2.916 (Simulation time: 00 hr 06 min 12 sec)
Heartbeat CPU 0 instructions: 49000350 cycles: 16799702 heartbeat IPC: 2.987 cumulative IPC: 2.917 (Simulation time: 00 hr 06 min 16 sec)
Heartbeat CPU 0 instructions: 49500354 cycles: 16966996 heartbeat IPC: 2.989 cumulative IPC: 2.917 (Simulation time: 00 hr 06 min 20 sec)
Warmup halting CPU 0 at instruction 50000003 cycle 17144956 for remainder of phase
Warmup finished CPU 0 instructions: 50000003 cycles: 17144956 cumulative IPC: 2.916 (Simulation time: 00 hr 06 min 24 sec)
Warmup complete CPU 0 instructions: 50000003 cycles: 17144956 cumulative IPC: 2.916 (Simulation time: 00 hr 06 min 24 sec)
Heartbeat CPU 0 instructions: 50000358 cycles: 17145194 heartbeat IPC: 2.806 cumulative IPC: 1.492 (Simulation time: 00 hr 06 min 24 sec)
Heartbeat CPU 0 instructions: 50500363 cycles: 17343445 heartbeat IPC: 2.522 cumulative IPC: 2.521 (Simulation time: 00 hr 06 min 27 sec)
Heartbeat CPU 0 instructions: 51000365 cycles: 17540523 heartbeat IPC: 2.537 cumulative IPC: 2.529 (Simulation time: 00 hr 06 min 31 sec)
Heartbeat CPU 0 instructions: 51500365 cycles: 17777017 heartbeat IPC: 2.114 cumulative IPC: 2.374 (Simulation time: 00 hr 06 min 35 sec)
Heartbeat CPU 0 instructions: 52000365 cycles: 17973082 heartbeat IPC: 2.55 cumulative IPC: 2.416 (Simulation time: 00 hr 06 min 39 sec)
Heartbeat CPU 0 instructions: 52500365 cycles: 18174560 heartbeat IPC: 2.482 cumulative IPC: 2.428 (Simulation time: 00 hr 06 min 43 sec)
Heartbeat CPU 0 instructions: 53000365 cycles: 18388359 heartbeat IPC: 2.339 cumulative IPC: 2.413 (Simulation time: 00 hr 06 min 47 sec)
Heartbeat CPU 0 instructions: 53500370 cycles: 18610606 heartbeat IPC: 2.25 cumulative IPC: 2.388 (Simulation time: 00 hr 06 min 51 sec)
Heartbeat CPU 0 instructions: 54000371 cycles: 18812207 heartbeat IPC: 2.48 cumulative IPC: 2.399 (Simulation time: 00 hr 06 min 55 sec)
Heartbeat CPU 0 instructions: 54500375 cycles: 19012796 heartbeat IPC: 2.493 cumulative IPC: 2.409 (Simulation time: 00 hr 06 min 59 sec)
Heartbeat CPU 0 instructions: 55000382 cycles: 19253099 heartbeat IPC: 2.081 cumulative IPC: 2.372 (Simulation time: 00 hr 07 min 03 sec)
Heartbeat CPU 0 instructions: 55500383 cycles: 19451129 heartbeat IPC: 2.525 cumulative IPC: 2.385 (Simulation time: 00 hr 07 min 07 sec)
Heartbeat CPU 0 instructions: 56000388 cycles: 19651989 heartbeat IPC: 2.489 cumulative IPC: 2.393 (Simulation time: 00 hr 07 min 11 sec)
Heartbeat CPU 0 instructions: 56500389 cycles: 19888707 heartbeat IPC: 2.112 cumulative IPC: 2.369 (Simulation time: 00 hr 07 min 15 sec)
Heartbeat CPU 0 instructions: 57000389 cycles: 20090210 heartbeat IPC: 2.481 cumulative IPC: 2.377 (Simulation time: 00 hr 07 min 19 sec)
Heartbeat CPU 0 instructions: 57500393 cycles: 20288374 heartbeat IPC: 2.523 cumulative IPC: 2.386 (Simulation time: 00 hr 07 min 23 sec)
Heartbeat CPU 0 instructions: 58000395 cycles: 20517846 heartbeat IPC: 2.179 cumulative IPC: 2.372 (Simulation time: 00 hr 07 min 27 sec)
Heartbeat CPU 0 instructions: 58500401 cycles: 20728356 heartbeat IPC: 2.375 cumulative IPC: 2.372 (Simulation time: 00 hr 07 min 31 sec)
Heartbeat CPU 0 instructions: 59000405 cycles: 20928910 heartbeat IPC: 2.493 cumulative IPC: 2.379 (Simulation time: 00 hr 07 min 34 sec)
Heartbeat CPU 0 instructions: 59500405 cycles: 21128748 heartbeat IPC: 2.502 cumulative IPC: 2.385 (Simulation time: 00 hr 07 min 38 sec)
Heartbeat CPU 0 instructions: 60000405 cycles: 21364130 heartbeat IPC: 2.124 cumulative IPC: 2.37 (Simulation time: 00 hr 07 min 43 sec)
Heartbeat CPU 0 instructions: 60500410 cycles: 21586912 heartbeat IPC: 2.244 cumulative IPC: 2.364 (Simulation time: 00 hr 07 min 47 sec)
Heartbeat CPU 0 instructions: 61000412 cycles: 21805630 heartbeat IPC: 2.286 cumulative IPC: 2.36 (Simulation time: 00 hr 07 min 51 sec)
Heartbeat CPU 0 instructions: 61500415 cycles: 22042170 heartbeat IPC: 2.114 cumulative IPC: 2.348 (Simulation time: 00 hr 07 min 55 sec)
Heartbeat CPU 0 instructions: 62000422 cycles: 22241639 heartbeat IPC: 2.507 cumulative IPC: 2.355 (Simulation time: 00 hr 07 min 59 sec)
Heartbeat CPU 0 instructions: 62500427 cycles: 22440952 heartbeat IPC: 2.509 cumulative IPC: 2.36 (Simulation time: 00 hr 08 min 05 sec)
Heartbeat CPU 0 instructions: 63000430 cycles: 22679738 heartbeat IPC: 2.094 cumulative IPC: 2.349 (Simulation time: 00 hr 08 min 12 sec)
Heartbeat CPU 0 instructions: 63500437 cycles: 22877471 heartbeat IPC: 2.529 cumulative IPC: 2.355 (Simulation time: 00 hr 08 min 18 sec)
Heartbeat CPU 0 instructions: 64000441 cycles: 23079005 heartbeat IPC: 2.481 cumulative IPC: 2.359 (Simulation time: 00 hr 08 min 23 sec)
Heartbeat CPU 0 instructions: 64500447 cycles: 23275667 heartbeat IPC: 2.542 cumulative IPC: 2.365 (Simulation time: 00 hr 08 min 27 sec)
Heartbeat CPU 0 instructions: 65000452 cycles: 23509766 heartbeat IPC: 2.136 cumulative IPC: 2.357 (Simulation time: 00 hr 08 min 31 sec)
Heartbeat CPU 0 instructions: 65500452 cycles: 23710422 heartbeat IPC: 2.492 cumulative IPC: 2.361 (Simulation time: 00 hr 08 min 35 sec)
Heartbeat CPU 0 instructions: 66000454 cycles: 23909171 heartbeat IPC: 2.516 cumulative IPC: 2.365 (Simulation time: 00 hr 08 min 38 sec)
Heartbeat CPU 0 instructions: 66500454 cycles: 24152059 heartbeat IPC: 2.059 cumulative IPC: 2.355 (Simulation time: 00 hr 08 min 43 sec)
Heartbeat CPU 0 instructions: 67000459 cycles: 24349659 heartbeat IPC: 2.53 cumulative IPC: 2.36 (Simulation time: 00 hr 08 min 47 sec)
Heartbeat CPU 0 instructions: 67500461 cycles: 24550186 heartbeat IPC: 2.493 cumulative IPC: 2.363 (Simulation time: 00 hr 08 min 50 sec)
Heartbeat CPU 0 instructions: 68000466 cycles: 24784097 heartbeat IPC: 2.138 cumulative IPC: 2.356 (Simulation time: 00 hr 08 min 55 sec)
Heartbeat CPU 0 instructions: 68500469 cycles: 24984487 heartbeat IPC: 2.495 cumulative IPC: 2.36 (Simulation time: 00 hr 08 min 58 sec)
Heartbeat CPU 0 instructions: 69000470 cycles: 25185868 heartbeat IPC: 2.483 cumulative IPC: 2.363 (Simulation time: 00 hr 09 min 02 sec)
Heartbeat CPU 0 instructions: 69500472 cycles: 25386741 heartbeat IPC: 2.489 cumulative IPC: 2.366 (Simulation time: 00 hr 09 min 06 sec)
Heartbeat CPU 0 instructions: 70000473 cycles: 25626167 heartbeat IPC: 2.088 cumulative IPC: 2.358 (Simulation time: 00 hr 09 min 10 sec)
Heartbeat CPU 0 instructions: 70500477 cycles: 25826222 heartbeat IPC: 2.499 cumulative IPC: 2.361 (Simulation time: 00 hr 09 min 14 sec)
Heartbeat CPU 0 instructions: 71000479 cycles: 26024367 heartbeat IPC: 2.523 cumulative IPC: 2.365 (Simulation time: 00 hr 09 min 18 sec)
Heartbeat CPU 0 instructions: 71500481 cycles: 26265616 heartbeat IPC: 2.073 cumulative IPC: 2.357 (Simulation time: 00 hr 09 min 22 sec)
Heartbeat CPU 0 instructions: 72000482 cycles: 26465488 heartbeat IPC: 2.502 cumulative IPC: 2.36 (Simulation time: 00 hr 09 min 26 sec)
Heartbeat CPU 0 instructions: 72500486 cycles: 26667160 heartbeat IPC: 2.479 cumulative IPC: 2.363 (Simulation time: 00 hr 09 min 30 sec)
Heartbeat CPU 0 instructions: 73000490 cycles: 26901757 heartbeat IPC: 2.131 cumulative IPC: 2.357 (Simulation time: 00 hr 09 min 34 sec)
Heartbeat CPU 0 instructions: 73500492 cycles: 27103201 heartbeat IPC: 2.482 cumulative IPC: 2.36 (Simulation time: 00 hr 09 min 38 sec)
Heartbeat CPU 0 instructions: 74000493 cycles: 27305115 heartbeat IPC: 2.476 cumulative IPC: 2.362 (Simulation time: 00 hr 09 min 42 sec)
Heartbeat CPU 0 instructions: 74500499 cycles: 27505685 heartbeat IPC: 2.493 cumulative IPC: 2.365 (Simulation time: 00 hr 09 min 46 sec)
Heartbeat CPU 0 instructions: 75000504 cycles: 27739610 heartbeat IPC: 2.137 cumulative IPC: 2.36 (Simulation time: 00 hr 09 min 50 sec)
Heartbeat CPU 0 instructions: 75500509 cycles: 27940923 heartbeat IPC: 2.484 cumulative IPC: 2.362 (Simulation time: 00 hr 09 min 54 sec)
Heartbeat CPU 0 instructions: 76000516 cycles: 28136718 heartbeat IPC: 2.554 cumulative IPC: 2.365 (Simulation time: 00 hr 09 min 58 sec)
Heartbeat CPU 0 instructions: 76500517 cycles: 28372279 heartbeat IPC: 2.123 cumulative IPC: 2.36 (Simulation time: 00 hr 10 min 02 sec)
Heartbeat CPU 0 instructions: 77000519 cycles: 28573182 heartbeat IPC: 2.489 cumulative IPC: 2.363 (Simulation time: 00 hr 10 min 06 sec)
Heartbeat CPU 0 instructions: 77500524 cycles: 28776276 heartbeat IPC: 2.462 cumulative IPC: 2.364 (Simulation time: 00 hr 10 min 10 sec)
Heartbeat CPU 0 instructions: 78000525 cycles: 29014171 heartbeat IPC: 2.102 cumulative IPC: 2.359 (Simulation time: 00 hr 10 min 14 sec)
Heartbeat CPU 0 instructions: 78500525 cycles: 29214985 heartbeat IPC: 2.49 cumulative IPC: 2.361 (Simulation time: 00 hr 10 min 18 sec)
Heartbeat CPU 0 instructions: 79000530 cycles: 29416076 heartbeat IPC: 2.486 cumulative IPC: 2.363 (Simulation time: 00 hr 10 min 22 sec)
Heartbeat CPU 0 instructions: 79500530 cycles: 29631092 heartbeat IPC: 2.325 cumulative IPC: 2.363 (Simulation time: 00 hr 10 min 26 sec)
Heartbeat CPU 0 instructions: 80000536 cycles: 29852182 heartbeat IPC: 2.262 cumulative IPC: 2.361 (Simulation time: 00 hr 10 min 30 sec)
Heartbeat CPU 0 instructions: 80500540 cycles: 30052175 heartbeat IPC: 2.5 cumulative IPC: 2.363 (Simulation time: 00 hr 10 min 34 sec)
Heartbeat CPU 0 instructions: 81000545 cycles: 30251986 heartbeat IPC: 2.502 cumulative IPC: 2.365 (Simulation time: 00 hr 10 min 37 sec)
Heartbeat CPU 0 instructions: 81500548 cycles: 30489972 heartbeat IPC: 2.101 cumulative IPC: 2.36 (Simulation time: 00 hr 10 min 42 sec)
Heartbeat CPU 0 instructions: 82000550 cycles: 30691114 heartbeat IPC: 2.486 cumulative IPC: 2.362 (Simulation time: 00 hr 10 min 46 sec)
Heartbeat CPU 0 instructions: 82500555 cycles: 30888019 heartbeat IPC: 2.539 cumulative IPC: 2.365 (Simulation time: 00 hr 10 min 49 sec)
Heartbeat CPU 0 instructions: 83000558 cycles: 31128657 heartbeat IPC: 2.078 cumulative IPC: 2.36 (Simulation time: 00 hr 10 min 54 sec)
Heartbeat CPU 0 instructions: 83500565 cycles: 31332353 heartbeat IPC: 2.455 cumulative IPC: 2.361 (Simulation time: 00 hr 10 min 58 sec)
Heartbeat CPU 0 instructions: 84000569 cycles: 31532446 heartbeat IPC: 2.499 cumulative IPC: 2.363 (Simulation time: 00 hr 11 min 01 sec)
Heartbeat CPU 0 instructions: 84500569 cycles: 31760230 heartbeat IPC: 2.195 cumulative IPC: 2.361 (Simulation time: 00 hr 11 min 06 sec)
Heartbeat CPU 0 instructions: 85000575 cycles: 31968308 heartbeat IPC: 2.403 cumulative IPC: 2.361 (Simulation time: 00 hr 11 min 09 sec)
Heartbeat CPU 0 instructions: 85500576 cycles: 32167413 heartbeat IPC: 2.511 cumulative IPC: 2.363 (Simulation time: 00 hr 11 min 13 sec)
Heartbeat CPU 0 instructions: 86000576 cycles: 32374023 heartbeat IPC: 2.42 cumulative IPC: 2.364 (Simulation time: 00 hr 11 min 17 sec)
Heartbeat CPU 0 instructions: 86500577 cycles: 32609590 heartbeat IPC: 2.123 cumulative IPC: 2.36 (Simulation time: 00 hr 11 min 21 sec)
Heartbeat CPU 0 instructions: 87000578 cycles: 32809448 heartbeat IPC: 2.502 cumulative IPC: 2.362 (Simulation time: 00 hr 11 min 25 sec)
Heartbeat CPU 0 instructions: 87500578 cycles: 33010050 heartbeat IPC: 2.492 cumulative IPC: 2.364 (Simulation time: 00 hr 11 min 29 sec)
Heartbeat CPU 0 instructions: 88000583 cycles: 33244681 heartbeat IPC: 2.131 cumulative IPC: 2.36 (Simulation time: 00 hr 11 min 33 sec)
Heartbeat CPU 0 instructions: 88500588 cycles: 33447834 heartbeat IPC: 2.461 cumulative IPC: 2.362 (Simulation time: 00 hr 11 min 37 sec)
Heartbeat CPU 0 instructions: 89000593 cycles: 33648751 heartbeat IPC: 2.489 cumulative IPC: 2.363 (Simulation time: 00 hr 11 min 41 sec)
Heartbeat CPU 0 instructions: 89500599 cycles: 33888267 heartbeat IPC: 2.088 cumulative IPC: 2.359 (Simulation time: 00 hr 11 min 45 sec)
Heartbeat CPU 0 instructions: 90000600 cycles: 34088792 heartbeat IPC: 2.493 cumulative IPC: 2.361 (Simulation time: 00 hr 11 min 49 sec)
Heartbeat CPU 0 instructions: 90500605 cycles: 34287489 heartbeat IPC: 2.516 cumulative IPC: 2.363 (Simulation time: 00 hr 11 min 53 sec)
Heartbeat CPU 0 instructions: 91000611 cycles: 34486942 heartbeat IPC: 2.507 cumulative IPC: 2.364 (Simulation time: 00 hr 11 min 57 sec)
Heartbeat CPU 0 instructions: 91500618 cycles: 34723998 heartbeat IPC: 2.109 cumulative IPC: 2.361 (Simulation time: 00 hr 12 min 01 sec)
Heartbeat CPU 0 instructions: 92000621 cycles: 34929845 heartbeat IPC: 2.429 cumulative IPC: 2.362 (Simulation time: 00 hr 12 min 05 sec)
Heartbeat CPU 0 instructions: 92500626 cycles: 35129610 heartbeat IPC: 2.503 cumulative IPC: 2.363 (Simulation time: 00 hr 12 min 09 sec)
Heartbeat CPU 0 instructions: 93000627 cycles: 35367958 heartbeat IPC: 2.098 cumulative IPC: 2.36 (Simulation time: 00 hr 12 min 13 sec)
Heartbeat CPU 0 instructions: 93500633 cycles: 35571287 heartbeat IPC: 2.459 cumulative IPC: 2.361 (Simulation time: 00 hr 12 min 17 sec)
Heartbeat CPU 0 instructions: 94000640 cycles: 35773652 heartbeat IPC: 2.471 cumulative IPC: 2.362 (Simulation time: 00 hr 12 min 21 sec)
Heartbeat CPU 0 instructions: 94500643 cycles: 36009880 heartbeat IPC: 2.117 cumulative IPC: 2.359 (Simulation time: 00 hr 12 min 25 sec)
Heartbeat CPU 0 instructions: 95000645 cycles: 36208562 heartbeat IPC: 2.517 cumulative IPC: 2.361 (Simulation time: 00 hr 12 min 29 sec)
Heartbeat CPU 0 instructions: 95500650 cycles: 36408188 heartbeat IPC: 2.505 cumulative IPC: 2.362 (Simulation time: 00 hr 12 min 33 sec)
Heartbeat CPU 0 instructions: 96000657 cycles: 36611867 heartbeat IPC: 2.455 cumulative IPC: 2.363 (Simulation time: 00 hr 12 min 37 sec)
Heartbeat CPU 0 instructions: 96500657 cycles: 36848743 heartbeat IPC: 2.111 cumulative IPC: 2.36 (Simulation time: 00 hr 12 min 41 sec)
Heartbeat CPU 0 instructions: 97000664 cycles: 37049453 heartbeat IPC: 2.491 cumulative IPC: 2.361 (Simulation time: 00 hr 12 min 45 sec)
Heartbeat CPU 0 instructions: 97500665 cycles: 37248724 heartbeat IPC: 2.509 cumulative IPC: 2.363 (Simulation time: 00 hr 12 min 49 sec)
Heartbeat CPU 0 instructions: 98000670 cycles: 37486396 heartbeat IPC: 2.104 cumulative IPC: 2.36 (Simulation time: 00 hr 12 min 53 sec)
Heartbeat CPU 0 instructions: 98500672 cycles: 37679708 heartbeat IPC: 2.587 cumulative IPC: 2.362 (Simulation time: 00 hr 12 min 57 sec)
Heartbeat CPU 0 instructions: 99000673 cycles: 37868341 heartbeat IPC: 2.651 cumulative IPC: 2.365 (Simulation time: 00 hr 13 min 01 sec)
Heartbeat CPU 0 instructions: 99500674 cycles: 38089229 heartbeat IPC: 2.264 cumulative IPC: 2.363 (Simulation time: 00 hr 13 min 05 sec)
Heartbeat CPU 0 instructions: 100000674 cycles: 38284364 heartbeat IPC: 2.562 cumulative IPC: 2.365 (Simulation time: 00 hr 13 min 09 sec)
Heartbeat CPU 0 instructions: 100500676 cycles: 38477869 heartbeat IPC: 2.584 cumulative IPC: 2.367 (Simulation time: 00 hr 13 min 12 sec)
Heartbeat CPU 0 instructions: 101000681 cycles: 38674067 heartbeat IPC: 2.548 cumulative IPC: 2.369 (Simulation time: 00 hr 13 min 16 sec)
Heartbeat CPU 0 instructions: 101500684 cycles: 38894273 heartbeat IPC: 2.271 cumulative IPC: 2.368 (Simulation time: 00 hr 13 min 20 sec)
Heartbeat CPU 0 instructions: 102000685 cycles: 39090037 heartbeat IPC: 2.554 cumulative IPC: 2.37 (Simulation time: 00 hr 13 min 24 sec)
Heartbeat CPU 0 instructions: 102500688 cycles: 39279182 heartbeat IPC: 2.643 cumulative IPC: 2.372 (Simulation time: 00 hr 13 min 28 sec)
Heartbeat CPU 0 instructions: 103000693 cycles: 39498862 heartbeat IPC: 2.276 cumulative IPC: 2.371 (Simulation time: 00 hr 13 min 32 sec)
Heartbeat CPU 0 instructions: 103500693 cycles: 39687621 heartbeat IPC: 2.649 cumulative IPC: 2.373 (Simulation time: 00 hr 13 min 36 sec)
Heartbeat CPU 0 instructions: 104000698 cycles: 39878029 heartbeat IPC: 2.626 cumulative IPC: 2.375 (Simulation time: 00 hr 13 min 39 sec)
Heartbeat CPU 0 instructions: 104500705 cycles: 40102948 heartbeat IPC: 2.223 cumulative IPC: 2.374 (Simulation time: 00 hr 13 min 43 sec)
Heartbeat CPU 0 instructions: 105000710 cycles: 40298416 heartbeat IPC: 2.558 cumulative IPC: 2.375 (Simulation time: 00 hr 13 min 47 sec)
Heartbeat CPU 0 instructions: 105500710 cycles: 40491776 heartbeat IPC: 2.586 cumulative IPC: 2.377 (Simulation time: 00 hr 13 min 51 sec)
Heartbeat CPU 0 instructions: 106000712 cycles: 40699123 heartbeat IPC: 2.411 cumulative IPC: 2.378 (Simulation time: 00 hr 13 min 55 sec)
Heartbeat CPU 0 instructions: 106500712 cycles: 40907966 heartbeat IPC: 2.394 cumulative IPC: 2.378 (Simulation time: 00 hr 13 min 59 sec)
Heartbeat CPU 0 instructions: 107000714 cycles: 41102294 heartbeat IPC: 2.573 cumulative IPC: 2.379 (Simulation time: 00 hr 14 min 03 sec)
Heartbeat CPU 0 instructions: 107500719 cycles: 41291611 heartbeat IPC: 2.641 cumulative IPC: 2.381 (Simulation time: 00 hr 14 min 07 sec)
Heartbeat CPU 0 instructions: 108000722 cycles: 41512264 heartbeat IPC: 2.266 cumulative IPC: 2.38 (Simulation time: 00 hr 14 min 11 sec)
Heartbeat CPU 0 instructions: 108500724 cycles: 41701864 heartbeat IPC: 2.637 cumulative IPC: 2.382 (Simulation time: 00 hr 14 min 14 sec)
Heartbeat CPU 0 instructions: 109000731 cycles: 41895941 heartbeat IPC: 2.576 cumulative IPC: 2.384 (Simulation time: 00 hr 14 min 18 sec)
Heartbeat CPU 0 instructions: 109500732 cycles: 42117463 heartbeat IPC: 2.257 cumulative IPC: 2.383 (Simulation time: 00 hr 14 min 22 sec)
Heartbeat CPU 0 instructions: 110000732 cycles: 42305808 heartbeat IPC: 2.655 cumulative IPC: 2.385 (Simulation time: 00 hr 14 min 26 sec)
Heartbeat CPU 0 instructions: 110500733 cycles: 42497467 heartbeat IPC: 2.609 cumulative IPC: 2.386 (Simulation time: 00 hr 14 min 30 sec)
Heartbeat CPU 0 instructions: 111000735 cycles: 42709969 heartbeat IPC: 2.353 cumulative IPC: 2.386 (Simulation time: 00 hr 14 min 34 sec)
Heartbeat CPU 0 instructions: 111500740 cycles: 42912559 heartbeat IPC: 2.468 cumulative IPC: 2.387 (Simulation time: 00 hr 14 min 38 sec)
Heartbeat CPU 0 instructions: 112000740 cycles: 43104410 heartbeat IPC: 2.606 cumulative IPC: 2.388 (Simulation time: 00 hr 14 min 42 sec)
Heartbeat CPU 0 instructions: 112500742 cycles: 43296981 heartbeat IPC: 2.596 cumulative IPC: 2.39 (Simulation time: 00 hr 14 min 45 sec)
Heartbeat CPU 0 instructions: 113000747 cycles: 43521264 heartbeat IPC: 2.229 cumulative IPC: 2.389 (Simulation time: 00 hr 14 min 49 sec)
Heartbeat CPU 0 instructions: 113500747 cycles: 43713804 heartbeat IPC: 2.597 cumulative IPC: 2.39 (Simulation time: 00 hr 14 min 53 sec)
Heartbeat CPU 0 instructions: 114000754 cycles: 43908473 heartbeat IPC: 2.568 cumulative IPC: 2.391 (Simulation time: 00 hr 14 min 57 sec)
Heartbeat CPU 0 instructions: 114500757 cycles: 44130909 heartbeat IPC: 2.248 cumulative IPC: 2.39 (Simulation time: 00 hr 15 min 01 sec)
Heartbeat CPU 0 instructions: 115000760 cycles: 44320258 heartbeat IPC: 2.641 cumulative IPC: 2.392 (Simulation time: 00 hr 15 min 05 sec)
Heartbeat CPU 0 instructions: 115500765 cycles: 44514169 heartbeat IPC: 2.579 cumulative IPC: 2.393 (Simulation time: 00 hr 15 min 09 sec)
Heartbeat CPU 0 instructions: 116000767 cycles: 44737495 heartbeat IPC: 2.239 cumulative IPC: 2.392 (Simulation time: 00 hr 15 min 13 sec)
Heartbeat CPU 0 instructions: 116500774 cycles: 44926734 heartbeat IPC: 2.642 cumulative IPC: 2.394 (Simulation time: 00 hr 15 min 17 sec)
Heartbeat CPU 0 instructions: 117000779 cycles: 45115974 heartbeat IPC: 2.642 cumulative IPC: 2.395 (Simulation time: 00 hr 15 min 20 sec)
Heartbeat CPU 0 instructions: 117500779 cycles: 45310505 heartbeat IPC: 2.57 cumulative IPC: 2.397 (Simulation time: 00 hr 15 min 24 sec)
Heartbeat CPU 0 instructions: 118000782 cycles: 45534325 heartbeat IPC: 2.234 cumulative IPC: 2.395 (Simulation time: 00 hr 15 min 28 sec)
Heartbeat CPU 0 instructions: 118500787 cycles: 45725673 heartbeat IPC: 2.613 cumulative IPC: 2.397 (Simulation time: 00 hr 15 min 32 sec)
Heartbeat CPU 0 instructions: 119000793 cycles: 45915317 heartbeat IPC: 2.637 cumulative IPC: 2.398 (Simulation time: 00 hr 15 min 36 sec)
Heartbeat CPU 0 instructions: 119500794 cycles: 46138662 heartbeat IPC: 2.239 cumulative IPC: 2.397 (Simulation time: 00 hr 15 min 40 sec)
Heartbeat CPU 0 instructions: 120000799 cycles: 46331091 heartbeat IPC: 2.598 cumulative IPC: 2.398 (Simulation time: 00 hr 15 min 44 sec)
Heartbeat CPU 0 instructions: 120500804 cycles: 46523577 heartbeat IPC: 2.598 cumulative IPC: 2.4 (Simulation time: 00 hr 15 min 48 sec)
Heartbeat CPU 0 instructions: 121000807 cycles: 46744310 heartbeat IPC: 2.265 cumulative IPC: 2.399 (Simulation time: 00 hr 15 min 52 sec)
Heartbeat CPU 0 instructions: 121500809 cycles: 46935990 heartbeat IPC: 2.609 cumulative IPC: 2.4 (Simulation time: 00 hr 15 min 56 sec)
Heartbeat CPU 0 instructions: 122000816 cycles: 47126706 heartbeat IPC: 2.622 cumulative IPC: 2.401 (Simulation time: 00 hr 15 min 59 sec)
Heartbeat CPU 0 instructions: 122500823 cycles: 47317789 heartbeat IPC: 2.617 cumulative IPC: 2.403 (Simulation time: 00 hr 16 min 03 sec)
Heartbeat CPU 0 instructions: 123000828 cycles: 47541684 heartbeat IPC: 2.233 cumulative IPC: 2.402 (Simulation time: 00 hr 16 min 07 sec)
Heartbeat CPU 0 instructions: 123500834 cycles: 47736736 heartbeat IPC: 2.563 cumulative IPC: 2.403 (Simulation time: 00 hr 16 min 11 sec)
Heartbeat CPU 0 instructions: 124000839 cycles: 47928468 heartbeat IPC: 2.608 cumulative IPC: 2.404 (Simulation time: 00 hr 16 min 15 sec)
Heartbeat CPU 0 instructions: 124500844 cycles: 48155284 heartbeat IPC: 2.204 cumulative IPC: 2.402 (Simulation time: 00 hr 16 min 19 sec)
Heartbeat CPU 0 instructions: 125000846 cycles: 48343693 heartbeat IPC: 2.654 cumulative IPC: 2.404 (Simulation time: 00 hr 16 min 23 sec)
Heartbeat CPU 0 instructions: 125500848 cycles: 48538966 heartbeat IPC: 2.561 cumulative IPC: 2.405 (Simulation time: 00 hr 16 min 26 sec)
Heartbeat CPU 0 instructions: 126000850 cycles: 48760224 heartbeat IPC: 2.26 cumulative IPC: 2.404 (Simulation time: 00 hr 16 min 31 sec)
Heartbeat CPU 0 instructions: 126500854 cycles: 48949909 heartbeat IPC: 2.636 cumulative IPC: 2.405 (Simulation time: 00 hr 16 min 34 sec)
Heartbeat CPU 0 instructions: 127000861 cycles: 49144788 heartbeat IPC: 2.566 cumulative IPC: 2.406 (Simulation time: 00 hr 16 min 38 sec)
Heartbeat CPU 0 instructions: 127500866 cycles: 49339678 heartbeat IPC: 2.566 cumulative IPC: 2.407 (Simulation time: 00 hr 16 min 42 sec)
Heartbeat CPU 0 instructions: 128000871 cycles: 49558563 heartbeat IPC: 2.284 cumulative IPC: 2.406 (Simulation time: 00 hr 16 min 46 sec)
Heartbeat CPU 0 instructions: 128500873 cycles: 49748025 heartbeat IPC: 2.639 cumulative IPC: 2.408 (Simulation time: 00 hr 16 min 50 sec)
Heartbeat CPU 0 instructions: 129000878 cycles: 49941556 heartbeat IPC: 2.584 cumulative IPC: 2.409 (Simulation time: 00 hr 16 min 54 sec)
Heartbeat CPU 0 instructions: 129500880 cycles: 50163627 heartbeat IPC: 2.252 cumulative IPC: 2.408 (Simulation time: 00 hr 16 min 58 sec)
Heartbeat CPU 0 instructions: 130000886 cycles: 50356582 heartbeat IPC: 2.591 cumulative IPC: 2.409 (Simulation time: 00 hr 17 min 02 sec)
Heartbeat CPU 0 instructions: 130500890 cycles: 50549413 heartbeat IPC: 2.593 cumulative IPC: 2.41 (Simulation time: 00 hr 17 min 05 sec)
Heartbeat CPU 0 instructions: 131000890 cycles: 50769961 heartbeat IPC: 2.267 cumulative IPC: 2.409 (Simulation time: 00 hr 17 min 09 sec)
Heartbeat CPU 0 instructions: 131500890 cycles: 50964357 heartbeat IPC: 2.572 cumulative IPC: 2.41 (Simulation time: 00 hr 17 min 13 sec)
Heartbeat CPU 0 instructions: 132000892 cycles: 51158717 heartbeat IPC: 2.573 cumulative IPC: 2.411 (Simulation time: 00 hr 17 min 17 sec)
Heartbeat CPU 0 instructions: 132500894 cycles: 51362626 heartbeat IPC: 2.452 cumulative IPC: 2.411 (Simulation time: 00 hr 17 min 21 sec)
Heartbeat CPU 0 instructions: 133000896 cycles: 51576184 heartbeat IPC: 2.341 cumulative IPC: 2.411 (Simulation time: 00 hr 17 min 25 sec)
Heartbeat CPU 0 instructions: 133500900 cycles: 51768534 heartbeat IPC: 2.599 cumulative IPC: 2.412 (Simulation time: 00 hr 17 min 29 sec)
Heartbeat CPU 0 instructions: 134000903 cycles: 51961171 heartbeat IPC: 2.596 cumulative IPC: 2.413 (Simulation time: 00 hr 17 min 33 sec)
Heartbeat CPU 0 instructions: 134500903 cycles: 52180444 heartbeat IPC: 2.28 cumulative IPC: 2.412 (Simulation time: 00 hr 17 min 37 sec)
Heartbeat CPU 0 instructions: 135000903 cycles: 52370959 heartbeat IPC: 2.624 cumulative IPC: 2.413 (Simulation time: 00 hr 17 min 40 sec)
Heartbeat CPU 0 instructions: 135500903 cycles: 52562964 heartbeat IPC: 2.604 cumulative IPC: 2.414 (Simulation time: 00 hr 17 min 44 sec)
Heartbeat CPU 0 instructions: 136000906 cycles: 52786185 heartbeat IPC: 2.24 cumulative IPC: 2.413 (Simulation time: 00 hr 17 min 48 sec)
Heartbeat CPU 0 instructions: 136500907 cycles: 52980835 heartbeat IPC: 2.569 cumulative IPC: 2.414 (Simulation time: 00 hr 17 min 52 sec)
Heartbeat CPU 0 instructions: 137000909 cycles: 53174066 heartbeat IPC: 2.588 cumulative IPC: 2.415 (Simulation time: 00 hr 17 min 56 sec)
Heartbeat CPU 0 instructions: 137500909 cycles: 53390188 heartbeat IPC: 2.314 cumulative IPC: 2.414 (Simulation time: 00 hr 18 min 00 sec)
Heartbeat CPU 0 instructions: 138000909 cycles: 53592408 heartbeat IPC: 2.473 cumulative IPC: 2.414 (Simulation time: 00 hr 18 min 04 sec)
Heartbeat CPU 0 instructions: 138500914 cycles: 53783821 heartbeat IPC: 2.612 cumulative IPC: 2.415 (Simulation time: 00 hr 18 min 08 sec)
Heartbeat CPU 0 instructions: 139000914 cycles: 53977769 heartbeat IPC: 2.578 cumulative IPC: 2.416 (Simulation time: 00 hr 18 min 11 sec)
Heartbeat CPU 0 instructions: 139500914 cycles: 54199888 heartbeat IPC: 2.251 cumulative IPC: 2.415 (Simulation time: 00 hr 18 min 16 sec)
Heartbeat CPU 0 instructions: 140000918 cycles: 54391896 heartbeat IPC: 2.604 cumulative IPC: 2.416 (Simulation time: 00 hr 18 min 19 sec)
Heartbeat CPU 0 instructions: 140500924 cycles: 54585260 heartbeat IPC: 2.586 cumulative IPC: 2.417 (Simulation time: 00 hr 18 min 23 sec)
Heartbeat CPU 0 instructions: 141000931 cycles: 54809898 heartbeat IPC: 2.226 cumulative IPC: 2.416 (Simulation time: 00 hr 18 min 27 sec)
Heartbeat CPU 0 instructions: 141500936 cycles: 55003154 heartbeat IPC: 2.587 cumulative IPC: 2.417 (Simulation time: 00 hr 18 min 31 sec)
Heartbeat CPU 0 instructions: 142000941 cycles: 55196796 heartbeat IPC: 2.582 cumulative IPC: 2.418 (Simulation time: 00 hr 18 min 35 sec)
Heartbeat CPU 0 instructions: 142500942 cycles: 55418134 heartbeat IPC: 2.259 cumulative IPC: 2.417 (Simulation time: 00 hr 18 min 39 sec)
Heartbeat CPU 0 instructions: 143000948 cycles: 55611033 heartbeat IPC: 2.592 cumulative IPC: 2.418 (Simulation time: 00 hr 18 min 43 sec)
Heartbeat CPU 0 instructions: 143500948 cycles: 55800121 heartbeat IPC: 2.644 cumulative IPC: 2.419 (Simulation time: 00 hr 18 min 47 sec)
Heartbeat CPU 0 instructions: 144000951 cycles: 55990467 heartbeat IPC: 2.627 cumulative IPC: 2.42 (Simulation time: 00 hr 18 min 50 sec)
Heartbeat CPU 0 instructions: 144500955 cycles: 56217263 heartbeat IPC: 2.205 cumulative IPC: 2.419 (Simulation time: 00 hr 18 min 55 sec)
Heartbeat CPU 0 instructions: 145000955 cycles: 56405841 heartbeat IPC: 2.651 cumulative IPC: 2.42 (Simulation time: 00 hr 18 min 58 sec)
Heartbeat CPU 0 instructions: 145500960 cycles: 56598841 heartbeat IPC: 2.591 cumulative IPC: 2.421 (Simulation time: 00 hr 19 min 02 sec)
Heartbeat CPU 0 instructions: 146000960 cycles: 56823260 heartbeat IPC: 2.228 cumulative IPC: 2.419 (Simulation time: 00 hr 19 min 06 sec)
Heartbeat CPU 0 instructions: 146500964 cycles: 57013054 heartbeat IPC: 2.634 cumulative IPC: 2.421 (Simulation time: 00 hr 19 min 10 sec)
Heartbeat CPU 0 instructions: 147000970 cycles: 57204361 heartbeat IPC: 2.614 cumulative IPC: 2.421 (Simulation time: 00 hr 19 min 14 sec)
Heartbeat CPU 0 instructions: 147500973 cycles: 57424863 heartbeat IPC: 2.268 cumulative IPC: 2.421 (Simulation time: 00 hr 19 min 18 sec)
Heartbeat CPU 0 instructions: 148000974 cycles: 57616107 heartbeat IPC: 2.614 cumulative IPC: 2.422 (Simulation time: 00 hr 19 min 22 sec)
Heartbeat CPU 0 instructions: 148500974 cycles: 57805928 heartbeat IPC: 2.634 cumulative IPC: 2.422 (Simulation time: 00 hr 19 min 25 sec)
Heartbeat CPU 0 instructions: 149000979 cycles: 57999181 heartbeat IPC: 2.587 cumulative IPC: 2.423 (Simulation time: 00 hr 19 min 29 sec)
Heartbeat CPU 0 instructions: 149500985 cycles: 58222734 heartbeat IPC: 2.237 cumulative IPC: 2.422 (Simulation time: 00 hr 19 min 33 sec)
Heartbeat CPU 0 instructions: 150000992 cycles: 58412844 heartbeat IPC: 2.63 cumulative IPC: 2.423 (Simulation time: 00 hr 19 min 37 sec)
Heartbeat CPU 0 instructions: 150500999 cycles: 58607232 heartbeat IPC: 2.572 cumulative IPC: 2.424 (Simulation time: 00 hr 19 min 41 sec)
Heartbeat CPU 0 instructions: 151001004 cycles: 58828874 heartbeat IPC: 2.256 cumulative IPC: 2.423 (Simulation time: 00 hr 19 min 45 sec)
Heartbeat CPU 0 instructions: 151501004 cycles: 59020276 heartbeat IPC: 2.612 cumulative IPC: 2.424 (Simulation time: 00 hr 19 min 49 sec)
Heartbeat CPU 0 instructions: 152001009 cycles: 59211654 heartbeat IPC: 2.613 cumulative IPC: 2.425 (Simulation time: 00 hr 19 min 52 sec)
Heartbeat CPU 0 instructions: 152501012 cycles: 59432264 heartbeat IPC: 2.266 cumulative IPC: 2.424 (Simulation time: 00 hr 19 min 57 sec)
Heartbeat CPU 0 instructions: 153001016 cycles: 59625661 heartbeat IPC: 2.585 cumulative IPC: 2.425 (Simulation time: 00 hr 20 min 00 sec)
Heartbeat CPU 0 instructions: 153501019 cycles: 59813308 heartbeat IPC: 2.665 cumulative IPC: 2.426 (Simulation time: 00 hr 20 min 04 sec)
Heartbeat CPU 0 instructions: 154001024 cycles: 60008382 heartbeat IPC: 2.563 cumulative IPC: 2.426 (Simulation time: 00 hr 20 min 08 sec)
Heartbeat CPU 0 instructions: 154501028 cycles: 60228102 heartbeat IPC: 2.276 cumulative IPC: 2.426 (Simulation time: 00 hr 20 min 12 sec)
Heartbeat CPU 0 instructions: 155001033 cycles: 60421416 heartbeat IPC: 2.586 cumulative IPC: 2.426 (Simulation time: 00 hr 20 min 16 sec)
Heartbeat CPU 0 instructions: 155501036 cycles: 60617008 heartbeat IPC: 2.556 cumulative IPC: 2.427 (Simulation time: 00 hr 20 min 20 sec)
Heartbeat CPU 0 instructions: 156001042 cycles: 60835839 heartbeat IPC: 2.285 cumulative IPC: 2.426 (Simulation time: 00 hr 20 min 24 sec)
Heartbeat CPU 0 instructions: 156501044 cycles: 61025438 heartbeat IPC: 2.637 cumulative IPC: 2.427 (Simulation time: 00 hr 20 min 29 sec)
Heartbeat CPU 0 instructions: 157001045 cycles: 61221855 heartbeat IPC: 2.546 cumulative IPC: 2.428 (Simulation time: 00 hr 20 min 35 sec)
Heartbeat CPU 0 instructions: 157501051 cycles: 61446951 heartbeat IPC: 2.221 cumulative IPC: 2.427 (Simulation time: 00 hr 20 min 42 sec)
Heartbeat CPU 0 instructions: 158001056 cycles: 61636850 heartbeat IPC: 2.633 cumulative IPC: 2.427 (Simulation time: 00 hr 20 min 48 sec)
Heartbeat CPU 0 instructions: 158501060 cycles: 61829010 heartbeat IPC: 2.602 cumulative IPC: 2.428 (Simulation time: 00 hr 20 min 54 sec)
Heartbeat CPU 0 instructions: 159001060 cycles: 62075200 heartbeat IPC: 2.031 cumulative IPC: 2.426 (Simulation time: 00 hr 21 min 01 sec)
Heartbeat CPU 0 instructions: 159501066 cycles: 62287450 heartbeat IPC: 2.356 cumulative IPC: 2.426 (Simulation time: 00 hr 21 min 07 sec)
Heartbeat CPU 0 instructions: 160001071 cycles: 62476888 heartbeat IPC: 2.639 cumulative IPC: 2.427 (Simulation time: 00 hr 21 min 13 sec)
Heartbeat CPU 0 instructions: 160501074 cycles: 62670816 heartbeat IPC: 2.578 cumulative IPC: 2.427 (Simulation time: 00 hr 21 min 19 sec)
Heartbeat CPU 0 instructions: 161001080 cycles: 62893979 heartbeat IPC: 2.241 cumulative IPC: 2.426 (Simulation time: 00 hr 21 min 26 sec)
Heartbeat CPU 0 instructions: 161501083 cycles: 63087717 heartbeat IPC: 2.581 cumulative IPC: 2.427 (Simulation time: 00 hr 21 min 32 sec)
Heartbeat CPU 0 instructions: 162001085 cycles: 63278157 heartbeat IPC: 2.626 cumulative IPC: 2.428 (Simulation time: 00 hr 21 min 38 sec)
Heartbeat CPU 0 instructions: 162501090 cycles: 63502928 heartbeat IPC: 2.225 cumulative IPC: 2.427 (Simulation time: 00 hr 21 min 44 sec)
Heartbeat CPU 0 instructions: 163001097 cycles: 63696842 heartbeat IPC: 2.578 cumulative IPC: 2.427 (Simulation time: 00 hr 21 min 51 sec)
Heartbeat CPU 0 instructions: 163501100 cycles: 63886012 heartbeat IPC: 2.643 cumulative IPC: 2.428 (Simulation time: 00 hr 21 min 56 sec)
Heartbeat CPU 0 instructions: 164001100 cycles: 64095508 heartbeat IPC: 2.387 cumulative IPC: 2.428 (Simulation time: 00 hr 22 min 03 sec)
Heartbeat CPU 0 instructions: 164501105 cycles: 64296067 heartbeat IPC: 2.493 cumulative IPC: 2.428 (Simulation time: 00 hr 22 min 09 sec)
Heartbeat CPU 0 instructions: 165001110 cycles: 64494263 heartbeat IPC: 2.523 cumulative IPC: 2.429 (Simulation time: 00 hr 22 min 14 sec)
Heartbeat CPU 0 instructions: 165501111 cycles: 64684404 heartbeat IPC: 2.63 cumulative IPC: 2.43 (Simulation time: 00 hr 22 min 18 sec)
Heartbeat CPU 0 instructions: 166001112 cycles: 64907763 heartbeat IPC: 2.239 cumulative IPC: 2.429 (Simulation time: 00 hr 22 min 22 sec)
Heartbeat CPU 0 instructions: 166501116 cycles: 65098640 heartbeat IPC: 2.62 cumulative IPC: 2.429 (Simulation time: 00 hr 22 min 26 sec)
Heartbeat CPU 0 instructions: 167001119 cycles: 65287789 heartbeat IPC: 2.643 cumulative IPC: 2.43 (Simulation time: 00 hr 22 min 30 sec)
Heartbeat CPU 0 instructions: 167501121 cycles: 65508706 heartbeat IPC: 2.263 cumulative IPC: 2.43 (Simulation time: 00 hr 22 min 34 sec)
Heartbeat CPU 0 instructions: 168001124 cycles: 65703020 heartbeat IPC: 2.573 cumulative IPC: 2.43 (Simulation time: 00 hr 22 min 38 sec)
Heartbeat CPU 0 instructions: 168501125 cycles: 65893398 heartbeat IPC: 2.626 cumulative IPC: 2.431 (Simulation time: 00 hr 22 min 41 sec)
Heartbeat CPU 0 instructions: 169001125 cycles: 66115079 heartbeat IPC: 2.255 cumulative IPC: 2.43 (Simulation time: 00 hr 22 min 46 sec)
Heartbeat CPU 0 instructions: 169501125 cycles: 66309728 heartbeat IPC: 2.569 cumulative IPC: 2.431 (Simulation time: 00 hr 22 min 49 sec)
Heartbeat CPU 0 instructions: 170001125 cycles: 66503610 heartbeat IPC: 2.579 cumulative IPC: 2.431 (Simulation time: 00 hr 22 min 53 sec)
Heartbeat CPU 0 instructions: 170501127 cycles: 66696726 heartbeat IPC: 2.589 cumulative IPC: 2.432 (Simulation time: 00 hr 22 min 57 sec)
Heartbeat CPU 0 instructions: 171001130 cycles: 66917771 heartbeat IPC: 2.262 cumulative IPC: 2.431 (Simulation time: 00 hr 23 min 01 sec)
Heartbeat CPU 0 instructions: 171501137 cycles: 67110562 heartbeat IPC: 2.594 cumulative IPC: 2.432 (Simulation time: 00 hr 23 min 05 sec)
Heartbeat CPU 0 instructions: 172001144 cycles: 67301291 heartbeat IPC: 2.622 cumulative IPC: 2.432 (Simulation time: 00 hr 23 min 09 sec)
Heartbeat CPU 0 instructions: 172501147 cycles: 67522380 heartbeat IPC: 2.262 cumulative IPC: 2.432 (Simulation time: 00 hr 23 min 13 sec)
Heartbeat CPU 0 instructions: 173001147 cycles: 67712961 heartbeat IPC: 2.624 cumulative IPC: 2.432 (Simulation time: 00 hr 23 min 17 sec)
Heartbeat CPU 0 instructions: 173501152 cycles: 67906294 heartbeat IPC: 2.586 cumulative IPC: 2.433 (Simulation time: 00 hr 23 min 20 sec)
Heartbeat CPU 0 instructions: 174001155 cycles: 68129450 heartbeat IPC: 2.241 cumulative IPC: 2.432 (Simulation time: 00 hr 23 min 25 sec)
Heartbeat CPU 0 instructions: 174501159 cycles: 68320331 heartbeat IPC: 2.619 cumulative IPC: 2.433 (Simulation time: 00 hr 23 min 28 sec)
Heartbeat CPU 0 instructions: 175001163 cycles: 68508956 heartbeat IPC: 2.651 cumulative IPC: 2.434 (Simulation time: 00 hr 23 min 32 sec)
Heartbeat CPU 0 instructions: 175501169 cycles: 68700751 heartbeat IPC: 2.607 cumulative IPC: 2.434 (Simulation time: 00 hr 23 min 36 sec)
Heartbeat CPU 0 instructions: 176001169 cycles: 68923313 heartbeat IPC: 2.247 cumulative IPC: 2.433 (Simulation time: 00 hr 23 min 40 sec)
Heartbeat CPU 0 instructions: 176501174 cycles: 69116572 heartbeat IPC: 2.587 cumulative IPC: 2.434 (Simulation time: 00 hr 23 min 44 sec)
Heartbeat CPU 0 instructions: 177001181 cycles: 69307609 heartbeat IPC: 2.617 cumulative IPC: 2.435 (Simulation time: 00 hr 23 min 48 sec)
Heartbeat CPU 0 instructions: 177501184 cycles: 69527653 heartbeat IPC: 2.272 cumulative IPC: 2.434 (Simulation time: 00 hr 23 min 52 sec)
Heartbeat CPU 0 instructions: 178001188 cycles: 69716159 heartbeat IPC: 2.652 cumulative IPC: 2.435 (Simulation time: 00 hr 23 min 55 sec)
Heartbeat CPU 0 instructions: 178501195 cycles: 69910538 heartbeat IPC: 2.572 cumulative IPC: 2.435 (Simulation time: 00 hr 23 min 59 sec)
Heartbeat CPU 0 instructions: 179001202 cycles: 70131002 heartbeat IPC: 2.268 cumulative IPC: 2.435 (Simulation time: 00 hr 24 min 03 sec)
Heartbeat CPU 0 instructions: 179501206 cycles: 70328908 heartbeat IPC: 2.526 cumulative IPC: 2.435 (Simulation time: 00 hr 24 min 07 sec)
Heartbeat CPU 0 instructions: 180001208 cycles: 70520214 heartbeat IPC: 2.614 cumulative IPC: 2.436 (Simulation time: 00 hr 24 min 11 sec)
Heartbeat CPU 0 instructions: 180501211 cycles: 70712897 heartbeat IPC: 2.595 cumulative IPC: 2.436 (Simulation time: 00 hr 24 min 15 sec)
Heartbeat CPU 0 instructions: 181001215 cycles: 70936601 heartbeat IPC: 2.235 cumulative IPC: 2.435 (Simulation time: 00 hr 24 min 19 sec)
Heartbeat CPU 0 instructions: 181501215 cycles: 71132732 heartbeat IPC: 2.549 cumulative IPC: 2.436 (Simulation time: 00 hr 24 min 23 sec)
Heartbeat CPU 0 instructions: 182001218 cycles: 71323566 heartbeat IPC: 2.62 cumulative IPC: 2.436 (Simulation time: 00 hr 24 min 27 sec)
Heartbeat CPU 0 instructions: 182501225 cycles: 71544874 heartbeat IPC: 2.259 cumulative IPC: 2.436 (Simulation time: 00 hr 24 min 31 sec)
Heartbeat CPU 0 instructions: 183001228 cycles: 71739995 heartbeat IPC: 2.563 cumulative IPC: 2.436 (Simulation time: 00 hr 24 min 35 sec)
Heartbeat CPU 0 instructions: 183501228 cycles: 71936793 heartbeat IPC: 2.541 cumulative IPC: 2.437 (Simulation time: 00 hr 24 min 38 sec)
Heartbeat CPU 0 instructions: 184001235 cycles: 72163633 heartbeat IPC: 2.204 cumulative IPC: 2.436 (Simulation time: 00 hr 24 min 43 sec)
Heartbeat CPU 0 instructions: 184501238 cycles: 72353779 heartbeat IPC: 2.63 cumulative IPC: 2.436 (Simulation time: 00 hr 24 min 46 sec)
Heartbeat CPU 0 instructions: 185001242 cycles: 72547193 heartbeat IPC: 2.585 cumulative IPC: 2.437 (Simulation time: 00 hr 24 min 50 sec)
Heartbeat CPU 0 instructions: 185501242 cycles: 72753218 heartbeat IPC: 2.427 cumulative IPC: 2.437 (Simulation time: 00 hr 24 min 54 sec)
Heartbeat CPU 0 instructions: 186001242 cycles: 72960254 heartbeat IPC: 2.415 cumulative IPC: 2.437 (Simulation time: 00 hr 24 min 58 sec)
Heartbeat CPU 0 instructions: 186501245 cycles: 73152454 heartbeat IPC: 2.601 cumulative IPC: 2.437 (Simulation time: 00 hr 25 min 02 sec)
Heartbeat CPU 0 instructions: 187001249 cycles: 73344846 heartbeat IPC: 2.599 cumulative IPC: 2.438 (Simulation time: 00 hr 25 min 06 sec)
Heartbeat CPU 0 instructions: 187501249 cycles: 73565121 heartbeat IPC: 2.27 cumulative IPC: 2.437 (Simulation time: 00 hr 25 min 10 sec)
Heartbeat CPU 0 instructions: 188001249 cycles: 73757964 heartbeat IPC: 2.593 cumulative IPC: 2.438 (Simulation time: 00 hr 25 min 13 sec)
Heartbeat CPU 0 instructions: 188501251 cycles: 73946663 heartbeat IPC: 2.65 cumulative IPC: 2.438 (Simulation time: 00 hr 25 min 17 sec)
Heartbeat CPU 0 instructions: 189001254 cycles: 74169597 heartbeat IPC: 2.243 cumulative IPC: 2.438 (Simulation time: 00 hr 25 min 21 sec)
Heartbeat CPU 0 instructions: 189501259 cycles: 74358415 heartbeat IPC: 2.648 cumulative IPC: 2.438 (Simulation time: 00 hr 25 min 25 sec)
Heartbeat CPU 0 instructions: 190001260 cycles: 74548633 heartbeat IPC: 2.629 cumulative IPC: 2.439 (Simulation time: 00 hr 25 min 29 sec)
Heartbeat CPU 0 instructions: 190501260 cycles: 74761630 heartbeat IPC: 2.347 cumulative IPC: 2.439 (Simulation time: 00 hr 25 min 33 sec)
Heartbeat CPU 0 instructions: 191001263 cycles: 74963341 heartbeat IPC: 2.479 cumulative IPC: 2.439 (Simulation time: 00 hr 25 min 37 sec)
Heartbeat CPU 0 instructions: 191501264 cycles: 75154732 heartbeat IPC: 2.612 cumulative IPC: 2.439 (Simulation time: 00 hr 25 min 41 sec)
Heartbeat CPU 0 instructions: 192001265 cycles: 75347688 heartbeat IPC: 2.591 cumulative IPC: 2.44 (Simulation time: 00 hr 25 min 44 sec)
Heartbeat CPU 0 instructions: 192501269 cycles: 75564441 heartbeat IPC: 2.307 cumulative IPC: 2.439 (Simulation time: 00 hr 25 min 48 sec)
Heartbeat CPU 0 instructions: 193001271 cycles: 75756533 heartbeat IPC: 2.603 cumulative IPC: 2.44 (Simulation time: 00 hr 25 min 52 sec)
Heartbeat CPU 0 instructions: 193501274 cycles: 75943649 heartbeat IPC: 2.672 cumulative IPC: 2.441 (Simulation time: 00 hr 25 min 56 sec)
Heartbeat CPU 0 instructions: 194001276 cycles: 76158269 heartbeat IPC: 2.33 cumulative IPC: 2.44 (Simulation time: 00 hr 26 min 00 sec)
Heartbeat CPU 0 instructions: 194501276 cycles: 76344403 heartbeat IPC: 2.686 cumulative IPC: 2.441 (Simulation time: 00 hr 26 min 04 sec)
Heartbeat CPU 0 instructions: 195001279 cycles: 76525421 heartbeat IPC: 2.762 cumulative IPC: 2.442 (Simulation time: 00 hr 26 min 07 sec)
Heartbeat CPU 0 instructions: 195501286 cycles: 76726531 heartbeat IPC: 2.486 cumulative IPC: 2.442 (Simulation time: 00 hr 26 min 11 sec)
Heartbeat CPU 0 instructions: 196001288 cycles: 76908255 heartbeat IPC: 2.751 cumulative IPC: 2.443 (Simulation time: 00 hr 26 min 15 sec)
Heartbeat CPU 0 instructions: 196501293 cycles: 77092331 heartbeat IPC: 2.716 cumulative IPC: 2.444 (Simulation time: 00 hr 26 min 18 sec)
Heartbeat CPU 0 instructions: 197001298 cycles: 77271771 heartbeat IPC: 2.786 cumulative IPC: 2.445 (Simulation time: 00 hr 26 min 22 sec)
Heartbeat CPU 0 instructions: 197501302 cycles: 77489604 heartbeat IPC: 2.295 cumulative IPC: 2.444 (Simulation time: 00 hr 26 min 26 sec)
Heartbeat CPU 0 instructions: 198001304 cycles: 77681986 heartbeat IPC: 2.599 cumulative IPC: 2.445 (Simulation time: 00 hr 26 min 30 sec)
Heartbeat CPU 0 instructions: 198501308 cycles: 77874455 heartbeat IPC: 2.598 cumulative IPC: 2.445 (Simulation time: 00 hr 26 min 33 sec)
Heartbeat CPU 0 instructions: 199001311 cycles: 78096784 heartbeat IPC: 2.249 cumulative IPC: 2.445 (Simulation time: 00 hr 26 min 38 sec)
Heartbeat CPU 0 instructions: 199501315 cycles: 78289981 heartbeat IPC: 2.588 cumulative IPC: 2.445 (Simulation time: 00 hr 26 min 41 sec)
Heartbeat CPU 0 instructions: 200001320 cycles: 78480979 heartbeat IPC: 2.618 cumulative IPC: 2.446 (Simulation time: 00 hr 26 min 45 sec)
Heartbeat CPU 0 instructions: 200501323 cycles: 78702818 heartbeat IPC: 2.254 cumulative IPC: 2.445 (Simulation time: 00 hr 26 min 49 sec)
Heartbeat CPU 0 instructions: 201001329 cycles: 78894236 heartbeat IPC: 2.612 cumulative IPC: 2.445 (Simulation time: 00 hr 26 min 53 sec)
Heartbeat CPU 0 instructions: 201501330 cycles: 79086579 heartbeat IPC: 2.6 cumulative IPC: 2.446 (Simulation time: 00 hr 26 min 57 sec)
Heartbeat CPU 0 instructions: 202001335 cycles: 79278814 heartbeat IPC: 2.601 cumulative IPC: 2.446 (Simulation time: 00 hr 27 min 00 sec)
Heartbeat CPU 0 instructions: 202501338 cycles: 79499729 heartbeat IPC: 2.263 cumulative IPC: 2.446 (Simulation time: 00 hr 27 min 05 sec)
Heartbeat CPU 0 instructions: 203001340 cycles: 79693425 heartbeat IPC: 2.581 cumulative IPC: 2.446 (Simulation time: 00 hr 27 min 08 sec)
Heartbeat CPU 0 instructions: 203501344 cycles: 79886628 heartbeat IPC: 2.588 cumulative IPC: 2.447 (Simulation time: 00 hr 27 min 12 sec)
Heartbeat CPU 0 instructions: 204001348 cycles: 80111164 heartbeat IPC: 2.227 cumulative IPC: 2.446 (Simulation time: 00 hr 27 min 16 sec)
Heartbeat CPU 0 instructions: 204501352 cycles: 80303887 heartbeat IPC: 2.594 cumulative IPC: 2.446 (Simulation time: 00 hr 27 min 20 sec)
Heartbeat CPU 0 instructions: 205001357 cycles: 80493465 heartbeat IPC: 2.637 cumulative IPC: 2.447 (Simulation time: 00 hr 27 min 24 sec)
Heartbeat CPU 0 instructions: 205501360 cycles: 80713948 heartbeat IPC: 2.268 cumulative IPC: 2.446 (Simulation time: 00 hr 27 min 28 sec)
Heartbeat CPU 0 instructions: 206001361 cycles: 80906974 heartbeat IPC: 2.59 cumulative IPC: 2.447 (Simulation time: 00 hr 27 min 32 sec)
Heartbeat CPU 0 instructions: 206501366 cycles: 81099293 heartbeat IPC: 2.6 cumulative IPC: 2.447 (Simulation time: 00 hr 27 min 35 sec)
Heartbeat CPU 0 instructions: 207001372 cycles: 81292670 heartbeat IPC: 2.586 cumulative IPC: 2.447 (Simulation time: 00 hr 27 min 39 sec)
Heartbeat CPU 0 instructions: 207501377 cycles: 81511968 heartbeat IPC: 2.28 cumulative IPC: 2.447 (Simulation time: 00 hr 27 min 43 sec)
Heartbeat CPU 0 instructions: 208001378 cycles: 81706299 heartbeat IPC: 2.573 cumulative IPC: 2.447 (Simulation time: 00 hr 27 min 47 sec)
Heartbeat CPU 0 instructions: 208501384 cycles: 81899833 heartbeat IPC: 2.584 cumulative IPC: 2.448 (Simulation time: 00 hr 27 min 51 sec)
Heartbeat CPU 0 instructions: 209001384 cycles: 82121649 heartbeat IPC: 2.254 cumulative IPC: 2.447 (Simulation time: 00 hr 27 min 55 sec)
Heartbeat CPU 0 instructions: 209501384 cycles: 82312784 heartbeat IPC: 2.616 cumulative IPC: 2.448 (Simulation time: 00 hr 27 min 59 sec)
Heartbeat CPU 0 instructions: 210001385 cycles: 82505286 heartbeat IPC: 2.597 cumulative IPC: 2.448 (Simulation time: 00 hr 28 min 03 sec)
Heartbeat CPU 0 instructions: 210501391 cycles: 82728379 heartbeat IPC: 2.241 cumulative IPC: 2.447 (Simulation time: 00 hr 28 min 07 sec)
Heartbeat CPU 0 instructions: 211001396 cycles: 82921464 heartbeat IPC: 2.59 cumulative IPC: 2.448 (Simulation time: 00 hr 28 min 11 sec)
Heartbeat CPU 0 instructions: 211501396 cycles: 83110516 heartbeat IPC: 2.645 cumulative IPC: 2.448 (Simulation time: 00 hr 28 min 14 sec)
Heartbeat CPU 0 instructions: 212001401 cycles: 83315167 heartbeat IPC: 2.443 cumulative IPC: 2.448 (Simulation time: 00 hr 28 min 18 sec)
Heartbeat CPU 0 instructions: 212501405 cycles: 83525744 heartbeat IPC: 2.374 cumulative IPC: 2.448 (Simulation time: 00 hr 28 min 22 sec)
Heartbeat CPU 0 instructions: 213001408 cycles: 83720969 heartbeat IPC: 2.561 cumulative IPC: 2.448 (Simulation time: 00 hr 28 min 26 sec)
Heartbeat CPU 0 instructions: 213501415 cycles: 83914775 heartbeat IPC: 2.58 cumulative IPC: 2.449 (Simulation time: 00 hr 28 min 30 sec)
Heartbeat CPU 0 instructions: 214001417 cycles: 84137479 heartbeat IPC: 2.245 cumulative IPC: 2.448 (Simulation time: 00 hr 28 min 34 sec)
Heartbeat CPU 0 instructions: 214501423 cycles: 84329419 heartbeat IPC: 2.605 cumulative IPC: 2.449 (Simulation time: 00 hr 28 min 38 sec)
Heartbeat CPU 0 instructions: 215001427 cycles: 84521433 heartbeat IPC: 2.604 cumulative IPC: 2.449 (Simulation time: 00 hr 28 min 42 sec)
Heartbeat CPU 0 instructions: 215501428 cycles: 84746112 heartbeat IPC: 2.225 cumulative IPC: 2.448 (Simulation time: 00 hr 28 min 46 sec)
Heartbeat CPU 0 instructions: 216001429 cycles: 84939470 heartbeat IPC: 2.586 cumulative IPC: 2.449 (Simulation time: 00 hr 28 min 49 sec)
Heartbeat CPU 0 instructions: 216501434 cycles: 85136942 heartbeat IPC: 2.532 cumulative IPC: 2.449 (Simulation time: 00 hr 28 min 53 sec)
Heartbeat CPU 0 instructions: 217001438 cycles: 85352638 heartbeat IPC: 2.318 cumulative IPC: 2.448 (Simulation time: 00 hr 28 min 57 sec)
Heartbeat CPU 0 instructions: 217501440 cycles: 85554533 heartbeat IPC: 2.477 cumulative IPC: 2.449 (Simulation time: 00 hr 29 min 01 sec)
Heartbeat CPU 0 instructions: 218001441 cycles: 85745693 heartbeat IPC: 2.616 cumulative IPC: 2.449 (Simulation time: 00 hr 29 min 05 sec)
Heartbeat CPU 0 instructions: 218501441 cycles: 85938724 heartbeat IPC: 2.59 cumulative IPC: 2.449 (Simulation time: 00 hr 29 min 09 sec)
Heartbeat CPU 0 instructions: 219001447 cycles: 86159030 heartbeat IPC: 2.27 cumulative IPC: 2.449 (Simulation time: 00 hr 29 min 13 sec)
Heartbeat CPU 0 instructions: 219501454 cycles: 86351622 heartbeat IPC: 2.596 cumulative IPC: 2.449 (Simulation time: 00 hr 29 min 17 sec)
Heartbeat CPU 0 instructions: 220001455 cycles: 86543227 heartbeat IPC: 2.61 cumulative IPC: 2.45 (Simulation time: 00 hr 29 min 20 sec)
Heartbeat CPU 0 instructions: 220501456 cycles: 86766695 heartbeat IPC: 2.237 cumulative IPC: 2.449 (Simulation time: 00 hr 29 min 25 sec)
Heartbeat CPU 0 instructions: 221001456 cycles: 86957374 heartbeat IPC: 2.622 cumulative IPC: 2.449 (Simulation time: 00 hr 29 min 28 sec)
Heartbeat CPU 0 instructions: 221501457 cycles: 87149444 heartbeat IPC: 2.603 cumulative IPC: 2.45 (Simulation time: 00 hr 29 min 32 sec)
Heartbeat CPU 0 instructions: 222001460 cycles: 87372391 heartbeat IPC: 2.243 cumulative IPC: 2.449 (Simulation time: 00 hr 29 min 36 sec)
Heartbeat CPU 0 instructions: 222501460 cycles: 87569241 heartbeat IPC: 2.54 cumulative IPC: 2.449 (Simulation time: 00 hr 29 min 40 sec)
Heartbeat CPU 0 instructions: 223001465 cycles: 87763114 heartbeat IPC: 2.579 cumulative IPC: 2.45 (Simulation time: 00 hr 29 min 44 sec)
Heartbeat CPU 0 instructions: 223501467 cycles: 87957700 heartbeat IPC: 2.57 cumulative IPC: 2.45 (Simulation time: 00 hr 29 min 48 sec)
Heartbeat CPU 0 instructions: 224001473 cycles: 88179265 heartbeat IPC: 2.257 cumulative IPC: 2.45 (Simulation time: 00 hr 29 min 52 sec)
Heartbeat CPU 0 instructions: 224501475 cycles: 88373131 heartbeat IPC: 2.579 cumulative IPC: 2.45 (Simulation time: 00 hr 29 min 56 sec)
Heartbeat CPU 0 instructions: 225001481 cycles: 88565017 heartbeat IPC: 2.606 cumulative IPC: 2.45 (Simulation time: 00 hr 29 min 59 sec)
Heartbeat CPU 0 instructions: 225501485 cycles: 88787042 heartbeat IPC: 2.252 cumulative IPC: 2.45 (Simulation time: 00 hr 30 min 04 sec)
Heartbeat CPU 0 instructions: 226001486 cycles: 88978370 heartbeat IPC: 2.613 cumulative IPC: 2.45 (Simulation time: 00 hr 30 min 07 sec)
Heartbeat CPU 0 instructions: 226501492 cycles: 89172918 heartbeat IPC: 2.57 cumulative IPC: 2.45 (Simulation time: 00 hr 30 min 11 sec)
Heartbeat CPU 0 instructions: 227001492 cycles: 89398212 heartbeat IPC: 2.219 cumulative IPC: 2.45 (Simulation time: 00 hr 30 min 15 sec)
Heartbeat CPU 0 instructions: 227501497 cycles: 89595619 heartbeat IPC: 2.533 cumulative IPC: 2.45 (Simulation time: 00 hr 30 min 19 sec)
Heartbeat CPU 0 instructions: 228001504 cycles: 89786959 heartbeat IPC: 2.613 cumulative IPC: 2.45 (Simulation time: 00 hr 30 min 23 sec)
Heartbeat CPU 0 instructions: 228501509 cycles: 89981879 heartbeat IPC: 2.565 cumulative IPC: 2.451 (Simulation time: 00 hr 30 min 27 sec)
Heartbeat CPU 0 instructions: 229001512 cycles: 90204717 heartbeat IPC: 2.244 cumulative IPC: 2.45 (Simulation time: 00 hr 30 min 31 sec)
Heartbeat CPU 0 instructions: 229501513 cycles: 90399392 heartbeat IPC: 2.568 cumulative IPC: 2.45 (Simulation time: 00 hr 30 min 35 sec)
Heartbeat CPU 0 instructions: 230001519 cycles: 90590177 heartbeat IPC: 2.621 cumulative IPC: 2.451 (Simulation time: 00 hr 30 min 39 sec)
Heartbeat CPU 0 instructions: 230501522 cycles: 90813151 heartbeat IPC: 2.242 cumulative IPC: 2.45 (Simulation time: 00 hr 30 min 43 sec)
Heartbeat CPU 0 instructions: 231001523 cycles: 91004786 heartbeat IPC: 2.609 cumulative IPC: 2.451 (Simulation time: 00 hr 30 min 46 sec)
Heartbeat CPU 0 instructions: 231501525 cycles: 91196084 heartbeat IPC: 2.614 cumulative IPC: 2.451 (Simulation time: 00 hr 30 min 50 sec)
Heartbeat CPU 0 instructions: 232001526 cycles: 91417558 heartbeat IPC: 2.258 cumulative IPC: 2.45 (Simulation time: 00 hr 30 min 54 sec)
Heartbeat CPU 0 instructions: 232501533 cycles: 91609326 heartbeat IPC: 2.607 cumulative IPC: 2.451 (Simulation time: 00 hr 30 min 58 sec)
Heartbeat CPU 0 instructions: 233001535 cycles: 91800501 heartbeat IPC: 2.615 cumulative IPC: 2.451 (Simulation time: 00 hr 31 min 02 sec)
Heartbeat CPU 0 instructions: 233501535 cycles: 91994364 heartbeat IPC: 2.579 cumulative IPC: 2.452 (Simulation time: 00 hr 31 min 06 sec)
Heartbeat CPU 0 instructions: 234001535 cycles: 92213396 heartbeat IPC: 2.283 cumulative IPC: 2.451 (Simulation time: 00 hr 31 min 10 sec)
Heartbeat CPU 0 instructions: 234501540 cycles: 92404093 heartbeat IPC: 2.622 cumulative IPC: 2.452 (Simulation time: 00 hr 31 min 14 sec)
Heartbeat CPU 0 instructions: 235001544 cycles: 92596803 heartbeat IPC: 2.595 cumulative IPC: 2.452 (Simulation time: 00 hr 31 min 17 sec)
Heartbeat CPU 0 instructions: 235501550 cycles: 92823367 heartbeat IPC: 2.207 cumulative IPC: 2.451 (Simulation time: 00 hr 31 min 22 sec)
Heartbeat CPU 0 instructions: 236001550 cycles: 93014434 heartbeat IPC: 2.617 cumulative IPC: 2.452 (Simulation time: 00 hr 31 min 25 sec)
Heartbeat CPU 0 instructions: 236501554 cycles: 93211495 heartbeat IPC: 2.537 cumulative IPC: 2.452 (Simulation time: 00 hr 31 min 29 sec)
Heartbeat CPU 0 instructions: 237001557 cycles: 93435905 heartbeat IPC: 2.228 cumulative IPC: 2.451 (Simulation time: 00 hr 31 min 33 sec)
Heartbeat CPU 0 instructions: 237501562 cycles: 93629283 heartbeat IPC: 2.586 cumulative IPC: 2.452 (Simulation time: 00 hr 31 min 37 sec)
Heartbeat CPU 0 instructions: 238001563 cycles: 93822870 heartbeat IPC: 2.583 cumulative IPC: 2.452 (Simulation time: 00 hr 31 min 41 sec)
Heartbeat CPU 0 instructions: 238501566 cycles: 94031860 heartbeat IPC: 2.392 cumulative IPC: 2.452 (Simulation time: 00 hr 31 min 45 sec)
Heartbeat CPU 0 instructions: 239001572 cycles: 94242844 heartbeat IPC: 2.37 cumulative IPC: 2.451 (Simulation time: 00 hr 31 min 49 sec)
Heartbeat CPU 0 instructions: 239501574 cycles: 94436977 heartbeat IPC: 2.576 cumulative IPC: 2.452 (Simulation time: 00 hr 31 min 53 sec)
Heartbeat CPU 0 instructions: 240001581 cycles: 94630014 heartbeat IPC: 2.59 cumulative IPC: 2.452 (Simulation time: 00 hr 31 min 56 sec)
Heartbeat CPU 0 instructions: 240501588 cycles: 94855580 heartbeat IPC: 2.217 cumulative IPC: 2.451 (Simulation time: 00 hr 32 min 01 sec)
Heartbeat CPU 0 instructions: 241001591 cycles: 95047266 heartbeat IPC: 2.608 cumulative IPC: 2.452 (Simulation time: 00 hr 32 min 04 sec)
Heartbeat CPU 0 instructions: 241501594 cycles: 95238186 heartbeat IPC: 2.619 cumulative IPC: 2.452 (Simulation time: 00 hr 32 min 08 sec)
Heartbeat CPU 0 instructions: 242001594 cycles: 95460331 heartbeat IPC: 2.251 cumulative IPC: 2.452 (Simulation time: 00 hr 32 min 12 sec)
Heartbeat CPU 0 instructions: 242501595 cycles: 95655294 heartbeat IPC: 2.565 cumulative IPC: 2.452 (Simulation time: 00 hr 32 min 16 sec)
Heartbeat CPU 0 instructions: 243001598 cycles: 95848196 heartbeat IPC: 2.592 cumulative IPC: 2.452 (Simulation time: 00 hr 32 min 20 sec)
Heartbeat CPU 0 instructions: 243501600 cycles: 96057592 heartbeat IPC: 2.388 cumulative IPC: 2.452 (Simulation time: 00 hr 32 min 24 sec)
Heartbeat CPU 0 instructions: 244001603 cycles: 96261342 heartbeat IPC: 2.454 cumulative IPC: 2.452 (Simulation time: 00 hr 32 min 28 sec)
Heartbeat CPU 0 instructions: 244501607 cycles: 96454709 heartbeat IPC: 2.586 cumulative IPC: 2.452 (Simulation time: 00 hr 32 min 32 sec)
Heartbeat CPU 0 instructions: 245001612 cycles: 96648562 heartbeat IPC: 2.579 cumulative IPC: 2.453 (Simulation time: 00 hr 32 min 35 sec)
Heartbeat CPU 0 instructions: 245501613 cycles: 96870333 heartbeat IPC: 2.255 cumulative IPC: 2.452 (Simulation time: 00 hr 32 min 40 sec)
Heartbeat CPU 0 instructions: 246001614 cycles: 97067080 heartbeat IPC: 2.541 cumulative IPC: 2.452 (Simulation time: 00 hr 32 min 43 sec)
Heartbeat CPU 0 instructions: 246501614 cycles: 97259265 heartbeat IPC: 2.602 cumulative IPC: 2.453 (Simulation time: 00 hr 32 min 47 sec)
Heartbeat CPU 0 instructions: 247001620 cycles: 97483025 heartbeat IPC: 2.235 cumulative IPC: 2.452 (Simulation time: 00 hr 32 min 51 sec)
Heartbeat CPU 0 instructions: 247501621 cycles: 97672297 heartbeat IPC: 2.642 cumulative IPC: 2.453 (Simulation time: 00 hr 32 min 55 sec)
Heartbeat CPU 0 instructions: 248001627 cycles: 97865505 heartbeat IPC: 2.588 cumulative IPC: 2.453 (Simulation time: 00 hr 32 min 59 sec)
Heartbeat CPU 0 instructions: 248501631 cycles: 98086106 heartbeat IPC: 2.267 cumulative IPC: 2.452 (Simulation time: 00 hr 33 min 03 sec)
Heartbeat CPU 0 instructions: 249001633 cycles: 98284592 heartbeat IPC: 2.519 cumulative IPC: 2.453 (Simulation time: 00 hr 33 min 07 sec)
Heartbeat CPU 0 instructions: 249501633 cycles: 98477340 heartbeat IPC: 2.594 cumulative IPC: 2.453 (Simulation time: 00 hr 33 min 11 sec)
Simulation finished CPU 0 instructions: 200000004 cycles: 81525285 cumulative IPC: 2.453 (Simulation time: 00 hr 33 min 14 sec)
Simulation complete CPU 0 instructions: 200000004 cycles: 81525285 cumulative IPC: 2.453 (Simulation time: 00 hr 33 min 14 sec)

ChampSim completed all CPUs

=== Simulation ===
CPU 0 runs /local-ssd/ben/dpc4-traces/ai-ml/stable-diffusion.cpp-sd-v1-4.ckpt.2.champsimtrace.gz

Region of Interest Statistics

CPU 0 cumulative IPC: 2.453 instructions: 200000004 cycles: 81525285
CPU 0 Branch Prediction Accuracy: 98.9% MPKI: 0.7108 Average ROB Occupancy at Mispredict: 522.7
Branch type MPKI
BRANCH_DIRECT_JUMP: 0
BRANCH_INDIRECT: 0
BRANCH_CONDITIONAL: 0.7108
BRANCH_DIRECT_CALL: 0
BRANCH_INDIRECT_CALL: 0
BRANCH_RETURN: 0

cpu0->cpu0_STLB TOTAL        ACCESS:     109959 HIT:      86299 MISS:      23660 MSHR_MERGE:          0
cpu0->cpu0_STLB LOAD         ACCESS:     109959 HIT:      86299 MISS:      23660 MSHR_MERGE:          0
cpu0->cpu0_STLB RFO          ACCESS:          0 HIT:          0 MISS:          0 MSHR_MERGE:          0
cpu0->cpu0_STLB PREFETCH     ACCESS:          0 HIT:          0 MISS:          0 MSHR_MERGE:          0
cpu0->cpu0_STLB WRITE        ACCESS:          0 HIT:          0 MISS:          0 MSHR_MERGE:          0
cpu0->cpu0_STLB TRANSLATION  ACCESS:          0 HIT:          0 MISS:          0 MSHR_MERGE:          0
cpu0->cpu0_STLB PREFETCH REQUESTED:          0 ISSUED:          0 USEFUL:          0 USELESS:          0
cpu0->cpu0_STLB AVERAGE MISS LATENCY: 96.68 cycles
cpu0->cpu0_L2C TOTAL        ACCESS:   25886194 HIT:   24370921 MISS:    1515273 MSHR_MERGE:          0
cpu0->cpu0_L2C LOAD         ACCESS:   21142858 HIT:   19861583 MISS:    1281275 MSHR_MERGE:          0
cpu0->cpu0_L2C RFO          ACCESS:      47538 HIT:      39206 MISS:       8332 MSHR_MERGE:          0
cpu0->cpu0_L2C PREFETCH     ACCESS:    4624398 HIT:    4401759 MISS:     222639 MSHR_MERGE:          0
cpu0->cpu0_L2C WRITE        ACCESS:      67795 HIT:      67795 MISS:          0 MSHR_MERGE:          0
cpu0->cpu0_L2C TRANSLATION  ACCESS:       3605 HIT:        578 MISS:       3027 MSHR_MERGE:          0
cpu0->cpu0_L2C PREFETCH REQUESTED:          0 ISSUED:          0 USEFUL:          0 USELESS:          0
cpu0->cpu0_L2C AVERAGE MISS LATENCY: 191 cycles
cpu0->cpu0_L1I TOTAL        ACCESS:   44248892 HIT:   44248892 MISS:          0 MSHR_MERGE:          0
cpu0->cpu0_L1I LOAD         ACCESS:   44248892 HIT:   44248892 MISS:          0 MSHR_MERGE:          0
cpu0->cpu0_L1I RFO          ACCESS:          0 HIT:          0 MISS:          0 MSHR_MERGE:          0
cpu0->cpu0_L1I PREFETCH     ACCESS:          0 HIT:          0 MISS:          0 MSHR_MERGE:          0
cpu0->cpu0_L1I WRITE        ACCESS:          0 HIT:          0 MISS:          0 MSHR_MERGE:          0
cpu0->cpu0_L1I TRANSLATION  ACCESS:          0 HIT:          0 MISS:          0 MSHR_MERGE:          0
cpu0->cpu0_L1I PREFETCH REQUESTED:          0 ISSUED:          0 USEFUL:          0 USELESS:          0
cpu0->cpu0_L1I AVERAGE MISS LATENCY: - cycles
cpu0->cpu0_L1D TOTAL        ACCESS:   76239461 HIT:   47654761 MISS:   28584700 MSHR_MERGE:    2766253
cpu0->cpu0_L1D LOAD         ACCESS:   56363132 HIT:   33629190 MISS:   22733942 MSHR_MERGE:    1591080
cpu0->cpu0_L1D RFO          ACCESS:          0 HIT:          0 MISS:          0 MSHR_MERGE:          0
cpu0->cpu0_L1D PREFETCH     ACCESS:   19202951 HIT:   13412812 MISS:    5790139 MSHR_MERGE:    1165741
cpu0->cpu0_L1D WRITE        ACCESS:     626047 HIT:     569035 MISS:      57012 MSHR_MERGE:       9430
cpu0->cpu0_L1D TRANSLATION  ACCESS:      47331 HIT:      43724 MISS:       3607 MSHR_MERGE:          2
cpu0->cpu0_L1D PREFETCH REQUESTED:  581967047 ISSUED:   19202952 USEFUL:    4420854 USELESS:     203541
cpu0->cpu0_L1D AVERAGE MISS LATENCY: 19.49 cycles
cpu0->cpu0_ITLB TOTAL        ACCESS:   28178852 HIT:   28178852 MISS:          0 MSHR_MERGE:          0
cpu0->cpu0_ITLB LOAD         ACCESS:   28178852 HIT:   28178852 MISS:          0 MSHR_MERGE:          0
cpu0->cpu0_ITLB RFO          ACCESS:          0 HIT:          0 MISS:          0 MSHR_MERGE:          0
cpu0->cpu0_ITLB PREFETCH     ACCESS:          0 HIT:          0 MISS:          0 MSHR_MERGE:          0
cpu0->cpu0_ITLB WRITE        ACCESS:          0 HIT:          0 MISS:          0 MSHR_MERGE:          0
cpu0->cpu0_ITLB TRANSLATION  ACCESS:          0 HIT:          0 MISS:          0 MSHR_MERGE:          0
cpu0->cpu0_ITLB PREFETCH REQUESTED:          0 ISSUED:          0 USEFUL:          0 USELESS:          0
cpu0->cpu0_ITLB AVERAGE MISS LATENCY: - cycles
cpu0->cpu0_DTLB TOTAL        ACCESS:   61417272 HIT:   61036626 MISS:     380646 MSHR_MERGE:     270687
cpu0->cpu0_DTLB LOAD         ACCESS:   61417272 HIT:   61036626 MISS:     380646 MSHR_MERGE:     270687
cpu0->cpu0_DTLB RFO          ACCESS:          0 HIT:          0 MISS:          0 MSHR_MERGE:          0
cpu0->cpu0_DTLB PREFETCH     ACCESS:          0 HIT:          0 MISS:          0 MSHR_MERGE:          0
cpu0->cpu0_DTLB WRITE        ACCESS:          0 HIT:          0 MISS:          0 MSHR_MERGE:          0
cpu0->cpu0_DTLB TRANSLATION  ACCESS:          0 HIT:          0 MISS:          0 MSHR_MERGE:          0
cpu0->cpu0_DTLB PREFETCH REQUESTED:          0 ISSUED:          0 USEFUL:          0 USELESS:          0
cpu0->cpu0_DTLB AVERAGE MISS LATENCY: 26.02 cycles
cpu0->LLC TOTAL        ACCESS:    1523596 HIT:      28082 MISS:    1495514 MSHR_MERGE:          0
cpu0->LLC LOAD         ACCESS:    1281275 HIT:      15028 MISS:    1266247 MSHR_MERGE:          0
cpu0->LLC RFO          ACCESS:       8332 HIT:          0 MISS:       8332 MSHR_MERGE:          0
cpu0->LLC PREFETCH     ACCESS:     222639 HIT:      10299 MISS:     212340 MSHR_MERGE:          0
cpu0->LLC WRITE        ACCESS:       8323 HIT:       2691 MISS:       5632 MSHR_MERGE:          0
cpu0->LLC TRANSLATION  ACCESS:       3027 HIT:         64 MISS:       2963 MSHR_MERGE:          0
cpu0->LLC PREFETCH REQUESTED:          0 ISSUED:          0 USEFUL:          0 USELESS:          0
cpu0->LLC AVERAGE MISS LATENCY: 169.3 cycles

DRAM Statistics

Channel 0 RQ ROW_BUFFER_HIT:     669237
  ROW_BUFFER_MISS:     820645
  AVG DBUS CONGESTED CYCLE: 4.423
Channel 0 WQ ROW_BUFFER_HIT:        785
  ROW_BUFFER_MISS:       5063
  FULL:          0
Channel 0 REFRESHES ISSUED:       6793
