[VMEM] WARNING: physical memory size is smaller than virtual memory size.

*** ChampSim Multicore Out-of-Order Simulator ***
Warmup Instructions: 50000000
Simulation Instructions: 200000000
Number of CPUs: 1
Page size: 4096
Core 0: /local-ssd/ben/dpc4-traces/Graph/Ligra/ligra_BFSCC.com-lj.ungraph.gcc_6.3.0_O3.drop_15500M.length_250M.champsimtrace.xz
sBerti (Smart Stride + Berti) Prefetcher Initialized
Off-chip DRAM Size: 64 GiB Channels: 1 Width: 64-bit Data Rate: 4807 MT/s
Heartbeat CPU 0 instructions: 500003 cycles: 165910 heartbeat IPC: 3.014 cumulative IPC: 3.014 (Simulation time: 00 hr 00 min 04 sec)
Heartbeat CPU 0 instructions: 1000004 cycles: 330550 heartbeat IPC: 3.037 cumulative IPC: 3.025 (Simulation time: 00 hr 00 min 07 sec)
Heartbeat CPU 0 instructions: 1500008 cycles: 495338 heartbeat IPC: 3.034 cumulative IPC: 3.028 (Simulation time: 00 hr 00 min 11 sec)
Heartbeat CPU 0 instructions: 2000010 cycles: 659803 heartbeat IPC: 3.04 cumulative IPC: 3.031 (Simulation time: 00 hr 00 min 14 sec)
Heartbeat CPU 0 instructions: 2500012 cycles: 824572 heartbeat IPC: 3.035 cumulative IPC: 3.032 (Simulation time: 00 hr 00 min 17 sec)
Heartbeat CPU 0 instructions: 3000015 cycles: 989231 heartbeat IPC: 3.037 cumulative IPC: 3.033 (Simulation time: 00 hr 00 min 20 sec)
Heartbeat CPU 0 instructions: 3500018 cycles: 1153814 heartbeat IPC: 3.038 cumulative IPC: 3.033 (Simulation time: 00 hr 00 min 22 sec)
Heartbeat CPU 0 instructions: 4000020 cycles: 1318659 heartbeat IPC: 3.033 cumulative IPC: 3.033 (Simulation time: 00 hr 00 min 24 sec)
Heartbeat CPU 0 instructions: 4500020 cycles: 1483307 heartbeat IPC: 3.037 cumulative IPC: 3.034 (Simulation time: 00 hr 00 min 26 sec)
Heartbeat CPU 0 instructions: 5000025 cycles: 1647703 heartbeat IPC: 3.041 cumulative IPC: 3.035 (Simulation time: 00 hr 00 min 28 sec)
Heartbeat CPU 0 instructions: 5500031 cycles: 1812572 heartbeat IPC: 3.033 cumulative IPC: 3.034 (Simulation time: 00 hr 00 min 30 sec)
Heartbeat CPU 0 instructions: 6000038 cycles: 1977132 heartbeat IPC: 3.038 cumulative IPC: 3.035 (Simulation time: 00 hr 00 min 32 sec)
Heartbeat CPU 0 instructions: 6500040 cycles: 2141591 heartbeat IPC: 3.04 cumulative IPC: 3.035 (Simulation time: 00 hr 00 min 34 sec)
Heartbeat CPU 0 instructions: 7000044 cycles: 2306584 heartbeat IPC: 3.03 cumulative IPC: 3.035 (Simulation time: 00 hr 00 min 36 sec)
Heartbeat CPU 0 instructions: 7500045 cycles: 2471225 heartbeat IPC: 3.037 cumulative IPC: 3.035 (Simulation time: 00 hr 00 min 38 sec)
Heartbeat CPU 0 instructions: 8000048 cycles: 2636024 heartbeat IPC: 3.034 cumulative IPC: 3.035 (Simulation time: 00 hr 00 min 40 sec)
Heartbeat CPU 0 instructions: 8500050 cycles: 2800481 heartbeat IPC: 3.04 cumulative IPC: 3.035 (Simulation time: 00 hr 00 min 42 sec)
Heartbeat CPU 0 instructions: 9000052 cycles: 2965383 heartbeat IPC: 3.032 cumulative IPC: 3.035 (Simulation time: 00 hr 00 min 44 sec)
Heartbeat CPU 0 instructions: 9500055 cycles: 3129923 heartbeat IPC: 3.039 cumulative IPC: 3.035 (Simulation time: 00 hr 00 min 46 sec)
Heartbeat CPU 0 instructions: 10000060 cycles: 3294465 heartbeat IPC: 3.039 cumulative IPC: 3.035 (Simulation time: 00 hr 00 min 48 sec)
Heartbeat CPU 0 instructions: 10500060 cycles: 3459365 heartbeat IPC: 3.032 cumulative IPC: 3.035 (Simulation time: 00 hr 00 min 50 sec)
Heartbeat CPU 0 instructions: 11000063 cycles: 3623824 heartbeat IPC: 3.04 cumulative IPC: 3.035 (Simulation time: 00 hr 00 min 52 sec)
Heartbeat CPU 0 instructions: 11500065 cycles: 3788407 heartbeat IPC: 3.038 cumulative IPC: 3.036 (Simulation time: 00 hr 00 min 54 sec)
Heartbeat CPU 0 instructions: 12000068 cycles: 3953246 heartbeat IPC: 3.033 cumulative IPC: 3.035 (Simulation time: 00 hr 00 min 56 sec)
Heartbeat CPU 0 instructions: 12500070 cycles: 4117835 heartbeat IPC: 3.038 cumulative IPC: 3.036 (Simulation time: 00 hr 00 min 58 sec)
Heartbeat CPU 0 instructions: 13000073 cycles: 4282294 heartbeat IPC: 3.04 cumulative IPC: 3.036 (Simulation time: 00 hr 01 min 00 sec)
Heartbeat CPU 0 instructions: 13500076 cycles: 4447454 heartbeat IPC: 3.027 cumulative IPC: 3.035 (Simulation time: 00 hr 01 min 02 sec)
Heartbeat CPU 0 instructions: 14000076 cycles: 4611724 heartbeat IPC: 3.044 cumulative IPC: 3.036 (Simulation time: 00 hr 01 min 04 sec)
Heartbeat CPU 0 instructions: 14500076 cycles: 4776701 heartbeat IPC: 3.031 cumulative IPC: 3.036 (Simulation time: 00 hr 01 min 06 sec)
Heartbeat CPU 0 instructions: 15000081 cycles: 4941164 heartbeat IPC: 3.04 cumulative IPC: 3.036 (Simulation time: 00 hr 01 min 08 sec)
Heartbeat CPU 0 instructions: 15500084 cycles: 5105816 heartbeat IPC: 3.037 cumulative IPC: 3.036 (Simulation time: 00 hr 01 min 10 sec)
Heartbeat CPU 0 instructions: 16000088 cycles: 5270602 heartbeat IPC: 3.034 cumulative IPC: 3.036 (Simulation time: 00 hr 01 min 12 sec)
Heartbeat CPU 0 instructions: 16500090 cycles: 5435067 heartbeat IPC: 3.04 cumulative IPC: 3.036 (Simulation time: 00 hr 01 min 14 sec)
Heartbeat CPU 0 instructions: 17000092 cycles: 5599844 heartbeat IPC: 3.034 cumulative IPC: 3.036 (Simulation time: 00 hr 01 min 16 sec)
Heartbeat CPU 0 instructions: 17500095 cycles: 5764501 heartbeat IPC: 3.037 cumulative IPC: 3.036 (Simulation time: 00 hr 01 min 18 sec)
Heartbeat CPU 0 instructions: 18000098 cycles: 5929094 heartbeat IPC: 3.038 cumulative IPC: 3.036 (Simulation time: 00 hr 01 min 20 sec)
Heartbeat CPU 0 instructions: 18500100 cycles: 6093935 heartbeat IPC: 3.033 cumulative IPC: 3.036 (Simulation time: 00 hr 01 min 22 sec)
Heartbeat CPU 0 instructions: 19000100 cycles: 6258551 heartbeat IPC: 3.037 cumulative IPC: 3.036 (Simulation time: 00 hr 01 min 24 sec)
Heartbeat CPU 0 instructions: 19500105 cycles: 6422973 heartbeat IPC: 3.041 cumulative IPC: 3.036 (Simulation time: 00 hr 01 min 26 sec)
Heartbeat CPU 0 instructions: 20000108 cycles: 6587828 heartbeat IPC: 3.033 cumulative IPC: 3.036 (Simulation time: 00 hr 01 min 28 sec)
Heartbeat CPU 0 instructions: 20500110 cycles: 6752419 heartbeat IPC: 3.038 cumulative IPC: 3.036 (Simulation time: 00 hr 01 min 30 sec)
Heartbeat CPU 0 instructions: 21000113 cycles: 6917088 heartbeat IPC: 3.036 cumulative IPC: 3.036 (Simulation time: 00 hr 01 min 32 sec)
Heartbeat CPU 0 instructions: 21500115 cycles: 7081864 heartbeat IPC: 3.034 cumulative IPC: 3.036 (Simulation time: 00 hr 01 min 34 sec)
Heartbeat CPU 0 instructions: 22000118 cycles: 7246332 heartbeat IPC: 3.04 cumulative IPC: 3.036 (Simulation time: 00 hr 01 min 36 sec)
Heartbeat CPU 0 instructions: 22500120 cycles: 7411329 heartbeat IPC: 3.03 cumulative IPC: 3.036 (Simulation time: 00 hr 01 min 38 sec)
Heartbeat CPU 0 instructions: 23000124 cycles: 7575975 heartbeat IPC: 3.037 cumulative IPC: 3.036 (Simulation time: 00 hr 01 min 40 sec)
Heartbeat CPU 0 instructions: 23500124 cycles: 7740656 heartbeat IPC: 3.036 cumulative IPC: 3.036 (Simulation time: 00 hr 01 min 43 sec)
Heartbeat CPU 0 instructions: 24000128 cycles: 7905220 heartbeat IPC: 3.038 cumulative IPC: 3.036 (Simulation time: 00 hr 01 min 45 sec)
Heartbeat CPU 0 instructions: 24500135 cycles: 8069921 heartbeat IPC: 3.036 cumulative IPC: 3.036 (Simulation time: 00 hr 01 min 47 sec)
Heartbeat CPU 0 instructions: 25000140 cycles: 8234653 heartbeat IPC: 3.035 cumulative IPC: 3.036 (Simulation time: 00 hr 01 min 49 sec)
Heartbeat CPU 0 instructions: 25500143 cycles: 8399104 heartbeat IPC: 3.04 cumulative IPC: 3.036 (Simulation time: 00 hr 01 min 51 sec)
Heartbeat CPU 0 instructions: 26000145 cycles: 8563695 heartbeat IPC: 3.038 cumulative IPC: 3.036 (Simulation time: 00 hr 01 min 53 sec)
Heartbeat CPU 0 instructions: 26500148 cycles: 8728534 heartbeat IPC: 3.033 cumulative IPC: 3.036 (Simulation time: 00 hr 01 min 55 sec)
Heartbeat CPU 0 instructions: 27000150 cycles: 8893121 heartbeat IPC: 3.038 cumulative IPC: 3.036 (Simulation time: 00 hr 01 min 57 sec)
Heartbeat CPU 0 instructions: 27500153 cycles: 9057582 heartbeat IPC: 3.04 cumulative IPC: 3.036 (Simulation time: 00 hr 01 min 59 sec)
Heartbeat CPU 0 instructions: 28000156 cycles: 9222705 heartbeat IPC: 3.028 cumulative IPC: 3.036 (Simulation time: 00 hr 02 min 01 sec)
Heartbeat CPU 0 instructions: 28500156 cycles: 9387012 heartbeat IPC: 3.043 cumulative IPC: 3.036 (Simulation time: 00 hr 02 min 03 sec)
Heartbeat CPU 0 instructions: 29000160 cycles: 9551772 heartbeat IPC: 3.035 cumulative IPC: 3.036 (Simulation time: 00 hr 02 min 05 sec)
Heartbeat CPU 0 instructions: 29500163 cycles: 9716448 heartbeat IPC: 3.036 cumulative IPC: 3.036 (Simulation time: 00 hr 02 min 07 sec)
Heartbeat CPU 0 instructions: 30000164 cycles: 9880906 heartbeat IPC: 3.04 cumulative IPC: 3.036 (Simulation time: 00 hr 02 min 09 sec)
Heartbeat CPU 0 instructions: 30500168 cycles: 10045900 heartbeat IPC: 3.03 cumulative IPC: 3.036 (Simulation time: 00 hr 02 min 11 sec)
Heartbeat CPU 0 instructions: 31000170 cycles: 10210545 heartbeat IPC: 3.037 cumulative IPC: 3.036 (Simulation time: 00 hr 02 min 13 sec)
Heartbeat CPU 0 instructions: 31500172 cycles: 10375341 heartbeat IPC: 3.034 cumulative IPC: 3.036 (Simulation time: 00 hr 02 min 15 sec)
Heartbeat CPU 0 instructions: 32000175 cycles: 10539801 heartbeat IPC: 3.04 cumulative IPC: 3.036 (Simulation time: 00 hr 02 min 17 sec)
Heartbeat CPU 0 instructions: 32500178 cycles: 10704393 heartbeat IPC: 3.038 cumulative IPC: 3.036 (Simulation time: 00 hr 02 min 19 sec)
Heartbeat CPU 0 instructions: 33000180 cycles: 10869251 heartbeat IPC: 3.033 cumulative IPC: 3.036 (Simulation time: 00 hr 02 min 21 sec)
Heartbeat CPU 0 instructions: 33500183 cycles: 11033837 heartbeat IPC: 3.038 cumulative IPC: 3.036 (Simulation time: 00 hr 02 min 23 sec)
Heartbeat CPU 0 instructions: 34000185 cycles: 11198301 heartbeat IPC: 3.04 cumulative IPC: 3.036 (Simulation time: 00 hr 02 min 25 sec)
Heartbeat CPU 0 instructions: 34500188 cycles: 11363148 heartbeat IPC: 3.033 cumulative IPC: 3.036 (Simulation time: 00 hr 02 min 27 sec)
Heartbeat CPU 0 instructions: 35000190 cycles: 11527737 heartbeat IPC: 3.038 cumulative IPC: 3.036 (Simulation time: 00 hr 02 min 29 sec)
Heartbeat CPU 0 instructions: 35500193 cycles: 11692394 heartbeat IPC: 3.037 cumulative IPC: 3.036 (Simulation time: 00 hr 02 min 31 sec)
Heartbeat CPU 0 instructions: 36000195 cycles: 11857161 heartbeat IPC: 3.035 cumulative IPC: 3.036 (Simulation time: 00 hr 02 min 33 sec)
Heartbeat CPU 0 instructions: 36500198 cycles: 12021618 heartbeat IPC: 3.04 cumulative IPC: 3.036 (Simulation time: 00 hr 02 min 36 sec)
Heartbeat CPU 0 instructions: 37000200 cycles: 12186409 heartbeat IPC: 3.034 cumulative IPC: 3.036 (Simulation time: 00 hr 02 min 38 sec)
Heartbeat CPU 0 instructions: 37500203 cycles: 12351044 heartbeat IPC: 3.037 cumulative IPC: 3.036 (Simulation time: 00 hr 02 min 40 sec)
Heartbeat CPU 0 instructions: 38000204 cycles: 12516110 heartbeat IPC: 3.029 cumulative IPC: 3.036 (Simulation time: 00 hr 02 min 42 sec)
Heartbeat CPU 0 instructions: 38500208 cycles: 12680504 heartbeat IPC: 3.041 cumulative IPC: 3.036 (Simulation time: 00 hr 02 min 44 sec)
Heartbeat CPU 0 instructions: 39000215 cycles: 12845175 heartbeat IPC: 3.036 cumulative IPC: 3.036 (Simulation time: 00 hr 02 min 46 sec)
Heartbeat CPU 0 instructions: 39500220 cycles: 13009931 heartbeat IPC: 3.035 cumulative IPC: 3.036 (Simulation time: 00 hr 02 min 48 sec)
Heartbeat CPU 0 instructions: 40000223 cycles: 13174392 heartbeat IPC: 3.04 cumulative IPC: 3.036 (Simulation time: 00 hr 02 min 50 sec)
Heartbeat CPU 0 instructions: 40500228 cycles: 13338980 heartbeat IPC: 3.038 cumulative IPC: 3.036 (Simulation time: 00 hr 02 min 52 sec)
Heartbeat CPU 0 instructions: 41000228 cycles: 13503830 heartbeat IPC: 3.033 cumulative IPC: 3.036 (Simulation time: 00 hr 02 min 54 sec)
Heartbeat CPU 0 instructions: 41500230 cycles: 13668419 heartbeat IPC: 3.038 cumulative IPC: 3.036 (Simulation time: 00 hr 02 min 56 sec)
Heartbeat CPU 0 instructions: 42000233 cycles: 13833078 heartbeat IPC: 3.037 cumulative IPC: 3.036 (Simulation time: 00 hr 02 min 58 sec)
Heartbeat CPU 0 instructions: 42500236 cycles: 13997970 heartbeat IPC: 3.032 cumulative IPC: 3.036 (Simulation time: 00 hr 03 min 00 sec)
Heartbeat CPU 0 instructions: 43000236 cycles: 14162308 heartbeat IPC: 3.043 cumulative IPC: 3.036 (Simulation time: 00 hr 03 min 02 sec)
Heartbeat CPU 0 instructions: 43500239 cycles: 14327246 heartbeat IPC: 3.031 cumulative IPC: 3.036 (Simulation time: 00 hr 03 min 04 sec)
Heartbeat CPU 0 instructions: 44000243 cycles: 14491746 heartbeat IPC: 3.04 cumulative IPC: 3.036 (Simulation time: 00 hr 03 min 06 sec)
Heartbeat CPU 0 instructions: 44500244 cycles: 14656215 heartbeat IPC: 3.04 cumulative IPC: 3.036 (Simulation time: 00 hr 03 min 08 sec)
Heartbeat CPU 0 instructions: 45000248 cycles: 14821010 heartbeat IPC: 3.034 cumulative IPC: 3.036 (Simulation time: 00 hr 03 min 10 sec)
Heartbeat CPU 0 instructions: 45500250 cycles: 14985659 heartbeat IPC: 3.037 cumulative IPC: 3.036 (Simulation time: 00 hr 03 min 12 sec)
Heartbeat CPU 0 instructions: 46000252 cycles: 15150660 heartbeat IPC: 3.03 cumulative IPC: 3.036 (Simulation time: 00 hr 03 min 14 sec)
Heartbeat CPU 0 instructions: 46500255 cycles: 15315119 heartbeat IPC: 3.04 cumulative IPC: 3.036 (Simulation time: 00 hr 03 min 16 sec)
Heartbeat CPU 0 instructions: 47000260 cycles: 15480078 heartbeat IPC: 3.031 cumulative IPC: 3.036 (Simulation time: 00 hr 03 min 18 sec)
Heartbeat CPU 0 instructions: 47500260 cycles: 15644549 heartbeat IPC: 3.04 cumulative IPC: 3.036 (Simulation time: 00 hr 03 min 20 sec)
Heartbeat CPU 0 instructions: 48000263 cycles: 15809111 heartbeat IPC: 3.038 cumulative IPC: 3.036 (Simulation time: 00 hr 03 min 23 sec)
Heartbeat CPU 0 instructions: 48500264 cycles: 15973978 heartbeat IPC: 3.033 cumulative IPC: 3.036 (Simulation time: 00 hr 03 min 25 sec)
Heartbeat CPU 0 instructions: 49000268 cycles: 16138436 heartbeat IPC: 3.04 cumulative IPC: 3.036 (Simulation time: 00 hr 03 min 27 sec)
Heartbeat CPU 0 instructions: 49500270 cycles: 16303019 heartbeat IPC: 3.038 cumulative IPC: 3.036 (Simulation time: 00 hr 03 min 29 sec)
Warmup halting CPU 0 at instruction 50000003 cycle 16467604 for remainder of phase
Warmup finished CPU 0 instructions: 50000003 cycles: 16467604 cumulative IPC: 3.036 (Simulation time: 00 hr 03 min 31 sec)
Warmup complete CPU 0 instructions: 50000003 cycles: 16467604 cumulative IPC: 3.036 (Simulation time: 00 hr 03 min 31 sec)
Heartbeat CPU 0 instructions: 50000276 cycles: 16467827 heartbeat IPC: 3.034 cumulative IPC: 1.224 (Simulation time: 00 hr 03 min 31 sec)
Heartbeat CPU 0 instructions: 50500278 cycles: 16966031 heartbeat IPC: 1.004 cumulative IPC: 1.004 (Simulation time: 00 hr 03 min 37 sec)
Heartbeat CPU 0 instructions: 51000280 cycles: 17457282 heartbeat IPC: 1.018 cumulative IPC: 1.011 (Simulation time: 00 hr 03 min 43 sec)
Heartbeat CPU 0 instructions: 51500280 cycles: 17957021 heartbeat IPC: 1.001 cumulative IPC: 1.007 (Simulation time: 00 hr 03 min 50 sec)
Heartbeat CPU 0 instructions: 52000285 cycles: 18458906 heartbeat IPC: 0.9963 cumulative IPC: 1.005 (Simulation time: 00 hr 03 min 56 sec)
Heartbeat CPU 0 instructions: 52500286 cycles: 18961276 heartbeat IPC: 0.9953 cumulative IPC: 1.003 (Simulation time: 00 hr 04 min 03 sec)
Heartbeat CPU 0 instructions: 53000292 cycles: 19441127 heartbeat IPC: 1.042 cumulative IPC: 1.009 (Simulation time: 00 hr 04 min 09 sec)
Heartbeat CPU 0 instructions: 53500296 cycles: 19939446 heartbeat IPC: 1.003 cumulative IPC: 1.008 (Simulation time: 00 hr 04 min 16 sec)
Heartbeat CPU 0 instructions: 54000296 cycles: 20435307 heartbeat IPC: 1.008 cumulative IPC: 1.008 (Simulation time: 00 hr 04 min 22 sec)
Heartbeat CPU 0 instructions: 54500299 cycles: 20931811 heartbeat IPC: 1.007 cumulative IPC: 1.008 (Simulation time: 00 hr 04 min 29 sec)
Heartbeat CPU 0 instructions: 55000301 cycles: 21425064 heartbeat IPC: 1.014 cumulative IPC: 1.009 (Simulation time: 00 hr 04 min 35 sec)
Heartbeat CPU 0 instructions: 55500307 cycles: 21922905 heartbeat IPC: 1.004 cumulative IPC: 1.008 (Simulation time: 00 hr 04 min 41 sec)
Heartbeat CPU 0 instructions: 56000310 cycles: 22421553 heartbeat IPC: 1.003 cumulative IPC: 1.008 (Simulation time: 00 hr 04 min 48 sec)
Heartbeat CPU 0 instructions: 56500310 cycles: 22916316 heartbeat IPC: 1.011 cumulative IPC: 1.008 (Simulation time: 00 hr 04 min 54 sec)
Heartbeat CPU 0 instructions: 57000312 cycles: 23419477 heartbeat IPC: 0.9937 cumulative IPC: 1.007 (Simulation time: 00 hr 05 min 01 sec)
Heartbeat CPU 0 instructions: 57500312 cycles: 23914935 heartbeat IPC: 1.009 cumulative IPC: 1.007 (Simulation time: 00 hr 05 min 07 sec)
Heartbeat CPU 0 instructions: 58000316 cycles: 24418507 heartbeat IPC: 0.9929 cumulative IPC: 1.006 (Simulation time: 00 hr 05 min 14 sec)
Heartbeat CPU 0 instructions: 58500322 cycles: 24912511 heartbeat IPC: 1.012 cumulative IPC: 1.007 (Simulation time: 00 hr 05 min 20 sec)
Heartbeat CPU 0 instructions: 59000323 cycles: 25413686 heartbeat IPC: 0.9977 cumulative IPC: 1.006 (Simulation time: 00 hr 05 min 26 sec)
Heartbeat CPU 0 instructions: 59500327 cycles: 25912066 heartbeat IPC: 1.003 cumulative IPC: 1.006 (Simulation time: 00 hr 05 min 33 sec)
Heartbeat CPU 0 instructions: 60000329 cycles: 26406079 heartbeat IPC: 1.012 cumulative IPC: 1.006 (Simulation time: 00 hr 05 min 39 sec)
Heartbeat CPU 0 instructions: 60500336 cycles: 26889188 heartbeat IPC: 1.035 cumulative IPC: 1.008 (Simulation time: 00 hr 05 min 45 sec)
Heartbeat CPU 0 instructions: 61000340 cycles: 27693090 heartbeat IPC: 0.622 cumulative IPC: 0.9799 (Simulation time: 00 hr 05 min 54 sec)
Heartbeat CPU 0 instructions: 61500340 cycles: 28536456 heartbeat IPC: 0.5929 cumulative IPC: 0.9529 (Simulation time: 00 hr 06 min 03 sec)
Heartbeat CPU 0 instructions: 62000340 cycles: 29410234 heartbeat IPC: 0.5722 cumulative IPC: 0.9272 (Simulation time: 00 hr 06 min 13 sec)
Heartbeat CPU 0 instructions: 62500340 cycles: 30292781 heartbeat IPC: 0.5665 cumulative IPC: 0.9042 (Simulation time: 00 hr 06 min 23 sec)
Heartbeat CPU 0 instructions: 63000340 cycles: 31184356 heartbeat IPC: 0.5608 cumulative IPC: 0.8834 (Simulation time: 00 hr 06 min 33 sec)
Heartbeat CPU 0 instructions: 63500340 cycles: 32072205 heartbeat IPC: 0.5632 cumulative IPC: 0.8652 (Simulation time: 00 hr 06 min 43 sec)
Heartbeat CPU 0 instructions: 64000340 cycles: 32956325 heartbeat IPC: 0.5655 cumulative IPC: 0.8491 (Simulation time: 00 hr 06 min 52 sec)
Heartbeat CPU 0 instructions: 64500340 cycles: 33848653 heartbeat IPC: 0.5603 cumulative IPC: 0.8343 (Simulation time: 00 hr 07 min 05 sec)
Heartbeat CPU 0 instructions: 65000340 cycles: 34730088 heartbeat IPC: 0.5673 cumulative IPC: 0.8214 (Simulation time: 00 hr 07 min 20 sec)
Heartbeat CPU 0 instructions: 65500340 cycles: 35608516 heartbeat IPC: 0.5692 cumulative IPC: 0.8098 (Simulation time: 00 hr 07 min 34 sec)
Heartbeat CPU 0 instructions: 66000343 cycles: 36109341 heartbeat IPC: 0.9984 cumulative IPC: 0.8146 (Simulation time: 00 hr 07 min 43 sec)
Heartbeat CPU 0 instructions: 66500344 cycles: 36509208 heartbeat IPC: 1.25 cumulative IPC: 0.8233 (Simulation time: 00 hr 07 min 52 sec)
Heartbeat CPU 0 instructions: 67000344 cycles: 36910487 heartbeat IPC: 1.246 cumulative IPC: 0.8316 (Simulation time: 00 hr 08 min 00 sec)
Heartbeat CPU 0 instructions: 67500347 cycles: 37308206 heartbeat IPC: 1.257 cumulative IPC: 0.8397 (Simulation time: 00 hr 08 min 08 sec)
Heartbeat CPU 0 instructions: 68000349 cycles: 37679167 heartbeat IPC: 1.348 cumulative IPC: 0.8486 (Simulation time: 00 hr 08 min 13 sec)
Heartbeat CPU 0 instructions: 68500350 cycles: 38044759 heartbeat IPC: 1.368 cumulative IPC: 0.8574 (Simulation time: 00 hr 08 min 18 sec)
Heartbeat CPU 0 instructions: 69000351 cycles: 38410220 heartbeat IPC: 1.368 cumulative IPC: 0.8659 (Simulation time: 00 hr 08 min 23 sec)
Heartbeat CPU 0 instructions: 69500358 cycles: 38775811 heartbeat IPC: 1.368 cumulative IPC: 0.8741 (Simulation time: 00 hr 08 min 28 sec)
Heartbeat CPU 0 instructions: 70000363 cycles: 39128918 heartbeat IPC: 1.416 cumulative IPC: 0.8826 (Simulation time: 00 hr 08 min 33 sec)
Heartbeat CPU 0 instructions: 70500363 cycles: 39485506 heartbeat IPC: 1.402 cumulative IPC: 0.8906 (Simulation time: 00 hr 08 min 38 sec)
Heartbeat CPU 0 instructions: 71000363 cycles: 39822420 heartbeat IPC: 1.484 cumulative IPC: 0.8992 (Simulation time: 00 hr 08 min 43 sec)
Heartbeat CPU 0 instructions: 71500365 cycles: 40164336 heartbeat IPC: 1.462 cumulative IPC: 0.9073 (Simulation time: 00 hr 08 min 47 sec)
Heartbeat CPU 0 instructions: 72000371 cycles: 40512540 heartbeat IPC: 1.436 cumulative IPC: 0.915 (Simulation time: 00 hr 08 min 52 sec)
Heartbeat CPU 0 instructions: 72500375 cycles: 40860982 heartbeat IPC: 1.435 cumulative IPC: 0.9224 (Simulation time: 00 hr 08 min 57 sec)
Heartbeat CPU 0 instructions: 73000380 cycles: 41207554 heartbeat IPC: 1.443 cumulative IPC: 0.9297 (Simulation time: 00 hr 09 min 02 sec)
Heartbeat CPU 0 instructions: 73500383 cycles: 41574669 heartbeat IPC: 1.362 cumulative IPC: 0.936 (Simulation time: 00 hr 09 min 06 sec)
Heartbeat CPU 0 instructions: 74000383 cycles: 41924708 heartbeat IPC: 1.428 cumulative IPC: 0.9428 (Simulation time: 00 hr 09 min 11 sec)
Heartbeat CPU 0 instructions: 74500383 cycles: 42276991 heartbeat IPC: 1.419 cumulative IPC: 0.9493 (Simulation time: 00 hr 09 min 16 sec)
Heartbeat CPU 0 instructions: 75000384 cycles: 42628367 heartbeat IPC: 1.423 cumulative IPC: 0.9556 (Simulation time: 00 hr 09 min 21 sec)
Heartbeat CPU 0 instructions: 75500387 cycles: 42995655 heartbeat IPC: 1.361 cumulative IPC: 0.9613 (Simulation time: 00 hr 09 min 26 sec)
Heartbeat CPU 0 instructions: 76000391 cycles: 43356627 heartbeat IPC: 1.385 cumulative IPC: 0.967 (Simulation time: 00 hr 09 min 31 sec)
Heartbeat CPU 0 instructions: 76500396 cycles: 43716467 heartbeat IPC: 1.39 cumulative IPC: 0.9725 (Simulation time: 00 hr 09 min 36 sec)
Heartbeat CPU 0 instructions: 77000399 cycles: 44072400 heartbeat IPC: 1.405 cumulative IPC: 0.9781 (Simulation time: 00 hr 09 min 40 sec)
Heartbeat CPU 0 instructions: 77500399 cycles: 44428980 heartbeat IPC: 1.402 cumulative IPC: 0.9835 (Simulation time: 00 hr 09 min 45 sec)
Heartbeat CPU 0 instructions: 78000401 cycles: 44772688 heartbeat IPC: 1.455 cumulative IPC: 0.9892 (Simulation time: 00 hr 09 min 50 sec)
Heartbeat CPU 0 instructions: 78500408 cycles: 45124638 heartbeat IPC: 1.421 cumulative IPC: 0.9945 (Simulation time: 00 hr 09 min 55 sec)
Heartbeat CPU 0 instructions: 79000410 cycles: 45484900 heartbeat IPC: 1.388 cumulative IPC: 0.9994 (Simulation time: 00 hr 10 min 00 sec)
Heartbeat CPU 0 instructions: 79500415 cycles: 45841484 heartbeat IPC: 1.402 cumulative IPC: 1.004 (Simulation time: 00 hr 10 min 05 sec)
Heartbeat CPU 0 instructions: 80000418 cycles: 46193394 heartbeat IPC: 1.421 cumulative IPC: 1.009 (Simulation time: 00 hr 10 min 10 sec)
Heartbeat CPU 0 instructions: 80500425 cycles: 46532202 heartbeat IPC: 1.476 cumulative IPC: 1.014 (Simulation time: 00 hr 10 min 14 sec)
Heartbeat CPU 0 instructions: 81000431 cycles: 46892224 heartbeat IPC: 1.389 cumulative IPC: 1.019 (Simulation time: 00 hr 10 min 19 sec)
Heartbeat CPU 0 instructions: 81500435 cycles: 47229890 heartbeat IPC: 1.481 cumulative IPC: 1.024 (Simulation time: 00 hr 10 min 24 sec)
Heartbeat CPU 0 instructions: 82000439 cycles: 47574959 heartbeat IPC: 1.449 cumulative IPC: 1.029 (Simulation time: 00 hr 10 min 29 sec)
Heartbeat CPU 0 instructions: 82500439 cycles: 47928370 heartbeat IPC: 1.415 cumulative IPC: 1.033 (Simulation time: 00 hr 10 min 34 sec)
Heartbeat CPU 0 instructions: 83000439 cycles: 48288669 heartbeat IPC: 1.388 cumulative IPC: 1.037 (Simulation time: 00 hr 10 min 39 sec)
Heartbeat CPU 0 instructions: 83500443 cycles: 48644156 heartbeat IPC: 1.407 cumulative IPC: 1.041 (Simulation time: 00 hr 10 min 43 sec)
Heartbeat CPU 0 instructions: 84000443 cycles: 49015332 heartbeat IPC: 1.347 cumulative IPC: 1.045 (Simulation time: 00 hr 10 min 48 sec)
Heartbeat CPU 0 instructions: 84500447 cycles: 49366692 heartbeat IPC: 1.423 cumulative IPC: 1.049 (Simulation time: 00 hr 10 min 53 sec)
Heartbeat CPU 0 instructions: 85000447 cycles: 49713866 heartbeat IPC: 1.44 cumulative IPC: 1.053 (Simulation time: 00 hr 10 min 58 sec)
Heartbeat CPU 0 instructions: 85500451 cycles: 50082574 heartbeat IPC: 1.356 cumulative IPC: 1.056 (Simulation time: 00 hr 11 min 03 sec)
Heartbeat CPU 0 instructions: 86000454 cycles: 50434941 heartbeat IPC: 1.419 cumulative IPC: 1.06 (Simulation time: 00 hr 11 min 08 sec)
Heartbeat CPU 0 instructions: 86500459 cycles: 50791142 heartbeat IPC: 1.404 cumulative IPC: 1.063 (Simulation time: 00 hr 11 min 13 sec)
Heartbeat CPU 0 instructions: 87000463 cycles: 51158469 heartbeat IPC: 1.361 cumulative IPC: 1.067 (Simulation time: 00 hr 11 min 18 sec)
Heartbeat CPU 0 instructions: 87500467 cycles: 51498127 heartbeat IPC: 1.472 cumulative IPC: 1.071 (Simulation time: 00 hr 11 min 22 sec)
Heartbeat CPU 0 instructions: 88000467 cycles: 51845171 heartbeat IPC: 1.441 cumulative IPC: 1.074 (Simulation time: 00 hr 11 min 27 sec)
Heartbeat CPU 0 instructions: 88500467 cycles: 52185586 heartbeat IPC: 1.469 cumulative IPC: 1.078 (Simulation time: 00 hr 11 min 32 sec)
Heartbeat CPU 0 instructions: 89000474 cycles: 52539110 heartbeat IPC: 1.414 cumulative IPC: 1.081 (Simulation time: 00 hr 11 min 37 sec)
Heartbeat CPU 0 instructions: 89500479 cycles: 52902451 heartbeat IPC: 1.376 cumulative IPC: 1.084 (Simulation time: 00 hr 11 min 42 sec)
Heartbeat CPU 0 instructions: 90000479 cycles: 53263202 heartbeat IPC: 1.386 cumulative IPC: 1.087 (Simulation time: 00 hr 11 min 47 sec)
Heartbeat CPU 0 instructions: 90500479 cycles: 53613289 heartbeat IPC: 1.428 cumulative IPC: 1.09 (Simulation time: 00 hr 11 min 52 sec)
Heartbeat CPU 0 instructions: 91000481 cycles: 53967660 heartbeat IPC: 1.411 cumulative IPC: 1.093 (Simulation time: 00 hr 11 min 56 sec)
Heartbeat CPU 0 instructions: 91500487 cycles: 54318766 heartbeat IPC: 1.424 cumulative IPC: 1.096 (Simulation time: 00 hr 12 min 01 sec)
Heartbeat CPU 0 instructions: 92000493 cycles: 54669968 heartbeat IPC: 1.424 cumulative IPC: 1.099 (Simulation time: 00 hr 12 min 06 sec)
Heartbeat CPU 0 instructions: 92500495 cycles: 55016880 heartbeat IPC: 1.441 cumulative IPC: 1.102 (Simulation time: 00 hr 12 min 11 sec)
Heartbeat CPU 0 instructions: 93000495 cycles: 55380253 heartbeat IPC: 1.376 cumulative IPC: 1.105 (Simulation time: 00 hr 12 min 16 sec)
Heartbeat CPU 0 instructions: 93500495 cycles: 55736111 heartbeat IPC: 1.405 cumulative IPC: 1.108 (Simulation time: 00 hr 12 min 21 sec)
Heartbeat CPU 0 instructions: 94000496 cycles: 56099561 heartbeat IPC: 1.376 cumulative IPC: 1.11 (Simulation time: 00 hr 12 min 25 sec)
Heartbeat CPU 0 instructions: 94500499 cycles: 56470283 heartbeat IPC: 1.349 cumulative IPC: 1.112 (Simulation time: 00 hr 12 min 30 sec)
Heartbeat CPU 0 instructions: 95000502 cycles: 56838782 heartbeat IPC: 1.357 cumulative IPC: 1.115 (Simulation time: 00 hr 12 min 35 sec)
Heartbeat CPU 0 instructions: 95500502 cycles: 57181890 heartbeat IPC: 1.457 cumulative IPC: 1.118 (Simulation time: 00 hr 12 min 40 sec)
Heartbeat CPU 0 instructions: 96000507 cycles: 57547594 heartbeat IPC: 1.367 cumulative IPC: 1.12 (Simulation time: 00 hr 12 min 45 sec)
Heartbeat CPU 0 instructions: 96500507 cycles: 57897900 heartbeat IPC: 1.427 cumulative IPC: 1.122 (Simulation time: 00 hr 12 min 50 sec)
Heartbeat CPU 0 instructions: 97000511 cycles: 58254814 heartbeat IPC: 1.401 cumulative IPC: 1.125 (Simulation time: 00 hr 12 min 55 sec)
Heartbeat CPU 0 instructions: 97500512 cycles: 58594762 heartbeat IPC: 1.471 cumulative IPC: 1.128 (Simulation time: 00 hr 13 min 00 sec)
Heartbeat CPU 0 instructions: 98000514 cycles: 58930441 heartbeat IPC: 1.49 cumulative IPC: 1.13 (Simulation time: 00 hr 13 min 04 sec)
Heartbeat CPU 0 instructions: 98500515 cycles: 59267240 heartbeat IPC: 1.485 cumulative IPC: 1.133 (Simulation time: 00 hr 13 min 09 sec)
Heartbeat CPU 0 instructions: 99000519 cycles: 59612051 heartbeat IPC: 1.45 cumulative IPC: 1.136 (Simulation time: 00 hr 13 min 14 sec)
Heartbeat CPU 0 instructions: 99500523 cycles: 59967381 heartbeat IPC: 1.407 cumulative IPC: 1.138 (Simulation time: 00 hr 13 min 19 sec)
Heartbeat CPU 0 instructions: 100000527 cycles: 60306348 heartbeat IPC: 1.475 cumulative IPC: 1.141 (Simulation time: 00 hr 13 min 23 sec)
Heartbeat CPU 0 instructions: 100500531 cycles: 60648606 heartbeat IPC: 1.461 cumulative IPC: 1.143 (Simulation time: 00 hr 13 min 28 sec)
Heartbeat CPU 0 instructions: 101000535 cycles: 60987616 heartbeat IPC: 1.475 cumulative IPC: 1.146 (Simulation time: 00 hr 13 min 33 sec)
Heartbeat CPU 0 instructions: 101500539 cycles: 61330009 heartbeat IPC: 1.46 cumulative IPC: 1.148 (Simulation time: 00 hr 13 min 38 sec)
Heartbeat CPU 0 instructions: 102000541 cycles: 61679963 heartbeat IPC: 1.429 cumulative IPC: 1.15 (Simulation time: 00 hr 13 min 42 sec)
Heartbeat CPU 0 instructions: 102500543 cycles: 62025823 heartbeat IPC: 1.446 cumulative IPC: 1.152 (Simulation time: 00 hr 13 min 47 sec)
Heartbeat CPU 0 instructions: 103000543 cycles: 62371393 heartbeat IPC: 1.447 cumulative IPC: 1.155 (Simulation time: 00 hr 13 min 52 sec)
Heartbeat CPU 0 instructions: 103500545 cycles: 62724074 heartbeat IPC: 1.418 cumulative IPC: 1.157 (Simulation time: 00 hr 13 min 57 sec)
Heartbeat CPU 0 instructions: 104000547 cycles: 63061861 heartbeat IPC: 1.48 cumulative IPC: 1.159 (Simulation time: 00 hr 14 min 02 sec)
Heartbeat CPU 0 instructions: 104500551 cycles: 63409667 heartbeat IPC: 1.438 cumulative IPC: 1.161 (Simulation time: 00 hr 14 min 06 sec)
Heartbeat CPU 0 instructions: 105000555 cycles: 63759880 heartbeat IPC: 1.428 cumulative IPC: 1.163 (Simulation time: 00 hr 14 min 11 sec)
Heartbeat CPU 0 instructions: 105500555 cycles: 64106961 heartbeat IPC: 1.441 cumulative IPC: 1.165 (Simulation time: 00 hr 14 min 16 sec)
Heartbeat CPU 0 instructions: 106000555 cycles: 64452614 heartbeat IPC: 1.447 cumulative IPC: 1.167 (Simulation time: 00 hr 14 min 21 sec)
Heartbeat CPU 0 instructions: 106500559 cycles: 64800892 heartbeat IPC: 1.436 cumulative IPC: 1.169 (Simulation time: 00 hr 14 min 26 sec)
Heartbeat CPU 0 instructions: 107000563 cycles: 65150161 heartbeat IPC: 1.432 cumulative IPC: 1.171 (Simulation time: 00 hr 14 min 30 sec)
Heartbeat CPU 0 instructions: 107500567 cycles: 65495342 heartbeat IPC: 1.449 cumulative IPC: 1.173 (Simulation time: 00 hr 14 min 35 sec)
Heartbeat CPU 0 instructions: 108000571 cycles: 65846649 heartbeat IPC: 1.423 cumulative IPC: 1.175 (Simulation time: 00 hr 14 min 40 sec)
Heartbeat CPU 0 instructions: 108500575 cycles: 66181631 heartbeat IPC: 1.493 cumulative IPC: 1.177 (Simulation time: 00 hr 14 min 45 sec)
Heartbeat CPU 0 instructions: 109000579 cycles: 66531108 heartbeat IPC: 1.431 cumulative IPC: 1.179 (Simulation time: 00 hr 14 min 50 sec)
Heartbeat CPU 0 instructions: 109500579 cycles: 66873323 heartbeat IPC: 1.461 cumulative IPC: 1.18 (Simulation time: 00 hr 14 min 54 sec)
Heartbeat CPU 0 instructions: 110000579 cycles: 67230537 heartbeat IPC: 1.4 cumulative IPC: 1.182 (Simulation time: 00 hr 14 min 59 sec)
Heartbeat CPU 0 instructions: 110500579 cycles: 67574245 heartbeat IPC: 1.455 cumulative IPC: 1.184 (Simulation time: 00 hr 15 min 04 sec)
Heartbeat CPU 0 instructions: 111000583 cycles: 67926360 heartbeat IPC: 1.42 cumulative IPC: 1.185 (Simulation time: 00 hr 15 min 09 sec)
Heartbeat CPU 0 instructions: 111500587 cycles: 68287638 heartbeat IPC: 1.384 cumulative IPC: 1.187 (Simulation time: 00 hr 15 min 14 sec)
Heartbeat CPU 0 instructions: 112000591 cycles: 68621877 heartbeat IPC: 1.496 cumulative IPC: 1.189 (Simulation time: 00 hr 15 min 19 sec)
Heartbeat CPU 0 instructions: 112500595 cycles: 68972390 heartbeat IPC: 1.426 cumulative IPC: 1.19 (Simulation time: 00 hr 15 min 24 sec)
Heartbeat CPU 0 instructions: 113000601 cycles: 69318881 heartbeat IPC: 1.443 cumulative IPC: 1.192 (Simulation time: 00 hr 15 min 29 sec)
Heartbeat CPU 0 instructions: 113500602 cycles: 69672293 heartbeat IPC: 1.415 cumulative IPC: 1.194 (Simulation time: 00 hr 15 min 34 sec)
Heartbeat CPU 0 instructions: 114000609 cycles: 70020325 heartbeat IPC: 1.437 cumulative IPC: 1.195 (Simulation time: 00 hr 15 min 38 sec)
Heartbeat CPU 0 instructions: 114500611 cycles: 70368486 heartbeat IPC: 1.436 cumulative IPC: 1.197 (Simulation time: 00 hr 15 min 43 sec)
Heartbeat CPU 0 instructions: 115000611 cycles: 70723745 heartbeat IPC: 1.407 cumulative IPC: 1.198 (Simulation time: 00 hr 15 min 48 sec)
Heartbeat CPU 0 instructions: 115500611 cycles: 71079851 heartbeat IPC: 1.404 cumulative IPC: 1.199 (Simulation time: 00 hr 15 min 53 sec)
Heartbeat CPU 0 instructions: 116000615 cycles: 71428542 heartbeat IPC: 1.434 cumulative IPC: 1.201 (Simulation time: 00 hr 15 min 58 sec)
Heartbeat CPU 0 instructions: 116500619 cycles: 71785140 heartbeat IPC: 1.402 cumulative IPC: 1.202 (Simulation time: 00 hr 16 min 03 sec)
Heartbeat CPU 0 instructions: 117000619 cycles: 72120378 heartbeat IPC: 1.491 cumulative IPC: 1.204 (Simulation time: 00 hr 16 min 08 sec)
Heartbeat CPU 0 instructions: 117500623 cycles: 72479827 heartbeat IPC: 1.391 cumulative IPC: 1.205 (Simulation time: 00 hr 16 min 13 sec)
Heartbeat CPU 0 instructions: 118000623 cycles: 72846120 heartbeat IPC: 1.365 cumulative IPC: 1.206 (Simulation time: 00 hr 16 min 18 sec)
Heartbeat CPU 0 instructions: 118500628 cycles: 73191629 heartbeat IPC: 1.447 cumulative IPC: 1.208 (Simulation time: 00 hr 16 min 22 sec)
Heartbeat CPU 0 instructions: 119000633 cycles: 73546104 heartbeat IPC: 1.411 cumulative IPC: 1.209 (Simulation time: 00 hr 16 min 27 sec)
Heartbeat CPU 0 instructions: 119500637 cycles: 73888853 heartbeat IPC: 1.459 cumulative IPC: 1.21 (Simulation time: 00 hr 16 min 32 sec)
Heartbeat CPU 0 instructions: 120000641 cycles: 74247779 heartbeat IPC: 1.393 cumulative IPC: 1.211 (Simulation time: 00 hr 16 min 37 sec)
Heartbeat CPU 0 instructions: 120500643 cycles: 74592573 heartbeat IPC: 1.45 cumulative IPC: 1.213 (Simulation time: 00 hr 16 min 42 sec)
Heartbeat CPU 0 instructions: 121000646 cycles: 74948004 heartbeat IPC: 1.407 cumulative IPC: 1.214 (Simulation time: 00 hr 16 min 47 sec)
Heartbeat CPU 0 instructions: 121500647 cycles: 75311936 heartbeat IPC: 1.374 cumulative IPC: 1.215 (Simulation time: 00 hr 16 min 52 sec)
Heartbeat CPU 0 instructions: 122000651 cycles: 75657863 heartbeat IPC: 1.445 cumulative IPC: 1.216 (Simulation time: 00 hr 16 min 57 sec)
Heartbeat CPU 0 instructions: 122500651 cycles: 76016236 heartbeat IPC: 1.395 cumulative IPC: 1.218 (Simulation time: 00 hr 17 min 02 sec)
Heartbeat CPU 0 instructions: 123000653 cycles: 76377373 heartbeat IPC: 1.385 cumulative IPC: 1.219 (Simulation time: 00 hr 17 min 07 sec)
Heartbeat CPU 0 instructions: 123500659 cycles: 76720591 heartbeat IPC: 1.457 cumulative IPC: 1.22 (Simulation time: 00 hr 17 min 12 sec)
Heartbeat CPU 0 instructions: 124000659 cycles: 77079338 heartbeat IPC: 1.394 cumulative IPC: 1.221 (Simulation time: 00 hr 17 min 17 sec)
Heartbeat CPU 0 instructions: 124500663 cycles: 77420658 heartbeat IPC: 1.465 cumulative IPC: 1.222 (Simulation time: 00 hr 17 min 21 sec)
Heartbeat CPU 0 instructions: 125000663 cycles: 77769966 heartbeat IPC: 1.431 cumulative IPC: 1.223 (Simulation time: 00 hr 17 min 26 sec)
Heartbeat CPU 0 instructions: 125500666 cycles: 78124061 heartbeat IPC: 1.412 cumulative IPC: 1.225 (Simulation time: 00 hr 17 min 31 sec)
Heartbeat CPU 0 instructions: 126000667 cycles: 78476154 heartbeat IPC: 1.42 cumulative IPC: 1.226 (Simulation time: 00 hr 17 min 36 sec)
Heartbeat CPU 0 instructions: 126500671 cycles: 78832611 heartbeat IPC: 1.403 cumulative IPC: 1.227 (Simulation time: 00 hr 17 min 41 sec)
Heartbeat CPU 0 instructions: 127000675 cycles: 79187628 heartbeat IPC: 1.408 cumulative IPC: 1.228 (Simulation time: 00 hr 17 min 46 sec)
Heartbeat CPU 0 instructions: 127500679 cycles: 79546657 heartbeat IPC: 1.393 cumulative IPC: 1.229 (Simulation time: 00 hr 17 min 51 sec)
Heartbeat CPU 0 instructions: 128000679 cycles: 79891560 heartbeat IPC: 1.45 cumulative IPC: 1.23 (Simulation time: 00 hr 17 min 55 sec)
Heartbeat CPU 0 instructions: 128500681 cycles: 80260116 heartbeat IPC: 1.357 cumulative IPC: 1.231 (Simulation time: 00 hr 18 min 00 sec)
Heartbeat CPU 0 instructions: 129000681 cycles: 80601065 heartbeat IPC: 1.466 cumulative IPC: 1.232 (Simulation time: 00 hr 18 min 05 sec)
Heartbeat CPU 0 instructions: 129500681 cycles: 80949919 heartbeat IPC: 1.433 cumulative IPC: 1.233 (Simulation time: 00 hr 18 min 10 sec)
Heartbeat CPU 0 instructions: 130000687 cycles: 81310937 heartbeat IPC: 1.385 cumulative IPC: 1.234 (Simulation time: 00 hr 18 min 15 sec)
Heartbeat CPU 0 instructions: 130500687 cycles: 81663870 heartbeat IPC: 1.417 cumulative IPC: 1.235 (Simulation time: 00 hr 18 min 20 sec)
Heartbeat CPU 0 instructions: 131000687 cycles: 82038494 heartbeat IPC: 1.335 cumulative IPC: 1.235 (Simulation time: 00 hr 18 min 25 sec)
Heartbeat CPU 0 instructions: 131500687 cycles: 82393205 heartbeat IPC: 1.41 cumulative IPC: 1.236 (Simulation time: 00 hr 18 min 30 sec)
Heartbeat CPU 0 instructions: 132000687 cycles: 82744187 heartbeat IPC: 1.425 cumulative IPC: 1.237 (Simulation time: 00 hr 18 min 35 sec)
Heartbeat CPU 0 instructions: 132500691 cycles: 83111518 heartbeat IPC: 1.361 cumulative IPC: 1.238 (Simulation time: 00 hr 18 min 40 sec)
Heartbeat CPU 0 instructions: 133000695 cycles: 83470641 heartbeat IPC: 1.392 cumulative IPC: 1.239 (Simulation time: 00 hr 18 min 45 sec)
Heartbeat CPU 0 instructions: 133500695 cycles: 83827167 heartbeat IPC: 1.402 cumulative IPC: 1.24 (Simulation time: 00 hr 18 min 50 sec)
Heartbeat CPU 0 instructions: 134000695 cycles: 84180296 heartbeat IPC: 1.416 cumulative IPC: 1.241 (Simulation time: 00 hr 18 min 55 sec)
Heartbeat CPU 0 instructions: 134500699 cycles: 84535246 heartbeat IPC: 1.409 cumulative IPC: 1.241 (Simulation time: 00 hr 18 min 59 sec)
Heartbeat CPU 0 instructions: 135000702 cycles: 84900075 heartbeat IPC: 1.371 cumulative IPC: 1.242 (Simulation time: 00 hr 19 min 04 sec)
Heartbeat CPU 0 instructions: 135500702 cycles: 85247858 heartbeat IPC: 1.438 cumulative IPC: 1.243 (Simulation time: 00 hr 19 min 09 sec)
Heartbeat CPU 0 instructions: 136000708 cycles: 85615223 heartbeat IPC: 1.361 cumulative IPC: 1.244 (Simulation time: 00 hr 19 min 14 sec)
Heartbeat CPU 0 instructions: 136500711 cycles: 85985018 heartbeat IPC: 1.352 cumulative IPC: 1.244 (Simulation time: 00 hr 19 min 19 sec)
Heartbeat CPU 0 instructions: 137000715 cycles: 86341120 heartbeat IPC: 1.404 cumulative IPC: 1.245 (Simulation time: 00 hr 19 min 24 sec)
Heartbeat CPU 0 instructions: 137500715 cycles: 86703414 heartbeat IPC: 1.38 cumulative IPC: 1.246 (Simulation time: 00 hr 19 min 29 sec)
Heartbeat CPU 0 instructions: 138000719 cycles: 87065535 heartbeat IPC: 1.381 cumulative IPC: 1.247 (Simulation time: 00 hr 19 min 34 sec)
Heartbeat CPU 0 instructions: 138500719 cycles: 87422628 heartbeat IPC: 1.4 cumulative IPC: 1.247 (Simulation time: 00 hr 19 min 39 sec)
Heartbeat CPU 0 instructions: 139000719 cycles: 87770677 heartbeat IPC: 1.437 cumulative IPC: 1.248 (Simulation time: 00 hr 19 min 43 sec)
Heartbeat CPU 0 instructions: 139500724 cycles: 88131492 heartbeat IPC: 1.386 cumulative IPC: 1.249 (Simulation time: 00 hr 19 min 48 sec)
Heartbeat CPU 0 instructions: 140000727 cycles: 88491561 heartbeat IPC: 1.389 cumulative IPC: 1.25 (Simulation time: 00 hr 19 min 53 sec)
Heartbeat CPU 0 instructions: 140500727 cycles: 88870272 heartbeat IPC: 1.32 cumulative IPC: 1.25 (Simulation time: 00 hr 19 min 58 sec)
Heartbeat CPU 0 instructions: 141000729 cycles: 89217610 heartbeat IPC: 1.44 cumulative IPC: 1.251 (Simulation time: 00 hr 20 min 03 sec)
Heartbeat CPU 0 instructions: 141500729 cycles: 89571581 heartbeat IPC: 1.413 cumulative IPC: 1.252 (Simulation time: 00 hr 20 min 08 sec)
Heartbeat CPU 0 instructions: 142000731 cycles: 89930541 heartbeat IPC: 1.393 cumulative IPC: 1.252 (Simulation time: 00 hr 20 min 13 sec)
Heartbeat CPU 0 instructions: 142500737 cycles: 90303666 heartbeat IPC: 1.34 cumulative IPC: 1.253 (Simulation time: 00 hr 20 min 18 sec)
Heartbeat CPU 0 instructions: 143000743 cycles: 90665658 heartbeat IPC: 1.381 cumulative IPC: 1.253 (Simulation time: 00 hr 20 min 23 sec)
Heartbeat CPU 0 instructions: 143500743 cycles: 91031855 heartbeat IPC: 1.365 cumulative IPC: 1.254 (Simulation time: 00 hr 20 min 28 sec)
Heartbeat CPU 0 instructions: 144000747 cycles: 91406058 heartbeat IPC: 1.336 cumulative IPC: 1.254 (Simulation time: 00 hr 20 min 33 sec)
Heartbeat CPU 0 instructions: 144500754 cycles: 91775355 heartbeat IPC: 1.354 cumulative IPC: 1.255 (Simulation time: 00 hr 20 min 38 sec)
Heartbeat CPU 0 instructions: 145000758 cycles: 92135934 heartbeat IPC: 1.387 cumulative IPC: 1.255 (Simulation time: 00 hr 20 min 43 sec)
Heartbeat CPU 0 instructions: 145500762 cycles: 92505486 heartbeat IPC: 1.353 cumulative IPC: 1.256 (Simulation time: 00 hr 20 min 47 sec)
Heartbeat CPU 0 instructions: 146000764 cycles: 92876729 heartbeat IPC: 1.347 cumulative IPC: 1.256 (Simulation time: 00 hr 20 min 52 sec)
Heartbeat CPU 0 instructions: 146500771 cycles: 93262011 heartbeat IPC: 1.298 cumulative IPC: 1.257 (Simulation time: 00 hr 20 min 57 sec)
Heartbeat CPU 0 instructions: 147000771 cycles: 93624527 heartbeat IPC: 1.379 cumulative IPC: 1.257 (Simulation time: 00 hr 21 min 02 sec)
Heartbeat CPU 0 instructions: 147500778 cycles: 94001387 heartbeat IPC: 1.327 cumulative IPC: 1.258 (Simulation time: 00 hr 21 min 07 sec)
Heartbeat CPU 0 instructions: 148000779 cycles: 94374105 heartbeat IPC: 1.341 cumulative IPC: 1.258 (Simulation time: 00 hr 21 min 12 sec)
Heartbeat CPU 0 instructions: 148500779 cycles: 94745674 heartbeat IPC: 1.346 cumulative IPC: 1.258 (Simulation time: 00 hr 21 min 17 sec)
Heartbeat CPU 0 instructions: 149000783 cycles: 95131528 heartbeat IPC: 1.296 cumulative IPC: 1.259 (Simulation time: 00 hr 21 min 21 sec)
Heartbeat CPU 0 instructions: 149500790 cycles: 95531158 heartbeat IPC: 1.251 cumulative IPC: 1.258 (Simulation time: 00 hr 21 min 26 sec)
Heartbeat CPU 0 instructions: 150000790 cycles: 95939548 heartbeat IPC: 1.224 cumulative IPC: 1.258 (Simulation time: 00 hr 21 min 31 sec)
Heartbeat CPU 0 instructions: 150500794 cycles: 96336915 heartbeat IPC: 1.258 cumulative IPC: 1.258 (Simulation time: 00 hr 21 min 36 sec)
Heartbeat CPU 0 instructions: 151000795 cycles: 96727450 heartbeat IPC: 1.28 cumulative IPC: 1.258 (Simulation time: 00 hr 21 min 41 sec)
Heartbeat CPU 0 instructions: 151500798 cycles: 97121704 heartbeat IPC: 1.268 cumulative IPC: 1.258 (Simulation time: 00 hr 21 min 46 sec)
Heartbeat CPU 0 instructions: 152000803 cycles: 97551279 heartbeat IPC: 1.164 cumulative IPC: 1.258 (Simulation time: 00 hr 21 min 51 sec)
Heartbeat CPU 0 instructions: 152500807 cycles: 97930671 heartbeat IPC: 1.318 cumulative IPC: 1.258 (Simulation time: 00 hr 21 min 55 sec)
Heartbeat CPU 0 instructions: 153000812 cycles: 98279651 heartbeat IPC: 1.433 cumulative IPC: 1.259 (Simulation time: 00 hr 22 min 00 sec)
Heartbeat CPU 0 instructions: 153500819 cycles: 98613828 heartbeat IPC: 1.496 cumulative IPC: 1.26 (Simulation time: 00 hr 22 min 05 sec)
Heartbeat CPU 0 instructions: 154000819 cycles: 98953565 heartbeat IPC: 1.472 cumulative IPC: 1.261 (Simulation time: 00 hr 22 min 09 sec)
Heartbeat CPU 0 instructions: 154500820 cycles: 99293829 heartbeat IPC: 1.469 cumulative IPC: 1.262 (Simulation time: 00 hr 22 min 14 sec)
Heartbeat CPU 0 instructions: 155000823 cycles: 99638805 heartbeat IPC: 1.449 cumulative IPC: 1.262 (Simulation time: 00 hr 22 min 18 sec)
Heartbeat CPU 0 instructions: 155500826 cycles: 100001903 heartbeat IPC: 1.377 cumulative IPC: 1.263 (Simulation time: 00 hr 22 min 23 sec)
Heartbeat CPU 0 instructions: 156000828 cycles: 100360886 heartbeat IPC: 1.393 cumulative IPC: 1.264 (Simulation time: 00 hr 22 min 28 sec)
Heartbeat CPU 0 instructions: 156500831 cycles: 100712088 heartbeat IPC: 1.424 cumulative IPC: 1.264 (Simulation time: 00 hr 22 min 33 sec)
Heartbeat CPU 0 instructions: 157000836 cycles: 101058266 heartbeat IPC: 1.444 cumulative IPC: 1.265 (Simulation time: 00 hr 22 min 38 sec)
Heartbeat CPU 0 instructions: 157500839 cycles: 101426080 heartbeat IPC: 1.359 cumulative IPC: 1.265 (Simulation time: 00 hr 22 min 43 sec)
Heartbeat CPU 0 instructions: 158000843 cycles: 101782233 heartbeat IPC: 1.404 cumulative IPC: 1.266 (Simulation time: 00 hr 22 min 47 sec)
Heartbeat CPU 0 instructions: 158500847 cycles: 102128590 heartbeat IPC: 1.444 cumulative IPC: 1.267 (Simulation time: 00 hr 22 min 52 sec)
Heartbeat CPU 0 instructions: 159000851 cycles: 102479503 heartbeat IPC: 1.425 cumulative IPC: 1.267 (Simulation time: 00 hr 22 min 57 sec)
Heartbeat CPU 0 instructions: 159500856 cycles: 102840341 heartbeat IPC: 1.386 cumulative IPC: 1.268 (Simulation time: 00 hr 23 min 02 sec)
Heartbeat CPU 0 instructions: 160000859 cycles: 103188478 heartbeat IPC: 1.436 cumulative IPC: 1.268 (Simulation time: 00 hr 23 min 07 sec)
Heartbeat CPU 0 instructions: 160500863 cycles: 103546706 heartbeat IPC: 1.396 cumulative IPC: 1.269 (Simulation time: 00 hr 23 min 12 sec)
Heartbeat CPU 0 instructions: 161000867 cycles: 103912306 heartbeat IPC: 1.368 cumulative IPC: 1.269 (Simulation time: 00 hr 23 min 17 sec)
Heartbeat CPU 0 instructions: 161500867 cycles: 104271822 heartbeat IPC: 1.391 cumulative IPC: 1.27 (Simulation time: 00 hr 23 min 21 sec)
Heartbeat CPU 0 instructions: 162000869 cycles: 104629067 heartbeat IPC: 1.4 cumulative IPC: 1.27 (Simulation time: 00 hr 23 min 26 sec)
Heartbeat CPU 0 instructions: 162500871 cycles: 105022272 heartbeat IPC: 1.272 cumulative IPC: 1.27 (Simulation time: 00 hr 23 min 31 sec)
Heartbeat CPU 0 instructions: 163000873 cycles: 105482536 heartbeat IPC: 1.086 cumulative IPC: 1.269 (Simulation time: 00 hr 23 min 37 sec)
Heartbeat CPU 0 instructions: 163500878 cycles: 105894610 heartbeat IPC: 1.213 cumulative IPC: 1.269 (Simulation time: 00 hr 23 min 42 sec)
Heartbeat CPU 0 instructions: 164000879 cycles: 106352537 heartbeat IPC: 1.092 cumulative IPC: 1.268 (Simulation time: 00 hr 23 min 47 sec)
Heartbeat CPU 0 instructions: 164500879 cycles: 106737943 heartbeat IPC: 1.297 cumulative IPC: 1.268 (Simulation time: 00 hr 23 min 52 sec)
Heartbeat CPU 0 instructions: 165000879 cycles: 107109760 heartbeat IPC: 1.345 cumulative IPC: 1.269 (Simulation time: 00 hr 23 min 57 sec)
Heartbeat CPU 0 instructions: 165500879 cycles: 107496709 heartbeat IPC: 1.292 cumulative IPC: 1.269 (Simulation time: 00 hr 24 min 01 sec)
Heartbeat CPU 0 instructions: 166000882 cycles: 107906848 heartbeat IPC: 1.219 cumulative IPC: 1.269 (Simulation time: 00 hr 24 min 06 sec)
Heartbeat CPU 0 instructions: 166500887 cycles: 108297128 heartbeat IPC: 1.281 cumulative IPC: 1.269 (Simulation time: 00 hr 24 min 11 sec)
Heartbeat CPU 0 instructions: 167000891 cycles: 108641190 heartbeat IPC: 1.453 cumulative IPC: 1.269 (Simulation time: 00 hr 24 min 16 sec)
Heartbeat CPU 0 instructions: 167500895 cycles: 108983404 heartbeat IPC: 1.461 cumulative IPC: 1.27 (Simulation time: 00 hr 24 min 21 sec)
Heartbeat CPU 0 instructions: 168000899 cycles: 109325592 heartbeat IPC: 1.461 cumulative IPC: 1.271 (Simulation time: 00 hr 24 min 25 sec)
Heartbeat CPU 0 instructions: 168500899 cycles: 109670742 heartbeat IPC: 1.449 cumulative IPC: 1.271 (Simulation time: 00 hr 24 min 30 sec)
Heartbeat CPU 0 instructions: 169000903 cycles: 110012626 heartbeat IPC: 1.462 cumulative IPC: 1.272 (Simulation time: 00 hr 24 min 35 sec)
Heartbeat CPU 0 instructions: 169500903 cycles: 110362539 heartbeat IPC: 1.429 cumulative IPC: 1.273 (Simulation time: 00 hr 24 min 39 sec)
Heartbeat CPU 0 instructions: 170000903 cycles: 110722080 heartbeat IPC: 1.391 cumulative IPC: 1.273 (Simulation time: 00 hr 24 min 44 sec)
Heartbeat CPU 0 instructions: 170500904 cycles: 111083872 heartbeat IPC: 1.382 cumulative IPC: 1.274 (Simulation time: 00 hr 24 min 49 sec)
Heartbeat CPU 0 instructions: 171000909 cycles: 111445689 heartbeat IPC: 1.382 cumulative IPC: 1.274 (Simulation time: 00 hr 24 min 54 sec)
Heartbeat CPU 0 instructions: 171500915 cycles: 111807691 heartbeat IPC: 1.381 cumulative IPC: 1.274 (Simulation time: 00 hr 24 min 59 sec)
Heartbeat CPU 0 instructions: 172000915 cycles: 112167374 heartbeat IPC: 1.39 cumulative IPC: 1.275 (Simulation time: 00 hr 25 min 04 sec)
Heartbeat CPU 0 instructions: 172500917 cycles: 112537379 heartbeat IPC: 1.351 cumulative IPC: 1.275 (Simulation time: 00 hr 25 min 09 sec)
Heartbeat CPU 0 instructions: 173000917 cycles: 112892937 heartbeat IPC: 1.406 cumulative IPC: 1.276 (Simulation time: 00 hr 25 min 14 sec)
Heartbeat CPU 0 instructions: 173500919 cycles: 113247252 heartbeat IPC: 1.411 cumulative IPC: 1.276 (Simulation time: 00 hr 25 min 19 sec)
Heartbeat CPU 0 instructions: 174000919 cycles: 113614314 heartbeat IPC: 1.362 cumulative IPC: 1.276 (Simulation time: 00 hr 25 min 24 sec)
Heartbeat CPU 0 instructions: 174500922 cycles: 113967730 heartbeat IPC: 1.415 cumulative IPC: 1.277 (Simulation time: 00 hr 25 min 29 sec)
Heartbeat CPU 0 instructions: 175000925 cycles: 114333637 heartbeat IPC: 1.366 cumulative IPC: 1.277 (Simulation time: 00 hr 25 min 34 sec)
Heartbeat CPU 0 instructions: 175500927 cycles: 114698005 heartbeat IPC: 1.372 cumulative IPC: 1.278 (Simulation time: 00 hr 25 min 39 sec)
Heartbeat CPU 0 instructions: 176000931 cycles: 115051230 heartbeat IPC: 1.416 cumulative IPC: 1.278 (Simulation time: 00 hr 25 min 44 sec)
Heartbeat CPU 0 instructions: 176500931 cycles: 115396082 heartbeat IPC: 1.45 cumulative IPC: 1.279 (Simulation time: 00 hr 25 min 49 sec)
Heartbeat CPU 0 instructions: 177000934 cycles: 115755829 heartbeat IPC: 1.39 cumulative IPC: 1.279 (Simulation time: 00 hr 25 min 54 sec)
Heartbeat CPU 0 instructions: 177500934 cycles: 116104334 heartbeat IPC: 1.435 cumulative IPC: 1.28 (Simulation time: 00 hr 25 min 58 sec)
Heartbeat CPU 0 instructions: 178000939 cycles: 116471162 heartbeat IPC: 1.363 cumulative IPC: 1.28 (Simulation time: 00 hr 26 min 03 sec)
Heartbeat CPU 0 instructions: 178500939 cycles: 116827408 heartbeat IPC: 1.404 cumulative IPC: 1.28 (Simulation time: 00 hr 26 min 08 sec)
Heartbeat CPU 0 instructions: 179000942 cycles: 117194230 heartbeat IPC: 1.363 cumulative IPC: 1.281 (Simulation time: 00 hr 26 min 13 sec)
Heartbeat CPU 0 instructions: 179500947 cycles: 117555828 heartbeat IPC: 1.383 cumulative IPC: 1.281 (Simulation time: 00 hr 26 min 18 sec)
Heartbeat CPU 0 instructions: 180000951 cycles: 117911254 heartbeat IPC: 1.407 cumulative IPC: 1.282 (Simulation time: 00 hr 26 min 23 sec)
Heartbeat CPU 0 instructions: 180500957 cycles: 118266772 heartbeat IPC: 1.406 cumulative IPC: 1.282 (Simulation time: 00 hr 26 min 28 sec)
Heartbeat CPU 0 instructions: 181000959 cycles: 118620682 heartbeat IPC: 1.413 cumulative IPC: 1.282 (Simulation time: 00 hr 26 min 33 sec)
Heartbeat CPU 0 instructions: 181500963 cycles: 118987790 heartbeat IPC: 1.362 cumulative IPC: 1.283 (Simulation time: 00 hr 26 min 38 sec)
Heartbeat CPU 0 instructions: 182000963 cycles: 119345407 heartbeat IPC: 1.398 cumulative IPC: 1.283 (Simulation time: 00 hr 26 min 43 sec)
Heartbeat CPU 0 instructions: 182500965 cycles: 119705545 heartbeat IPC: 1.388 cumulative IPC: 1.283 (Simulation time: 00 hr 26 min 48 sec)
Heartbeat CPU 0 instructions: 183000967 cycles: 120067829 heartbeat IPC: 1.38 cumulative IPC: 1.284 (Simulation time: 00 hr 26 min 53 sec)
Heartbeat CPU 0 instructions: 183500971 cycles: 120430321 heartbeat IPC: 1.379 cumulative IPC: 1.284 (Simulation time: 00 hr 26 min 58 sec)
Heartbeat CPU 0 instructions: 184000975 cycles: 120785889 heartbeat IPC: 1.406 cumulative IPC: 1.285 (Simulation time: 00 hr 27 min 03 sec)
Heartbeat CPU 0 instructions: 184500979 cycles: 121146699 heartbeat IPC: 1.386 cumulative IPC: 1.285 (Simulation time: 00 hr 27 min 07 sec)
Heartbeat CPU 0 instructions: 185000983 cycles: 121506286 heartbeat IPC: 1.39 cumulative IPC: 1.285 (Simulation time: 00 hr 27 min 12 sec)
Heartbeat CPU 0 instructions: 185500983 cycles: 121882028 heartbeat IPC: 1.331 cumulative IPC: 1.285 (Simulation time: 00 hr 27 min 17 sec)
Heartbeat CPU 0 instructions: 186000987 cycles: 122245709 heartbeat IPC: 1.375 cumulative IPC: 1.286 (Simulation time: 00 hr 27 min 22 sec)
Heartbeat CPU 0 instructions: 186500992 cycles: 122603315 heartbeat IPC: 1.398 cumulative IPC: 1.286 (Simulation time: 00 hr 27 min 27 sec)
Heartbeat CPU 0 instructions: 187000995 cycles: 122968075 heartbeat IPC: 1.371 cumulative IPC: 1.286 (Simulation time: 00 hr 27 min 32 sec)
Heartbeat CPU 0 instructions: 187500995 cycles: 123323299 heartbeat IPC: 1.408 cumulative IPC: 1.287 (Simulation time: 00 hr 27 min 37 sec)
Heartbeat CPU 0 instructions: 188000995 cycles: 123684083 heartbeat IPC: 1.386 cumulative IPC: 1.287 (Simulation time: 00 hr 27 min 42 sec)
Heartbeat CPU 0 instructions: 188500999 cycles: 124054507 heartbeat IPC: 1.35 cumulative IPC: 1.287 (Simulation time: 00 hr 27 min 47 sec)
Heartbeat CPU 0 instructions: 189001004 cycles: 124419192 heartbeat IPC: 1.371 cumulative IPC: 1.288 (Simulation time: 00 hr 27 min 52 sec)
Heartbeat CPU 0 instructions: 189501007 cycles: 124789678 heartbeat IPC: 1.35 cumulative IPC: 1.288 (Simulation time: 00 hr 27 min 56 sec)
Heartbeat CPU 0 instructions: 190001007 cycles: 125159142 heartbeat IPC: 1.353 cumulative IPC: 1.288 (Simulation time: 00 hr 28 min 01 sec)
Heartbeat CPU 0 instructions: 190501007 cycles: 125524000 heartbeat IPC: 1.37 cumulative IPC: 1.288 (Simulation time: 00 hr 28 min 06 sec)
Heartbeat CPU 0 instructions: 191001011 cycles: 125890469 heartbeat IPC: 1.364 cumulative IPC: 1.289 (Simulation time: 00 hr 28 min 11 sec)
Heartbeat CPU 0 instructions: 191501017 cycles: 126270977 heartbeat IPC: 1.314 cumulative IPC: 1.289 (Simulation time: 00 hr 28 min 16 sec)
Heartbeat CPU 0 instructions: 192001019 cycles: 126631184 heartbeat IPC: 1.388 cumulative IPC: 1.289 (Simulation time: 00 hr 28 min 21 sec)
Heartbeat CPU 0 instructions: 192501021 cycles: 126998099 heartbeat IPC: 1.363 cumulative IPC: 1.289 (Simulation time: 00 hr 28 min 26 sec)
Heartbeat CPU 0 instructions: 193001024 cycles: 127356271 heartbeat IPC: 1.396 cumulative IPC: 1.29 (Simulation time: 00 hr 28 min 31 sec)
Heartbeat CPU 0 instructions: 193501025 cycles: 127720770 heartbeat IPC: 1.372 cumulative IPC: 1.29 (Simulation time: 00 hr 28 min 36 sec)
Heartbeat CPU 0 instructions: 194001028 cycles: 128079930 heartbeat IPC: 1.392 cumulative IPC: 1.29 (Simulation time: 00 hr 28 min 41 sec)
Heartbeat CPU 0 instructions: 194501029 cycles: 128437630 heartbeat IPC: 1.398 cumulative IPC: 1.291 (Simulation time: 00 hr 28 min 45 sec)
Heartbeat CPU 0 instructions: 195001033 cycles: 128797482 heartbeat IPC: 1.389 cumulative IPC: 1.291 (Simulation time: 00 hr 28 min 50 sec)
Heartbeat CPU 0 instructions: 195501039 cycles: 129163726 heartbeat IPC: 1.365 cumulative IPC: 1.291 (Simulation time: 00 hr 28 min 55 sec)
Heartbeat CPU 0 instructions: 196001043 cycles: 129522236 heartbeat IPC: 1.395 cumulative IPC: 1.291 (Simulation time: 00 hr 29 min 00 sec)
Heartbeat CPU 0 instructions: 196501043 cycles: 129880901 heartbeat IPC: 1.394 cumulative IPC: 1.292 (Simulation time: 00 hr 29 min 05 sec)
Heartbeat CPU 0 instructions: 197001049 cycles: 130246521 heartbeat IPC: 1.368 cumulative IPC: 1.292 (Simulation time: 00 hr 29 min 10 sec)
Heartbeat CPU 0 instructions: 197501051 cycles: 130615100 heartbeat IPC: 1.357 cumulative IPC: 1.292 (Simulation time: 00 hr 29 min 15 sec)
Heartbeat CPU 0 instructions: 198001055 cycles: 130979072 heartbeat IPC: 1.374 cumulative IPC: 1.292 (Simulation time: 00 hr 29 min 20 sec)
Heartbeat CPU 0 instructions: 198501055 cycles: 131340202 heartbeat IPC: 1.385 cumulative IPC: 1.293 (Simulation time: 00 hr 29 min 25 sec)
Heartbeat CPU 0 instructions: 199001056 cycles: 131706401 heartbeat IPC: 1.365 cumulative IPC: 1.293 (Simulation time: 00 hr 29 min 29 sec)
Heartbeat CPU 0 instructions: 199501057 cycles: 132075420 heartbeat IPC: 1.355 cumulative IPC: 1.293 (Simulation time: 00 hr 29 min 34 sec)
Heartbeat CPU 0 instructions: 200001059 cycles: 132446258 heartbeat IPC: 1.348 cumulative IPC: 1.293 (Simulation time: 00 hr 29 min 39 sec)
Heartbeat CPU 0 instructions: 200501059 cycles: 132815841 heartbeat IPC: 1.353 cumulative IPC: 1.294 (Simulation time: 00 hr 29 min 44 sec)
Heartbeat CPU 0 instructions: 201001061 cycles: 133177919 heartbeat IPC: 1.381 cumulative IPC: 1.294 (Simulation time: 00 hr 29 min 49 sec)
Heartbeat CPU 0 instructions: 201501062 cycles: 133550307 heartbeat IPC: 1.343 cumulative IPC: 1.294 (Simulation time: 00 hr 29 min 54 sec)
Heartbeat CPU 0 instructions: 202001067 cycles: 133921165 heartbeat IPC: 1.348 cumulative IPC: 1.294 (Simulation time: 00 hr 29 min 59 sec)
Heartbeat CPU 0 instructions: 202501070 cycles: 134278483 heartbeat IPC: 1.399 cumulative IPC: 1.294 (Simulation time: 00 hr 30 min 04 sec)
Heartbeat CPU 0 instructions: 203001071 cycles: 134635504 heartbeat IPC: 1.4 cumulative IPC: 1.295 (Simulation time: 00 hr 30 min 09 sec)
Heartbeat CPU 0 instructions: 203501073 cycles: 134998783 heartbeat IPC: 1.376 cumulative IPC: 1.295 (Simulation time: 00 hr 30 min 13 sec)
Heartbeat CPU 0 instructions: 204001077 cycles: 135365463 heartbeat IPC: 1.364 cumulative IPC: 1.295 (Simulation time: 00 hr 30 min 18 sec)
Heartbeat CPU 0 instructions: 204501081 cycles: 135733551 heartbeat IPC: 1.358 cumulative IPC: 1.295 (Simulation time: 00 hr 30 min 23 sec)
Heartbeat CPU 0 instructions: 205001083 cycles: 136097278 heartbeat IPC: 1.375 cumulative IPC: 1.296 (Simulation time: 00 hr 30 min 28 sec)
Heartbeat CPU 0 instructions: 205501083 cycles: 136443823 heartbeat IPC: 1.443 cumulative IPC: 1.296 (Simulation time: 00 hr 30 min 33 sec)
Heartbeat CPU 0 instructions: 206001086 cycles: 136791238 heartbeat IPC: 1.439 cumulative IPC: 1.297 (Simulation time: 00 hr 30 min 38 sec)
Heartbeat CPU 0 instructions: 206501091 cycles: 137150466 heartbeat IPC: 1.392 cumulative IPC: 1.297 (Simulation time: 00 hr 30 min 43 sec)
Heartbeat CPU 0 instructions: 207001091 cycles: 137515116 heartbeat IPC: 1.371 cumulative IPC: 1.297 (Simulation time: 00 hr 30 min 48 sec)
Heartbeat CPU 0 instructions: 207501091 cycles: 137880069 heartbeat IPC: 1.37 cumulative IPC: 1.297 (Simulation time: 00 hr 30 min 53 sec)
Heartbeat CPU 0 instructions: 208001094 cycles: 138244426 heartbeat IPC: 1.372 cumulative IPC: 1.297 (Simulation time: 00 hr 30 min 58 sec)
Heartbeat CPU 0 instructions: 208501095 cycles: 138607173 heartbeat IPC: 1.378 cumulative IPC: 1.298 (Simulation time: 00 hr 31 min 02 sec)
Heartbeat CPU 0 instructions: 209001095 cycles: 138973906 heartbeat IPC: 1.363 cumulative IPC: 1.298 (Simulation time: 00 hr 31 min 07 sec)
Heartbeat CPU 0 instructions: 209501099 cycles: 139332223 heartbeat IPC: 1.395 cumulative IPC: 1.298 (Simulation time: 00 hr 31 min 12 sec)
Heartbeat CPU 0 instructions: 210001103 cycles: 139711077 heartbeat IPC: 1.32 cumulative IPC: 1.298 (Simulation time: 00 hr 31 min 17 sec)
Heartbeat CPU 0 instructions: 210501105 cycles: 140074701 heartbeat IPC: 1.375 cumulative IPC: 1.298 (Simulation time: 00 hr 31 min 22 sec)
Heartbeat CPU 0 instructions: 211001112 cycles: 140464559 heartbeat IPC: 1.283 cumulative IPC: 1.298 (Simulation time: 00 hr 31 min 27 sec)
Heartbeat CPU 0 instructions: 211501119 cycles: 140822615 heartbeat IPC: 1.396 cumulative IPC: 1.299 (Simulation time: 00 hr 31 min 32 sec)
Heartbeat CPU 0 instructions: 212001121 cycles: 141188645 heartbeat IPC: 1.366 cumulative IPC: 1.299 (Simulation time: 00 hr 31 min 37 sec)
Heartbeat CPU 0 instructions: 212501127 cycles: 141533654 heartbeat IPC: 1.449 cumulative IPC: 1.299 (Simulation time: 00 hr 31 min 42 sec)
Heartbeat CPU 0 instructions: 213001127 cycles: 141910373 heartbeat IPC: 1.327 cumulative IPC: 1.299 (Simulation time: 00 hr 31 min 47 sec)
Heartbeat CPU 0 instructions: 213501134 cycles: 142268281 heartbeat IPC: 1.397 cumulative IPC: 1.3 (Simulation time: 00 hr 31 min 52 sec)
Heartbeat CPU 0 instructions: 214001135 cycles: 142631850 heartbeat IPC: 1.375 cumulative IPC: 1.3 (Simulation time: 00 hr 31 min 57 sec)
Heartbeat CPU 0 instructions: 214501140 cycles: 143005008 heartbeat IPC: 1.34 cumulative IPC: 1.3 (Simulation time: 00 hr 32 min 02 sec)
Heartbeat CPU 0 instructions: 215001146 cycles: 143370018 heartbeat IPC: 1.37 cumulative IPC: 1.3 (Simulation time: 00 hr 32 min 07 sec)
Heartbeat CPU 0 instructions: 215501147 cycles: 143734865 heartbeat IPC: 1.37 cumulative IPC: 1.3 (Simulation time: 00 hr 32 min 12 sec)
Heartbeat CPU 0 instructions: 216001147 cycles: 144096231 heartbeat IPC: 1.384 cumulative IPC: 1.301 (Simulation time: 00 hr 32 min 17 sec)
Heartbeat CPU 0 instructions: 216501151 cycles: 144448328 heartbeat IPC: 1.42 cumulative IPC: 1.301 (Simulation time: 00 hr 32 min 21 sec)
Heartbeat CPU 0 instructions: 217001151 cycles: 144818143 heartbeat IPC: 1.352 cumulative IPC: 1.301 (Simulation time: 00 hr 32 min 26 sec)
Heartbeat CPU 0 instructions: 217501155 cycles: 145182101 heartbeat IPC: 1.374 cumulative IPC: 1.301 (Simulation time: 00 hr 32 min 31 sec)
Heartbeat CPU 0 instructions: 218001155 cycles: 145550653 heartbeat IPC: 1.357 cumulative IPC: 1.301 (Simulation time: 00 hr 32 min 36 sec)
Heartbeat CPU 0 instructions: 218501157 cycles: 145922228 heartbeat IPC: 1.346 cumulative IPC: 1.302 (Simulation time: 00 hr 32 min 41 sec)
Heartbeat CPU 0 instructions: 219001160 cycles: 146283421 heartbeat IPC: 1.384 cumulative IPC: 1.302 (Simulation time: 00 hr 32 min 46 sec)
Heartbeat CPU 0 instructions: 219501163 cycles: 146655441 heartbeat IPC: 1.344 cumulative IPC: 1.302 (Simulation time: 00 hr 32 min 51 sec)
Heartbeat CPU 0 instructions: 220001163 cycles: 147016893 heartbeat IPC: 1.383 cumulative IPC: 1.302 (Simulation time: 00 hr 32 min 56 sec)
Heartbeat CPU 0 instructions: 220501167 cycles: 147391664 heartbeat IPC: 1.334 cumulative IPC: 1.302 (Simulation time: 00 hr 33 min 01 sec)
Heartbeat CPU 0 instructions: 221001167 cycles: 147749538 heartbeat IPC: 1.397 cumulative IPC: 1.303 (Simulation time: 00 hr 33 min 05 sec)
Heartbeat CPU 0 instructions: 221501167 cycles: 148122164 heartbeat IPC: 1.342 cumulative IPC: 1.303 (Simulation time: 00 hr 33 min 10 sec)
Heartbeat CPU 0 instructions: 222001167 cycles: 148484062 heartbeat IPC: 1.382 cumulative IPC: 1.303 (Simulation time: 00 hr 33 min 15 sec)
Heartbeat CPU 0 instructions: 222501167 cycles: 148844120 heartbeat IPC: 1.389 cumulative IPC: 1.303 (Simulation time: 00 hr 33 min 20 sec)
Heartbeat CPU 0 instructions: 223001172 cycles: 149213638 heartbeat IPC: 1.353 cumulative IPC: 1.303 (Simulation time: 00 hr 33 min 25 sec)
Heartbeat CPU 0 instructions: 223501179 cycles: 149570023 heartbeat IPC: 1.403 cumulative IPC: 1.304 (Simulation time: 00 hr 33 min 30 sec)
Heartbeat CPU 0 instructions: 224001179 cycles: 149933354 heartbeat IPC: 1.376 cumulative IPC: 1.304 (Simulation time: 00 hr 33 min 35 sec)
Heartbeat CPU 0 instructions: 224501183 cycles: 150303570 heartbeat IPC: 1.351 cumulative IPC: 1.304 (Simulation time: 00 hr 33 min 40 sec)
Heartbeat CPU 0 instructions: 225001183 cycles: 150671014 heartbeat IPC: 1.361 cumulative IPC: 1.304 (Simulation time: 00 hr 33 min 45 sec)
Heartbeat CPU 0 instructions: 225501183 cycles: 151040654 heartbeat IPC: 1.353 cumulative IPC: 1.304 (Simulation time: 00 hr 33 min 50 sec)
Heartbeat CPU 0 instructions: 226001183 cycles: 151406104 heartbeat IPC: 1.368 cumulative IPC: 1.304 (Simulation time: 00 hr 33 min 55 sec)
Heartbeat CPU 0 instructions: 226501189 cycles: 151772897 heartbeat IPC: 1.363 cumulative IPC: 1.304 (Simulation time: 00 hr 34 min 00 sec)
Heartbeat CPU 0 instructions: 227001191 cycles: 152143479 heartbeat IPC: 1.349 cumulative IPC: 1.305 (Simulation time: 00 hr 34 min 04 sec)
Heartbeat CPU 0 instructions: 227501191 cycles: 152522036 heartbeat IPC: 1.321 cumulative IPC: 1.305 (Simulation time: 00 hr 34 min 10 sec)
Heartbeat CPU 0 instructions: 228001195 cycles: 152872296 heartbeat IPC: 1.428 cumulative IPC: 1.305 (Simulation time: 00 hr 34 min 14 sec)
Heartbeat CPU 0 instructions: 228501199 cycles: 153205179 heartbeat IPC: 1.502 cumulative IPC: 1.305 (Simulation time: 00 hr 34 min 19 sec)
Heartbeat CPU 0 instructions: 229001199 cycles: 153567166 heartbeat IPC: 1.381 cumulative IPC: 1.306 (Simulation time: 00 hr 34 min 24 sec)
Heartbeat CPU 0 instructions: 229501204 cycles: 153933681 heartbeat IPC: 1.364 cumulative IPC: 1.306 (Simulation time: 00 hr 34 min 29 sec)
Heartbeat CPU 0 instructions: 230001207 cycles: 154293018 heartbeat IPC: 1.391 cumulative IPC: 1.306 (Simulation time: 00 hr 34 min 34 sec)
Heartbeat CPU 0 instructions: 230501214 cycles: 154660667 heartbeat IPC: 1.36 cumulative IPC: 1.306 (Simulation time: 00 hr 34 min 38 sec)
Heartbeat CPU 0 instructions: 231001218 cycles: 155030554 heartbeat IPC: 1.352 cumulative IPC: 1.306 (Simulation time: 00 hr 34 min 43 sec)
Heartbeat CPU 0 instructions: 231501222 cycles: 155404203 heartbeat IPC: 1.338 cumulative IPC: 1.306 (Simulation time: 00 hr 34 min 48 sec)
Heartbeat CPU 0 instructions: 232001223 cycles: 155778520 heartbeat IPC: 1.336 cumulative IPC: 1.306 (Simulation time: 00 hr 34 min 53 sec)
Heartbeat CPU 0 instructions: 232501224 cycles: 156155467 heartbeat IPC: 1.326 cumulative IPC: 1.306 (Simulation time: 00 hr 34 min 58 sec)
Heartbeat CPU 0 instructions: 233001226 cycles: 156530351 heartbeat IPC: 1.334 cumulative IPC: 1.307 (Simulation time: 00 hr 35 min 03 sec)
Heartbeat CPU 0 instructions: 233501231 cycles: 156897390 heartbeat IPC: 1.362 cumulative IPC: 1.307 (Simulation time: 00 hr 35 min 08 sec)
Heartbeat CPU 0 instructions: 234001235 cycles: 157260359 heartbeat IPC: 1.378 cumulative IPC: 1.307 (Simulation time: 00 hr 35 min 13 sec)
Heartbeat CPU 0 instructions: 234501237 cycles: 157631722 heartbeat IPC: 1.346 cumulative IPC: 1.307 (Simulation time: 00 hr 35 min 18 sec)
Heartbeat CPU 0 instructions: 235001238 cycles: 157993457 heartbeat IPC: 1.382 cumulative IPC: 1.307 (Simulation time: 00 hr 35 min 23 sec)
Heartbeat CPU 0 instructions: 235501245 cycles: 158349422 heartbeat IPC: 1.405 cumulative IPC: 1.307 (Simulation time: 00 hr 35 min 28 sec)
Heartbeat CPU 0 instructions: 236001245 cycles: 158709014 heartbeat IPC: 1.39 cumulative IPC: 1.308 (Simulation time: 00 hr 35 min 32 sec)
Heartbeat CPU 0 instructions: 236501247 cycles: 159073321 heartbeat IPC: 1.372 cumulative IPC: 1.308 (Simulation time: 00 hr 35 min 37 sec)
Heartbeat CPU 0 instructions: 237001254 cycles: 159434609 heartbeat IPC: 1.384 cumulative IPC: 1.308 (Simulation time: 00 hr 35 min 42 sec)
Heartbeat CPU 0 instructions: 237501255 cycles: 159800929 heartbeat IPC: 1.365 cumulative IPC: 1.308 (Simulation time: 00 hr 35 min 47 sec)
Heartbeat CPU 0 instructions: 238001256 cycles: 160167719 heartbeat IPC: 1.363 cumulative IPC: 1.308 (Simulation time: 00 hr 35 min 52 sec)
Heartbeat CPU 0 instructions: 238501262 cycles: 160539725 heartbeat IPC: 1.344 cumulative IPC: 1.308 (Simulation time: 00 hr 35 min 57 sec)
Heartbeat CPU 0 instructions: 239001266 cycles: 160899203 heartbeat IPC: 1.391 cumulative IPC: 1.309 (Simulation time: 00 hr 36 min 02 sec)
Heartbeat CPU 0 instructions: 239501269 cycles: 161263361 heartbeat IPC: 1.373 cumulative IPC: 1.309 (Simulation time: 00 hr 36 min 07 sec)
Heartbeat CPU 0 instructions: 240001275 cycles: 161674197 heartbeat IPC: 1.217 cumulative IPC: 1.308 (Simulation time: 00 hr 36 min 12 sec)
Heartbeat CPU 0 instructions: 240501276 cycles: 162042181 heartbeat IPC: 1.359 cumulative IPC: 1.309 (Simulation time: 00 hr 36 min 17 sec)
Heartbeat CPU 0 instructions: 241001279 cycles: 162412832 heartbeat IPC: 1.349 cumulative IPC: 1.309 (Simulation time: 00 hr 36 min 22 sec)
Heartbeat CPU 0 instructions: 241501281 cycles: 162779972 heartbeat IPC: 1.362 cumulative IPC: 1.309 (Simulation time: 00 hr 36 min 26 sec)
Heartbeat CPU 0 instructions: 242001287 cycles: 163136766 heartbeat IPC: 1.401 cumulative IPC: 1.309 (Simulation time: 00 hr 36 min 31 sec)
Heartbeat CPU 0 instructions: 242501287 cycles: 163504604 heartbeat IPC: 1.359 cumulative IPC: 1.309 (Simulation time: 00 hr 36 min 36 sec)
Heartbeat CPU 0 instructions: 243001288 cycles: 163874840 heartbeat IPC: 1.35 cumulative IPC: 1.309 (Simulation time: 00 hr 36 min 41 sec)
Heartbeat CPU 0 instructions: 243501291 cycles: 164236711 heartbeat IPC: 1.382 cumulative IPC: 1.309 (Simulation time: 00 hr 36 min 45 sec)
Heartbeat CPU 0 instructions: 244001293 cycles: 164599494 heartbeat IPC: 1.378 cumulative IPC: 1.31 (Simulation time: 00 hr 36 min 50 sec)
Heartbeat CPU 0 instructions: 244501295 cycles: 164960682 heartbeat IPC: 1.384 cumulative IPC: 1.31 (Simulation time: 00 hr 36 min 55 sec)
Heartbeat CPU 0 instructions: 245001302 cycles: 165330257 heartbeat IPC: 1.353 cumulative IPC: 1.31 (Simulation time: 00 hr 37 min 00 sec)
Heartbeat CPU 0 instructions: 245501307 cycles: 165692127 heartbeat IPC: 1.382 cumulative IPC: 1.31 (Simulation time: 00 hr 37 min 05 sec)
Heartbeat CPU 0 instructions: 246001311 cycles: 166058892 heartbeat IPC: 1.363 cumulative IPC: 1.31 (Simulation time: 00 hr 37 min 10 sec)
Heartbeat CPU 0 instructions: 246501315 cycles: 166421467 heartbeat IPC: 1.379 cumulative IPC: 1.31 (Simulation time: 00 hr 37 min 14 sec)
Heartbeat CPU 0 instructions: 247001315 cycles: 166788361 heartbeat IPC: 1.363 cumulative IPC: 1.311 (Simulation time: 00 hr 37 min 19 sec)
Heartbeat CPU 0 instructions: 247501316 cycles: 167165377 heartbeat IPC: 1.326 cumulative IPC: 1.311 (Simulation time: 00 hr 37 min 24 sec)
Heartbeat CPU 0 instructions: 248001321 cycles: 167537961 heartbeat IPC: 1.342 cumulative IPC: 1.311 (Simulation time: 00 hr 37 min 29 sec)
Heartbeat CPU 0 instructions: 248501323 cycles: 167901055 heartbeat IPC: 1.377 cumulative IPC: 1.311 (Simulation time: 00 hr 37 min 34 sec)
Heartbeat CPU 0 instructions: 249001327 cycles: 168281992 heartbeat IPC: 1.313 cumulative IPC: 1.311 (Simulation time: 00 hr 37 min 39 sec)
Heartbeat CPU 0 instructions: 249501331 cycles: 168653721 heartbeat IPC: 1.345 cumulative IPC: 1.311 (Simulation time: 00 hr 37 min 44 sec)
*** Reached end of trace: (0, "/local-ssd/ben/dpc4-traces/Graph/Ligra/ligra_BFSCC.com-lj.ungraph.gcc_6.3.0_O3.drop_15500M.length_250M.champsimtrace.xz")
Simulation finished CPU 0 instructions: 200000005 cycles: 152552784 cumulative IPC: 1.311 (Simulation time: 00 hr 37 min 49 sec)
Simulation complete CPU 0 instructions: 200000005 cycles: 152552784 cumulative IPC: 1.311 (Simulation time: 00 hr 37 min 49 sec)

ChampSim completed all CPUs

=== Simulation ===
CPU 0 runs /local-ssd/ben/dpc4-traces/Graph/Ligra/ligra_BFSCC.com-lj.ungraph.gcc_6.3.0_O3.drop_15500M.length_250M.champsimtrace.xz

Region of Interest Statistics

CPU 0 cumulative IPC: 1.311 instructions: 200000005 cycles: 152552784
CPU 0 Branch Prediction Accuracy: 97.56% MPKI: 2.84 Average ROB Occupancy at Mispredict: 109.5
Branch type MPKI
BRANCH_DIRECT_JUMP: 1e-05
BRANCH_INDIRECT: 0
BRANCH_CONDITIONAL: 2.84
BRANCH_DIRECT_CALL: 1e-05
BRANCH_INDIRECT_CALL: 0
BRANCH_RETURN: 1e-05

cpu0->cpu0_STLB TOTAL        ACCESS:      70540 HIT:          0 MISS:      70540 MSHR_MERGE:          0
cpu0->cpu0_STLB LOAD         ACCESS:      70540 HIT:          0 MISS:      70540 MSHR_MERGE:          0
cpu0->cpu0_STLB RFO          ACCESS:          0 HIT:          0 MISS:          0 MSHR_MERGE:          0
cpu0->cpu0_STLB PREFETCH     ACCESS:          0 HIT:          0 MISS:          0 MSHR_MERGE:          0
cpu0->cpu0_STLB WRITE        ACCESS:          0 HIT:          0 MISS:          0 MSHR_MERGE:          0
cpu0->cpu0_STLB TRANSLATION  ACCESS:          0 HIT:          0 MISS:          0 MSHR_MERGE:          0
cpu0->cpu0_STLB PREFETCH REQUESTED:          0 ISSUED:          0 USEFUL:          0 USELESS:          0
cpu0->cpu0_STLB AVERAGE MISS LATENCY: 264.4 cycles
cpu0->cpu0_L2C TOTAL        ACCESS:    7510427 HIT:    2988595 MISS:    4521832 MSHR_MERGE:          0
cpu0->cpu0_L2C LOAD         ACCESS:      39099 HIT:        188 MISS:      38911 MSHR_MERGE:          0
cpu0->cpu0_L2C RFO          ACCESS:    2985636 HIT:          0 MISS:    2985636 MSHR_MERGE:          0
cpu0->cpu0_L2C PREFETCH     ACCESS:    1488367 HIT:         58 MISS:    1488309 MSHR_MERGE:          0
cpu0->cpu0_L2C WRITE        ACCESS:    2985851 HIT:    2985851 MISS:          0 MSHR_MERGE:          0
cpu0->cpu0_L2C TRANSLATION  ACCESS:      11474 HIT:       2498 MISS:       8976 MSHR_MERGE:          0
cpu0->cpu0_L2C PREFETCH REQUESTED:          0 ISSUED:          0 USEFUL:          0 USELESS:          0
cpu0->cpu0_L2C AVERAGE MISS LATENCY: 443 cycles
cpu0->cpu0_L1I TOTAL        ACCESS:    8647687 HIT:    8647678 MISS:          9 MSHR_MERGE:          0
cpu0->cpu0_L1I LOAD         ACCESS:    8647687 HIT:    8647678 MISS:          9 MSHR_MERGE:          0
cpu0->cpu0_L1I RFO          ACCESS:          0 HIT:          0 MISS:          0 MSHR_MERGE:          0
cpu0->cpu0_L1I PREFETCH     ACCESS:          0 HIT:          0 MISS:          0 MSHR_MERGE:          0
cpu0->cpu0_L1I WRITE        ACCESS:          0 HIT:          0 MISS:          0 MSHR_MERGE:          0
cpu0->cpu0_L1I TRANSLATION  ACCESS:          0 HIT:          0 MISS:          0 MSHR_MERGE:          0
cpu0->cpu0_L1I PREFETCH REQUESTED:          0 ISSUED:          0 USEFUL:          0 USELESS:          0
cpu0->cpu0_L1I AVERAGE MISS LATENCY: 290.1 cycles
cpu0->cpu0_L1D TOTAL        ACCESS:   53848227 HIT:    9316258 MISS:   44531969 MSHR_MERGE:   40007402
cpu0->cpu0_L1D LOAD         ACCESS:    9961370 HIT:    8796630 MISS:    1164740 MSHR_MERGE:    1125650
cpu0->cpu0_L1D RFO          ACCESS:          0 HIT:          0 MISS:          0 MSHR_MERGE:          0
cpu0->cpu0_L1D PREFETCH     ACCESS:    1818741 HIT:     238179 MISS:    1580562 MSHR_MERGE:      92195
cpu0->cpu0_L1D WRITE        ACCESS:   41926890 HIT:     151697 MISS:   41775193 MSHR_MERGE:   38789557
cpu0->cpu0_L1D TRANSLATION  ACCESS:     141226 HIT:     129752 MISS:      11474 MSHR_MERGE:          0
cpu0->cpu0_L1D PREFETCH REQUESTED:    1853337 ISSUED:    1818733 USEFUL:    1488120 USELESS:        233
cpu0->cpu0_L1D AVERAGE MISS LATENCY: 435.9 cycles
cpu0->cpu0_ITLB TOTAL        ACCESS:    8647652 HIT:    8647652 MISS:          0 MSHR_MERGE:          0
cpu0->cpu0_ITLB LOAD         ACCESS:    8647652 HIT:    8647652 MISS:          0 MSHR_MERGE:          0
cpu0->cpu0_ITLB RFO          ACCESS:          0 HIT:          0 MISS:          0 MSHR_MERGE:          0
cpu0->cpu0_ITLB PREFETCH     ACCESS:          0 HIT:          0 MISS:          0 MSHR_MERGE:          0
cpu0->cpu0_ITLB WRITE        ACCESS:          0 HIT:          0 MISS:          0 MSHR_MERGE:          0
cpu0->cpu0_ITLB TRANSLATION  ACCESS:          0 HIT:          0 MISS:          0 MSHR_MERGE:          0
cpu0->cpu0_ITLB PREFETCH REQUESTED:          0 ISSUED:          0 USEFUL:          0 USELESS:          0
cpu0->cpu0_ITLB AVERAGE MISS LATENCY: - cycles
cpu0->cpu0_DTLB TOTAL        ACCESS:   47402293 HIT:   46417579 MISS:     984714 MSHR_MERGE:     914172
cpu0->cpu0_DTLB LOAD         ACCESS:   47402293 HIT:   46417579 MISS:     984714 MSHR_MERGE:     914172
cpu0->cpu0_DTLB RFO          ACCESS:          0 HIT:          0 MISS:          0 MSHR_MERGE:          0
cpu0->cpu0_DTLB PREFETCH     ACCESS:          0 HIT:          0 MISS:          0 MSHR_MERGE:          0
cpu0->cpu0_DTLB WRITE        ACCESS:          0 HIT:          0 MISS:          0 MSHR_MERGE:          0
cpu0->cpu0_DTLB TRANSLATION  ACCESS:          0 HIT:          0 MISS:          0 MSHR_MERGE:          0
cpu0->cpu0_DTLB PREFETCH REQUESTED:          0 ISSUED:          0 USEFUL:          0 USELESS:          0
cpu0->cpu0_DTLB AVERAGE MISS LATENCY: 270.4 cycles
cpu0->LLC TOTAL        ACCESS:    7516366 HIT:     711354 MISS:    6805012 MSHR_MERGE:          0
cpu0->LLC LOAD         ACCESS:      38911 HIT:          0 MISS:      38911 MSHR_MERGE:          0
cpu0->LLC RFO          ACCESS:    2985636 HIT:          0 MISS:    2985636 MSHR_MERGE:          0
cpu0->LLC PREFETCH     ACCESS:    1488308 HIT:          0 MISS:    1488308 MSHR_MERGE:          0
cpu0->LLC WRITE        ACCESS:    2994535 HIT:     711334 MISS:    2283201 MSHR_MERGE:          0
cpu0->LLC TRANSLATION  ACCESS:       8976 HIT:         20 MISS:       8956 MSHR_MERGE:          0
cpu0->LLC PREFETCH REQUESTED:          0 ISSUED:          0 USEFUL:          0 USELESS:          0
cpu0->LLC AVERAGE MISS LATENCY: 246.9 cycles

DRAM Statistics

Channel 0 RQ ROW_BUFFER_HIT:     234762
  ROW_BUFFER_MISS:    4287040
  AVG DBUS CONGESTED CYCLE: 12.51
Channel 0 WQ ROW_BUFFER_HIT:     395878
  ROW_BUFFER_MISS:    2602211
  FULL:    1041586
Channel 0 REFRESHES ISSUED:      12712
