[VMEM] WARNING: physical memory size is smaller than virtual memory size.

*** ChampSim Multicore Out-of-Order Simulator ***
Warmup Instructions: 50000000
Simulation Instructions: 200000000
Number of CPUs: 1
Page size: 4096
Core 0: /local-ssd/ben/dpc4-traces/gtraces_v2/sierra.a.6_0002.champsim.gz
sBerti (Smart Stride + Berti) Prefetcher Initialized
Off-chip DRAM Size: 64 GiB Channels: 1 Width: 64-bit Data Rate: 4807 MT/s
[BTB] WARNING: target of return is a lower address than the corresponding call. This is usually a problem with your trace.
[BTB] WARNING: target of return is a lower address than the corresponding call. This is usually a problem with your trace.
Heartbeat CPU 0 instructions: 500006 cycles: 250865 heartbeat IPC: 1.993 cumulative IPC: 1.993 (Simulation time: 00 hr 00 min 07 sec)
[BTB] WARNING: target of return is a lower address than the corresponding call. This is usually a problem with your trace.
[BTB] WARNING: target of return is a lower address than the corresponding call. This is usually a problem with your trace.
Heartbeat CPU 0 instructions: 1000011 cycles: 398973 heartbeat IPC: 3.376 cumulative IPC: 2.506 (Simulation time: 00 hr 00 min 10 sec)
[BTB] WARNING: target of return is a lower address than the corresponding call. This is usually a problem with your trace.
Heartbeat CPU 0 instructions: 1500013 cycles: 534147 heartbeat IPC: 3.699 cumulative IPC: 2.808 (Simulation time: 00 hr 00 min 13 sec)
Heartbeat CPU 0 instructions: 2000020 cycles: 648293 heartbeat IPC: 4.38 cumulative IPC: 3.085 (Simulation time: 00 hr 00 min 15 sec)
Heartbeat CPU 0 instructions: 2500025 cycles: 767276 heartbeat IPC: 4.202 cumulative IPC: 3.258 (Simulation time: 00 hr 00 min 17 sec)
[BTB] WARNING: target of return is a lower address than the corresponding call. This is usually a problem with your trace.
[BTB] WARNING: target of return is a lower address than the corresponding call. This is usually a problem with your trace.
[BTB] WARNING: target of return is a lower address than the corresponding call. This is usually a problem with your trace.
Heartbeat CPU 0 instructions: 3000026 cycles: 931687 heartbeat IPC: 3.041 cumulative IPC: 3.22 (Simulation time: 00 hr 00 min 19 sec)
[BTB] WARNING: target of return is a lower address than the corresponding call. This is usually a problem with your trace.
[BTB] WARNING: target of return is a lower address than the corresponding call. This is usually a problem with your trace.
Heartbeat CPU 0 instructions: 3500030 cycles: 1117744 heartbeat IPC: 2.687 cumulative IPC: 3.131 (Simulation time: 00 hr 00 min 22 sec)
Heartbeat CPU 0 instructions: 4000035 cycles: 1309266 heartbeat IPC: 2.611 cumulative IPC: 3.055 (Simulation time: 00 hr 00 min 26 sec)
Heartbeat CPU 0 instructions: 4500037 cycles: 1451854 heartbeat IPC: 3.507 cumulative IPC: 3.1 (Simulation time: 00 hr 00 min 29 sec)
Heartbeat CPU 0 instructions: 5000042 cycles: 1576365 heartbeat IPC: 4.016 cumulative IPC: 3.172 (Simulation time: 00 hr 00 min 31 sec)
Heartbeat CPU 0 instructions: 5500042 cycles: 1734086 heartbeat IPC: 3.17 cumulative IPC: 3.172 (Simulation time: 00 hr 00 min 34 sec)
Heartbeat CPU 0 instructions: 6000042 cycles: 1867043 heartbeat IPC: 3.761 cumulative IPC: 3.214 (Simulation time: 00 hr 00 min 36 sec)
Heartbeat CPU 0 instructions: 6500049 cycles: 2051065 heartbeat IPC: 2.717 cumulative IPC: 3.169 (Simulation time: 00 hr 00 min 39 sec)
Heartbeat CPU 0 instructions: 7000050 cycles: 2190569 heartbeat IPC: 3.584 cumulative IPC: 3.196 (Simulation time: 00 hr 00 min 42 sec)
Heartbeat CPU 0 instructions: 7500050 cycles: 2305656 heartbeat IPC: 4.345 cumulative IPC: 3.253 (Simulation time: 00 hr 00 min 44 sec)
Heartbeat CPU 0 instructions: 8000053 cycles: 2430625 heartbeat IPC: 4.001 cumulative IPC: 3.291 (Simulation time: 00 hr 00 min 46 sec)
Heartbeat CPU 0 instructions: 8500058 cycles: 2675844 heartbeat IPC: 2.039 cumulative IPC: 3.177 (Simulation time: 00 hr 00 min 49 sec)
Heartbeat CPU 0 instructions: 9000061 cycles: 2812001 heartbeat IPC: 3.672 cumulative IPC: 3.201 (Simulation time: 00 hr 00 min 52 sec)
Heartbeat CPU 0 instructions: 9500066 cycles: 3016595 heartbeat IPC: 2.444 cumulative IPC: 3.149 (Simulation time: 00 hr 00 min 55 sec)
Heartbeat CPU 0 instructions: 10000072 cycles: 3198258 heartbeat IPC: 2.752 cumulative IPC: 3.127 (Simulation time: 00 hr 00 min 58 sec)
Heartbeat CPU 0 instructions: 10500079 cycles: 3368256 heartbeat IPC: 2.941 cumulative IPC: 3.117 (Simulation time: 00 hr 01 min 01 sec)
Heartbeat CPU 0 instructions: 11000083 cycles: 3620023 heartbeat IPC: 1.986 cumulative IPC: 3.039 (Simulation time: 00 hr 01 min 05 sec)
Heartbeat CPU 0 instructions: 11500089 cycles: 3803501 heartbeat IPC: 2.725 cumulative IPC: 3.024 (Simulation time: 00 hr 01 min 08 sec)
Heartbeat CPU 0 instructions: 12000092 cycles: 3976456 heartbeat IPC: 2.891 cumulative IPC: 3.018 (Simulation time: 00 hr 01 min 11 sec)
Heartbeat CPU 0 instructions: 12500095 cycles: 4145968 heartbeat IPC: 2.95 cumulative IPC: 3.015 (Simulation time: 00 hr 01 min 14 sec)
Heartbeat CPU 0 instructions: 13000098 cycles: 4313186 heartbeat IPC: 2.99 cumulative IPC: 3.014 (Simulation time: 00 hr 01 min 17 sec)
Heartbeat CPU 0 instructions: 13500103 cycles: 4476941 heartbeat IPC: 3.053 cumulative IPC: 3.015 (Simulation time: 00 hr 01 min 20 sec)
Heartbeat CPU 0 instructions: 14000110 cycles: 4661416 heartbeat IPC: 2.71 cumulative IPC: 3.003 (Simulation time: 00 hr 01 min 23 sec)
Heartbeat CPU 0 instructions: 14500113 cycles: 4817353 heartbeat IPC: 3.206 cumulative IPC: 3.01 (Simulation time: 00 hr 01 min 26 sec)
Heartbeat CPU 0 instructions: 15000115 cycles: 4973986 heartbeat IPC: 3.192 cumulative IPC: 3.016 (Simulation time: 00 hr 01 min 29 sec)
Heartbeat CPU 0 instructions: 15500115 cycles: 5130241 heartbeat IPC: 3.2 cumulative IPC: 3.021 (Simulation time: 00 hr 01 min 32 sec)
Heartbeat CPU 0 instructions: 16000122 cycles: 5284650 heartbeat IPC: 3.238 cumulative IPC: 3.028 (Simulation time: 00 hr 01 min 35 sec)
Heartbeat CPU 0 instructions: 16500129 cycles: 5441905 heartbeat IPC: 3.18 cumulative IPC: 3.032 (Simulation time: 00 hr 01 min 37 sec)
Heartbeat CPU 0 instructions: 17000135 cycles: 5605582 heartbeat IPC: 3.055 cumulative IPC: 3.033 (Simulation time: 00 hr 01 min 40 sec)
Heartbeat CPU 0 instructions: 17500138 cycles: 5757134 heartbeat IPC: 3.299 cumulative IPC: 3.04 (Simulation time: 00 hr 01 min 43 sec)
Heartbeat CPU 0 instructions: 18000142 cycles: 5907680 heartbeat IPC: 3.321 cumulative IPC: 3.047 (Simulation time: 00 hr 01 min 46 sec)
Heartbeat CPU 0 instructions: 18500146 cycles: 6055223 heartbeat IPC: 3.389 cumulative IPC: 3.055 (Simulation time: 00 hr 01 min 49 sec)
Heartbeat CPU 0 instructions: 19000146 cycles: 6206573 heartbeat IPC: 3.304 cumulative IPC: 3.061 (Simulation time: 00 hr 01 min 51 sec)
Heartbeat CPU 0 instructions: 19500152 cycles: 6376930 heartbeat IPC: 2.935 cumulative IPC: 3.058 (Simulation time: 00 hr 01 min 54 sec)
Heartbeat CPU 0 instructions: 20000154 cycles: 6534604 heartbeat IPC: 3.171 cumulative IPC: 3.061 (Simulation time: 00 hr 01 min 57 sec)
Heartbeat CPU 0 instructions: 20500161 cycles: 6683974 heartbeat IPC: 3.347 cumulative IPC: 3.067 (Simulation time: 00 hr 02 min 00 sec)
Heartbeat CPU 0 instructions: 21000166 cycles: 6810191 heartbeat IPC: 3.961 cumulative IPC: 3.084 (Simulation time: 00 hr 02 min 03 sec)
Heartbeat CPU 0 instructions: 21500171 cycles: 6937316 heartbeat IPC: 3.933 cumulative IPC: 3.099 (Simulation time: 00 hr 02 min 06 sec)
Heartbeat CPU 0 instructions: 22000178 cycles: 7061706 heartbeat IPC: 4.02 cumulative IPC: 3.115 (Simulation time: 00 hr 02 min 08 sec)
Heartbeat CPU 0 instructions: 22500183 cycles: 7184196 heartbeat IPC: 4.082 cumulative IPC: 3.132 (Simulation time: 00 hr 02 min 11 sec)
Heartbeat CPU 0 instructions: 23000189 cycles: 7306802 heartbeat IPC: 4.078 cumulative IPC: 3.148 (Simulation time: 00 hr 02 min 13 sec)
Heartbeat CPU 0 instructions: 23500191 cycles: 7429604 heartbeat IPC: 4.072 cumulative IPC: 3.163 (Simulation time: 00 hr 02 min 16 sec)
Heartbeat CPU 0 instructions: 24000192 cycles: 7555939 heartbeat IPC: 3.958 cumulative IPC: 3.176 (Simulation time: 00 hr 02 min 18 sec)
Heartbeat CPU 0 instructions: 24500195 cycles: 7656287 heartbeat IPC: 4.983 cumulative IPC: 3.2 (Simulation time: 00 hr 02 min 20 sec)
Heartbeat CPU 0 instructions: 25000196 cycles: 7756538 heartbeat IPC: 4.987 cumulative IPC: 3.223 (Simulation time: 00 hr 02 min 21 sec)
Heartbeat CPU 0 instructions: 25500199 cycles: 7856820 heartbeat IPC: 4.986 cumulative IPC: 3.246 (Simulation time: 00 hr 02 min 23 sec)
Heartbeat CPU 0 instructions: 26000201 cycles: 7957312 heartbeat IPC: 4.976 cumulative IPC: 3.267 (Simulation time: 00 hr 02 min 25 sec)
Heartbeat CPU 0 instructions: 26500205 cycles: 8059124 heartbeat IPC: 4.911 cumulative IPC: 3.288 (Simulation time: 00 hr 02 min 26 sec)
Heartbeat CPU 0 instructions: 27000206 cycles: 8179052 heartbeat IPC: 4.169 cumulative IPC: 3.301 (Simulation time: 00 hr 02 min 28 sec)
Heartbeat CPU 0 instructions: 27500209 cycles: 8280810 heartbeat IPC: 4.914 cumulative IPC: 3.321 (Simulation time: 00 hr 02 min 30 sec)
Heartbeat CPU 0 instructions: 28000209 cycles: 8382598 heartbeat IPC: 4.912 cumulative IPC: 3.34 (Simulation time: 00 hr 02 min 32 sec)
Heartbeat CPU 0 instructions: 28500215 cycles: 8483918 heartbeat IPC: 4.935 cumulative IPC: 3.359 (Simulation time: 00 hr 02 min 33 sec)
Heartbeat CPU 0 instructions: 29000219 cycles: 8585640 heartbeat IPC: 4.915 cumulative IPC: 3.378 (Simulation time: 00 hr 02 min 35 sec)
Heartbeat CPU 0 instructions: 29500219 cycles: 8686961 heartbeat IPC: 4.935 cumulative IPC: 3.396 (Simulation time: 00 hr 02 min 37 sec)
Heartbeat CPU 0 instructions: 30000226 cycles: 8788376 heartbeat IPC: 4.93 cumulative IPC: 3.414 (Simulation time: 00 hr 02 min 39 sec)
Heartbeat CPU 0 instructions: 30500229 cycles: 8889829 heartbeat IPC: 4.928 cumulative IPC: 3.431 (Simulation time: 00 hr 02 min 40 sec)
Heartbeat CPU 0 instructions: 31000232 cycles: 8991375 heartbeat IPC: 4.924 cumulative IPC: 3.448 (Simulation time: 00 hr 02 min 42 sec)
Heartbeat CPU 0 instructions: 31500233 cycles: 9093181 heartbeat IPC: 4.911 cumulative IPC: 3.464 (Simulation time: 00 hr 02 min 45 sec)
Heartbeat CPU 0 instructions: 32000237 cycles: 9194904 heartbeat IPC: 4.915 cumulative IPC: 3.48 (Simulation time: 00 hr 02 min 47 sec)
Heartbeat CPU 0 instructions: 32500239 cycles: 9296155 heartbeat IPC: 4.938 cumulative IPC: 3.496 (Simulation time: 00 hr 02 min 48 sec)
Heartbeat CPU 0 instructions: 33000243 cycles: 9397540 heartbeat IPC: 4.932 cumulative IPC: 3.512 (Simulation time: 00 hr 02 min 50 sec)
Heartbeat CPU 0 instructions: 33500244 cycles: 9505688 heartbeat IPC: 4.623 cumulative IPC: 3.524 (Simulation time: 00 hr 02 min 52 sec)
Heartbeat CPU 0 instructions: 34000244 cycles: 9606950 heartbeat IPC: 4.938 cumulative IPC: 3.539 (Simulation time: 00 hr 02 min 54 sec)
Heartbeat CPU 0 instructions: 34500247 cycles: 9712051 heartbeat IPC: 4.757 cumulative IPC: 3.552 (Simulation time: 00 hr 02 min 56 sec)
Heartbeat CPU 0 instructions: 35000250 cycles: 9820933 heartbeat IPC: 4.592 cumulative IPC: 3.564 (Simulation time: 00 hr 02 min 58 sec)
Heartbeat CPU 0 instructions: 35500252 cycles: 9923699 heartbeat IPC: 4.865 cumulative IPC: 3.577 (Simulation time: 00 hr 03 min 00 sec)
Heartbeat CPU 0 instructions: 36000259 cycles: 10024198 heartbeat IPC: 4.975 cumulative IPC: 3.591 (Simulation time: 00 hr 03 min 01 sec)
Heartbeat CPU 0 instructions: 36500264 cycles: 10125339 heartbeat IPC: 4.944 cumulative IPC: 3.605 (Simulation time: 00 hr 03 min 03 sec)
Heartbeat CPU 0 instructions: 37000265 cycles: 10230866 heartbeat IPC: 4.738 cumulative IPC: 3.617 (Simulation time: 00 hr 03 min 05 sec)
Heartbeat CPU 0 instructions: 37500265 cycles: 10336968 heartbeat IPC: 4.712 cumulative IPC: 3.628 (Simulation time: 00 hr 03 min 07 sec)
Heartbeat CPU 0 instructions: 38000272 cycles: 10480790 heartbeat IPC: 3.477 cumulative IPC: 3.626 (Simulation time: 00 hr 03 min 09 sec)
Heartbeat CPU 0 instructions: 38500273 cycles: 10640238 heartbeat IPC: 3.136 cumulative IPC: 3.618 (Simulation time: 00 hr 03 min 12 sec)
Heartbeat CPU 0 instructions: 39000274 cycles: 10783096 heartbeat IPC: 3.5 cumulative IPC: 3.617 (Simulation time: 00 hr 03 min 15 sec)
Heartbeat CPU 0 instructions: 39500274 cycles: 10916353 heartbeat IPC: 3.752 cumulative IPC: 3.618 (Simulation time: 00 hr 03 min 17 sec)
Heartbeat CPU 0 instructions: 40000278 cycles: 11077985 heartbeat IPC: 3.093 cumulative IPC: 3.611 (Simulation time: 00 hr 03 min 20 sec)
Heartbeat CPU 0 instructions: 40500281 cycles: 11222563 heartbeat IPC: 3.458 cumulative IPC: 3.609 (Simulation time: 00 hr 03 min 23 sec)
Heartbeat CPU 0 instructions: 41000283 cycles: 11336495 heartbeat IPC: 4.389 cumulative IPC: 3.617 (Simulation time: 00 hr 03 min 24 sec)
Heartbeat CPU 0 instructions: 41500289 cycles: 11484392 heartbeat IPC: 3.381 cumulative IPC: 3.614 (Simulation time: 00 hr 03 min 27 sec)
Heartbeat CPU 0 instructions: 42000290 cycles: 11607318 heartbeat IPC: 4.067 cumulative IPC: 3.618 (Simulation time: 00 hr 03 min 29 sec)
Heartbeat CPU 0 instructions: 42500290 cycles: 11743252 heartbeat IPC: 3.678 cumulative IPC: 3.619 (Simulation time: 00 hr 03 min 31 sec)
Heartbeat CPU 0 instructions: 43000291 cycles: 11864706 heartbeat IPC: 4.117 cumulative IPC: 3.624 (Simulation time: 00 hr 03 min 34 sec)
Heartbeat CPU 0 instructions: 43500295 cycles: 12012720 heartbeat IPC: 3.378 cumulative IPC: 3.621 (Simulation time: 00 hr 03 min 36 sec)
Heartbeat CPU 0 instructions: 44000300 cycles: 12153903 heartbeat IPC: 3.542 cumulative IPC: 3.62 (Simulation time: 00 hr 03 min 38 sec)
Heartbeat CPU 0 instructions: 44500300 cycles: 12279953 heartbeat IPC: 3.967 cumulative IPC: 3.624 (Simulation time: 00 hr 03 min 40 sec)
Heartbeat CPU 0 instructions: 45000307 cycles: 12433541 heartbeat IPC: 3.256 cumulative IPC: 3.619 (Simulation time: 00 hr 03 min 43 sec)
Heartbeat CPU 0 instructions: 45500311 cycles: 12582464 heartbeat IPC: 3.357 cumulative IPC: 3.616 (Simulation time: 00 hr 03 min 46 sec)
Heartbeat CPU 0 instructions: 46000314 cycles: 12722174 heartbeat IPC: 3.579 cumulative IPC: 3.616 (Simulation time: 00 hr 03 min 49 sec)
Heartbeat CPU 0 instructions: 46500316 cycles: 12872810 heartbeat IPC: 3.319 cumulative IPC: 3.612 (Simulation time: 00 hr 03 min 52 sec)
Heartbeat CPU 0 instructions: 47000316 cycles: 13020146 heartbeat IPC: 3.394 cumulative IPC: 3.61 (Simulation time: 00 hr 03 min 55 sec)
Heartbeat CPU 0 instructions: 47500321 cycles: 13169711 heartbeat IPC: 3.343 cumulative IPC: 3.607 (Simulation time: 00 hr 03 min 58 sec)
Heartbeat CPU 0 instructions: 48000325 cycles: 13325092 heartbeat IPC: 3.218 cumulative IPC: 3.602 (Simulation time: 00 hr 04 min 00 sec)
Heartbeat CPU 0 instructions: 48500329 cycles: 13472547 heartbeat IPC: 3.391 cumulative IPC: 3.6 (Simulation time: 00 hr 04 min 03 sec)
Heartbeat CPU 0 instructions: 49000334 cycles: 13615299 heartbeat IPC: 3.503 cumulative IPC: 3.599 (Simulation time: 00 hr 04 min 06 sec)
Heartbeat CPU 0 instructions: 49500340 cycles: 13766829 heartbeat IPC: 3.3 cumulative IPC: 3.596 (Simulation time: 00 hr 04 min 09 sec)
Warmup halting CPU 0 at instruction 50000001 cycle 13909970 for remainder of phase
Warmup finished CPU 0 instructions: 50000001 cycles: 13909970 cumulative IPC: 3.595 (Simulation time: 00 hr 04 min 12 sec)
Warmup complete CPU 0 instructions: 50000001 cycles: 13909970 cumulative IPC: 3.595 (Simulation time: 00 hr 04 min 12 sec)
Heartbeat CPU 0 instructions: 50000340 cycles: 13910032 heartbeat IPC: 3.492 cumulative IPC: 5.468 (Simulation time: 00 hr 04 min 12 sec)
Heartbeat CPU 0 instructions: 50500340 cycles: 15251570 heartbeat IPC: 0.3727 cumulative IPC: 0.3729 (Simulation time: 00 hr 04 min 22 sec)
Heartbeat CPU 0 instructions: 51000346 cycles: 16199632 heartbeat IPC: 0.5274 cumulative IPC: 0.4369 (Simulation time: 00 hr 04 min 29 sec)
Heartbeat CPU 0 instructions: 51500346 cycles: 17841387 heartbeat IPC: 0.3046 cumulative IPC: 0.3816 (Simulation time: 00 hr 04 min 41 sec)
Heartbeat CPU 0 instructions: 52000348 cycles: 18939568 heartbeat IPC: 0.4553 cumulative IPC: 0.3977 (Simulation time: 00 hr 04 min 49 sec)
Heartbeat CPU 0 instructions: 52500354 cycles: 19974509 heartbeat IPC: 0.4831 cumulative IPC: 0.4123 (Simulation time: 00 hr 04 min 57 sec)
Heartbeat CPU 0 instructions: 53000359 cycles: 21577770 heartbeat IPC: 0.3119 cumulative IPC: 0.3913 (Simulation time: 00 hr 05 min 08 sec)
Heartbeat CPU 0 instructions: 53500366 cycles: 22048544 heartbeat IPC: 1.062 cumulative IPC: 0.4301 (Simulation time: 00 hr 05 min 14 sec)
Heartbeat CPU 0 instructions: 54000367 cycles: 23121109 heartbeat IPC: 0.4662 cumulative IPC: 0.4343 (Simulation time: 00 hr 05 min 22 sec)
Heartbeat CPU 0 instructions: 54500367 cycles: 24606117 heartbeat IPC: 0.3367 cumulative IPC: 0.4207 (Simulation time: 00 hr 05 min 33 sec)
Heartbeat CPU 0 instructions: 55000372 cycles: 26377237 heartbeat IPC: 0.2823 cumulative IPC: 0.4011 (Simulation time: 00 hr 05 min 46 sec)
Heartbeat CPU 0 instructions: 55500373 cycles: 27642424 heartbeat IPC: 0.3952 cumulative IPC: 0.4005 (Simulation time: 00 hr 05 min 56 sec)
Heartbeat CPU 0 instructions: 56000377 cycles: 28500157 heartbeat IPC: 0.5829 cumulative IPC: 0.4113 (Simulation time: 00 hr 06 min 04 sec)
Heartbeat CPU 0 instructions: 56500377 cycles: 29329606 heartbeat IPC: 0.6028 cumulative IPC: 0.4216 (Simulation time: 00 hr 06 min 13 sec)
Heartbeat CPU 0 instructions: 57000378 cycles: 30072315 heartbeat IPC: 0.6732 cumulative IPC: 0.4331 (Simulation time: 00 hr 06 min 20 sec)
Heartbeat CPU 0 instructions: 57500378 cycles: 31346042 heartbeat IPC: 0.3925 cumulative IPC: 0.4302 (Simulation time: 00 hr 06 min 31 sec)
Heartbeat CPU 0 instructions: 58000380 cycles: 32333113 heartbeat IPC: 0.5066 cumulative IPC: 0.4343 (Simulation time: 00 hr 06 min 39 sec)
Heartbeat CPU 0 instructions: 58500387 cycles: 34398362 heartbeat IPC: 0.2421 cumulative IPC: 0.4149 (Simulation time: 00 hr 06 min 53 sec)
Heartbeat CPU 0 instructions: 59000389 cycles: 35533297 heartbeat IPC: 0.4406 cumulative IPC: 0.4162 (Simulation time: 00 hr 07 min 02 sec)
Heartbeat CPU 0 instructions: 59500390 cycles: 35946201 heartbeat IPC: 1.211 cumulative IPC: 0.4311 (Simulation time: 00 hr 07 min 05 sec)
Heartbeat CPU 0 instructions: 60000394 cycles: 36280383 heartbeat IPC: 1.496 cumulative IPC: 0.447 (Simulation time: 00 hr 07 min 09 sec)
Heartbeat CPU 0 instructions: 60500396 cycles: 36818939 heartbeat IPC: 0.9284 cumulative IPC: 0.4584 (Simulation time: 00 hr 07 min 13 sec)
Heartbeat CPU 0 instructions: 61000396 cycles: 38053615 heartbeat IPC: 0.405 cumulative IPC: 0.4556 (Simulation time: 00 hr 07 min 23 sec)
Heartbeat CPU 0 instructions: 61500403 cycles: 38914551 heartbeat IPC: 0.5808 cumulative IPC: 0.4599 (Simulation time: 00 hr 07 min 30 sec)
Heartbeat CPU 0 instructions: 62000406 cycles: 39899101 heartbeat IPC: 0.5078 cumulative IPC: 0.4617 (Simulation time: 00 hr 07 min 38 sec)
Heartbeat CPU 0 instructions: 62500406 cycles: 41301889 heartbeat IPC: 0.3564 cumulative IPC: 0.4564 (Simulation time: 00 hr 07 min 48 sec)
Heartbeat CPU 0 instructions: 63000406 cycles: 42339385 heartbeat IPC: 0.4819 cumulative IPC: 0.4573 (Simulation time: 00 hr 07 min 57 sec)
Heartbeat CPU 0 instructions: 63500407 cycles: 43816220 heartbeat IPC: 0.3386 cumulative IPC: 0.4514 (Simulation time: 00 hr 08 min 08 sec)
Heartbeat CPU 0 instructions: 64000407 cycles: 45382759 heartbeat IPC: 0.3192 cumulative IPC: 0.4448 (Simulation time: 00 hr 08 min 19 sec)
Heartbeat CPU 0 instructions: 64500412 cycles: 46561363 heartbeat IPC: 0.4242 cumulative IPC: 0.4441 (Simulation time: 00 hr 08 min 28 sec)
Heartbeat CPU 0 instructions: 65000412 cycles: 47652519 heartbeat IPC: 0.4582 cumulative IPC: 0.4446 (Simulation time: 00 hr 08 min 37 sec)
Heartbeat CPU 0 instructions: 65500412 cycles: 48826949 heartbeat IPC: 0.4257 cumulative IPC: 0.4439 (Simulation time: 00 hr 08 min 46 sec)
Heartbeat CPU 0 instructions: 66000412 cycles: 50186178 heartbeat IPC: 0.3679 cumulative IPC: 0.4411 (Simulation time: 00 hr 08 min 56 sec)
Heartbeat CPU 0 instructions: 66500412 cycles: 52021361 heartbeat IPC: 0.2725 cumulative IPC: 0.433 (Simulation time: 00 hr 09 min 09 sec)
Heartbeat CPU 0 instructions: 67000419 cycles: 53549696 heartbeat IPC: 0.3272 cumulative IPC: 0.4289 (Simulation time: 00 hr 09 min 20 sec)
Heartbeat CPU 0 instructions: 67500419 cycles: 54569306 heartbeat IPC: 0.4904 cumulative IPC: 0.4304 (Simulation time: 00 hr 09 min 29 sec)
Heartbeat CPU 0 instructions: 68000423 cycles: 55625146 heartbeat IPC: 0.4736 cumulative IPC: 0.4315 (Simulation time: 00 hr 09 min 37 sec)
Heartbeat CPU 0 instructions: 68500430 cycles: 57188216 heartbeat IPC: 0.3199 cumulative IPC: 0.4275 (Simulation time: 00 hr 09 min 48 sec)
Heartbeat CPU 0 instructions: 69000430 cycles: 58823357 heartbeat IPC: 0.3058 cumulative IPC: 0.423 (Simulation time: 00 hr 10 min 00 sec)
Heartbeat CPU 0 instructions: 69500433 cycles: 59200101 heartbeat IPC: 1.327 cumulative IPC: 0.4306 (Simulation time: 00 hr 10 min 04 sec)
Heartbeat CPU 0 instructions: 70000433 cycles: 59563052 heartbeat IPC: 1.378 cumulative IPC: 0.4381 (Simulation time: 00 hr 10 min 07 sec)
Heartbeat CPU 0 instructions: 70500438 cycles: 59982793 heartbeat IPC: 1.191 cumulative IPC: 0.445 (Simulation time: 00 hr 10 min 11 sec)
Heartbeat CPU 0 instructions: 71000439 cycles: 61640160 heartbeat IPC: 0.3017 cumulative IPC: 0.44 (Simulation time: 00 hr 10 min 23 sec)
Heartbeat CPU 0 instructions: 71500442 cycles: 62854875 heartbeat IPC: 0.4116 cumulative IPC: 0.4393 (Simulation time: 00 hr 10 min 32 sec)
Heartbeat CPU 0 instructions: 72000447 cycles: 64024006 heartbeat IPC: 0.4277 cumulative IPC: 0.439 (Simulation time: 00 hr 10 min 41 sec)
Heartbeat CPU 0 instructions: 72500447 cycles: 65093366 heartbeat IPC: 0.4676 cumulative IPC: 0.4396 (Simulation time: 00 hr 10 min 50 sec)
Heartbeat CPU 0 instructions: 73000448 cycles: 67317954 heartbeat IPC: 0.2248 cumulative IPC: 0.4307 (Simulation time: 00 hr 11 min 05 sec)
Heartbeat CPU 0 instructions: 73500448 cycles: 68365395 heartbeat IPC: 0.4774 cumulative IPC: 0.4316 (Simulation time: 00 hr 11 min 14 sec)
Heartbeat CPU 0 instructions: 74000448 cycles: 69132331 heartbeat IPC: 0.6519 cumulative IPC: 0.4346 (Simulation time: 00 hr 11 min 20 sec)
Heartbeat CPU 0 instructions: 74500450 cycles: 70076675 heartbeat IPC: 0.5295 cumulative IPC: 0.4362 (Simulation time: 00 hr 11 min 28 sec)
Heartbeat CPU 0 instructions: 75000451 cycles: 71341644 heartbeat IPC: 0.3953 cumulative IPC: 0.4353 (Simulation time: 00 hr 11 min 37 sec)
Heartbeat CPU 0 instructions: 75500454 cycles: 72373679 heartbeat IPC: 0.4845 cumulative IPC: 0.4362 (Simulation time: 00 hr 11 min 46 sec)
Heartbeat CPU 0 instructions: 76000456 cycles: 73449684 heartbeat IPC: 0.4647 cumulative IPC: 0.4367 (Simulation time: 00 hr 11 min 54 sec)
Heartbeat CPU 0 instructions: 76500456 cycles: 74517663 heartbeat IPC: 0.4682 cumulative IPC: 0.4372 (Simulation time: 00 hr 12 min 03 sec)
Heartbeat CPU 0 instructions: 77000458 cycles: 75387610 heartbeat IPC: 0.5747 cumulative IPC: 0.4392 (Simulation time: 00 hr 12 min 10 sec)
Heartbeat CPU 0 instructions: 77500460 cycles: 76531302 heartbeat IPC: 0.4372 cumulative IPC: 0.4392 (Simulation time: 00 hr 12 min 18 sec)
Heartbeat CPU 0 instructions: 78000460 cycles: 77619341 heartbeat IPC: 0.4595 cumulative IPC: 0.4395 (Simulation time: 00 hr 12 min 27 sec)
Heartbeat CPU 0 instructions: 78500461 cycles: 78874801 heartbeat IPC: 0.3983 cumulative IPC: 0.4387 (Simulation time: 00 hr 12 min 37 sec)
Heartbeat CPU 0 instructions: 79000462 cycles: 80171711 heartbeat IPC: 0.3855 cumulative IPC: 0.4377 (Simulation time: 00 hr 12 min 47 sec)
Heartbeat CPU 0 instructions: 79500467 cycles: 81252327 heartbeat IPC: 0.4627 cumulative IPC: 0.4381 (Simulation time: 00 hr 12 min 55 sec)
Heartbeat CPU 0 instructions: 80000467 cycles: 82950727 heartbeat IPC: 0.2944 cumulative IPC: 0.4345 (Simulation time: 00 hr 13 min 08 sec)
Heartbeat CPU 0 instructions: 80500467 cycles: 84180960 heartbeat IPC: 0.4064 cumulative IPC: 0.434 (Simulation time: 00 hr 13 min 17 sec)
Heartbeat CPU 0 instructions: 81000470 cycles: 85039183 heartbeat IPC: 0.5826 cumulative IPC: 0.4358 (Simulation time: 00 hr 13 min 24 sec)
Heartbeat CPU 0 instructions: 81500477 cycles: 86352044 heartbeat IPC: 0.3809 cumulative IPC: 0.4348 (Simulation time: 00 hr 13 min 34 sec)
Heartbeat CPU 0 instructions: 82000478 cycles: 87258485 heartbeat IPC: 0.5516 cumulative IPC: 0.4363 (Simulation time: 00 hr 13 min 42 sec)
Heartbeat CPU 0 instructions: 82500478 cycles: 88257033 heartbeat IPC: 0.5007 cumulative IPC: 0.4371 (Simulation time: 00 hr 13 min 50 sec)
Heartbeat CPU 0 instructions: 83000478 cycles: 89697584 heartbeat IPC: 0.3471 cumulative IPC: 0.4354 (Simulation time: 00 hr 14 min 00 sec)
Heartbeat CPU 0 instructions: 83500478 cycles: 90669750 heartbeat IPC: 0.5143 cumulative IPC: 0.4364 (Simulation time: 00 hr 14 min 08 sec)
Heartbeat CPU 0 instructions: 84000479 cycles: 91922026 heartbeat IPC: 0.3993 cumulative IPC: 0.4358 (Simulation time: 00 hr 14 min 18 sec)
Heartbeat CPU 0 instructions: 84500480 cycles: 92880205 heartbeat IPC: 0.5218 cumulative IPC: 0.4369 (Simulation time: 00 hr 14 min 25 sec)
Heartbeat CPU 0 instructions: 85000480 cycles: 93777281 heartbeat IPC: 0.5574 cumulative IPC: 0.4382 (Simulation time: 00 hr 14 min 32 sec)
Heartbeat CPU 0 instructions: 85500480 cycles: 94611881 heartbeat IPC: 0.5991 cumulative IPC: 0.4399 (Simulation time: 00 hr 14 min 39 sec)
Heartbeat CPU 0 instructions: 86000484 cycles: 95835643 heartbeat IPC: 0.4086 cumulative IPC: 0.4394 (Simulation time: 00 hr 14 min 49 sec)
Heartbeat CPU 0 instructions: 86500487 cycles: 97100122 heartbeat IPC: 0.3954 cumulative IPC: 0.4388 (Simulation time: 00 hr 14 min 58 sec)
Heartbeat CPU 0 instructions: 87000490 cycles: 98488840 heartbeat IPC: 0.36 cumulative IPC: 0.4375 (Simulation time: 00 hr 15 min 09 sec)
Heartbeat CPU 0 instructions: 87500491 cycles: 99531835 heartbeat IPC: 0.4794 cumulative IPC: 0.438 (Simulation time: 00 hr 15 min 17 sec)
Heartbeat CPU 0 instructions: 88000492 cycles: 100438846 heartbeat IPC: 0.5513 cumulative IPC: 0.4392 (Simulation time: 00 hr 15 min 24 sec)
Heartbeat CPU 0 instructions: 88500495 cycles: 101560132 heartbeat IPC: 0.4459 cumulative IPC: 0.4393 (Simulation time: 00 hr 15 min 33 sec)
Heartbeat CPU 0 instructions: 89000499 cycles: 102575516 heartbeat IPC: 0.4924 cumulative IPC: 0.4399 (Simulation time: 00 hr 15 min 41 sec)
Heartbeat CPU 0 instructions: 89500503 cycles: 103616862 heartbeat IPC: 0.4802 cumulative IPC: 0.4403 (Simulation time: 00 hr 15 min 49 sec)
Heartbeat CPU 0 instructions: 90000506 cycles: 104414657 heartbeat IPC: 0.6267 cumulative IPC: 0.442 (Simulation time: 00 hr 15 min 56 sec)
Heartbeat CPU 0 instructions: 90500510 cycles: 105424591 heartbeat IPC: 0.4951 cumulative IPC: 0.4426 (Simulation time: 00 hr 16 min 04 sec)
Heartbeat CPU 0 instructions: 91000515 cycles: 106240607 heartbeat IPC: 0.6127 cumulative IPC: 0.4441 (Simulation time: 00 hr 16 min 11 sec)
Heartbeat CPU 0 instructions: 91500516 cycles: 106972741 heartbeat IPC: 0.6829 cumulative IPC: 0.4459 (Simulation time: 00 hr 16 min 17 sec)
Heartbeat CPU 0 instructions: 92000516 cycles: 109030947 heartbeat IPC: 0.2429 cumulative IPC: 0.4415 (Simulation time: 00 hr 16 min 32 sec)
Heartbeat CPU 0 instructions: 92500517 cycles: 110360356 heartbeat IPC: 0.3761 cumulative IPC: 0.4406 (Simulation time: 00 hr 16 min 42 sec)
Heartbeat CPU 0 instructions: 93000518 cycles: 111756505 heartbeat IPC: 0.3581 cumulative IPC: 0.4395 (Simulation time: 00 hr 16 min 53 sec)
Heartbeat CPU 0 instructions: 93500518 cycles: 113042615 heartbeat IPC: 0.3888 cumulative IPC: 0.4388 (Simulation time: 00 hr 17 min 02 sec)
Heartbeat CPU 0 instructions: 94000518 cycles: 114076617 heartbeat IPC: 0.4836 cumulative IPC: 0.4393 (Simulation time: 00 hr 17 min 10 sec)
Heartbeat CPU 0 instructions: 94500518 cycles: 115026535 heartbeat IPC: 0.5264 cumulative IPC: 0.4401 (Simulation time: 00 hr 17 min 18 sec)
Heartbeat CPU 0 instructions: 95000521 cycles: 115471888 heartbeat IPC: 1.123 cumulative IPC: 0.4431 (Simulation time: 00 hr 17 min 23 sec)
Heartbeat CPU 0 instructions: 95500521 cycles: 116873260 heartbeat IPC: 0.3568 cumulative IPC: 0.4419 (Simulation time: 00 hr 17 min 33 sec)
Heartbeat CPU 0 instructions: 96000522 cycles: 117757375 heartbeat IPC: 0.5655 cumulative IPC: 0.443 (Simulation time: 00 hr 17 min 41 sec)
Heartbeat CPU 0 instructions: 96500524 cycles: 118962723 heartbeat IPC: 0.4148 cumulative IPC: 0.4426 (Simulation time: 00 hr 17 min 50 sec)
Heartbeat CPU 0 instructions: 97000524 cycles: 119556193 heartbeat IPC: 0.8425 cumulative IPC: 0.4449 (Simulation time: 00 hr 17 min 56 sec)
Heartbeat CPU 0 instructions: 97500524 cycles: 120555918 heartbeat IPC: 0.5001 cumulative IPC: 0.4454 (Simulation time: 00 hr 18 min 04 sec)
Heartbeat CPU 0 instructions: 98000524 cycles: 121796258 heartbeat IPC: 0.4031 cumulative IPC: 0.4449 (Simulation time: 00 hr 18 min 13 sec)
Heartbeat CPU 0 instructions: 98500524 cycles: 122936319 heartbeat IPC: 0.4386 cumulative IPC: 0.4449 (Simulation time: 00 hr 18 min 22 sec)
Heartbeat CPU 0 instructions: 99000531 cycles: 123998110 heartbeat IPC: 0.4709 cumulative IPC: 0.4451 (Simulation time: 00 hr 18 min 30 sec)
Heartbeat CPU 0 instructions: 99500532 cycles: 125220549 heartbeat IPC: 0.409 cumulative IPC: 0.4447 (Simulation time: 00 hr 18 min 39 sec)
Heartbeat CPU 0 instructions: 100000537 cycles: 126615675 heartbeat IPC: 0.3584 cumulative IPC: 0.4436 (Simulation time: 00 hr 18 min 50 sec)
Heartbeat CPU 0 instructions: 100500540 cycles: 127710039 heartbeat IPC: 0.4569 cumulative IPC: 0.4438 (Simulation time: 00 hr 18 min 59 sec)
Heartbeat CPU 0 instructions: 101000545 cycles: 128142971 heartbeat IPC: 1.155 cumulative IPC: 0.4465 (Simulation time: 00 hr 19 min 03 sec)
Heartbeat CPU 0 instructions: 101500549 cycles: 129390671 heartbeat IPC: 0.4007 cumulative IPC: 0.446 (Simulation time: 00 hr 19 min 12 sec)
Heartbeat CPU 0 instructions: 102000556 cycles: 130744543 heartbeat IPC: 0.3693 cumulative IPC: 0.4451 (Simulation time: 00 hr 19 min 22 sec)
Heartbeat CPU 0 instructions: 102500556 cycles: 131854051 heartbeat IPC: 0.4507 cumulative IPC: 0.4451 (Simulation time: 00 hr 19 min 30 sec)
Heartbeat CPU 0 instructions: 103000556 cycles: 132914818 heartbeat IPC: 0.4714 cumulative IPC: 0.4454 (Simulation time: 00 hr 19 min 39 sec)
Heartbeat CPU 0 instructions: 103500556 cycles: 133975645 heartbeat IPC: 0.4713 cumulative IPC: 0.4456 (Simulation time: 00 hr 19 min 47 sec)
Heartbeat CPU 0 instructions: 104000556 cycles: 134847374 heartbeat IPC: 0.5736 cumulative IPC: 0.4465 (Simulation time: 00 hr 19 min 54 sec)
Heartbeat CPU 0 instructions: 104500559 cycles: 136065921 heartbeat IPC: 0.4103 cumulative IPC: 0.4462 (Simulation time: 00 hr 20 min 03 sec)
Heartbeat CPU 0 instructions: 105000560 cycles: 136995517 heartbeat IPC: 0.5379 cumulative IPC: 0.4468 (Simulation time: 00 hr 20 min 11 sec)
Heartbeat CPU 0 instructions: 105500561 cycles: 137808356 heartbeat IPC: 0.6151 cumulative IPC: 0.448 (Simulation time: 00 hr 20 min 18 sec)
Heartbeat CPU 0 instructions: 106000563 cycles: 139054632 heartbeat IPC: 0.4012 cumulative IPC: 0.4475 (Simulation time: 00 hr 20 min 27 sec)
Heartbeat CPU 0 instructions: 106500567 cycles: 140278194 heartbeat IPC: 0.4086 cumulative IPC: 0.4471 (Simulation time: 00 hr 20 min 37 sec)
Heartbeat CPU 0 instructions: 107000569 cycles: 142085439 heartbeat IPC: 0.2767 cumulative IPC: 0.4447 (Simulation time: 00 hr 20 min 50 sec)
Heartbeat CPU 0 instructions: 107500571 cycles: 143810729 heartbeat IPC: 0.2898 cumulative IPC: 0.4426 (Simulation time: 00 hr 21 min 03 sec)
Heartbeat CPU 0 instructions: 108000573 cycles: 145009308 heartbeat IPC: 0.4172 cumulative IPC: 0.4424 (Simulation time: 00 hr 21 min 12 sec)
Heartbeat CPU 0 instructions: 108500575 cycles: 146019536 heartbeat IPC: 0.4949 cumulative IPC: 0.4428 (Simulation time: 00 hr 21 min 20 sec)
Heartbeat CPU 0 instructions: 109000575 cycles: 147876165 heartbeat IPC: 0.2693 cumulative IPC: 0.4404 (Simulation time: 00 hr 21 min 33 sec)
Heartbeat CPU 0 instructions: 109500579 cycles: 148809620 heartbeat IPC: 0.5356 cumulative IPC: 0.4411 (Simulation time: 00 hr 21 min 41 sec)
Heartbeat CPU 0 instructions: 110000586 cycles: 150191907 heartbeat IPC: 0.3617 cumulative IPC: 0.4403 (Simulation time: 00 hr 21 min 52 sec)
Heartbeat CPU 0 instructions: 110500588 cycles: 151184378 heartbeat IPC: 0.5038 cumulative IPC: 0.4407 (Simulation time: 00 hr 22 min 00 sec)
Heartbeat CPU 0 instructions: 111000588 cycles: 152509910 heartbeat IPC: 0.3772 cumulative IPC: 0.4401 (Simulation time: 00 hr 22 min 11 sec)
Heartbeat CPU 0 instructions: 111500588 cycles: 154483372 heartbeat IPC: 0.2534 cumulative IPC: 0.4375 (Simulation time: 00 hr 22 min 24 sec)
Heartbeat CPU 0 instructions: 112000588 cycles: 156067698 heartbeat IPC: 0.3156 cumulative IPC: 0.4361 (Simulation time: 00 hr 22 min 36 sec)
Heartbeat CPU 0 instructions: 112500589 cycles: 157258022 heartbeat IPC: 0.4201 cumulative IPC: 0.436 (Simulation time: 00 hr 22 min 46 sec)
Heartbeat CPU 0 instructions: 113000594 cycles: 158304402 heartbeat IPC: 0.4778 cumulative IPC: 0.4363 (Simulation time: 00 hr 22 min 53 sec)
Heartbeat CPU 0 instructions: 113500597 cycles: 159805180 heartbeat IPC: 0.3332 cumulative IPC: 0.4352 (Simulation time: 00 hr 23 min 05 sec)
Heartbeat CPU 0 instructions: 114000601 cycles: 160838094 heartbeat IPC: 0.4841 cumulative IPC: 0.4356 (Simulation time: 00 hr 23 min 13 sec)
Heartbeat CPU 0 instructions: 114500601 cycles: 161755127 heartbeat IPC: 0.5452 cumulative IPC: 0.4363 (Simulation time: 00 hr 23 min 20 sec)
Heartbeat CPU 0 instructions: 115000603 cycles: 162934315 heartbeat IPC: 0.424 cumulative IPC: 0.4362 (Simulation time: 00 hr 23 min 29 sec)
Heartbeat CPU 0 instructions: 115500607 cycles: 164445857 heartbeat IPC: 0.3308 cumulative IPC: 0.4351 (Simulation time: 00 hr 23 min 40 sec)
Heartbeat CPU 0 instructions: 116000608 cycles: 165058158 heartbeat IPC: 0.8166 cumulative IPC: 0.4367 (Simulation time: 00 hr 23 min 46 sec)
Heartbeat CPU 0 instructions: 116500608 cycles: 166106431 heartbeat IPC: 0.477 cumulative IPC: 0.4369 (Simulation time: 00 hr 23 min 54 sec)
Heartbeat CPU 0 instructions: 117000608 cycles: 167858056 heartbeat IPC: 0.2854 cumulative IPC: 0.4352 (Simulation time: 00 hr 24 min 07 sec)
Heartbeat CPU 0 instructions: 117500610 cycles: 169539705 heartbeat IPC: 0.2973 cumulative IPC: 0.4337 (Simulation time: 00 hr 24 min 19 sec)
Heartbeat CPU 0 instructions: 118000612 cycles: 170849556 heartbeat IPC: 0.3817 cumulative IPC: 0.4333 (Simulation time: 00 hr 24 min 29 sec)
Heartbeat CPU 0 instructions: 118500612 cycles: 172242848 heartbeat IPC: 0.3589 cumulative IPC: 0.4326 (Simulation time: 00 hr 24 min 39 sec)
Heartbeat CPU 0 instructions: 119000619 cycles: 173139292 heartbeat IPC: 0.5578 cumulative IPC: 0.4333 (Simulation time: 00 hr 24 min 47 sec)
Heartbeat CPU 0 instructions: 119500622 cycles: 174529994 heartbeat IPC: 0.3595 cumulative IPC: 0.4327 (Simulation time: 00 hr 24 min 57 sec)
Heartbeat CPU 0 instructions: 120000622 cycles: 176421748 heartbeat IPC: 0.2643 cumulative IPC: 0.4307 (Simulation time: 00 hr 25 min 11 sec)
Heartbeat CPU 0 instructions: 120500625 cycles: 177476460 heartbeat IPC: 0.4741 cumulative IPC: 0.431 (Simulation time: 00 hr 25 min 19 sec)
Heartbeat CPU 0 instructions: 121000625 cycles: 178481310 heartbeat IPC: 0.4976 cumulative IPC: 0.4314 (Simulation time: 00 hr 25 min 27 sec)
Heartbeat CPU 0 instructions: 121500631 cycles: 179831981 heartbeat IPC: 0.3702 cumulative IPC: 0.4309 (Simulation time: 00 hr 25 min 37 sec)
Heartbeat CPU 0 instructions: 122000632 cycles: 181671434 heartbeat IPC: 0.2718 cumulative IPC: 0.4292 (Simulation time: 00 hr 25 min 50 sec)
Heartbeat CPU 0 instructions: 122500634 cycles: 183636142 heartbeat IPC: 0.2545 cumulative IPC: 0.4272 (Simulation time: 00 hr 26 min 04 sec)
Heartbeat CPU 0 instructions: 123000635 cycles: 185367813 heartbeat IPC: 0.2887 cumulative IPC: 0.4258 (Simulation time: 00 hr 26 min 17 sec)
Heartbeat CPU 0 instructions: 123500641 cycles: 186517164 heartbeat IPC: 0.435 cumulative IPC: 0.4258 (Simulation time: 00 hr 26 min 26 sec)
Heartbeat CPU 0 instructions: 124000641 cycles: 187602883 heartbeat IPC: 0.4605 cumulative IPC: 0.426 (Simulation time: 00 hr 26 min 34 sec)
Heartbeat CPU 0 instructions: 124500644 cycles: 188870730 heartbeat IPC: 0.3944 cumulative IPC: 0.4258 (Simulation time: 00 hr 26 min 44 sec)
Heartbeat CPU 0 instructions: 125000645 cycles: 190991639 heartbeat IPC: 0.2357 cumulative IPC: 0.4235 (Simulation time: 00 hr 26 min 59 sec)
Heartbeat CPU 0 instructions: 125500648 cycles: 192725808 heartbeat IPC: 0.2883 cumulative IPC: 0.4222 (Simulation time: 00 hr 27 min 11 sec)
Heartbeat CPU 0 instructions: 126000651 cycles: 193784369 heartbeat IPC: 0.4723 cumulative IPC: 0.4225 (Simulation time: 00 hr 27 min 20 sec)
Heartbeat CPU 0 instructions: 126500656 cycles: 194779153 heartbeat IPC: 0.5026 cumulative IPC: 0.423 (Simulation time: 00 hr 27 min 28 sec)
Heartbeat CPU 0 instructions: 127000661 cycles: 195610145 heartbeat IPC: 0.6017 cumulative IPC: 0.4238 (Simulation time: 00 hr 27 min 35 sec)
Heartbeat CPU 0 instructions: 127500662 cycles: 196479459 heartbeat IPC: 0.5752 cumulative IPC: 0.4245 (Simulation time: 00 hr 27 min 42 sec)
Heartbeat CPU 0 instructions: 128000662 cycles: 197582036 heartbeat IPC: 0.4535 cumulative IPC: 0.4247 (Simulation time: 00 hr 27 min 50 sec)
Heartbeat CPU 0 instructions: 128500662 cycles: 199086803 heartbeat IPC: 0.3323 cumulative IPC: 0.4239 (Simulation time: 00 hr 28 min 02 sec)
Heartbeat CPU 0 instructions: 129000663 cycles: 200226450 heartbeat IPC: 0.4387 cumulative IPC: 0.424 (Simulation time: 00 hr 28 min 11 sec)
Heartbeat CPU 0 instructions: 129500667 cycles: 201221674 heartbeat IPC: 0.5024 cumulative IPC: 0.4244 (Simulation time: 00 hr 28 min 18 sec)
Heartbeat CPU 0 instructions: 130000667 cycles: 202254432 heartbeat IPC: 0.4841 cumulative IPC: 0.4248 (Simulation time: 00 hr 28 min 26 sec)
Heartbeat CPU 0 instructions: 130500672 cycles: 203121162 heartbeat IPC: 0.5769 cumulative IPC: 0.4255 (Simulation time: 00 hr 28 min 33 sec)
Heartbeat CPU 0 instructions: 131000676 cycles: 203822299 heartbeat IPC: 0.7131 cumulative IPC: 0.4265 (Simulation time: 00 hr 28 min 40 sec)
Heartbeat CPU 0 instructions: 131500678 cycles: 204818408 heartbeat IPC: 0.502 cumulative IPC: 0.4269 (Simulation time: 00 hr 28 min 48 sec)
Heartbeat CPU 0 instructions: 132000680 cycles: 205853246 heartbeat IPC: 0.4832 cumulative IPC: 0.4272 (Simulation time: 00 hr 28 min 56 sec)
Heartbeat CPU 0 instructions: 132500680 cycles: 207549963 heartbeat IPC: 0.2947 cumulative IPC: 0.4261 (Simulation time: 00 hr 29 min 09 sec)
Heartbeat CPU 0 instructions: 133000680 cycles: 208768698 heartbeat IPC: 0.4103 cumulative IPC: 0.426 (Simulation time: 00 hr 29 min 18 sec)
Heartbeat CPU 0 instructions: 133500681 cycles: 209790257 heartbeat IPC: 0.4894 cumulative IPC: 0.4263 (Simulation time: 00 hr 29 min 26 sec)
Heartbeat CPU 0 instructions: 134000681 cycles: 210792072 heartbeat IPC: 0.4991 cumulative IPC: 0.4267 (Simulation time: 00 hr 29 min 37 sec)
Heartbeat CPU 0 instructions: 134500684 cycles: 211672696 heartbeat IPC: 0.5678 cumulative IPC: 0.4273 (Simulation time: 00 hr 29 min 48 sec)
Heartbeat CPU 0 instructions: 135000689 cycles: 212097454 heartbeat IPC: 1.177 cumulative IPC: 0.4289 (Simulation time: 00 hr 29 min 54 sec)
Heartbeat CPU 0 instructions: 135500690 cycles: 212446387 heartbeat IPC: 1.433 cumulative IPC: 0.4307 (Simulation time: 00 hr 30 min 00 sec)
Heartbeat CPU 0 instructions: 136000696 cycles: 212789493 heartbeat IPC: 1.457 cumulative IPC: 0.4324 (Simulation time: 00 hr 30 min 05 sec)
Heartbeat CPU 0 instructions: 136500699 cycles: 213200229 heartbeat IPC: 1.217 cumulative IPC: 0.434 (Simulation time: 00 hr 30 min 11 sec)
Heartbeat CPU 0 instructions: 137000705 cycles: 214507665 heartbeat IPC: 0.3824 cumulative IPC: 0.4337 (Simulation time: 00 hr 30 min 26 sec)
Heartbeat CPU 0 instructions: 137500705 cycles: 217062122 heartbeat IPC: 0.1957 cumulative IPC: 0.4307 (Simulation time: 00 hr 30 min 53 sec)
Heartbeat CPU 0 instructions: 138000705 cycles: 218586053 heartbeat IPC: 0.3281 cumulative IPC: 0.43 (Simulation time: 00 hr 31 min 11 sec)
Heartbeat CPU 0 instructions: 138500705 cycles: 219649455 heartbeat IPC: 0.4702 cumulative IPC: 0.4302 (Simulation time: 00 hr 31 min 24 sec)
Heartbeat CPU 0 instructions: 139000711 cycles: 221105455 heartbeat IPC: 0.3434 cumulative IPC: 0.4295 (Simulation time: 00 hr 31 min 40 sec)
Heartbeat CPU 0 instructions: 139500711 cycles: 222172524 heartbeat IPC: 0.4686 cumulative IPC: 0.4297 (Simulation time: 00 hr 31 min 53 sec)
Heartbeat CPU 0 instructions: 140000712 cycles: 224464994 heartbeat IPC: 0.2181 cumulative IPC: 0.4274 (Simulation time: 00 hr 32 min 18 sec)
Heartbeat CPU 0 instructions: 140500712 cycles: 225778713 heartbeat IPC: 0.3806 cumulative IPC: 0.4272 (Simulation time: 00 hr 32 min 33 sec)
Heartbeat CPU 0 instructions: 141000714 cycles: 227013218 heartbeat IPC: 0.405 cumulative IPC: 0.427 (Simulation time: 00 hr 32 min 47 sec)
Heartbeat CPU 0 instructions: 141500716 cycles: 229230597 heartbeat IPC: 0.2255 cumulative IPC: 0.425 (Simulation time: 00 hr 33 min 10 sec)
Heartbeat CPU 0 instructions: 142000720 cycles: 230395557 heartbeat IPC: 0.4292 cumulative IPC: 0.425 (Simulation time: 00 hr 33 min 24 sec)
Heartbeat CPU 0 instructions: 142500723 cycles: 230972409 heartbeat IPC: 0.8668 cumulative IPC: 0.4261 (Simulation time: 00 hr 33 min 33 sec)
Heartbeat CPU 0 instructions: 143000724 cycles: 232025790 heartbeat IPC: 0.4747 cumulative IPC: 0.4264 (Simulation time: 00 hr 33 min 46 sec)
Heartbeat CPU 0 instructions: 143500727 cycles: 233335360 heartbeat IPC: 0.3818 cumulative IPC: 0.4261 (Simulation time: 00 hr 34 min 01 sec)
Heartbeat CPU 0 instructions: 144000727 cycles: 234781097 heartbeat IPC: 0.3458 cumulative IPC: 0.4256 (Simulation time: 00 hr 34 min 17 sec)
Heartbeat CPU 0 instructions: 144500728 cycles: 236554174 heartbeat IPC: 0.282 cumulative IPC: 0.4244 (Simulation time: 00 hr 34 min 37 sec)
Heartbeat CPU 0 instructions: 145000728 cycles: 237808696 heartbeat IPC: 0.3986 cumulative IPC: 0.4243 (Simulation time: 00 hr 34 min 52 sec)
Heartbeat CPU 0 instructions: 145500732 cycles: 238663471 heartbeat IPC: 0.585 cumulative IPC: 0.4249 (Simulation time: 00 hr 35 min 03 sec)
Heartbeat CPU 0 instructions: 146000733 cycles: 240676019 heartbeat IPC: 0.2484 cumulative IPC: 0.4233 (Simulation time: 00 hr 35 min 24 sec)
Heartbeat CPU 0 instructions: 146500733 cycles: 241568849 heartbeat IPC: 0.56 cumulative IPC: 0.4239 (Simulation time: 00 hr 35 min 36 sec)
Heartbeat CPU 0 instructions: 147000735 cycles: 242810977 heartbeat IPC: 0.4025 cumulative IPC: 0.4238 (Simulation time: 00 hr 35 min 51 sec)
Heartbeat CPU 0 instructions: 147500735 cycles: 244007359 heartbeat IPC: 0.4179 cumulative IPC: 0.4237 (Simulation time: 00 hr 36 min 05 sec)
Heartbeat CPU 0 instructions: 148000735 cycles: 245713922 heartbeat IPC: 0.293 cumulative IPC: 0.4228 (Simulation time: 00 hr 36 min 24 sec)
Heartbeat CPU 0 instructions: 148500742 cycles: 246900112 heartbeat IPC: 0.4215 cumulative IPC: 0.4228 (Simulation time: 00 hr 36 min 39 sec)
Heartbeat CPU 0 instructions: 149000747 cycles: 248597132 heartbeat IPC: 0.2946 cumulative IPC: 0.4218 (Simulation time: 00 hr 36 min 59 sec)
Heartbeat CPU 0 instructions: 149500751 cycles: 250068620 heartbeat IPC: 0.3398 cumulative IPC: 0.4213 (Simulation time: 00 hr 37 min 15 sec)
Heartbeat CPU 0 instructions: 150000757 cycles: 251003803 heartbeat IPC: 0.5347 cumulative IPC: 0.4218 (Simulation time: 00 hr 37 min 26 sec)
Heartbeat CPU 0 instructions: 150500759 cycles: 251343503 heartbeat IPC: 1.472 cumulative IPC: 0.4233 (Simulation time: 00 hr 37 min 32 sec)
Heartbeat CPU 0 instructions: 151000759 cycles: 251671893 heartbeat IPC: 1.523 cumulative IPC: 0.4248 (Simulation time: 00 hr 37 min 37 sec)
Heartbeat CPU 0 instructions: 151500759 cycles: 252163529 heartbeat IPC: 1.017 cumulative IPC: 0.426 (Simulation time: 00 hr 37 min 44 sec)
Heartbeat CPU 0 instructions: 152000759 cycles: 253459032 heartbeat IPC: 0.386 cumulative IPC: 0.4258 (Simulation time: 00 hr 37 min 59 sec)
Heartbeat CPU 0 instructions: 152500764 cycles: 255058338 heartbeat IPC: 0.3126 cumulative IPC: 0.4251 (Simulation time: 00 hr 38 min 17 sec)
Heartbeat CPU 0 instructions: 153000764 cycles: 256071907 heartbeat IPC: 0.4933 cumulative IPC: 0.4253 (Simulation time: 00 hr 38 min 29 sec)
Heartbeat CPU 0 instructions: 153500764 cycles: 258162334 heartbeat IPC: 0.2392 cumulative IPC: 0.4237 (Simulation time: 00 hr 38 min 53 sec)
Heartbeat CPU 0 instructions: 154000769 cycles: 259303199 heartbeat IPC: 0.4383 cumulative IPC: 0.4238 (Simulation time: 00 hr 39 min 07 sec)
Heartbeat CPU 0 instructions: 154500773 cycles: 260565412 heartbeat IPC: 0.3961 cumulative IPC: 0.4237 (Simulation time: 00 hr 39 min 22 sec)
Heartbeat CPU 0 instructions: 155000773 cycles: 261542787 heartbeat IPC: 0.5116 cumulative IPC: 0.424 (Simulation time: 00 hr 39 min 33 sec)
Heartbeat CPU 0 instructions: 155500774 cycles: 261902112 heartbeat IPC: 1.392 cumulative IPC: 0.4254 (Simulation time: 00 hr 39 min 39 sec)
Heartbeat CPU 0 instructions: 156000776 cycles: 262289348 heartbeat IPC: 1.291 cumulative IPC: 0.4268 (Simulation time: 00 hr 39 min 45 sec)
Heartbeat CPU 0 instructions: 156500776 cycles: 263596362 heartbeat IPC: 0.3826 cumulative IPC: 0.4265 (Simulation time: 00 hr 39 min 59 sec)
Heartbeat CPU 0 instructions: 157000777 cycles: 265619588 heartbeat IPC: 0.2471 cumulative IPC: 0.4251 (Simulation time: 00 hr 40 min 21 sec)
Heartbeat CPU 0 instructions: 157500778 cycles: 267310797 heartbeat IPC: 0.2956 cumulative IPC: 0.4242 (Simulation time: 00 hr 40 min 40 sec)
Heartbeat CPU 0 instructions: 158000780 cycles: 269031825 heartbeat IPC: 0.2905 cumulative IPC: 0.4233 (Simulation time: 00 hr 40 min 59 sec)
Heartbeat CPU 0 instructions: 158500783 cycles: 270116799 heartbeat IPC: 0.4608 cumulative IPC: 0.4235 (Simulation time: 00 hr 41 min 12 sec)
Heartbeat CPU 0 instructions: 159000787 cycles: 271247996 heartbeat IPC: 0.442 cumulative IPC: 0.4236 (Simulation time: 00 hr 41 min 25 sec)
Heartbeat CPU 0 instructions: 159500788 cycles: 272069343 heartbeat IPC: 0.6088 cumulative IPC: 0.4242 (Simulation time: 00 hr 41 min 36 sec)
Heartbeat CPU 0 instructions: 160000789 cycles: 273312227 heartbeat IPC: 0.4023 cumulative IPC: 0.4241 (Simulation time: 00 hr 41 min 51 sec)
Heartbeat CPU 0 instructions: 160500791 cycles: 275013950 heartbeat IPC: 0.2938 cumulative IPC: 0.4232 (Simulation time: 00 hr 42 min 09 sec)
Heartbeat CPU 0 instructions: 161000793 cycles: 275652890 heartbeat IPC: 0.7825 cumulative IPC: 0.4241 (Simulation time: 00 hr 42 min 18 sec)
Heartbeat CPU 0 instructions: 161500799 cycles: 276405690 heartbeat IPC: 0.6642 cumulative IPC: 0.4248 (Simulation time: 00 hr 42 min 28 sec)
Heartbeat CPU 0 instructions: 162000802 cycles: 277826952 heartbeat IPC: 0.3518 cumulative IPC: 0.4244 (Simulation time: 00 hr 42 min 44 sec)
Heartbeat CPU 0 instructions: 162500807 cycles: 279094058 heartbeat IPC: 0.3946 cumulative IPC: 0.4242 (Simulation time: 00 hr 42 min 59 sec)
Heartbeat CPU 0 instructions: 163000810 cycles: 279473247 heartbeat IPC: 1.319 cumulative IPC: 0.4255 (Simulation time: 00 hr 43 min 05 sec)
Heartbeat CPU 0 instructions: 163500811 cycles: 279828313 heartbeat IPC: 1.408 cumulative IPC: 0.4268 (Simulation time: 00 hr 43 min 11 sec)
Heartbeat CPU 0 instructions: 164000811 cycles: 280138872 heartbeat IPC: 1.61 cumulative IPC: 0.4282 (Simulation time: 00 hr 43 min 16 sec)
Heartbeat CPU 0 instructions: 164500811 cycles: 280447129 heartbeat IPC: 1.622 cumulative IPC: 0.4296 (Simulation time: 00 hr 43 min 21 sec)
Heartbeat CPU 0 instructions: 165000811 cycles: 280755505 heartbeat IPC: 1.621 cumulative IPC: 0.431 (Simulation time: 00 hr 43 min 26 sec)
Heartbeat CPU 0 instructions: 165500814 cycles: 281090639 heartbeat IPC: 1.492 cumulative IPC: 0.4323 (Simulation time: 00 hr 43 min 32 sec)
Heartbeat CPU 0 instructions: 166000817 cycles: 281420701 heartbeat IPC: 1.515 cumulative IPC: 0.4336 (Simulation time: 00 hr 43 min 37 sec)
Heartbeat CPU 0 instructions: 166500818 cycles: 281722543 heartbeat IPC: 1.656 cumulative IPC: 0.435 (Simulation time: 00 hr 43 min 42 sec)
Heartbeat CPU 0 instructions: 167000820 cycles: 282032487 heartbeat IPC: 1.613 cumulative IPC: 0.4364 (Simulation time: 00 hr 43 min 47 sec)
Heartbeat CPU 0 instructions: 167500820 cycles: 282318882 heartbeat IPC: 1.746 cumulative IPC: 0.4378 (Simulation time: 00 hr 43 min 52 sec)
Heartbeat CPU 0 instructions: 168000820 cycles: 283134886 heartbeat IPC: 0.6127 cumulative IPC: 0.4383 (Simulation time: 00 hr 44 min 02 sec)
Heartbeat CPU 0 instructions: 168500821 cycles: 285436803 heartbeat IPC: 0.2172 cumulative IPC: 0.4364 (Simulation time: 00 hr 44 min 26 sec)
Heartbeat CPU 0 instructions: 169000821 cycles: 287446871 heartbeat IPC: 0.2487 cumulative IPC: 0.435 (Simulation time: 00 hr 44 min 48 sec)
Heartbeat CPU 0 instructions: 169500825 cycles: 288688172 heartbeat IPC: 0.4028 cumulative IPC: 0.4349 (Simulation time: 00 hr 45 min 02 sec)
Heartbeat CPU 0 instructions: 170000830 cycles: 289903760 heartbeat IPC: 0.4113 cumulative IPC: 0.4348 (Simulation time: 00 hr 45 min 17 sec)
Heartbeat CPU 0 instructions: 170500833 cycles: 290717104 heartbeat IPC: 0.6147 cumulative IPC: 0.4353 (Simulation time: 00 hr 45 min 27 sec)
Heartbeat CPU 0 instructions: 171000835 cycles: 291518164 heartbeat IPC: 0.6242 cumulative IPC: 0.4359 (Simulation time: 00 hr 45 min 37 sec)
Heartbeat CPU 0 instructions: 171500841 cycles: 291847336 heartbeat IPC: 1.519 cumulative IPC: 0.4372 (Simulation time: 00 hr 45 min 43 sec)
Heartbeat CPU 0 instructions: 172000841 cycles: 292163183 heartbeat IPC: 1.583 cumulative IPC: 0.4385 (Simulation time: 00 hr 45 min 48 sec)
Heartbeat CPU 0 instructions: 172500845 cycles: 292512441 heartbeat IPC: 1.432 cumulative IPC: 0.4397 (Simulation time: 00 hr 45 min 53 sec)
Heartbeat CPU 0 instructions: 173000846 cycles: 292802214 heartbeat IPC: 1.725 cumulative IPC: 0.441 (Simulation time: 00 hr 45 min 58 sec)
Heartbeat CPU 0 instructions: 173500849 cycles: 293496747 heartbeat IPC: 0.7199 cumulative IPC: 0.4417 (Simulation time: 00 hr 46 min 07 sec)
Heartbeat CPU 0 instructions: 174000853 cycles: 293808368 heartbeat IPC: 1.605 cumulative IPC: 0.443 (Simulation time: 00 hr 46 min 13 sec)
Heartbeat CPU 0 instructions: 174500854 cycles: 294198542 heartbeat IPC: 1.281 cumulative IPC: 0.4442 (Simulation time: 00 hr 46 min 18 sec)
Heartbeat CPU 0 instructions: 175000854 cycles: 296253733 heartbeat IPC: 0.2433 cumulative IPC: 0.4427 (Simulation time: 00 hr 46 min 40 sec)
Heartbeat CPU 0 instructions: 175500859 cycles: 297171285 heartbeat IPC: 0.5449 cumulative IPC: 0.4431 (Simulation time: 00 hr 46 min 52 sec)
Heartbeat CPU 0 instructions: 176000860 cycles: 298991136 heartbeat IPC: 0.2747 cumulative IPC: 0.442 (Simulation time: 00 hr 47 min 12 sec)
Heartbeat CPU 0 instructions: 176500861 cycles: 300880691 heartbeat IPC: 0.2646 cumulative IPC: 0.4408 (Simulation time: 00 hr 47 min 33 sec)
Heartbeat CPU 0 instructions: 177000864 cycles: 302483369 heartbeat IPC: 0.312 cumulative IPC: 0.4401 (Simulation time: 00 hr 47 min 51 sec)
Heartbeat CPU 0 instructions: 177500864 cycles: 303902487 heartbeat IPC: 0.3523 cumulative IPC: 0.4397 (Simulation time: 00 hr 48 min 07 sec)
Heartbeat CPU 0 instructions: 178000866 cycles: 305317275 heartbeat IPC: 0.3534 cumulative IPC: 0.4393 (Simulation time: 00 hr 48 min 23 sec)
Heartbeat CPU 0 instructions: 178500866 cycles: 306219399 heartbeat IPC: 0.5542 cumulative IPC: 0.4396 (Simulation time: 00 hr 48 min 35 sec)
Heartbeat CPU 0 instructions: 179000866 cycles: 308087637 heartbeat IPC: 0.2676 cumulative IPC: 0.4385 (Simulation time: 00 hr 48 min 55 sec)
Heartbeat CPU 0 instructions: 179500867 cycles: 309167217 heartbeat IPC: 0.4631 cumulative IPC: 0.4386 (Simulation time: 00 hr 49 min 08 sec)
Heartbeat CPU 0 instructions: 180000871 cycles: 310373976 heartbeat IPC: 0.4143 cumulative IPC: 0.4385 (Simulation time: 00 hr 49 min 22 sec)
Heartbeat CPU 0 instructions: 180500871 cycles: 311372873 heartbeat IPC: 0.5006 cumulative IPC: 0.4387 (Simulation time: 00 hr 49 min 34 sec)
Heartbeat CPU 0 instructions: 181000875 cycles: 311746076 heartbeat IPC: 1.34 cumulative IPC: 0.4398 (Simulation time: 00 hr 49 min 40 sec)
Heartbeat CPU 0 instructions: 181500876 cycles: 312107482 heartbeat IPC: 1.383 cumulative IPC: 0.441 (Simulation time: 00 hr 49 min 45 sec)
Heartbeat CPU 0 instructions: 182000877 cycles: 312463457 heartbeat IPC: 1.405 cumulative IPC: 0.4421 (Simulation time: 00 hr 49 min 51 sec)
Heartbeat CPU 0 instructions: 182500880 cycles: 312855989 heartbeat IPC: 1.274 cumulative IPC: 0.4432 (Simulation time: 00 hr 49 min 57 sec)
Heartbeat CPU 0 instructions: 183000881 cycles: 313186009 heartbeat IPC: 1.515 cumulative IPC: 0.4444 (Simulation time: 00 hr 50 min 02 sec)
Heartbeat CPU 0 instructions: 183500883 cycles: 313533363 heartbeat IPC: 1.439 cumulative IPC: 0.4456 (Simulation time: 00 hr 50 min 07 sec)
Heartbeat CPU 0 instructions: 184000884 cycles: 314946418 heartbeat IPC: 0.3538 cumulative IPC: 0.4451 (Simulation time: 00 hr 50 min 24 sec)
Heartbeat CPU 0 instructions: 184500887 cycles: 316338496 heartbeat IPC: 0.3592 cumulative IPC: 0.4447 (Simulation time: 00 hr 50 min 39 sec)
Heartbeat CPU 0 instructions: 185000887 cycles: 318030878 heartbeat IPC: 0.2954 cumulative IPC: 0.4439 (Simulation time: 00 hr 50 min 58 sec)
Heartbeat CPU 0 instructions: 185500888 cycles: 320189623 heartbeat IPC: 0.2316 cumulative IPC: 0.4424 (Simulation time: 00 hr 51 min 20 sec)
Heartbeat CPU 0 instructions: 186000888 cycles: 321614110 heartbeat IPC: 0.351 cumulative IPC: 0.442 (Simulation time: 00 hr 51 min 36 sec)
Heartbeat CPU 0 instructions: 186500889 cycles: 322875664 heartbeat IPC: 0.3963 cumulative IPC: 0.4418 (Simulation time: 00 hr 51 min 51 sec)
Heartbeat CPU 0 instructions: 187000889 cycles: 323627556 heartbeat IPC: 0.665 cumulative IPC: 0.4423 (Simulation time: 00 hr 52 min 01 sec)
Heartbeat CPU 0 instructions: 187500889 cycles: 324657260 heartbeat IPC: 0.4856 cumulative IPC: 0.4425 (Simulation time: 00 hr 52 min 13 sec)
Heartbeat CPU 0 instructions: 188000889 cycles: 326117483 heartbeat IPC: 0.3424 cumulative IPC: 0.442 (Simulation time: 00 hr 52 min 30 sec)
Heartbeat CPU 0 instructions: 188500889 cycles: 327000253 heartbeat IPC: 0.5664 cumulative IPC: 0.4424 (Simulation time: 00 hr 52 min 41 sec)
Heartbeat CPU 0 instructions: 189000889 cycles: 327697495 heartbeat IPC: 0.7171 cumulative IPC: 0.443 (Simulation time: 00 hr 52 min 50 sec)
Heartbeat CPU 0 instructions: 189500896 cycles: 328014281 heartbeat IPC: 1.578 cumulative IPC: 0.4441 (Simulation time: 00 hr 52 min 55 sec)
Heartbeat CPU 0 instructions: 190000897 cycles: 328383645 heartbeat IPC: 1.354 cumulative IPC: 0.4452 (Simulation time: 00 hr 53 min 01 sec)
Heartbeat CPU 0 instructions: 190500899 cycles: 328763501 heartbeat IPC: 1.316 cumulative IPC: 0.4462 (Simulation time: 00 hr 53 min 06 sec)
Heartbeat CPU 0 instructions: 191000899 cycles: 329999338 heartbeat IPC: 0.4046 cumulative IPC: 0.4461 (Simulation time: 00 hr 53 min 20 sec)
Heartbeat CPU 0 instructions: 191500899 cycles: 331512994 heartbeat IPC: 0.3303 cumulative IPC: 0.4455 (Simulation time: 00 hr 53 min 37 sec)
Heartbeat CPU 0 instructions: 192000901 cycles: 333023257 heartbeat IPC: 0.3311 cumulative IPC: 0.445 (Simulation time: 00 hr 53 min 54 sec)
Heartbeat CPU 0 instructions: 192500907 cycles: 334205829 heartbeat IPC: 0.4228 cumulative IPC: 0.4449 (Simulation time: 00 hr 54 min 08 sec)
Heartbeat CPU 0 instructions: 193000912 cycles: 335398256 heartbeat IPC: 0.4193 cumulative IPC: 0.4448 (Simulation time: 00 hr 54 min 22 sec)
Heartbeat CPU 0 instructions: 193500912 cycles: 336448278 heartbeat IPC: 0.4762 cumulative IPC: 0.4449 (Simulation time: 00 hr 54 min 35 sec)
Heartbeat CPU 0 instructions: 194000914 cycles: 338270530 heartbeat IPC: 0.2744 cumulative IPC: 0.444 (Simulation time: 00 hr 54 min 55 sec)
Heartbeat CPU 0 instructions: 194500914 cycles: 339700818 heartbeat IPC: 0.3496 cumulative IPC: 0.4435 (Simulation time: 00 hr 55 min 12 sec)
Heartbeat CPU 0 instructions: 195000914 cycles: 340835935 heartbeat IPC: 0.4405 cumulative IPC: 0.4435 (Simulation time: 00 hr 55 min 25 sec)
Heartbeat CPU 0 instructions: 195500915 cycles: 341773832 heartbeat IPC: 0.5331 cumulative IPC: 0.4438 (Simulation time: 00 hr 55 min 37 sec)
Heartbeat CPU 0 instructions: 196000918 cycles: 342399054 heartbeat IPC: 0.7997 cumulative IPC: 0.4445 (Simulation time: 00 hr 55 min 46 sec)
Heartbeat CPU 0 instructions: 196500919 cycles: 343634880 heartbeat IPC: 0.4046 cumulative IPC: 0.4443 (Simulation time: 00 hr 56 min 00 sec)
Heartbeat CPU 0 instructions: 197000921 cycles: 344538772 heartbeat IPC: 0.5532 cumulative IPC: 0.4446 (Simulation time: 00 hr 56 min 11 sec)
Heartbeat CPU 0 instructions: 197500923 cycles: 346397096 heartbeat IPC: 0.2691 cumulative IPC: 0.4436 (Simulation time: 00 hr 56 min 31 sec)
Heartbeat CPU 0 instructions: 198000924 cycles: 347932672 heartbeat IPC: 0.3256 cumulative IPC: 0.4431 (Simulation time: 00 hr 56 min 49 sec)
Heartbeat CPU 0 instructions: 198500926 cycles: 349374087 heartbeat IPC: 0.3469 cumulative IPC: 0.4427 (Simulation time: 00 hr 57 min 06 sec)
Heartbeat CPU 0 instructions: 199000927 cycles: 350596545 heartbeat IPC: 0.409 cumulative IPC: 0.4426 (Simulation time: 00 hr 57 min 21 sec)
Heartbeat CPU 0 instructions: 199500928 cycles: 351418354 heartbeat IPC: 0.6084 cumulative IPC: 0.443 (Simulation time: 00 hr 57 min 32 sec)
Heartbeat CPU 0 instructions: 200000928 cycles: 352649593 heartbeat IPC: 0.4061 cumulative IPC: 0.4428 (Simulation time: 00 hr 57 min 46 sec)
Heartbeat CPU 0 instructions: 200500930 cycles: 354458089 heartbeat IPC: 0.2765 cumulative IPC: 0.4419 (Simulation time: 00 hr 58 min 07 sec)
Heartbeat CPU 0 instructions: 201000930 cycles: 356040284 heartbeat IPC: 0.316 cumulative IPC: 0.4414 (Simulation time: 00 hr 58 min 25 sec)
Heartbeat CPU 0 instructions: 201500931 cycles: 357650817 heartbeat IPC: 0.3105 cumulative IPC: 0.4407 (Simulation time: 00 hr 58 min 43 sec)
Heartbeat CPU 0 instructions: 202000931 cycles: 358677302 heartbeat IPC: 0.4871 cumulative IPC: 0.4409 (Simulation time: 00 hr 58 min 55 sec)
Heartbeat CPU 0 instructions: 202500935 cycles: 360415662 heartbeat IPC: 0.2876 cumulative IPC: 0.4401 (Simulation time: 00 hr 59 min 14 sec)
Heartbeat CPU 0 instructions: 203000940 cycles: 362087105 heartbeat IPC: 0.2991 cumulative IPC: 0.4394 (Simulation time: 00 hr 59 min 33 sec)
Heartbeat CPU 0 instructions: 203500943 cycles: 363260707 heartbeat IPC: 0.426 cumulative IPC: 0.4394 (Simulation time: 00 hr 59 min 47 sec)
Heartbeat CPU 0 instructions: 204000947 cycles: 364310552 heartbeat IPC: 0.4763 cumulative IPC: 0.4395 (Simulation time: 01 hr 00 min 00 sec)
Heartbeat CPU 0 instructions: 204500953 cycles: 365335711 heartbeat IPC: 0.4877 cumulative IPC: 0.4396 (Simulation time: 01 hr 00 min 12 sec)
Heartbeat CPU 0 instructions: 205000953 cycles: 366065031 heartbeat IPC: 0.6856 cumulative IPC: 0.4401 (Simulation time: 01 hr 00 min 22 sec)
Heartbeat CPU 0 instructions: 205500954 cycles: 366988009 heartbeat IPC: 0.5417 cumulative IPC: 0.4404 (Simulation time: 01 hr 00 min 34 sec)
Heartbeat CPU 0 instructions: 206000957 cycles: 367853924 heartbeat IPC: 0.5774 cumulative IPC: 0.4408 (Simulation time: 01 hr 00 min 44 sec)
Heartbeat CPU 0 instructions: 206500958 cycles: 369010910 heartbeat IPC: 0.4322 cumulative IPC: 0.4407 (Simulation time: 01 hr 00 min 59 sec)
Heartbeat CPU 0 instructions: 207000958 cycles: 369899323 heartbeat IPC: 0.5628 cumulative IPC: 0.441 (Simulation time: 01 hr 01 min 10 sec)
Heartbeat CPU 0 instructions: 207500963 cycles: 371083984 heartbeat IPC: 0.4221 cumulative IPC: 0.441 (Simulation time: 01 hr 01 min 25 sec)
Heartbeat CPU 0 instructions: 208000963 cycles: 372698133 heartbeat IPC: 0.3098 cumulative IPC: 0.4404 (Simulation time: 01 hr 01 min 43 sec)
Heartbeat CPU 0 instructions: 208500966 cycles: 374866263 heartbeat IPC: 0.2306 cumulative IPC: 0.4391 (Simulation time: 01 hr 02 min 05 sec)
Heartbeat CPU 0 instructions: 209000967 cycles: 376732657 heartbeat IPC: 0.2679 cumulative IPC: 0.4382 (Simulation time: 01 hr 02 min 25 sec)
Heartbeat CPU 0 instructions: 209500973 cycles: 377048201 heartbeat IPC: 1.585 cumulative IPC: 0.4392 (Simulation time: 01 hr 02 min 31 sec)
Heartbeat CPU 0 instructions: 210000977 cycles: 377372252 heartbeat IPC: 1.543 cumulative IPC: 0.4402 (Simulation time: 01 hr 02 min 36 sec)
Heartbeat CPU 0 instructions: 210500978 cycles: 377773300 heartbeat IPC: 1.247 cumulative IPC: 0.4411 (Simulation time: 01 hr 02 min 42 sec)
Heartbeat CPU 0 instructions: 211000982 cycles: 379178247 heartbeat IPC: 0.3559 cumulative IPC: 0.4408 (Simulation time: 01 hr 02 min 57 sec)
Heartbeat CPU 0 instructions: 211500989 cycles: 380888983 heartbeat IPC: 0.2923 cumulative IPC: 0.4401 (Simulation time: 01 hr 03 min 16 sec)
Heartbeat CPU 0 instructions: 212000993 cycles: 382421982 heartbeat IPC: 0.3262 cumulative IPC: 0.4396 (Simulation time: 01 hr 03 min 33 sec)
Heartbeat CPU 0 instructions: 212500994 cycles: 383544106 heartbeat IPC: 0.4456 cumulative IPC: 0.4396 (Simulation time: 01 hr 03 min 46 sec)
Heartbeat CPU 0 instructions: 213000999 cycles: 385103602 heartbeat IPC: 0.3206 cumulative IPC: 0.4391 (Simulation time: 01 hr 04 min 03 sec)
Heartbeat CPU 0 instructions: 213500999 cycles: 386723020 heartbeat IPC: 0.3088 cumulative IPC: 0.4386 (Simulation time: 01 hr 04 min 21 sec)
Heartbeat CPU 0 instructions: 214000999 cycles: 388209808 heartbeat IPC: 0.3363 cumulative IPC: 0.4382 (Simulation time: 01 hr 04 min 38 sec)
Heartbeat CPU 0 instructions: 214500999 cycles: 389322091 heartbeat IPC: 0.4495 cumulative IPC: 0.4382 (Simulation time: 01 hr 04 min 51 sec)
Heartbeat CPU 0 instructions: 215001001 cycles: 390497683 heartbeat IPC: 0.4253 cumulative IPC: 0.4381 (Simulation time: 01 hr 05 min 04 sec)
Heartbeat CPU 0 instructions: 215501003 cycles: 391740831 heartbeat IPC: 0.4022 cumulative IPC: 0.438 (Simulation time: 01 hr 05 min 13 sec)
Heartbeat CPU 0 instructions: 216001004 cycles: 393082978 heartbeat IPC: 0.3725 cumulative IPC: 0.4378 (Simulation time: 01 hr 05 min 24 sec)
Heartbeat CPU 0 instructions: 216501007 cycles: 394201770 heartbeat IPC: 0.4469 cumulative IPC: 0.4378 (Simulation time: 01 hr 05 min 32 sec)
Heartbeat CPU 0 instructions: 217001009 cycles: 395001150 heartbeat IPC: 0.6255 cumulative IPC: 0.4382 (Simulation time: 01 hr 05 min 39 sec)
Heartbeat CPU 0 instructions: 217501009 cycles: 395776451 heartbeat IPC: 0.6449 cumulative IPC: 0.4386 (Simulation time: 01 hr 05 min 46 sec)
Heartbeat CPU 0 instructions: 218001016 cycles: 397215969 heartbeat IPC: 0.3473 cumulative IPC: 0.4383 (Simulation time: 01 hr 05 min 57 sec)
Heartbeat CPU 0 instructions: 218501018 cycles: 398818400 heartbeat IPC: 0.312 cumulative IPC: 0.4378 (Simulation time: 01 hr 06 min 09 sec)
Heartbeat CPU 0 instructions: 219001020 cycles: 399901750 heartbeat IPC: 0.4615 cumulative IPC: 0.4378 (Simulation time: 01 hr 06 min 17 sec)
Heartbeat CPU 0 instructions: 219501021 cycles: 401343615 heartbeat IPC: 0.3468 cumulative IPC: 0.4375 (Simulation time: 01 hr 06 min 28 sec)
Heartbeat CPU 0 instructions: 220001021 cycles: 402609192 heartbeat IPC: 0.3951 cumulative IPC: 0.4374 (Simulation time: 01 hr 06 min 38 sec)
Heartbeat CPU 0 instructions: 220501023 cycles: 403557869 heartbeat IPC: 0.5271 cumulative IPC: 0.4376 (Simulation time: 01 hr 06 min 45 sec)
Heartbeat CPU 0 instructions: 221001024 cycles: 404818861 heartbeat IPC: 0.3965 cumulative IPC: 0.4374 (Simulation time: 01 hr 06 min 55 sec)
Heartbeat CPU 0 instructions: 221501025 cycles: 406251759 heartbeat IPC: 0.3489 cumulative IPC: 0.4371 (Simulation time: 01 hr 07 min 06 sec)
Heartbeat CPU 0 instructions: 222001025 cycles: 407513497 heartbeat IPC: 0.3963 cumulative IPC: 0.437 (Simulation time: 01 hr 07 min 15 sec)
Heartbeat CPU 0 instructions: 222501025 cycles: 408884650 heartbeat IPC: 0.3647 cumulative IPC: 0.4367 (Simulation time: 01 hr 07 min 26 sec)
Heartbeat CPU 0 instructions: 223001025 cycles: 410816944 heartbeat IPC: 0.2588 cumulative IPC: 0.4359 (Simulation time: 01 hr 07 min 41 sec)
Heartbeat CPU 0 instructions: 223501028 cycles: 412029900 heartbeat IPC: 0.4122 cumulative IPC: 0.4358 (Simulation time: 01 hr 07 min 51 sec)
Heartbeat CPU 0 instructions: 224001030 cycles: 412387479 heartbeat IPC: 1.398 cumulative IPC: 0.4367 (Simulation time: 01 hr 07 min 55 sec)
Heartbeat CPU 0 instructions: 224501033 cycles: 412779422 heartbeat IPC: 1.276 cumulative IPC: 0.4375 (Simulation time: 01 hr 07 min 59 sec)
Heartbeat CPU 0 instructions: 225001033 cycles: 413149307 heartbeat IPC: 1.352 cumulative IPC: 0.4383 (Simulation time: 01 hr 08 min 02 sec)
Heartbeat CPU 0 instructions: 225501036 cycles: 413506639 heartbeat IPC: 1.399 cumulative IPC: 0.4392 (Simulation time: 01 hr 08 min 06 sec)
Heartbeat CPU 0 instructions: 226001041 cycles: 414117276 heartbeat IPC: 0.8188 cumulative IPC: 0.4398 (Simulation time: 01 hr 08 min 11 sec)
Heartbeat CPU 0 instructions: 226501047 cycles: 414480141 heartbeat IPC: 1.378 cumulative IPC: 0.4406 (Simulation time: 01 hr 08 min 15 sec)
Heartbeat CPU 0 instructions: 227001047 cycles: 416306086 heartbeat IPC: 0.2738 cumulative IPC: 0.4399 (Simulation time: 01 hr 08 min 28 sec)
Heartbeat CPU 0 instructions: 227501049 cycles: 417576188 heartbeat IPC: 0.3937 cumulative IPC: 0.4397 (Simulation time: 01 hr 08 min 38 sec)
Heartbeat CPU 0 instructions: 228001055 cycles: 418592582 heartbeat IPC: 0.4919 cumulative IPC: 0.4399 (Simulation time: 01 hr 08 min 46 sec)
Heartbeat CPU 0 instructions: 228501058 cycles: 420158290 heartbeat IPC: 0.3193 cumulative IPC: 0.4394 (Simulation time: 01 hr 08 min 57 sec)
Heartbeat CPU 0 instructions: 229001059 cycles: 421500497 heartbeat IPC: 0.3725 cumulative IPC: 0.4392 (Simulation time: 01 hr 09 min 08 sec)
Heartbeat CPU 0 instructions: 229501060 cycles: 422758576 heartbeat IPC: 0.3974 cumulative IPC: 0.439 (Simulation time: 01 hr 09 min 17 sec)
Heartbeat CPU 0 instructions: 230001060 cycles: 423670122 heartbeat IPC: 0.5485 cumulative IPC: 0.4393 (Simulation time: 01 hr 09 min 25 sec)
Heartbeat CPU 0 instructions: 230501062 cycles: 424994392 heartbeat IPC: 0.3776 cumulative IPC: 0.4391 (Simulation time: 01 hr 09 min 34 sec)
Heartbeat CPU 0 instructions: 231001068 cycles: 426155538 heartbeat IPC: 0.4306 cumulative IPC: 0.4391 (Simulation time: 01 hr 09 min 43 sec)
Heartbeat CPU 0 instructions: 231501068 cycles: 427496816 heartbeat IPC: 0.3728 cumulative IPC: 0.4388 (Simulation time: 01 hr 09 min 53 sec)
Heartbeat CPU 0 instructions: 232001068 cycles: 428901571 heartbeat IPC: 0.3559 cumulative IPC: 0.4386 (Simulation time: 01 hr 10 min 04 sec)
Heartbeat CPU 0 instructions: 232501068 cycles: 430100652 heartbeat IPC: 0.417 cumulative IPC: 0.4385 (Simulation time: 01 hr 10 min 13 sec)
Heartbeat CPU 0 instructions: 233001069 cycles: 431363362 heartbeat IPC: 0.396 cumulative IPC: 0.4384 (Simulation time: 01 hr 10 min 22 sec)
Heartbeat CPU 0 instructions: 233501069 cycles: 433090790 heartbeat IPC: 0.2894 cumulative IPC: 0.4378 (Simulation time: 01 hr 10 min 35 sec)
Heartbeat CPU 0 instructions: 234001071 cycles: 434480725 heartbeat IPC: 0.3597 cumulative IPC: 0.4375 (Simulation time: 01 hr 10 min 46 sec)
Heartbeat CPU 0 instructions: 234501071 cycles: 435313072 heartbeat IPC: 0.6007 cumulative IPC: 0.4378 (Simulation time: 01 hr 10 min 53 sec)
Heartbeat CPU 0 instructions: 235001071 cycles: 437151892 heartbeat IPC: 0.2719 cumulative IPC: 0.4371 (Simulation time: 01 hr 11 min 06 sec)
Heartbeat CPU 0 instructions: 235501072 cycles: 438152151 heartbeat IPC: 0.4999 cumulative IPC: 0.4373 (Simulation time: 01 hr 11 min 15 sec)
Heartbeat CPU 0 instructions: 236001072 cycles: 439446903 heartbeat IPC: 0.3862 cumulative IPC: 0.4371 (Simulation time: 01 hr 11 min 24 sec)
Heartbeat CPU 0 instructions: 236501076 cycles: 440473602 heartbeat IPC: 0.487 cumulative IPC: 0.4372 (Simulation time: 01 hr 11 min 32 sec)
Heartbeat CPU 0 instructions: 237001077 cycles: 442358154 heartbeat IPC: 0.2653 cumulative IPC: 0.4365 (Simulation time: 01 hr 11 min 46 sec)
Heartbeat CPU 0 instructions: 237501081 cycles: 443664963 heartbeat IPC: 0.3826 cumulative IPC: 0.4363 (Simulation time: 01 hr 11 min 56 sec)
Heartbeat CPU 0 instructions: 238001082 cycles: 444950847 heartbeat IPC: 0.3888 cumulative IPC: 0.4362 (Simulation time: 01 hr 12 min 05 sec)
Heartbeat CPU 0 instructions: 238501087 cycles: 445881942 heartbeat IPC: 0.537 cumulative IPC: 0.4364 (Simulation time: 01 hr 12 min 13 sec)
Heartbeat CPU 0 instructions: 239001087 cycles: 447261030 heartbeat IPC: 0.3626 cumulative IPC: 0.4361 (Simulation time: 01 hr 12 min 23 sec)
Heartbeat CPU 0 instructions: 239501088 cycles: 448452140 heartbeat IPC: 0.4198 cumulative IPC: 0.4361 (Simulation time: 01 hr 12 min 33 sec)
Heartbeat CPU 0 instructions: 240001089 cycles: 449659405 heartbeat IPC: 0.4142 cumulative IPC: 0.436 (Simulation time: 01 hr 12 min 42 sec)
Heartbeat CPU 0 instructions: 240501092 cycles: 451165876 heartbeat IPC: 0.3319 cumulative IPC: 0.4357 (Simulation time: 01 hr 12 min 53 sec)
Heartbeat CPU 0 instructions: 241001093 cycles: 452294121 heartbeat IPC: 0.4432 cumulative IPC: 0.4357 (Simulation time: 01 hr 13 min 02 sec)
Heartbeat CPU 0 instructions: 241501096 cycles: 453728852 heartbeat IPC: 0.3485 cumulative IPC: 0.4354 (Simulation time: 01 hr 13 min 12 sec)
Heartbeat CPU 0 instructions: 242001098 cycles: 454890575 heartbeat IPC: 0.4304 cumulative IPC: 0.4354 (Simulation time: 01 hr 13 min 21 sec)
Heartbeat CPU 0 instructions: 242501098 cycles: 456106795 heartbeat IPC: 0.4111 cumulative IPC: 0.4353 (Simulation time: 01 hr 13 min 30 sec)
Heartbeat CPU 0 instructions: 243001099 cycles: 457526168 heartbeat IPC: 0.3523 cumulative IPC: 0.4351 (Simulation time: 01 hr 13 min 41 sec)
Heartbeat CPU 0 instructions: 243501102 cycles: 458342291 heartbeat IPC: 0.6127 cumulative IPC: 0.4354 (Simulation time: 01 hr 13 min 47 sec)
Heartbeat CPU 0 instructions: 244001107 cycles: 459733368 heartbeat IPC: 0.3594 cumulative IPC: 0.4352 (Simulation time: 01 hr 13 min 57 sec)
Heartbeat CPU 0 instructions: 244501107 cycles: 460790934 heartbeat IPC: 0.4728 cumulative IPC: 0.4352 (Simulation time: 01 hr 14 min 05 sec)
Heartbeat CPU 0 instructions: 245001107 cycles: 461925173 heartbeat IPC: 0.4408 cumulative IPC: 0.4353 (Simulation time: 01 hr 14 min 13 sec)
Heartbeat CPU 0 instructions: 245501109 cycles: 462851286 heartbeat IPC: 0.5399 cumulative IPC: 0.4355 (Simulation time: 01 hr 14 min 20 sec)
Heartbeat CPU 0 instructions: 246001113 cycles: 464362386 heartbeat IPC: 0.3309 cumulative IPC: 0.4351 (Simulation time: 01 hr 14 min 32 sec)
Heartbeat CPU 0 instructions: 246501113 cycles: 466041692 heartbeat IPC: 0.2977 cumulative IPC: 0.4346 (Simulation time: 01 hr 14 min 44 sec)
Heartbeat CPU 0 instructions: 247001114 cycles: 467122444 heartbeat IPC: 0.4626 cumulative IPC: 0.4347 (Simulation time: 01 hr 14 min 53 sec)
Heartbeat CPU 0 instructions: 247501115 cycles: 467908463 heartbeat IPC: 0.6361 cumulative IPC: 0.435 (Simulation time: 01 hr 14 min 59 sec)
Heartbeat CPU 0 instructions: 248001118 cycles: 469048380 heartbeat IPC: 0.4386 cumulative IPC: 0.435 (Simulation time: 01 hr 15 min 07 sec)
Heartbeat CPU 0 instructions: 248501118 cycles: 470090530 heartbeat IPC: 0.4798 cumulative IPC: 0.4351 (Simulation time: 01 hr 15 min 15 sec)
Heartbeat CPU 0 instructions: 249001120 cycles: 471062243 heartbeat IPC: 0.5146 cumulative IPC: 0.4353 (Simulation time: 01 hr 15 min 23 sec)
Heartbeat CPU 0 instructions: 249501125 cycles: 471823881 heartbeat IPC: 0.6565 cumulative IPC: 0.4357 (Simulation time: 01 hr 15 min 29 sec)
Simulation finished CPU 0 instructions: 200000005 cycles: 459096145 cumulative IPC: 0.4356 (Simulation time: 01 hr 15 min 38 sec)
Simulation complete CPU 0 instructions: 200000005 cycles: 459096145 cumulative IPC: 0.4356 (Simulation time: 01 hr 15 min 38 sec)

ChampSim completed all CPUs

=== Simulation ===
CPU 0 runs /local-ssd/ben/dpc4-traces/gtraces_v2/sierra.a.6_0002.champsim.gz

Region of Interest Statistics

CPU 0 cumulative IPC: 0.4356 instructions: 200000005 cycles: 459096145
CPU 0 Branch Prediction Accuracy: 87.37% MPKI: 24.72 Average ROB Occupancy at Mispredict: 18.66
Branch type MPKI
BRANCH_DIRECT_JUMP: 1.987
BRANCH_INDIRECT: 0.2627
BRANCH_CONDITIONAL: 19.65
BRANCH_DIRECT_CALL: 1.394
BRANCH_INDIRECT_CALL: 0.3355
BRANCH_RETURN: 1.09

cpu0->cpu0_STLB TOTAL        ACCESS:    3393142 HIT:    2497387 MISS:     895755 MSHR_MERGE:          0
cpu0->cpu0_STLB LOAD         ACCESS:    3393142 HIT:    2497387 MISS:     895755 MSHR_MERGE:          0
cpu0->cpu0_STLB RFO          ACCESS:          0 HIT:          0 MISS:          0 MSHR_MERGE:          0
cpu0->cpu0_STLB PREFETCH     ACCESS:          0 HIT:          0 MISS:          0 MSHR_MERGE:          0
cpu0->cpu0_STLB WRITE        ACCESS:          0 HIT:          0 MISS:          0 MSHR_MERGE:          0
cpu0->cpu0_STLB TRANSLATION  ACCESS:          0 HIT:          0 MISS:          0 MSHR_MERGE:          0
cpu0->cpu0_STLB PREFETCH REQUESTED:          0 ISSUED:          0 USEFUL:          0 USELESS:          0
cpu0->cpu0_STLB AVERAGE MISS LATENCY: 123.3 cycles
cpu0->cpu0_L2C TOTAL        ACCESS:   14884288 HIT:   11275358 MISS:    3608930 MSHR_MERGE:          0
cpu0->cpu0_L2C LOAD         ACCESS:    9745650 HIT:    7695128 MISS:    2050522 MSHR_MERGE:          0
cpu0->cpu0_L2C RFO          ACCESS:     992132 HIT:     543043 MISS:     449089 MSHR_MERGE:          0
cpu0->cpu0_L2C PREFETCH     ACCESS:    1216540 HIT:     485642 MISS:     730898 MSHR_MERGE:          0
cpu0->cpu0_L2C WRITE        ACCESS:    1902070 HIT:    1902040 MISS:         30 MSHR_MERGE:          0
cpu0->cpu0_L2C TRANSLATION  ACCESS:    1027896 HIT:     649505 MISS:     378391 MSHR_MERGE:          0
cpu0->cpu0_L2C PREFETCH REQUESTED:          0 ISSUED:          0 USEFUL:          0 USELESS:          0
cpu0->cpu0_L2C AVERAGE MISS LATENCY: 186.5 cycles
cpu0->cpu0_L1I TOTAL        ACCESS:   22984961 HIT:   13550048 MISS:    9434913 MSHR_MERGE:    2329457
cpu0->cpu0_L1I LOAD         ACCESS:   22984961 HIT:   13550048 MISS:    9434913 MSHR_MERGE:    2329457
cpu0->cpu0_L1I RFO          ACCESS:          0 HIT:          0 MISS:          0 MSHR_MERGE:          0
cpu0->cpu0_L1I PREFETCH     ACCESS:          0 HIT:          0 MISS:          0 MSHR_MERGE:          0
cpu0->cpu0_L1I WRITE        ACCESS:          0 HIT:          0 MISS:          0 MSHR_MERGE:          0
cpu0->cpu0_L1I TRANSLATION  ACCESS:          0 HIT:          0 MISS:          0 MSHR_MERGE:          0
cpu0->cpu0_L1I PREFETCH REQUESTED:          0 ISSUED:          0 USEFUL:          0 USELESS:          0
cpu0->cpu0_L1I AVERAGE MISS LATENCY: 31.66 cycles
cpu0->cpu0_L1D TOTAL        ACCESS:   64318672 HIT:   55428679 MISS:    8889993 MSHR_MERGE:    3013169
cpu0->cpu0_L1D LOAD         ACCESS:   34815989 HIT:   31406982 MISS:    3409007 MSHR_MERGE:     768783
cpu0->cpu0_L1D RFO          ACCESS:          0 HIT:          0 MISS:          0 MSHR_MERGE:          0
cpu0->cpu0_L1D PREFETCH     ACCESS:    2162377 HIT:     882378 MISS:    1279999 MSHR_MERGE:      63457
cpu0->cpu0_L1D WRITE        ACCESS:   24946722 HIT:   21780723 MISS:    3165999 MSHR_MERGE:    2173837
cpu0->cpu0_L1D TRANSLATION  ACCESS:    2393584 HIT:    1358596 MISS:    1034988 MSHR_MERGE:       7092
cpu0->cpu0_L1D PREFETCH REQUESTED:    2430157 ISSUED:    2162376 USEFUL:     333228 USELESS:     883294
cpu0->cpu0_L1D AVERAGE MISS LATENCY: 86.66 cycles
cpu0->cpu0_ITLB TOTAL        ACCESS:   18725511 HIT:   17718540 MISS:    1006971 MSHR_MERGE:     473614
cpu0->cpu0_ITLB LOAD         ACCESS:   18725511 HIT:   17718540 MISS:    1006971 MSHR_MERGE:     473614
cpu0->cpu0_ITLB RFO          ACCESS:          0 HIT:          0 MISS:          0 MSHR_MERGE:          0
cpu0->cpu0_ITLB PREFETCH     ACCESS:          0 HIT:          0 MISS:          0 MSHR_MERGE:          0
cpu0->cpu0_ITLB WRITE        ACCESS:          0 HIT:          0 MISS:          0 MSHR_MERGE:          0
cpu0->cpu0_ITLB TRANSLATION  ACCESS:          0 HIT:          0 MISS:          0 MSHR_MERGE:          0
cpu0->cpu0_ITLB PREFETCH REQUESTED:          0 ISSUED:          0 USEFUL:          0 USELESS:          0
cpu0->cpu0_ITLB AVERAGE MISS LATENCY: 17.59 cycles
cpu0->cpu0_DTLB TOTAL        ACCESS:   59304950 HIT:   54789171 MISS:    4515779 MSHR_MERGE:    1655994
cpu0->cpu0_DTLB LOAD         ACCESS:   59304950 HIT:   54789171 MISS:    4515779 MSHR_MERGE:    1655994
cpu0->cpu0_DTLB RFO          ACCESS:          0 HIT:          0 MISS:          0 MSHR_MERGE:          0
cpu0->cpu0_DTLB PREFETCH     ACCESS:          0 HIT:          0 MISS:          0 MSHR_MERGE:          0
cpu0->cpu0_DTLB WRITE        ACCESS:          0 HIT:          0 MISS:          0 MSHR_MERGE:          0
cpu0->cpu0_DTLB TRANSLATION  ACCESS:          0 HIT:          0 MISS:          0 MSHR_MERGE:          0
cpu0->cpu0_DTLB PREFETCH REQUESTED:          0 ISSUED:          0 USEFUL:          0 USELESS:          0
cpu0->cpu0_DTLB AVERAGE MISS LATENCY: 41.58 cycles
cpu0->LLC TOTAL        ACCESS:    4541108 HIT:    1373598 MISS:    3167510 MSHR_MERGE:          0
cpu0->LLC LOAD         ACCESS:    2050522 HIT:     574915 MISS:    1475607 MSHR_MERGE:          0
cpu0->LLC RFO          ACCESS:     449089 HIT:      33107 MISS:     415982 MSHR_MERGE:          0
cpu0->LLC PREFETCH     ACCESS:     730898 HIT:      61605 MISS:     669293 MSHR_MERGE:          0
cpu0->LLC WRITE        ACCESS:     932208 HIT:     602666 MISS:     329542 MSHR_MERGE:          0
cpu0->LLC TRANSLATION  ACCESS:     378391 HIT:     101305 MISS:     277086 MSHR_MERGE:          0
cpu0->LLC PREFETCH REQUESTED:          0 ISSUED:          0 USEFUL:          0 USELESS:          0
cpu0->LLC AVERAGE MISS LATENCY: 190.9 cycles

DRAM Statistics

Channel 0 RQ ROW_BUFFER_HIT:      17183
  ROW_BUFFER_MISS:    2820745
  AVG DBUS CONGESTED CYCLE: 28.36
Channel 0 WQ ROW_BUFFER_HIT:     238027
  ROW_BUFFER_MISS:     617016
  FULL:          0
Channel 0 REFRESHES ISSUED:      38255
