[VMEM] WARNING: physical memory size is smaller than virtual memory size.
Berti Gaze Initialized with Sets: 64 Ways: 12

*** ChampSim Multicore Out-of-Order Simulator ***
Warmup Instructions: 50000000
Simulation Instructions: 200000000
Number of CPUs: 1
Page size: 4096
Core 0: /local-ssd/ben/dpc4-traces/ai-ml/whisper_trace_2.champsimtrace.gz
Off-chip DRAM Size: 64 GiB Channels: 1 Width: 64-bit Data Rate: 4807 MT/s
Heartbeat CPU 0 instructions: 500006 cycles: 138196 heartbeat IPC: 3.618 cumulative IPC: 3.618 (Simulation time: 00 hr 00 min 05 sec)
Heartbeat CPU 0 instructions: 1000012 cycles: 270752 heartbeat IPC: 3.772 cumulative IPC: 3.693 (Simulation time: 00 hr 00 min 09 sec)
Heartbeat CPU 0 instructions: 1500015 cycles: 404647 heartbeat IPC: 3.734 cumulative IPC: 3.707 (Simulation time: 00 hr 00 min 12 sec)
Heartbeat CPU 0 instructions: 2000016 cycles: 537261 heartbeat IPC: 3.77 cumulative IPC: 3.723 (Simulation time: 00 hr 00 min 15 sec)
Heartbeat CPU 0 instructions: 2500016 cycles: 669325 heartbeat IPC: 3.786 cumulative IPC: 3.735 (Simulation time: 00 hr 00 min 18 sec)
Heartbeat CPU 0 instructions: 3000017 cycles: 801823 heartbeat IPC: 3.774 cumulative IPC: 3.741 (Simulation time: 00 hr 00 min 20 sec)
Heartbeat CPU 0 instructions: 3500022 cycles: 934306 heartbeat IPC: 3.774 cumulative IPC: 3.746 (Simulation time: 00 hr 00 min 23 sec)
Heartbeat CPU 0 instructions: 4000023 cycles: 1066610 heartbeat IPC: 3.779 cumulative IPC: 3.75 (Simulation time: 00 hr 00 min 26 sec)
Heartbeat CPU 0 instructions: 4500024 cycles: 1199006 heartbeat IPC: 3.777 cumulative IPC: 3.753 (Simulation time: 00 hr 00 min 28 sec)
Heartbeat CPU 0 instructions: 5000027 cycles: 1332944 heartbeat IPC: 3.733 cumulative IPC: 3.751 (Simulation time: 00 hr 00 min 31 sec)
Heartbeat CPU 0 instructions: 5500027 cycles: 1465440 heartbeat IPC: 3.774 cumulative IPC: 3.753 (Simulation time: 00 hr 00 min 34 sec)
Heartbeat CPU 0 instructions: 6000030 cycles: 1597800 heartbeat IPC: 3.778 cumulative IPC: 3.755 (Simulation time: 00 hr 00 min 37 sec)
Heartbeat CPU 0 instructions: 6500033 cycles: 1730050 heartbeat IPC: 3.781 cumulative IPC: 3.757 (Simulation time: 00 hr 00 min 39 sec)
Heartbeat CPU 0 instructions: 7000034 cycles: 1862690 heartbeat IPC: 3.77 cumulative IPC: 3.758 (Simulation time: 00 hr 00 min 42 sec)
Heartbeat CPU 0 instructions: 7500037 cycles: 1995208 heartbeat IPC: 3.773 cumulative IPC: 3.759 (Simulation time: 00 hr 00 min 45 sec)
Heartbeat CPU 0 instructions: 8000040 cycles: 2127778 heartbeat IPC: 3.772 cumulative IPC: 3.76 (Simulation time: 00 hr 00 min 48 sec)
Heartbeat CPU 0 instructions: 8500043 cycles: 2262736 heartbeat IPC: 3.705 cumulative IPC: 3.757 (Simulation time: 00 hr 00 min 50 sec)
Heartbeat CPU 0 instructions: 9000049 cycles: 2395803 heartbeat IPC: 3.758 cumulative IPC: 3.757 (Simulation time: 00 hr 00 min 53 sec)
Heartbeat CPU 0 instructions: 9500050 cycles: 2527815 heartbeat IPC: 3.788 cumulative IPC: 3.758 (Simulation time: 00 hr 00 min 56 sec)
Heartbeat CPU 0 instructions: 10000053 cycles: 2660361 heartbeat IPC: 3.772 cumulative IPC: 3.759 (Simulation time: 00 hr 00 min 59 sec)
Heartbeat CPU 0 instructions: 10500053 cycles: 2792473 heartbeat IPC: 3.785 cumulative IPC: 3.76 (Simulation time: 00 hr 01 min 01 sec)
Heartbeat CPU 0 instructions: 11000059 cycles: 2924892 heartbeat IPC: 3.776 cumulative IPC: 3.761 (Simulation time: 00 hr 01 min 04 sec)
Heartbeat CPU 0 instructions: 11500062 cycles: 3057201 heartbeat IPC: 3.779 cumulative IPC: 3.762 (Simulation time: 00 hr 01 min 07 sec)
Heartbeat CPU 0 instructions: 12000062 cycles: 3189531 heartbeat IPC: 3.778 cumulative IPC: 3.762 (Simulation time: 00 hr 01 min 09 sec)
Heartbeat CPU 0 instructions: 12500065 cycles: 3323421 heartbeat IPC: 3.734 cumulative IPC: 3.761 (Simulation time: 00 hr 01 min 12 sec)
Heartbeat CPU 0 instructions: 13000072 cycles: 3455765 heartbeat IPC: 3.778 cumulative IPC: 3.762 (Simulation time: 00 hr 01 min 15 sec)
Heartbeat CPU 0 instructions: 13500073 cycles: 3588423 heartbeat IPC: 3.769 cumulative IPC: 3.762 (Simulation time: 00 hr 01 min 18 sec)
Heartbeat CPU 0 instructions: 14000078 cycles: 3720726 heartbeat IPC: 3.779 cumulative IPC: 3.763 (Simulation time: 00 hr 01 min 20 sec)
Heartbeat CPU 0 instructions: 14500078 cycles: 3853257 heartbeat IPC: 3.773 cumulative IPC: 3.763 (Simulation time: 00 hr 01 min 23 sec)
Heartbeat CPU 0 instructions: 15000081 cycles: 3985528 heartbeat IPC: 3.78 cumulative IPC: 3.764 (Simulation time: 00 hr 01 min 26 sec)
Heartbeat CPU 0 instructions: 15500082 cycles: 4117832 heartbeat IPC: 3.779 cumulative IPC: 3.764 (Simulation time: 00 hr 01 min 29 sec)
Heartbeat CPU 0 instructions: 16000085 cycles: 4251664 heartbeat IPC: 3.736 cumulative IPC: 3.763 (Simulation time: 00 hr 01 min 31 sec)
Heartbeat CPU 0 instructions: 16500091 cycles: 4384304 heartbeat IPC: 3.77 cumulative IPC: 3.763 (Simulation time: 00 hr 01 min 34 sec)
Heartbeat CPU 0 instructions: 17000091 cycles: 4516463 heartbeat IPC: 3.783 cumulative IPC: 3.764 (Simulation time: 00 hr 01 min 37 sec)
Heartbeat CPU 0 instructions: 17500094 cycles: 4648668 heartbeat IPC: 3.782 cumulative IPC: 3.765 (Simulation time: 00 hr 01 min 40 sec)
Heartbeat CPU 0 instructions: 18000095 cycles: 4780761 heartbeat IPC: 3.785 cumulative IPC: 3.765 (Simulation time: 00 hr 01 min 42 sec)
Heartbeat CPU 0 instructions: 18500098 cycles: 4913319 heartbeat IPC: 3.772 cumulative IPC: 3.765 (Simulation time: 00 hr 01 min 45 sec)
Heartbeat CPU 0 instructions: 19000100 cycles: 5045650 heartbeat IPC: 3.778 cumulative IPC: 3.766 (Simulation time: 00 hr 01 min 48 sec)
Heartbeat CPU 0 instructions: 19500104 cycles: 5179120 heartbeat IPC: 3.746 cumulative IPC: 3.765 (Simulation time: 00 hr 01 min 51 sec)
Heartbeat CPU 0 instructions: 20000110 cycles: 5311993 heartbeat IPC: 3.763 cumulative IPC: 3.765 (Simulation time: 00 hr 01 min 53 sec)
Heartbeat CPU 0 instructions: 20500116 cycles: 5444086 heartbeat IPC: 3.785 cumulative IPC: 3.766 (Simulation time: 00 hr 01 min 56 sec)
Heartbeat CPU 0 instructions: 21000122 cycles: 5576335 heartbeat IPC: 3.781 cumulative IPC: 3.766 (Simulation time: 00 hr 01 min 59 sec)
Heartbeat CPU 0 instructions: 21500125 cycles: 5708579 heartbeat IPC: 3.781 cumulative IPC: 3.766 (Simulation time: 00 hr 02 min 02 sec)
Heartbeat CPU 0 instructions: 22000128 cycles: 5840994 heartbeat IPC: 3.776 cumulative IPC: 3.767 (Simulation time: 00 hr 02 min 06 sec)
Heartbeat CPU 0 instructions: 22500131 cycles: 5973267 heartbeat IPC: 3.78 cumulative IPC: 3.767 (Simulation time: 00 hr 02 min 09 sec)
Heartbeat CPU 0 instructions: 23000134 cycles: 6105647 heartbeat IPC: 3.777 cumulative IPC: 3.767 (Simulation time: 00 hr 02 min 12 sec)
Heartbeat CPU 0 instructions: 23500135 cycles: 6239446 heartbeat IPC: 3.737 cumulative IPC: 3.766 (Simulation time: 00 hr 02 min 14 sec)
Heartbeat CPU 0 instructions: 24000141 cycles: 6371865 heartbeat IPC: 3.776 cumulative IPC: 3.767 (Simulation time: 00 hr 02 min 17 sec)
Heartbeat CPU 0 instructions: 24500144 cycles: 6504092 heartbeat IPC: 3.781 cumulative IPC: 3.767 (Simulation time: 00 hr 02 min 20 sec)
Heartbeat CPU 0 instructions: 25000151 cycles: 6636329 heartbeat IPC: 3.781 cumulative IPC: 3.767 (Simulation time: 00 hr 02 min 23 sec)
Heartbeat CPU 0 instructions: 25500153 cycles: 6768523 heartbeat IPC: 3.782 cumulative IPC: 3.767 (Simulation time: 00 hr 02 min 25 sec)
Heartbeat CPU 0 instructions: 26000156 cycles: 6900445 heartbeat IPC: 3.79 cumulative IPC: 3.768 (Simulation time: 00 hr 02 min 28 sec)
Heartbeat CPU 0 instructions: 26500163 cycles: 7032863 heartbeat IPC: 3.776 cumulative IPC: 3.768 (Simulation time: 00 hr 02 min 31 sec)
Heartbeat CPU 0 instructions: 27000165 cycles: 7166834 heartbeat IPC: 3.732 cumulative IPC: 3.767 (Simulation time: 00 hr 02 min 34 sec)
Heartbeat CPU 0 instructions: 27500171 cycles: 7299296 heartbeat IPC: 3.775 cumulative IPC: 3.768 (Simulation time: 00 hr 02 min 36 sec)
Heartbeat CPU 0 instructions: 28000171 cycles: 7431524 heartbeat IPC: 3.781 cumulative IPC: 3.768 (Simulation time: 00 hr 02 min 39 sec)
Heartbeat CPU 0 instructions: 28500174 cycles: 7563831 heartbeat IPC: 3.779 cumulative IPC: 3.768 (Simulation time: 00 hr 02 min 42 sec)
Heartbeat CPU 0 instructions: 29000174 cycles: 7696172 heartbeat IPC: 3.778 cumulative IPC: 3.768 (Simulation time: 00 hr 02 min 45 sec)
Heartbeat CPU 0 instructions: 29500178 cycles: 7828711 heartbeat IPC: 3.773 cumulative IPC: 3.768 (Simulation time: 00 hr 02 min 47 sec)
Heartbeat CPU 0 instructions: 30000181 cycles: 7961070 heartbeat IPC: 3.778 cumulative IPC: 3.768 (Simulation time: 00 hr 02 min 50 sec)
Heartbeat CPU 0 instructions: 30500187 cycles: 8094413 heartbeat IPC: 3.75 cumulative IPC: 3.768 (Simulation time: 00 hr 02 min 53 sec)
Heartbeat CPU 0 instructions: 31000187 cycles: 8227017 heartbeat IPC: 3.771 cumulative IPC: 3.768 (Simulation time: 00 hr 02 min 56 sec)
Heartbeat CPU 0 instructions: 31500192 cycles: 8351079 heartbeat IPC: 4.03 cumulative IPC: 3.772 (Simulation time: 00 hr 02 min 58 sec)
Heartbeat CPU 0 instructions: 32000192 cycles: 8475571 heartbeat IPC: 4.016 cumulative IPC: 3.776 (Simulation time: 00 hr 03 min 01 sec)
Heartbeat CPU 0 instructions: 32500194 cycles: 8599916 heartbeat IPC: 4.021 cumulative IPC: 3.779 (Simulation time: 00 hr 03 min 04 sec)
Heartbeat CPU 0 instructions: 33000197 cycles: 8723922 heartbeat IPC: 4.032 cumulative IPC: 3.783 (Simulation time: 00 hr 03 min 06 sec)
Heartbeat CPU 0 instructions: 33500203 cycles: 8848024 heartbeat IPC: 4.029 cumulative IPC: 3.786 (Simulation time: 00 hr 03 min 09 sec)
Heartbeat CPU 0 instructions: 34000209 cycles: 8971904 heartbeat IPC: 4.036 cumulative IPC: 3.79 (Simulation time: 00 hr 03 min 13 sec)
Heartbeat CPU 0 instructions: 34500215 cycles: 9096165 heartbeat IPC: 4.024 cumulative IPC: 3.793 (Simulation time: 00 hr 03 min 17 sec)
Heartbeat CPU 0 instructions: 35000218 cycles: 9220538 heartbeat IPC: 4.02 cumulative IPC: 3.796 (Simulation time: 00 hr 03 min 21 sec)
Heartbeat CPU 0 instructions: 35500221 cycles: 9344605 heartbeat IPC: 4.03 cumulative IPC: 3.799 (Simulation time: 00 hr 03 min 25 sec)
Heartbeat CPU 0 instructions: 36000227 cycles: 9468587 heartbeat IPC: 4.033 cumulative IPC: 3.802 (Simulation time: 00 hr 03 min 29 sec)
Heartbeat CPU 0 instructions: 36500227 cycles: 9592767 heartbeat IPC: 4.026 cumulative IPC: 3.805 (Simulation time: 00 hr 03 min 33 sec)
Heartbeat CPU 0 instructions: 37000228 cycles: 9716972 heartbeat IPC: 4.026 cumulative IPC: 3.808 (Simulation time: 00 hr 03 min 36 sec)
Heartbeat CPU 0 instructions: 37500231 cycles: 9841040 heartbeat IPC: 4.03 cumulative IPC: 3.811 (Simulation time: 00 hr 03 min 38 sec)
Heartbeat CPU 0 instructions: 38000237 cycles: 9965280 heartbeat IPC: 4.025 cumulative IPC: 3.813 (Simulation time: 00 hr 03 min 41 sec)
Heartbeat CPU 0 instructions: 38500237 cycles: 10089273 heartbeat IPC: 4.032 cumulative IPC: 3.816 (Simulation time: 00 hr 03 min 44 sec)
Heartbeat CPU 0 instructions: 39000239 cycles: 10213444 heartbeat IPC: 4.027 cumulative IPC: 3.819 (Simulation time: 00 hr 03 min 46 sec)
Heartbeat CPU 0 instructions: 39500243 cycles: 10338271 heartbeat IPC: 4.006 cumulative IPC: 3.821 (Simulation time: 00 hr 03 min 49 sec)
Heartbeat CPU 0 instructions: 40000247 cycles: 10463266 heartbeat IPC: 4 cumulative IPC: 3.823 (Simulation time: 00 hr 03 min 52 sec)
Heartbeat CPU 0 instructions: 40500247 cycles: 10587392 heartbeat IPC: 4.028 cumulative IPC: 3.825 (Simulation time: 00 hr 03 min 54 sec)
Heartbeat CPU 0 instructions: 41000250 cycles: 10711445 heartbeat IPC: 4.031 cumulative IPC: 3.828 (Simulation time: 00 hr 03 min 57 sec)
Heartbeat CPU 0 instructions: 41500255 cycles: 10835239 heartbeat IPC: 4.039 cumulative IPC: 3.83 (Simulation time: 00 hr 03 min 59 sec)
Heartbeat CPU 0 instructions: 42000259 cycles: 10959466 heartbeat IPC: 4.025 cumulative IPC: 3.832 (Simulation time: 00 hr 04 min 02 sec)
Heartbeat CPU 0 instructions: 42500265 cycles: 11083570 heartbeat IPC: 4.029 cumulative IPC: 3.835 (Simulation time: 00 hr 04 min 05 sec)
Heartbeat CPU 0 instructions: 43000266 cycles: 11207770 heartbeat IPC: 4.026 cumulative IPC: 3.837 (Simulation time: 00 hr 04 min 07 sec)
Heartbeat CPU 0 instructions: 43500266 cycles: 11331838 heartbeat IPC: 4.03 cumulative IPC: 3.839 (Simulation time: 00 hr 04 min 10 sec)
Heartbeat CPU 0 instructions: 44000272 cycles: 11456361 heartbeat IPC: 4.015 cumulative IPC: 3.841 (Simulation time: 00 hr 04 min 13 sec)
Heartbeat CPU 0 instructions: 44500272 cycles: 11580395 heartbeat IPC: 4.031 cumulative IPC: 3.843 (Simulation time: 00 hr 04 min 15 sec)
Heartbeat CPU 0 instructions: 45000278 cycles: 11704535 heartbeat IPC: 4.028 cumulative IPC: 3.845 (Simulation time: 00 hr 04 min 18 sec)
Heartbeat CPU 0 instructions: 45500279 cycles: 11828552 heartbeat IPC: 4.032 cumulative IPC: 3.847 (Simulation time: 00 hr 04 min 20 sec)
Heartbeat CPU 0 instructions: 46000285 cycles: 11952625 heartbeat IPC: 4.03 cumulative IPC: 3.849 (Simulation time: 00 hr 04 min 23 sec)
Heartbeat CPU 0 instructions: 46500288 cycles: 12076866 heartbeat IPC: 4.024 cumulative IPC: 3.85 (Simulation time: 00 hr 04 min 26 sec)
Heartbeat CPU 0 instructions: 47000293 cycles: 12200961 heartbeat IPC: 4.029 cumulative IPC: 3.852 (Simulation time: 00 hr 04 min 28 sec)
Heartbeat CPU 0 instructions: 47500299 cycles: 12325124 heartbeat IPC: 4.027 cumulative IPC: 3.854 (Simulation time: 00 hr 04 min 31 sec)
Heartbeat CPU 0 instructions: 48000300 cycles: 12449293 heartbeat IPC: 4.027 cumulative IPC: 3.856 (Simulation time: 00 hr 04 min 34 sec)
Heartbeat CPU 0 instructions: 48500304 cycles: 12573403 heartbeat IPC: 4.029 cumulative IPC: 3.857 (Simulation time: 00 hr 04 min 36 sec)
Heartbeat CPU 0 instructions: 49000304 cycles: 12697516 heartbeat IPC: 4.029 cumulative IPC: 3.859 (Simulation time: 00 hr 04 min 39 sec)
Heartbeat CPU 0 instructions: 49500305 cycles: 12821407 heartbeat IPC: 4.036 cumulative IPC: 3.861 (Simulation time: 00 hr 04 min 42 sec)
Warmup halting CPU 0 at instruction 50000004 cycle 12945546 for remainder of phase
Warmup finished CPU 0 instructions: 50000004 cycles: 12945546 cumulative IPC: 3.862 (Simulation time: 00 hr 04 min 44 sec)
Warmup complete CPU 0 instructions: 50000004 cycles: 12945546 cumulative IPC: 3.862 (Simulation time: 00 hr 04 min 44 sec)
Heartbeat CPU 0 instructions: 50000308 cycles: 12945584 heartbeat IPC: 4.027 cumulative IPC: 8 (Simulation time: 00 hr 04 min 44 sec)
Heartbeat CPU 0 instructions: 50500313 cycles: 13111771 heartbeat IPC: 3.009 cumulative IPC: 3.01 (Simulation time: 00 hr 04 min 47 sec)
Heartbeat CPU 0 instructions: 51000316 cycles: 13278832 heartbeat IPC: 2.993 cumulative IPC: 3.001 (Simulation time: 00 hr 04 min 49 sec)
Heartbeat CPU 0 instructions: 51500321 cycles: 13445876 heartbeat IPC: 2.993 cumulative IPC: 2.999 (Simulation time: 00 hr 04 min 52 sec)
Heartbeat CPU 0 instructions: 52000328 cycles: 13613037 heartbeat IPC: 2.991 cumulative IPC: 2.997 (Simulation time: 00 hr 04 min 55 sec)
Heartbeat CPU 0 instructions: 52500328 cycles: 13784419 heartbeat IPC: 2.917 cumulative IPC: 2.981 (Simulation time: 00 hr 04 min 57 sec)
Heartbeat CPU 0 instructions: 53000331 cycles: 13953103 heartbeat IPC: 2.964 cumulative IPC: 2.978 (Simulation time: 00 hr 05 min 00 sec)
Heartbeat CPU 0 instructions: 53500338 cycles: 14121361 heartbeat IPC: 2.972 cumulative IPC: 2.977 (Simulation time: 00 hr 05 min 03 sec)
Heartbeat CPU 0 instructions: 54000343 cycles: 14287062 heartbeat IPC: 3.018 cumulative IPC: 2.982 (Simulation time: 00 hr 05 min 05 sec)
Heartbeat CPU 0 instructions: 54500344 cycles: 14454817 heartbeat IPC: 2.981 cumulative IPC: 2.982 (Simulation time: 00 hr 05 min 08 sec)
Heartbeat CPU 0 instructions: 55000349 cycles: 14621592 heartbeat IPC: 2.998 cumulative IPC: 2.983 (Simulation time: 00 hr 05 min 11 sec)
Heartbeat CPU 0 instructions: 55500349 cycles: 14789818 heartbeat IPC: 2.972 cumulative IPC: 2.982 (Simulation time: 00 hr 05 min 13 sec)
Heartbeat CPU 0 instructions: 56000353 cycles: 14958976 heartbeat IPC: 2.956 cumulative IPC: 2.98 (Simulation time: 00 hr 05 min 16 sec)
Heartbeat CPU 0 instructions: 56500357 cycles: 15132566 heartbeat IPC: 2.88 cumulative IPC: 2.972 (Simulation time: 00 hr 05 min 19 sec)
Heartbeat CPU 0 instructions: 57000357 cycles: 15301443 heartbeat IPC: 2.961 cumulative IPC: 2.971 (Simulation time: 00 hr 05 min 21 sec)
Heartbeat CPU 0 instructions: 57500360 cycles: 15469127 heartbeat IPC: 2.982 cumulative IPC: 2.972 (Simulation time: 00 hr 05 min 24 sec)
Heartbeat CPU 0 instructions: 58000363 cycles: 15636341 heartbeat IPC: 2.99 cumulative IPC: 2.973 (Simulation time: 00 hr 05 min 27 sec)
Heartbeat CPU 0 instructions: 58500366 cycles: 15804968 heartbeat IPC: 2.965 cumulative IPC: 2.973 (Simulation time: 00 hr 05 min 29 sec)
Heartbeat CPU 0 instructions: 59000366 cycles: 15973978 heartbeat IPC: 2.958 cumulative IPC: 2.972 (Simulation time: 00 hr 05 min 32 sec)
Heartbeat CPU 0 instructions: 59500369 cycles: 16141707 heartbeat IPC: 2.981 cumulative IPC: 2.972 (Simulation time: 00 hr 05 min 35 sec)
Heartbeat CPU 0 instructions: 60000370 cycles: 16314496 heartbeat IPC: 2.894 cumulative IPC: 2.968 (Simulation time: 00 hr 05 min 37 sec)
Heartbeat CPU 0 instructions: 60500371 cycles: 16481236 heartbeat IPC: 2.999 cumulative IPC: 2.97 (Simulation time: 00 hr 05 min 40 sec)
Heartbeat CPU 0 instructions: 61000374 cycles: 16648475 heartbeat IPC: 2.99 cumulative IPC: 2.971 (Simulation time: 00 hr 05 min 42 sec)
Heartbeat CPU 0 instructions: 61500375 cycles: 16817616 heartbeat IPC: 2.956 cumulative IPC: 2.97 (Simulation time: 00 hr 05 min 45 sec)
Heartbeat CPU 0 instructions: 62000378 cycles: 16986653 heartbeat IPC: 2.958 cumulative IPC: 2.97 (Simulation time: 00 hr 05 min 48 sec)
Heartbeat CPU 0 instructions: 62500385 cycles: 17154049 heartbeat IPC: 2.987 cumulative IPC: 2.97 (Simulation time: 00 hr 05 min 50 sec)
Heartbeat CPU 0 instructions: 63000386 cycles: 17322027 heartbeat IPC: 2.977 cumulative IPC: 2.971 (Simulation time: 00 hr 05 min 53 sec)
Heartbeat CPU 0 instructions: 63500389 cycles: 17493603 heartbeat IPC: 2.914 cumulative IPC: 2.968 (Simulation time: 00 hr 05 min 56 sec)
Heartbeat CPU 0 instructions: 64000394 cycles: 17663195 heartbeat IPC: 2.948 cumulative IPC: 2.968 (Simulation time: 00 hr 05 min 58 sec)
Heartbeat CPU 0 instructions: 64500397 cycles: 17832113 heartbeat IPC: 2.96 cumulative IPC: 2.967 (Simulation time: 00 hr 06 min 01 sec)
Heartbeat CPU 0 instructions: 65000398 cycles: 17999715 heartbeat IPC: 2.983 cumulative IPC: 2.968 (Simulation time: 00 hr 06 min 04 sec)
Heartbeat CPU 0 instructions: 65500399 cycles: 18167407 heartbeat IPC: 2.982 cumulative IPC: 2.968 (Simulation time: 00 hr 06 min 06 sec)
Heartbeat CPU 0 instructions: 66000400 cycles: 18336109 heartbeat IPC: 2.964 cumulative IPC: 2.968 (Simulation time: 00 hr 06 min 09 sec)
Heartbeat CPU 0 instructions: 66500403 cycles: 18505335 heartbeat IPC: 2.955 cumulative IPC: 2.968 (Simulation time: 00 hr 06 min 12 sec)
Heartbeat CPU 0 instructions: 67000407 cycles: 18673081 heartbeat IPC: 2.981 cumulative IPC: 2.968 (Simulation time: 00 hr 06 min 14 sec)
Heartbeat CPU 0 instructions: 67500412 cycles: 18848260 heartbeat IPC: 2.854 cumulative IPC: 2.965 (Simulation time: 00 hr 06 min 17 sec)
Heartbeat CPU 0 instructions: 68000413 cycles: 19016947 heartbeat IPC: 2.964 cumulative IPC: 2.965 (Simulation time: 00 hr 06 min 20 sec)
Heartbeat CPU 0 instructions: 68500418 cycles: 19184877 heartbeat IPC: 2.977 cumulative IPC: 2.965 (Simulation time: 00 hr 06 min 22 sec)
Heartbeat CPU 0 instructions: 69000421 cycles: 19353692 heartbeat IPC: 2.962 cumulative IPC: 2.965 (Simulation time: 00 hr 06 min 25 sec)
Heartbeat CPU 0 instructions: 69500422 cycles: 19523295 heartbeat IPC: 2.948 cumulative IPC: 2.965 (Simulation time: 00 hr 06 min 28 sec)
Heartbeat CPU 0 instructions: 70000427 cycles: 19692107 heartbeat IPC: 2.962 cumulative IPC: 2.965 (Simulation time: 00 hr 06 min 30 sec)
Heartbeat CPU 0 instructions: 70500428 cycles: 19860306 heartbeat IPC: 2.973 cumulative IPC: 2.965 (Simulation time: 00 hr 06 min 33 sec)
Heartbeat CPU 0 instructions: 71000428 cycles: 20043893 heartbeat IPC: 2.724 cumulative IPC: 2.958 (Simulation time: 00 hr 06 min 36 sec)
Heartbeat CPU 0 instructions: 71500434 cycles: 20211848 heartbeat IPC: 2.977 cumulative IPC: 2.959 (Simulation time: 00 hr 06 min 39 sec)
Heartbeat CPU 0 instructions: 72000437 cycles: 20380998 heartbeat IPC: 2.956 cumulative IPC: 2.959 (Simulation time: 00 hr 06 min 41 sec)
Heartbeat CPU 0 instructions: 72500442 cycles: 20549966 heartbeat IPC: 2.959 cumulative IPC: 2.959 (Simulation time: 00 hr 06 min 44 sec)
Heartbeat CPU 0 instructions: 73000445 cycles: 20717345 heartbeat IPC: 2.987 cumulative IPC: 2.959 (Simulation time: 00 hr 06 min 47 sec)
Heartbeat CPU 0 instructions: 73500445 cycles: 20884884 heartbeat IPC: 2.984 cumulative IPC: 2.96 (Simulation time: 00 hr 06 min 49 sec)
Heartbeat CPU 0 instructions: 74000445 cycles: 21054145 heartbeat IPC: 2.954 cumulative IPC: 2.96 (Simulation time: 00 hr 06 min 52 sec)
Heartbeat CPU 0 instructions: 74500451 cycles: 21226160 heartbeat IPC: 2.907 cumulative IPC: 2.959 (Simulation time: 00 hr 06 min 55 sec)
Heartbeat CPU 0 instructions: 75000458 cycles: 21395352 heartbeat IPC: 2.955 cumulative IPC: 2.959 (Simulation time: 00 hr 06 min 57 sec)
Heartbeat CPU 0 instructions: 75500463 cycles: 21562918 heartbeat IPC: 2.984 cumulative IPC: 2.959 (Simulation time: 00 hr 07 min 00 sec)
Heartbeat CPU 0 instructions: 76000466 cycles: 21730345 heartbeat IPC: 2.986 cumulative IPC: 2.96 (Simulation time: 00 hr 07 min 03 sec)
Heartbeat CPU 0 instructions: 76500469 cycles: 21899088 heartbeat IPC: 2.963 cumulative IPC: 2.96 (Simulation time: 00 hr 07 min 05 sec)
Heartbeat CPU 0 instructions: 77000472 cycles: 22067756 heartbeat IPC: 2.964 cumulative IPC: 2.96 (Simulation time: 00 hr 07 min 08 sec)
Heartbeat CPU 0 instructions: 77500479 cycles: 22234297 heartbeat IPC: 3.002 cumulative IPC: 2.961 (Simulation time: 00 hr 07 min 11 sec)
Heartbeat CPU 0 instructions: 78000482 cycles: 22402853 heartbeat IPC: 2.966 cumulative IPC: 2.961 (Simulation time: 00 hr 07 min 13 sec)
Heartbeat CPU 0 instructions: 78500485 cycles: 22574374 heartbeat IPC: 2.915 cumulative IPC: 2.96 (Simulation time: 00 hr 07 min 16 sec)
Heartbeat CPU 0 instructions: 79000492 cycles: 22740952 heartbeat IPC: 3.002 cumulative IPC: 2.961 (Simulation time: 00 hr 07 min 18 sec)
Heartbeat CPU 0 instructions: 79500493 cycles: 22908569 heartbeat IPC: 2.983 cumulative IPC: 2.961 (Simulation time: 00 hr 07 min 21 sec)
Heartbeat CPU 0 instructions: 80000500 cycles: 23074586 heartbeat IPC: 3.012 cumulative IPC: 2.962 (Simulation time: 00 hr 07 min 24 sec)
Heartbeat CPU 0 instructions: 80500505 cycles: 23241954 heartbeat IPC: 2.987 cumulative IPC: 2.962 (Simulation time: 00 hr 07 min 26 sec)
Heartbeat CPU 0 instructions: 81000508 cycles: 23407577 heartbeat IPC: 3.019 cumulative IPC: 2.963 (Simulation time: 00 hr 07 min 29 sec)
Heartbeat CPU 0 instructions: 81500510 cycles: 23574641 heartbeat IPC: 2.993 cumulative IPC: 2.964 (Simulation time: 00 hr 07 min 32 sec)
Heartbeat CPU 0 instructions: 82000511 cycles: 23745741 heartbeat IPC: 2.922 cumulative IPC: 2.963 (Simulation time: 00 hr 07 min 34 sec)
Heartbeat CPU 0 instructions: 82500512 cycles: 23913513 heartbeat IPC: 2.98 cumulative IPC: 2.963 (Simulation time: 00 hr 07 min 37 sec)
Heartbeat CPU 0 instructions: 83000515 cycles: 24079636 heartbeat IPC: 3.01 cumulative IPC: 2.964 (Simulation time: 00 hr 07 min 40 sec)
Heartbeat CPU 0 instructions: 83500516 cycles: 24247257 heartbeat IPC: 2.983 cumulative IPC: 2.964 (Simulation time: 00 hr 07 min 42 sec)
Heartbeat CPU 0 instructions: 84000519 cycles: 24415060 heartbeat IPC: 2.98 cumulative IPC: 2.964 (Simulation time: 00 hr 07 min 45 sec)
Heartbeat CPU 0 instructions: 84500522 cycles: 24582265 heartbeat IPC: 2.99 cumulative IPC: 2.965 (Simulation time: 00 hr 07 min 48 sec)
Heartbeat CPU 0 instructions: 85000525 cycles: 24749501 heartbeat IPC: 2.99 cumulative IPC: 2.965 (Simulation time: 00 hr 07 min 50 sec)
Heartbeat CPU 0 instructions: 85500527 cycles: 24919642 heartbeat IPC: 2.939 cumulative IPC: 2.965 (Simulation time: 00 hr 07 min 53 sec)
Heartbeat CPU 0 instructions: 86000531 cycles: 25088783 heartbeat IPC: 2.956 cumulative IPC: 2.965 (Simulation time: 00 hr 07 min 56 sec)
Heartbeat CPU 0 instructions: 86500531 cycles: 25254566 heartbeat IPC: 3.016 cumulative IPC: 2.965 (Simulation time: 00 hr 07 min 58 sec)
Heartbeat CPU 0 instructions: 87000534 cycles: 25421472 heartbeat IPC: 2.996 cumulative IPC: 2.966 (Simulation time: 00 hr 08 min 01 sec)
Heartbeat CPU 0 instructions: 87500535 cycles: 25588435 heartbeat IPC: 2.995 cumulative IPC: 2.966 (Simulation time: 00 hr 08 min 04 sec)
Heartbeat CPU 0 instructions: 88000537 cycles: 25754915 heartbeat IPC: 3.003 cumulative IPC: 2.967 (Simulation time: 00 hr 08 min 06 sec)
Heartbeat CPU 0 instructions: 88500538 cycles: 25921020 heartbeat IPC: 3.01 cumulative IPC: 2.967 (Simulation time: 00 hr 08 min 09 sec)
Heartbeat CPU 0 instructions: 89000540 cycles: 26087442 heartbeat IPC: 3.004 cumulative IPC: 2.968 (Simulation time: 00 hr 08 min 12 sec)
Heartbeat CPU 0 instructions: 89500543 cycles: 26258184 heartbeat IPC: 2.928 cumulative IPC: 2.967 (Simulation time: 00 hr 08 min 14 sec)
Heartbeat CPU 0 instructions: 90000546 cycles: 26424233 heartbeat IPC: 3.011 cumulative IPC: 2.968 (Simulation time: 00 hr 08 min 17 sec)
Heartbeat CPU 0 instructions: 90500549 cycles: 26588734 heartbeat IPC: 3.04 cumulative IPC: 2.969 (Simulation time: 00 hr 08 min 19 sec)
Heartbeat CPU 0 instructions: 91000552 cycles: 26754646 heartbeat IPC: 3.014 cumulative IPC: 2.969 (Simulation time: 00 hr 08 min 22 sec)
Heartbeat CPU 0 instructions: 91500553 cycles: 26917782 heartbeat IPC: 3.065 cumulative IPC: 2.97 (Simulation time: 00 hr 08 min 25 sec)
Heartbeat CPU 0 instructions: 92000556 cycles: 27081631 heartbeat IPC: 3.052 cumulative IPC: 2.971 (Simulation time: 00 hr 08 min 27 sec)
Heartbeat CPU 0 instructions: 92500559 cycles: 27245131 heartbeat IPC: 3.058 cumulative IPC: 2.972 (Simulation time: 00 hr 08 min 30 sec)
Heartbeat CPU 0 instructions: 93000561 cycles: 27413425 heartbeat IPC: 2.971 cumulative IPC: 2.972 (Simulation time: 00 hr 08 min 32 sec)
Heartbeat CPU 0 instructions: 93500564 cycles: 27576914 heartbeat IPC: 3.058 cumulative IPC: 2.973 (Simulation time: 00 hr 08 min 35 sec)
Heartbeat CPU 0 instructions: 94000564 cycles: 27740312 heartbeat IPC: 3.06 cumulative IPC: 2.974 (Simulation time: 00 hr 08 min 38 sec)
Heartbeat CPU 0 instructions: 94500565 cycles: 27906452 heartbeat IPC: 3.01 cumulative IPC: 2.974 (Simulation time: 00 hr 08 min 40 sec)
Heartbeat CPU 0 instructions: 95000566 cycles: 28072239 heartbeat IPC: 3.016 cumulative IPC: 2.975 (Simulation time: 00 hr 08 min 43 sec)
Heartbeat CPU 0 instructions: 95500571 cycles: 28241188 heartbeat IPC: 2.96 cumulative IPC: 2.975 (Simulation time: 00 hr 08 min 46 sec)
Heartbeat CPU 0 instructions: 96000572 cycles: 28409835 heartbeat IPC: 2.965 cumulative IPC: 2.975 (Simulation time: 00 hr 08 min 48 sec)
Heartbeat CPU 0 instructions: 96500575 cycles: 28582329 heartbeat IPC: 2.899 cumulative IPC: 2.974 (Simulation time: 00 hr 08 min 51 sec)
Heartbeat CPU 0 instructions: 97000575 cycles: 28750623 heartbeat IPC: 2.971 cumulative IPC: 2.974 (Simulation time: 00 hr 08 min 54 sec)
Heartbeat CPU 0 instructions: 97500580 cycles: 28919383 heartbeat IPC: 2.963 cumulative IPC: 2.974 (Simulation time: 00 hr 08 min 56 sec)
Heartbeat CPU 0 instructions: 98000587 cycles: 29086919 heartbeat IPC: 2.984 cumulative IPC: 2.974 (Simulation time: 00 hr 08 min 59 sec)
Heartbeat CPU 0 instructions: 98500590 cycles: 29255649 heartbeat IPC: 2.963 cumulative IPC: 2.974 (Simulation time: 00 hr 09 min 02 sec)
Heartbeat CPU 0 instructions: 99000591 cycles: 29425125 heartbeat IPC: 2.95 cumulative IPC: 2.973 (Simulation time: 00 hr 09 min 04 sec)
Heartbeat CPU 0 instructions: 99500592 cycles: 29593511 heartbeat IPC: 2.969 cumulative IPC: 2.973 (Simulation time: 00 hr 09 min 07 sec)
Heartbeat CPU 0 instructions: 100000599 cycles: 29763181 heartbeat IPC: 2.947 cumulative IPC: 2.973 (Simulation time: 00 hr 09 min 10 sec)
Heartbeat CPU 0 instructions: 100500606 cycles: 29936577 heartbeat IPC: 2.884 cumulative IPC: 2.972 (Simulation time: 00 hr 09 min 12 sec)
Heartbeat CPU 0 instructions: 101000606 cycles: 30105766 heartbeat IPC: 2.955 cumulative IPC: 2.972 (Simulation time: 00 hr 09 min 15 sec)
Heartbeat CPU 0 instructions: 101500612 cycles: 30274066 heartbeat IPC: 2.971 cumulative IPC: 2.972 (Simulation time: 00 hr 09 min 18 sec)
Heartbeat CPU 0 instructions: 102000613 cycles: 30452019 heartbeat IPC: 2.81 cumulative IPC: 2.97 (Simulation time: 00 hr 09 min 21 sec)
Heartbeat CPU 0 instructions: 102500620 cycles: 30620687 heartbeat IPC: 2.964 cumulative IPC: 2.97 (Simulation time: 00 hr 09 min 23 sec)
Heartbeat CPU 0 instructions: 103000625 cycles: 30786398 heartbeat IPC: 3.017 cumulative IPC: 2.971 (Simulation time: 00 hr 09 min 26 sec)
Heartbeat CPU 0 instructions: 103500628 cycles: 30954648 heartbeat IPC: 2.972 cumulative IPC: 2.971 (Simulation time: 00 hr 09 min 28 sec)
Heartbeat CPU 0 instructions: 104000634 cycles: 31127046 heartbeat IPC: 2.9 cumulative IPC: 2.97 (Simulation time: 00 hr 09 min 31 sec)
Heartbeat CPU 0 instructions: 104500639 cycles: 31295631 heartbeat IPC: 2.966 cumulative IPC: 2.97 (Simulation time: 00 hr 09 min 34 sec)
Heartbeat CPU 0 instructions: 105000640 cycles: 31465009 heartbeat IPC: 2.952 cumulative IPC: 2.97 (Simulation time: 00 hr 09 min 37 sec)
Heartbeat CPU 0 instructions: 105500643 cycles: 31633197 heartbeat IPC: 2.973 cumulative IPC: 2.97 (Simulation time: 00 hr 09 min 39 sec)
Heartbeat CPU 0 instructions: 106000644 cycles: 31801089 heartbeat IPC: 2.978 cumulative IPC: 2.97 (Simulation time: 00 hr 09 min 42 sec)
Heartbeat CPU 0 instructions: 106500647 cycles: 31969686 heartbeat IPC: 2.966 cumulative IPC: 2.97 (Simulation time: 00 hr 09 min 45 sec)
Heartbeat CPU 0 instructions: 107000650 cycles: 32136539 heartbeat IPC: 2.997 cumulative IPC: 2.97 (Simulation time: 00 hr 09 min 47 sec)
Heartbeat CPU 0 instructions: 107500652 cycles: 32310001 heartbeat IPC: 2.882 cumulative IPC: 2.969 (Simulation time: 00 hr 09 min 50 sec)
Heartbeat CPU 0 instructions: 108000652 cycles: 32478858 heartbeat IPC: 2.961 cumulative IPC: 2.969 (Simulation time: 00 hr 09 min 53 sec)
Heartbeat CPU 0 instructions: 108500656 cycles: 32645312 heartbeat IPC: 3.004 cumulative IPC: 2.97 (Simulation time: 00 hr 09 min 55 sec)
Heartbeat CPU 0 instructions: 109000656 cycles: 32813368 heartbeat IPC: 2.975 cumulative IPC: 2.97 (Simulation time: 00 hr 09 min 58 sec)
Heartbeat CPU 0 instructions: 109500657 cycles: 32980693 heartbeat IPC: 2.988 cumulative IPC: 2.97 (Simulation time: 00 hr 10 min 01 sec)
Heartbeat CPU 0 instructions: 110000658 cycles: 33147658 heartbeat IPC: 2.995 cumulative IPC: 2.97 (Simulation time: 00 hr 10 min 03 sec)
Heartbeat CPU 0 instructions: 110500658 cycles: 33316249 heartbeat IPC: 2.966 cumulative IPC: 2.97 (Simulation time: 00 hr 10 min 06 sec)
Heartbeat CPU 0 instructions: 111000665 cycles: 33484299 heartbeat IPC: 2.975 cumulative IPC: 2.97 (Simulation time: 00 hr 10 min 08 sec)
Heartbeat CPU 0 instructions: 111500668 cycles: 33655806 heartbeat IPC: 2.915 cumulative IPC: 2.97 (Simulation time: 00 hr 10 min 11 sec)
Heartbeat CPU 0 instructions: 112000673 cycles: 33821379 heartbeat IPC: 3.02 cumulative IPC: 2.97 (Simulation time: 00 hr 10 min 14 sec)
Heartbeat CPU 0 instructions: 112500674 cycles: 33987724 heartbeat IPC: 3.006 cumulative IPC: 2.97 (Simulation time: 00 hr 10 min 16 sec)
Heartbeat CPU 0 instructions: 113000679 cycles: 34153193 heartbeat IPC: 3.022 cumulative IPC: 2.971 (Simulation time: 00 hr 10 min 19 sec)
Heartbeat CPU 0 instructions: 113500680 cycles: 34319890 heartbeat IPC: 2.999 cumulative IPC: 2.971 (Simulation time: 00 hr 10 min 22 sec)
Heartbeat CPU 0 instructions: 114000681 cycles: 34486737 heartbeat IPC: 2.997 cumulative IPC: 2.971 (Simulation time: 00 hr 10 min 24 sec)
Heartbeat CPU 0 instructions: 114500684 cycles: 34653910 heartbeat IPC: 2.991 cumulative IPC: 2.971 (Simulation time: 00 hr 10 min 27 sec)
Heartbeat CPU 0 instructions: 115000687 cycles: 34825529 heartbeat IPC: 2.913 cumulative IPC: 2.971 (Simulation time: 00 hr 10 min 30 sec)
Heartbeat CPU 0 instructions: 115500687 cycles: 34993503 heartbeat IPC: 2.977 cumulative IPC: 2.971 (Simulation time: 00 hr 10 min 32 sec)
Heartbeat CPU 0 instructions: 116000693 cycles: 35158957 heartbeat IPC: 3.022 cumulative IPC: 2.971 (Simulation time: 00 hr 10 min 35 sec)
Heartbeat CPU 0 instructions: 116500693 cycles: 35325754 heartbeat IPC: 2.998 cumulative IPC: 2.971 (Simulation time: 00 hr 10 min 38 sec)
Heartbeat CPU 0 instructions: 117000699 cycles: 35492434 heartbeat IPC: 3 cumulative IPC: 2.972 (Simulation time: 00 hr 10 min 40 sec)
Heartbeat CPU 0 instructions: 117500700 cycles: 35658390 heartbeat IPC: 3.013 cumulative IPC: 2.972 (Simulation time: 00 hr 10 min 43 sec)
Heartbeat CPU 0 instructions: 118000703 cycles: 35825851 heartbeat IPC: 2.986 cumulative IPC: 2.972 (Simulation time: 00 hr 10 min 46 sec)
Heartbeat CPU 0 instructions: 118500708 cycles: 35996906 heartbeat IPC: 2.923 cumulative IPC: 2.972 (Simulation time: 00 hr 10 min 48 sec)
Heartbeat CPU 0 instructions: 119000712 cycles: 36164323 heartbeat IPC: 2.987 cumulative IPC: 2.972 (Simulation time: 00 hr 10 min 51 sec)
Heartbeat CPU 0 instructions: 119500713 cycles: 36328655 heartbeat IPC: 3.043 cumulative IPC: 2.972 (Simulation time: 00 hr 10 min 54 sec)
Heartbeat CPU 0 instructions: 120000713 cycles: 36496707 heartbeat IPC: 2.975 cumulative IPC: 2.972 (Simulation time: 00 hr 10 min 56 sec)
Heartbeat CPU 0 instructions: 120500715 cycles: 36660299 heartbeat IPC: 3.056 cumulative IPC: 2.973 (Simulation time: 00 hr 10 min 59 sec)
Heartbeat CPU 0 instructions: 121000716 cycles: 36826119 heartbeat IPC: 3.015 cumulative IPC: 2.973 (Simulation time: 00 hr 11 min 02 sec)
Heartbeat CPU 0 instructions: 121500723 cycles: 36991461 heartbeat IPC: 3.024 cumulative IPC: 2.974 (Simulation time: 00 hr 11 min 04 sec)
Heartbeat CPU 0 instructions: 122000724 cycles: 37156464 heartbeat IPC: 3.03 cumulative IPC: 2.974 (Simulation time: 00 hr 11 min 07 sec)
Heartbeat CPU 0 instructions: 122500731 cycles: 37324285 heartbeat IPC: 2.979 cumulative IPC: 2.974 (Simulation time: 00 hr 11 min 09 sec)
Heartbeat CPU 0 instructions: 123000731 cycles: 37487216 heartbeat IPC: 3.069 cumulative IPC: 2.975 (Simulation time: 00 hr 11 min 12 sec)
Heartbeat CPU 0 instructions: 123500734 cycles: 37650692 heartbeat IPC: 3.059 cumulative IPC: 2.975 (Simulation time: 00 hr 11 min 15 sec)
Heartbeat CPU 0 instructions: 124000738 cycles: 37814431 heartbeat IPC: 3.054 cumulative IPC: 2.976 (Simulation time: 00 hr 11 min 17 sec)
Heartbeat CPU 0 instructions: 124500738 cycles: 37977992 heartbeat IPC: 3.057 cumulative IPC: 2.976 (Simulation time: 00 hr 11 min 20 sec)
Heartbeat CPU 0 instructions: 125000741 cycles: 38140966 heartbeat IPC: 3.068 cumulative IPC: 2.977 (Simulation time: 00 hr 11 min 22 sec)
Heartbeat CPU 0 instructions: 125500745 cycles: 38304484 heartbeat IPC: 3.058 cumulative IPC: 2.977 (Simulation time: 00 hr 11 min 25 sec)
Heartbeat CPU 0 instructions: 126000751 cycles: 38479346 heartbeat IPC: 2.859 cumulative IPC: 2.976 (Simulation time: 00 hr 11 min 28 sec)
Heartbeat CPU 0 instructions: 126500754 cycles: 38649379 heartbeat IPC: 2.941 cumulative IPC: 2.976 (Simulation time: 00 hr 11 min 30 sec)
Heartbeat CPU 0 instructions: 127000755 cycles: 38816400 heartbeat IPC: 2.994 cumulative IPC: 2.976 (Simulation time: 00 hr 11 min 33 sec)
Heartbeat CPU 0 instructions: 127500758 cycles: 38985494 heartbeat IPC: 2.957 cumulative IPC: 2.976 (Simulation time: 00 hr 11 min 36 sec)
Heartbeat CPU 0 instructions: 128000758 cycles: 39153333 heartbeat IPC: 2.979 cumulative IPC: 2.976 (Simulation time: 00 hr 11 min 38 sec)
Heartbeat CPU 0 instructions: 128500760 cycles: 39319738 heartbeat IPC: 3.005 cumulative IPC: 2.976 (Simulation time: 00 hr 11 min 41 sec)
Heartbeat CPU 0 instructions: 129000767 cycles: 39487890 heartbeat IPC: 2.974 cumulative IPC: 2.976 (Simulation time: 00 hr 11 min 44 sec)
Heartbeat CPU 0 instructions: 129500770 cycles: 39660579 heartbeat IPC: 2.895 cumulative IPC: 2.976 (Simulation time: 00 hr 11 min 46 sec)
Heartbeat CPU 0 instructions: 130000777 cycles: 39829495 heartbeat IPC: 2.96 cumulative IPC: 2.976 (Simulation time: 00 hr 11 min 49 sec)
Heartbeat CPU 0 instructions: 130500784 cycles: 39998437 heartbeat IPC: 2.96 cumulative IPC: 2.976 (Simulation time: 00 hr 11 min 52 sec)
Heartbeat CPU 0 instructions: 131000785 cycles: 40166985 heartbeat IPC: 2.967 cumulative IPC: 2.976 (Simulation time: 00 hr 11 min 55 sec)
Heartbeat CPU 0 instructions: 131500792 cycles: 40333130 heartbeat IPC: 3.009 cumulative IPC: 2.976 (Simulation time: 00 hr 11 min 57 sec)
Heartbeat CPU 0 instructions: 132000795 cycles: 40501161 heartbeat IPC: 2.976 cumulative IPC: 2.976 (Simulation time: 00 hr 12 min 00 sec)
Heartbeat CPU 0 instructions: 132500798 cycles: 40670621 heartbeat IPC: 2.951 cumulative IPC: 2.976 (Simulation time: 00 hr 12 min 03 sec)
Heartbeat CPU 0 instructions: 133000798 cycles: 40847722 heartbeat IPC: 2.823 cumulative IPC: 2.975 (Simulation time: 00 hr 12 min 05 sec)
Heartbeat CPU 0 instructions: 133500801 cycles: 41019987 heartbeat IPC: 2.903 cumulative IPC: 2.974 (Simulation time: 00 hr 12 min 08 sec)
Heartbeat CPU 0 instructions: 134000808 cycles: 41187337 heartbeat IPC: 2.988 cumulative IPC: 2.974 (Simulation time: 00 hr 12 min 11 sec)
Heartbeat CPU 0 instructions: 134500809 cycles: 41354537 heartbeat IPC: 2.99 cumulative IPC: 2.974 (Simulation time: 00 hr 12 min 13 sec)
Heartbeat CPU 0 instructions: 135000810 cycles: 41521781 heartbeat IPC: 2.99 cumulative IPC: 2.975 (Simulation time: 00 hr 12 min 16 sec)
Heartbeat CPU 0 instructions: 135500810 cycles: 41690843 heartbeat IPC: 2.957 cumulative IPC: 2.974 (Simulation time: 00 hr 12 min 19 sec)
Heartbeat CPU 0 instructions: 136000814 cycles: 41860120 heartbeat IPC: 2.954 cumulative IPC: 2.974 (Simulation time: 00 hr 12 min 21 sec)
Heartbeat CPU 0 instructions: 136500817 cycles: 42029126 heartbeat IPC: 2.958 cumulative IPC: 2.974 (Simulation time: 00 hr 12 min 24 sec)
Heartbeat CPU 0 instructions: 137000822 cycles: 42202451 heartbeat IPC: 2.885 cumulative IPC: 2.974 (Simulation time: 00 hr 12 min 27 sec)
Heartbeat CPU 0 instructions: 137500822 cycles: 42370353 heartbeat IPC: 2.978 cumulative IPC: 2.974 (Simulation time: 00 hr 12 min 30 sec)
Heartbeat CPU 0 instructions: 138000822 cycles: 42537347 heartbeat IPC: 2.994 cumulative IPC: 2.974 (Simulation time: 00 hr 12 min 32 sec)
Heartbeat CPU 0 instructions: 138500826 cycles: 42706388 heartbeat IPC: 2.958 cumulative IPC: 2.974 (Simulation time: 00 hr 12 min 35 sec)
Heartbeat CPU 0 instructions: 139000829 cycles: 42874815 heartbeat IPC: 2.969 cumulative IPC: 2.974 (Simulation time: 00 hr 12 min 38 sec)
Heartbeat CPU 0 instructions: 139500829 cycles: 43041668 heartbeat IPC: 2.997 cumulative IPC: 2.974 (Simulation time: 00 hr 12 min 40 sec)
Heartbeat CPU 0 instructions: 140000836 cycles: 43209386 heartbeat IPC: 2.981 cumulative IPC: 2.974 (Simulation time: 00 hr 12 min 43 sec)
Heartbeat CPU 0 instructions: 140500841 cycles: 43381141 heartbeat IPC: 2.911 cumulative IPC: 2.974 (Simulation time: 00 hr 12 min 46 sec)
Heartbeat CPU 0 instructions: 141000841 cycles: 43549014 heartbeat IPC: 2.978 cumulative IPC: 2.974 (Simulation time: 00 hr 12 min 48 sec)
Heartbeat CPU 0 instructions: 141500846 cycles: 43715754 heartbeat IPC: 2.999 cumulative IPC: 2.974 (Simulation time: 00 hr 12 min 51 sec)
Heartbeat CPU 0 instructions: 142000849 cycles: 43883446 heartbeat IPC: 2.982 cumulative IPC: 2.974 (Simulation time: 00 hr 12 min 53 sec)
Heartbeat CPU 0 instructions: 142500852 cycles: 44050361 heartbeat IPC: 2.996 cumulative IPC: 2.974 (Simulation time: 00 hr 12 min 56 sec)
Heartbeat CPU 0 instructions: 143000855 cycles: 44216695 heartbeat IPC: 3.006 cumulative IPC: 2.974 (Simulation time: 00 hr 12 min 59 sec)
Heartbeat CPU 0 instructions: 143500858 cycles: 44384130 heartbeat IPC: 2.986 cumulative IPC: 2.974 (Simulation time: 00 hr 13 min 01 sec)
Heartbeat CPU 0 instructions: 144000858 cycles: 44551709 heartbeat IPC: 2.984 cumulative IPC: 2.974 (Simulation time: 00 hr 13 min 04 sec)
Heartbeat CPU 0 instructions: 144500862 cycles: 44722554 heartbeat IPC: 2.927 cumulative IPC: 2.974 (Simulation time: 00 hr 13 min 07 sec)
Heartbeat CPU 0 instructions: 145000864 cycles: 44891094 heartbeat IPC: 2.967 cumulative IPC: 2.974 (Simulation time: 00 hr 13 min 09 sec)
Heartbeat CPU 0 instructions: 145500864 cycles: 45056597 heartbeat IPC: 3.021 cumulative IPC: 2.974 (Simulation time: 00 hr 13 min 12 sec)
Heartbeat CPU 0 instructions: 146000868 cycles: 45224739 heartbeat IPC: 2.974 cumulative IPC: 2.974 (Simulation time: 00 hr 13 min 15 sec)
Heartbeat CPU 0 instructions: 146500872 cycles: 45391877 heartbeat IPC: 2.992 cumulative IPC: 2.974 (Simulation time: 00 hr 13 min 17 sec)
Heartbeat CPU 0 instructions: 147000874 cycles: 45558378 heartbeat IPC: 3.003 cumulative IPC: 2.974 (Simulation time: 00 hr 13 min 20 sec)
Heartbeat CPU 0 instructions: 147500880 cycles: 45725090 heartbeat IPC: 2.999 cumulative IPC: 2.974 (Simulation time: 00 hr 13 min 23 sec)
Heartbeat CPU 0 instructions: 148000883 cycles: 45896188 heartbeat IPC: 2.922 cumulative IPC: 2.974 (Simulation time: 00 hr 13 min 25 sec)
Heartbeat CPU 0 instructions: 148500887 cycles: 46063377 heartbeat IPC: 2.991 cumulative IPC: 2.974 (Simulation time: 00 hr 13 min 28 sec)
Heartbeat CPU 0 instructions: 149000890 cycles: 46229793 heartbeat IPC: 3.005 cumulative IPC: 2.974 (Simulation time: 00 hr 13 min 31 sec)
Heartbeat CPU 0 instructions: 149500891 cycles: 46396743 heartbeat IPC: 2.995 cumulative IPC: 2.975 (Simulation time: 00 hr 13 min 33 sec)
Heartbeat CPU 0 instructions: 150000894 cycles: 46563098 heartbeat IPC: 3.006 cumulative IPC: 2.975 (Simulation time: 00 hr 13 min 36 sec)
Heartbeat CPU 0 instructions: 150500897 cycles: 46730459 heartbeat IPC: 2.988 cumulative IPC: 2.975 (Simulation time: 00 hr 13 min 39 sec)
Heartbeat CPU 0 instructions: 151000897 cycles: 46895732 heartbeat IPC: 3.025 cumulative IPC: 2.975 (Simulation time: 00 hr 13 min 41 sec)
Heartbeat CPU 0 instructions: 151500903 cycles: 47066860 heartbeat IPC: 2.922 cumulative IPC: 2.975 (Simulation time: 00 hr 13 min 44 sec)
Heartbeat CPU 0 instructions: 152000903 cycles: 47232357 heartbeat IPC: 3.021 cumulative IPC: 2.975 (Simulation time: 00 hr 13 min 47 sec)
Heartbeat CPU 0 instructions: 152500907 cycles: 47398209 heartbeat IPC: 3.015 cumulative IPC: 2.975 (Simulation time: 00 hr 13 min 49 sec)
Heartbeat CPU 0 instructions: 153000914 cycles: 47562287 heartbeat IPC: 3.047 cumulative IPC: 2.975 (Simulation time: 00 hr 13 min 52 sec)
Heartbeat CPU 0 instructions: 153500920 cycles: 47725797 heartbeat IPC: 3.058 cumulative IPC: 2.976 (Simulation time: 00 hr 13 min 55 sec)
Heartbeat CPU 0 instructions: 154000922 cycles: 47889112 heartbeat IPC: 3.062 cumulative IPC: 2.976 (Simulation time: 00 hr 13 min 57 sec)
Heartbeat CPU 0 instructions: 154500924 cycles: 48052300 heartbeat IPC: 3.064 cumulative IPC: 2.977 (Simulation time: 00 hr 14 min 00 sec)
Heartbeat CPU 0 instructions: 155000925 cycles: 48217214 heartbeat IPC: 3.032 cumulative IPC: 2.977 (Simulation time: 00 hr 14 min 02 sec)
Heartbeat CPU 0 instructions: 155500928 cycles: 48383748 heartbeat IPC: 3.002 cumulative IPC: 2.977 (Simulation time: 00 hr 14 min 05 sec)
Heartbeat CPU 0 instructions: 156000929 cycles: 48547439 heartbeat IPC: 3.055 cumulative IPC: 2.977 (Simulation time: 00 hr 14 min 08 sec)
Heartbeat CPU 0 instructions: 156500932 cycles: 48711873 heartbeat IPC: 3.041 cumulative IPC: 2.978 (Simulation time: 00 hr 14 min 10 sec)
Heartbeat CPU 0 instructions: 157000933 cycles: 48877568 heartbeat IPC: 3.018 cumulative IPC: 2.978 (Simulation time: 00 hr 14 min 13 sec)
Heartbeat CPU 0 instructions: 157500938 cycles: 49047872 heartbeat IPC: 2.936 cumulative IPC: 2.978 (Simulation time: 00 hr 14 min 15 sec)
Heartbeat CPU 0 instructions: 158000939 cycles: 49216549 heartbeat IPC: 2.964 cumulative IPC: 2.978 (Simulation time: 00 hr 14 min 18 sec)
Heartbeat CPU 0 instructions: 158500942 cycles: 49384207 heartbeat IPC: 2.982 cumulative IPC: 2.978 (Simulation time: 00 hr 14 min 21 sec)
Heartbeat CPU 0 instructions: 159000947 cycles: 49557150 heartbeat IPC: 2.891 cumulative IPC: 2.977 (Simulation time: 00 hr 14 min 24 sec)
Heartbeat CPU 0 instructions: 159500950 cycles: 49724279 heartbeat IPC: 2.992 cumulative IPC: 2.977 (Simulation time: 00 hr 14 min 26 sec)
Heartbeat CPU 0 instructions: 160000951 cycles: 49891419 heartbeat IPC: 2.992 cumulative IPC: 2.977 (Simulation time: 00 hr 14 min 29 sec)
Heartbeat CPU 0 instructions: 160500958 cycles: 50059968 heartbeat IPC: 2.967 cumulative IPC: 2.977 (Simulation time: 00 hr 14 min 32 sec)
Heartbeat CPU 0 instructions: 161000959 cycles: 50229396 heartbeat IPC: 2.951 cumulative IPC: 2.977 (Simulation time: 00 hr 14 min 34 sec)
Heartbeat CPU 0 instructions: 161500960 cycles: 50396864 heartbeat IPC: 2.986 cumulative IPC: 2.977 (Simulation time: 00 hr 14 min 37 sec)
Heartbeat CPU 0 instructions: 162000963 cycles: 50565778 heartbeat IPC: 2.96 cumulative IPC: 2.977 (Simulation time: 00 hr 14 min 40 sec)
Heartbeat CPU 0 instructions: 162500965 cycles: 50738745 heartbeat IPC: 2.891 cumulative IPC: 2.977 (Simulation time: 00 hr 14 min 42 sec)
Heartbeat CPU 0 instructions: 163000970 cycles: 50905982 heartbeat IPC: 2.99 cumulative IPC: 2.977 (Simulation time: 00 hr 14 min 45 sec)
Heartbeat CPU 0 instructions: 163500971 cycles: 51075403 heartbeat IPC: 2.951 cumulative IPC: 2.977 (Simulation time: 00 hr 14 min 48 sec)
Heartbeat CPU 0 instructions: 164000976 cycles: 51244727 heartbeat IPC: 2.953 cumulative IPC: 2.977 (Simulation time: 00 hr 14 min 50 sec)
Heartbeat CPU 0 instructions: 164500982 cycles: 51421607 heartbeat IPC: 2.827 cumulative IPC: 2.976 (Simulation time: 00 hr 14 min 53 sec)
Heartbeat CPU 0 instructions: 165000988 cycles: 51589970 heartbeat IPC: 2.97 cumulative IPC: 2.976 (Simulation time: 00 hr 14 min 56 sec)
Heartbeat CPU 0 instructions: 165500989 cycles: 51757109 heartbeat IPC: 2.992 cumulative IPC: 2.976 (Simulation time: 00 hr 14 min 58 sec)
Heartbeat CPU 0 instructions: 166000990 cycles: 51926086 heartbeat IPC: 2.959 cumulative IPC: 2.976 (Simulation time: 00 hr 15 min 01 sec)
Heartbeat CPU 0 instructions: 166500995 cycles: 52099202 heartbeat IPC: 2.888 cumulative IPC: 2.975 (Simulation time: 00 hr 15 min 04 sec)
Heartbeat CPU 0 instructions: 167001000 cycles: 52266949 heartbeat IPC: 2.981 cumulative IPC: 2.976 (Simulation time: 00 hr 15 min 06 sec)
Heartbeat CPU 0 instructions: 167501003 cycles: 52436736 heartbeat IPC: 2.945 cumulative IPC: 2.975 (Simulation time: 00 hr 15 min 09 sec)
Heartbeat CPU 0 instructions: 168001008 cycles: 52605588 heartbeat IPC: 2.961 cumulative IPC: 2.975 (Simulation time: 00 hr 15 min 12 sec)
Heartbeat CPU 0 instructions: 168501008 cycles: 52772891 heartbeat IPC: 2.989 cumulative IPC: 2.975 (Simulation time: 00 hr 15 min 15 sec)
Heartbeat CPU 0 instructions: 169001013 cycles: 52939961 heartbeat IPC: 2.993 cumulative IPC: 2.975 (Simulation time: 00 hr 15 min 17 sec)
Heartbeat CPU 0 instructions: 169501013 cycles: 53109043 heartbeat IPC: 2.957 cumulative IPC: 2.975 (Simulation time: 00 hr 15 min 20 sec)
Heartbeat CPU 0 instructions: 170001017 cycles: 53282583 heartbeat IPC: 2.881 cumulative IPC: 2.975 (Simulation time: 00 hr 15 min 23 sec)
Heartbeat CPU 0 instructions: 170501020 cycles: 53450966 heartbeat IPC: 2.969 cumulative IPC: 2.975 (Simulation time: 00 hr 15 min 25 sec)
Heartbeat CPU 0 instructions: 171001020 cycles: 53618883 heartbeat IPC: 2.978 cumulative IPC: 2.975 (Simulation time: 00 hr 15 min 28 sec)
Heartbeat CPU 0 instructions: 171501024 cycles: 53785871 heartbeat IPC: 2.994 cumulative IPC: 2.975 (Simulation time: 00 hr 15 min 31 sec)
Heartbeat CPU 0 instructions: 172001024 cycles: 53953353 heartbeat IPC: 2.985 cumulative IPC: 2.975 (Simulation time: 00 hr 15 min 33 sec)
Heartbeat CPU 0 instructions: 172501030 cycles: 54120891 heartbeat IPC: 2.984 cumulative IPC: 2.975 (Simulation time: 00 hr 15 min 36 sec)
Heartbeat CPU 0 instructions: 173001033 cycles: 54287348 heartbeat IPC: 3.004 cumulative IPC: 2.975 (Simulation time: 00 hr 15 min 39 sec)
Heartbeat CPU 0 instructions: 173501040 cycles: 54460884 heartbeat IPC: 2.881 cumulative IPC: 2.975 (Simulation time: 00 hr 15 min 41 sec)
Heartbeat CPU 0 instructions: 174001044 cycles: 54626339 heartbeat IPC: 3.022 cumulative IPC: 2.975 (Simulation time: 00 hr 15 min 44 sec)
Heartbeat CPU 0 instructions: 174501044 cycles: 54793704 heartbeat IPC: 2.987 cumulative IPC: 2.975 (Simulation time: 00 hr 15 min 47 sec)
Heartbeat CPU 0 instructions: 175001047 cycles: 54958922 heartbeat IPC: 3.026 cumulative IPC: 2.975 (Simulation time: 00 hr 15 min 49 sec)
Heartbeat CPU 0 instructions: 175501053 cycles: 55126752 heartbeat IPC: 2.979 cumulative IPC: 2.975 (Simulation time: 00 hr 15 min 52 sec)
Heartbeat CPU 0 instructions: 176001055 cycles: 55292520 heartbeat IPC: 3.016 cumulative IPC: 2.975 (Simulation time: 00 hr 15 min 55 sec)
Heartbeat CPU 0 instructions: 176501057 cycles: 55460458 heartbeat IPC: 2.977 cumulative IPC: 2.975 (Simulation time: 00 hr 15 min 57 sec)
Heartbeat CPU 0 instructions: 177001058 cycles: 55629179 heartbeat IPC: 2.963 cumulative IPC: 2.975 (Simulation time: 00 hr 16 min 00 sec)
Heartbeat CPU 0 instructions: 177501059 cycles: 55799166 heartbeat IPC: 2.941 cumulative IPC: 2.975 (Simulation time: 00 hr 16 min 03 sec)
Heartbeat CPU 0 instructions: 178001064 cycles: 55965888 heartbeat IPC: 2.999 cumulative IPC: 2.975 (Simulation time: 00 hr 16 min 05 sec)
Heartbeat CPU 0 instructions: 178501067 cycles: 56132679 heartbeat IPC: 2.998 cumulative IPC: 2.975 (Simulation time: 00 hr 16 min 08 sec)
Heartbeat CPU 0 instructions: 179001068 cycles: 56299048 heartbeat IPC: 3.005 cumulative IPC: 2.976 (Simulation time: 00 hr 16 min 11 sec)
Heartbeat CPU 0 instructions: 179501071 cycles: 56466699 heartbeat IPC: 2.982 cumulative IPC: 2.976 (Simulation time: 00 hr 16 min 13 sec)
Heartbeat CPU 0 instructions: 180001072 cycles: 56633662 heartbeat IPC: 2.995 cumulative IPC: 2.976 (Simulation time: 00 hr 16 min 16 sec)
Heartbeat CPU 0 instructions: 180501075 cycles: 56800626 heartbeat IPC: 2.995 cumulative IPC: 2.976 (Simulation time: 00 hr 16 min 19 sec)
Heartbeat CPU 0 instructions: 181001080 cycles: 56973197 heartbeat IPC: 2.897 cumulative IPC: 2.975 (Simulation time: 00 hr 16 min 21 sec)
Heartbeat CPU 0 instructions: 181501086 cycles: 57139692 heartbeat IPC: 3.003 cumulative IPC: 2.976 (Simulation time: 00 hr 16 min 24 sec)
Heartbeat CPU 0 instructions: 182001090 cycles: 57305259 heartbeat IPC: 3.02 cumulative IPC: 2.976 (Simulation time: 00 hr 16 min 27 sec)
Heartbeat CPU 0 instructions: 182501095 cycles: 57472193 heartbeat IPC: 2.995 cumulative IPC: 2.976 (Simulation time: 00 hr 16 min 29 sec)
Heartbeat CPU 0 instructions: 183001096 cycles: 57637928 heartbeat IPC: 3.017 cumulative IPC: 2.976 (Simulation time: 00 hr 16 min 32 sec)
Heartbeat CPU 0 instructions: 183501101 cycles: 57805123 heartbeat IPC: 2.991 cumulative IPC: 2.976 (Simulation time: 00 hr 16 min 34 sec)
Heartbeat CPU 0 instructions: 184001102 cycles: 57970195 heartbeat IPC: 3.029 cumulative IPC: 2.976 (Simulation time: 00 hr 16 min 37 sec)
Heartbeat CPU 0 instructions: 184501103 cycles: 58139214 heartbeat IPC: 2.958 cumulative IPC: 2.976 (Simulation time: 00 hr 16 min 40 sec)
Heartbeat CPU 0 instructions: 185001106 cycles: 58302891 heartbeat IPC: 3.055 cumulative IPC: 2.976 (Simulation time: 00 hr 16 min 42 sec)
Heartbeat CPU 0 instructions: 185501112 cycles: 58466775 heartbeat IPC: 3.051 cumulative IPC: 2.977 (Simulation time: 00 hr 16 min 45 sec)
Heartbeat CPU 0 instructions: 186001114 cycles: 58629565 heartbeat IPC: 3.071 cumulative IPC: 2.977 (Simulation time: 00 hr 16 min 47 sec)
Heartbeat CPU 0 instructions: 186501115 cycles: 58792628 heartbeat IPC: 3.066 cumulative IPC: 2.977 (Simulation time: 00 hr 16 min 50 sec)
Heartbeat CPU 0 instructions: 187001119 cycles: 58956589 heartbeat IPC: 3.05 cumulative IPC: 2.978 (Simulation time: 00 hr 16 min 53 sec)
Heartbeat CPU 0 instructions: 187501121 cycles: 59119719 heartbeat IPC: 3.065 cumulative IPC: 2.978 (Simulation time: 00 hr 16 min 55 sec)
Heartbeat CPU 0 instructions: 188001123 cycles: 59286017 heartbeat IPC: 3.007 cumulative IPC: 2.978 (Simulation time: 00 hr 16 min 58 sec)
Heartbeat CPU 0 instructions: 188501126 cycles: 59458847 heartbeat IPC: 2.893 cumulative IPC: 2.978 (Simulation time: 00 hr 17 min 01 sec)
Heartbeat CPU 0 instructions: 189001127 cycles: 59627592 heartbeat IPC: 2.963 cumulative IPC: 2.978 (Simulation time: 00 hr 17 min 03 sec)
Heartbeat CPU 0 instructions: 189501128 cycles: 59795143 heartbeat IPC: 2.984 cumulative IPC: 2.978 (Simulation time: 00 hr 17 min 06 sec)
Heartbeat CPU 0 instructions: 190001129 cycles: 59962990 heartbeat IPC: 2.979 cumulative IPC: 2.978 (Simulation time: 00 hr 17 min 09 sec)
Heartbeat CPU 0 instructions: 190501132 cycles: 60131045 heartbeat IPC: 2.975 cumulative IPC: 2.978 (Simulation time: 00 hr 17 min 11 sec)
Heartbeat CPU 0 instructions: 191001138 cycles: 60299670 heartbeat IPC: 2.965 cumulative IPC: 2.978 (Simulation time: 00 hr 17 min 14 sec)
Heartbeat CPU 0 instructions: 191501140 cycles: 60468408 heartbeat IPC: 2.963 cumulative IPC: 2.978 (Simulation time: 00 hr 17 min 17 sec)
Heartbeat CPU 0 instructions: 192001140 cycles: 60642806 heartbeat IPC: 2.867 cumulative IPC: 2.977 (Simulation time: 00 hr 17 min 19 sec)
Heartbeat CPU 0 instructions: 192501143 cycles: 60810908 heartbeat IPC: 2.974 cumulative IPC: 2.977 (Simulation time: 00 hr 17 min 22 sec)
Heartbeat CPU 0 instructions: 193001148 cycles: 60979381 heartbeat IPC: 2.968 cumulative IPC: 2.977 (Simulation time: 00 hr 17 min 25 sec)
Heartbeat CPU 0 instructions: 193501149 cycles: 61147153 heartbeat IPC: 2.98 cumulative IPC: 2.977 (Simulation time: 00 hr 17 min 27 sec)
Heartbeat CPU 0 instructions: 194001154 cycles: 61314707 heartbeat IPC: 2.984 cumulative IPC: 2.977 (Simulation time: 00 hr 17 min 30 sec)
Heartbeat CPU 0 instructions: 194501157 cycles: 61483483 heartbeat IPC: 2.963 cumulative IPC: 2.977 (Simulation time: 00 hr 17 min 33 sec)
Heartbeat CPU 0 instructions: 195001160 cycles: 61652293 heartbeat IPC: 2.962 cumulative IPC: 2.977 (Simulation time: 00 hr 17 min 35 sec)
Heartbeat CPU 0 instructions: 195501165 cycles: 61835336 heartbeat IPC: 2.732 cumulative IPC: 2.976 (Simulation time: 00 hr 17 min 38 sec)
Heartbeat CPU 0 instructions: 196001170 cycles: 62003503 heartbeat IPC: 2.973 cumulative IPC: 2.976 (Simulation time: 00 hr 17 min 41 sec)
Heartbeat CPU 0 instructions: 196501170 cycles: 62170441 heartbeat IPC: 2.995 cumulative IPC: 2.976 (Simulation time: 00 hr 17 min 44 sec)
Heartbeat CPU 0 instructions: 197001172 cycles: 62338833 heartbeat IPC: 2.969 cumulative IPC: 2.976 (Simulation time: 00 hr 17 min 46 sec)
Heartbeat CPU 0 instructions: 197501178 cycles: 62507423 heartbeat IPC: 2.966 cumulative IPC: 2.976 (Simulation time: 00 hr 17 min 49 sec)
Heartbeat CPU 0 instructions: 198001180 cycles: 62676396 heartbeat IPC: 2.959 cumulative IPC: 2.976 (Simulation time: 00 hr 17 min 52 sec)
Heartbeat CPU 0 instructions: 198501183 cycles: 62844845 heartbeat IPC: 2.968 cumulative IPC: 2.976 (Simulation time: 00 hr 17 min 54 sec)
Heartbeat CPU 0 instructions: 199001183 cycles: 63015825 heartbeat IPC: 2.924 cumulative IPC: 2.976 (Simulation time: 00 hr 17 min 57 sec)
Heartbeat CPU 0 instructions: 199501183 cycles: 63188087 heartbeat IPC: 2.903 cumulative IPC: 2.976 (Simulation time: 00 hr 18 min 00 sec)
Heartbeat CPU 0 instructions: 200001189 cycles: 63354233 heartbeat IPC: 3.009 cumulative IPC: 2.976 (Simulation time: 00 hr 18 min 02 sec)
Heartbeat CPU 0 instructions: 200501190 cycles: 63522722 heartbeat IPC: 2.968 cumulative IPC: 2.976 (Simulation time: 00 hr 18 min 05 sec)
Heartbeat CPU 0 instructions: 201001191 cycles: 63691860 heartbeat IPC: 2.956 cumulative IPC: 2.976 (Simulation time: 00 hr 18 min 08 sec)
Heartbeat CPU 0 instructions: 201501194 cycles: 63859650 heartbeat IPC: 2.98 cumulative IPC: 2.976 (Simulation time: 00 hr 18 min 10 sec)
Heartbeat CPU 0 instructions: 202001199 cycles: 64027023 heartbeat IPC: 2.987 cumulative IPC: 2.976 (Simulation time: 00 hr 18 min 13 sec)
Heartbeat CPU 0 instructions: 202501202 cycles: 64194667 heartbeat IPC: 2.983 cumulative IPC: 2.976 (Simulation time: 00 hr 18 min 16 sec)
Heartbeat CPU 0 instructions: 203001205 cycles: 64366525 heartbeat IPC: 2.909 cumulative IPC: 2.975 (Simulation time: 00 hr 18 min 18 sec)
Heartbeat CPU 0 instructions: 203501206 cycles: 64533438 heartbeat IPC: 2.996 cumulative IPC: 2.976 (Simulation time: 00 hr 18 min 21 sec)
Heartbeat CPU 0 instructions: 204001207 cycles: 64700306 heartbeat IPC: 2.996 cumulative IPC: 2.976 (Simulation time: 00 hr 18 min 24 sec)
Heartbeat CPU 0 instructions: 204501210 cycles: 64868912 heartbeat IPC: 2.966 cumulative IPC: 2.976 (Simulation time: 00 hr 18 min 26 sec)
Heartbeat CPU 0 instructions: 205001215 cycles: 65034558 heartbeat IPC: 3.019 cumulative IPC: 2.976 (Simulation time: 00 hr 18 min 29 sec)
Heartbeat CPU 0 instructions: 205501215 cycles: 65200720 heartbeat IPC: 3.009 cumulative IPC: 2.976 (Simulation time: 00 hr 18 min 32 sec)
Heartbeat CPU 0 instructions: 206001216 cycles: 65366136 heartbeat IPC: 3.023 cumulative IPC: 2.976 (Simulation time: 00 hr 18 min 34 sec)
Heartbeat CPU 0 instructions: 206501223 cycles: 65539643 heartbeat IPC: 2.882 cumulative IPC: 2.976 (Simulation time: 00 hr 18 min 37 sec)
Heartbeat CPU 0 instructions: 207001226 cycles: 65705376 heartbeat IPC: 3.017 cumulative IPC: 2.976 (Simulation time: 00 hr 18 min 40 sec)
Heartbeat CPU 0 instructions: 207501229 cycles: 65872239 heartbeat IPC: 2.996 cumulative IPC: 2.976 (Simulation time: 00 hr 18 min 42 sec)
Heartbeat CPU 0 instructions: 208001234 cycles: 66039310 heartbeat IPC: 2.993 cumulative IPC: 2.976 (Simulation time: 00 hr 18 min 45 sec)
Heartbeat CPU 0 instructions: 208501235 cycles: 66206316 heartbeat IPC: 2.994 cumulative IPC: 2.976 (Simulation time: 00 hr 18 min 48 sec)
Heartbeat CPU 0 instructions: 209001236 cycles: 66373320 heartbeat IPC: 2.994 cumulative IPC: 2.976 (Simulation time: 00 hr 18 min 50 sec)
Heartbeat CPU 0 instructions: 209501239 cycles: 66538478 heartbeat IPC: 3.027 cumulative IPC: 2.976 (Simulation time: 00 hr 18 min 53 sec)
Heartbeat CPU 0 instructions: 210001241 cycles: 66708475 heartbeat IPC: 2.941 cumulative IPC: 2.976 (Simulation time: 00 hr 18 min 56 sec)
Heartbeat CPU 0 instructions: 210501245 cycles: 66878043 heartbeat IPC: 2.949 cumulative IPC: 2.976 (Simulation time: 00 hr 18 min 58 sec)
Heartbeat CPU 0 instructions: 211001247 cycles: 67044603 heartbeat IPC: 3.002 cumulative IPC: 2.976 (Simulation time: 00 hr 19 min 01 sec)
Heartbeat CPU 0 instructions: 211501248 cycles: 67210750 heartbeat IPC: 3.009 cumulative IPC: 2.976 (Simulation time: 00 hr 19 min 04 sec)
Heartbeat CPU 0 instructions: 212001251 cycles: 67378573 heartbeat IPC: 2.979 cumulative IPC: 2.976 (Simulation time: 00 hr 19 min 06 sec)
Heartbeat CPU 0 instructions: 212501255 cycles: 67545243 heartbeat IPC: 3 cumulative IPC: 2.976 (Simulation time: 00 hr 19 min 09 sec)
Heartbeat CPU 0 instructions: 213001258 cycles: 67709859 heartbeat IPC: 3.037 cumulative IPC: 2.976 (Simulation time: 00 hr 19 min 12 sec)
Heartbeat CPU 0 instructions: 213501260 cycles: 67876745 heartbeat IPC: 2.996 cumulative IPC: 2.976 (Simulation time: 00 hr 19 min 14 sec)
Heartbeat CPU 0 instructions: 214001267 cycles: 68047354 heartbeat IPC: 2.931 cumulative IPC: 2.976 (Simulation time: 00 hr 19 min 17 sec)
Heartbeat CPU 0 instructions: 214501268 cycles: 68212802 heartbeat IPC: 3.022 cumulative IPC: 2.976 (Simulation time: 00 hr 19 min 20 sec)
Heartbeat CPU 0 instructions: 215001273 cycles: 68377330 heartbeat IPC: 3.039 cumulative IPC: 2.977 (Simulation time: 00 hr 19 min 22 sec)
Heartbeat CPU 0 instructions: 215501274 cycles: 68541146 heartbeat IPC: 3.052 cumulative IPC: 2.977 (Simulation time: 00 hr 19 min 25 sec)
Heartbeat CPU 0 instructions: 216001279 cycles: 68704317 heartbeat IPC: 3.064 cumulative IPC: 2.977 (Simulation time: 00 hr 19 min 27 sec)
Heartbeat CPU 0 instructions: 216501280 cycles: 68866802 heartbeat IPC: 3.077 cumulative IPC: 2.977 (Simulation time: 00 hr 19 min 30 sec)
Heartbeat CPU 0 instructions: 217001281 cycles: 69031290 heartbeat IPC: 3.04 cumulative IPC: 2.978 (Simulation time: 00 hr 19 min 33 sec)
Heartbeat CPU 0 instructions: 217501283 cycles: 69199905 heartbeat IPC: 2.965 cumulative IPC: 2.978 (Simulation time: 00 hr 19 min 35 sec)
Heartbeat CPU 0 instructions: 218001286 cycles: 69363158 heartbeat IPC: 3.063 cumulative IPC: 2.978 (Simulation time: 00 hr 19 min 38 sec)
Heartbeat CPU 0 instructions: 218501289 cycles: 69526393 heartbeat IPC: 3.063 cumulative IPC: 2.978 (Simulation time: 00 hr 19 min 40 sec)
Heartbeat CPU 0 instructions: 219001292 cycles: 69690868 heartbeat IPC: 3.04 cumulative IPC: 2.978 (Simulation time: 00 hr 19 min 43 sec)
Heartbeat CPU 0 instructions: 219501295 cycles: 69857823 heartbeat IPC: 2.995 cumulative IPC: 2.978 (Simulation time: 00 hr 19 min 46 sec)
Heartbeat CPU 0 instructions: 220001297 cycles: 70026697 heartbeat IPC: 2.961 cumulative IPC: 2.978 (Simulation time: 00 hr 19 min 48 sec)
Heartbeat CPU 0 instructions: 220501302 cycles: 70194852 heartbeat IPC: 2.973 cumulative IPC: 2.978 (Simulation time: 00 hr 19 min 51 sec)
Heartbeat CPU 0 instructions: 221001305 cycles: 70365490 heartbeat IPC: 2.93 cumulative IPC: 2.978 (Simulation time: 00 hr 19 min 54 sec)
Heartbeat CPU 0 instructions: 221501308 cycles: 70535478 heartbeat IPC: 2.941 cumulative IPC: 2.978 (Simulation time: 00 hr 19 min 56 sec)
Heartbeat CPU 0 instructions: 222001312 cycles: 70703003 heartbeat IPC: 2.985 cumulative IPC: 2.978 (Simulation time: 00 hr 19 min 59 sec)
Heartbeat CPU 0 instructions: 222501315 cycles: 70870281 heartbeat IPC: 2.989 cumulative IPC: 2.978 (Simulation time: 00 hr 20 min 02 sec)
Heartbeat CPU 0 instructions: 223001315 cycles: 71039272 heartbeat IPC: 2.959 cumulative IPC: 2.978 (Simulation time: 00 hr 20 min 04 sec)
Heartbeat CPU 0 instructions: 223501319 cycles: 71208283 heartbeat IPC: 2.958 cumulative IPC: 2.978 (Simulation time: 00 hr 20 min 07 sec)
Heartbeat CPU 0 instructions: 224001322 cycles: 71374806 heartbeat IPC: 3.003 cumulative IPC: 2.978 (Simulation time: 00 hr 20 min 10 sec)
Heartbeat CPU 0 instructions: 224501327 cycles: 71542603 heartbeat IPC: 2.98 cumulative IPC: 2.978 (Simulation time: 00 hr 20 min 13 sec)
Heartbeat CPU 0 instructions: 225001330 cycles: 71714552 heartbeat IPC: 2.908 cumulative IPC: 2.978 (Simulation time: 00 hr 20 min 15 sec)
Heartbeat CPU 0 instructions: 225501337 cycles: 71882876 heartbeat IPC: 2.971 cumulative IPC: 2.978 (Simulation time: 00 hr 20 min 18 sec)
Heartbeat CPU 0 instructions: 226001339 cycles: 72051719 heartbeat IPC: 2.961 cumulative IPC: 2.978 (Simulation time: 00 hr 20 min 21 sec)
Heartbeat CPU 0 instructions: 226501339 cycles: 72229131 heartbeat IPC: 2.818 cumulative IPC: 2.977 (Simulation time: 00 hr 20 min 23 sec)
Heartbeat CPU 0 instructions: 227001340 cycles: 72397493 heartbeat IPC: 2.97 cumulative IPC: 2.977 (Simulation time: 00 hr 20 min 26 sec)
Heartbeat CPU 0 instructions: 227501341 cycles: 72566205 heartbeat IPC: 2.964 cumulative IPC: 2.977 (Simulation time: 00 hr 20 min 29 sec)
Heartbeat CPU 0 instructions: 228001342 cycles: 72734175 heartbeat IPC: 2.977 cumulative IPC: 2.977 (Simulation time: 00 hr 20 min 31 sec)
Heartbeat CPU 0 instructions: 228501342 cycles: 72908614 heartbeat IPC: 2.866 cumulative IPC: 2.977 (Simulation time: 00 hr 20 min 34 sec)
Heartbeat CPU 0 instructions: 229001343 cycles: 73075791 heartbeat IPC: 2.991 cumulative IPC: 2.977 (Simulation time: 00 hr 20 min 37 sec)
Heartbeat CPU 0 instructions: 229501346 cycles: 73243595 heartbeat IPC: 2.98 cumulative IPC: 2.977 (Simulation time: 00 hr 20 min 39 sec)
Heartbeat CPU 0 instructions: 230001349 cycles: 73412649 heartbeat IPC: 2.958 cumulative IPC: 2.977 (Simulation time: 00 hr 20 min 42 sec)
Heartbeat CPU 0 instructions: 230501354 cycles: 73581563 heartbeat IPC: 2.96 cumulative IPC: 2.977 (Simulation time: 00 hr 20 min 45 sec)
Heartbeat CPU 0 instructions: 231001361 cycles: 73748193 heartbeat IPC: 3.001 cumulative IPC: 2.977 (Simulation time: 00 hr 20 min 48 sec)
Heartbeat CPU 0 instructions: 231501364 cycles: 73916197 heartbeat IPC: 2.976 cumulative IPC: 2.977 (Simulation time: 00 hr 20 min 50 sec)
Heartbeat CPU 0 instructions: 232001365 cycles: 74088027 heartbeat IPC: 2.91 cumulative IPC: 2.977 (Simulation time: 00 hr 20 min 53 sec)
Heartbeat CPU 0 instructions: 232501369 cycles: 74258961 heartbeat IPC: 2.925 cumulative IPC: 2.977 (Simulation time: 00 hr 20 min 56 sec)
Heartbeat CPU 0 instructions: 233001369 cycles: 74427580 heartbeat IPC: 2.965 cumulative IPC: 2.977 (Simulation time: 00 hr 20 min 58 sec)
Heartbeat CPU 0 instructions: 233501373 cycles: 74594271 heartbeat IPC: 3 cumulative IPC: 2.977 (Simulation time: 00 hr 21 min 01 sec)
Heartbeat CPU 0 instructions: 234001377 cycles: 74761690 heartbeat IPC: 2.987 cumulative IPC: 2.977 (Simulation time: 00 hr 21 min 04 sec)
Heartbeat CPU 0 instructions: 234501380 cycles: 74928904 heartbeat IPC: 2.99 cumulative IPC: 2.977 (Simulation time: 00 hr 21 min 06 sec)
Heartbeat CPU 0 instructions: 235001385 cycles: 75095802 heartbeat IPC: 2.996 cumulative IPC: 2.977 (Simulation time: 00 hr 21 min 09 sec)
Heartbeat CPU 0 instructions: 235501386 cycles: 75263519 heartbeat IPC: 2.981 cumulative IPC: 2.977 (Simulation time: 00 hr 21 min 12 sec)
Heartbeat CPU 0 instructions: 236001392 cycles: 75435646 heartbeat IPC: 2.905 cumulative IPC: 2.976 (Simulation time: 00 hr 21 min 14 sec)
Heartbeat CPU 0 instructions: 236501393 cycles: 75602591 heartbeat IPC: 2.995 cumulative IPC: 2.977 (Simulation time: 00 hr 21 min 17 sec)
Heartbeat CPU 0 instructions: 237001396 cycles: 75768015 heartbeat IPC: 3.023 cumulative IPC: 2.977 (Simulation time: 00 hr 21 min 20 sec)
Heartbeat CPU 0 instructions: 237501403 cycles: 75934495 heartbeat IPC: 3.003 cumulative IPC: 2.977 (Simulation time: 00 hr 21 min 22 sec)
Heartbeat CPU 0 instructions: 238001404 cycles: 76101594 heartbeat IPC: 2.992 cumulative IPC: 2.977 (Simulation time: 00 hr 21 min 25 sec)
Heartbeat CPU 0 instructions: 238501407 cycles: 76268248 heartbeat IPC: 3 cumulative IPC: 2.977 (Simulation time: 00 hr 21 min 28 sec)
Heartbeat CPU 0 instructions: 239001410 cycles: 76434896 heartbeat IPC: 3 cumulative IPC: 2.977 (Simulation time: 00 hr 21 min 30 sec)
Heartbeat CPU 0 instructions: 239501411 cycles: 76606530 heartbeat IPC: 2.913 cumulative IPC: 2.977 (Simulation time: 00 hr 21 min 33 sec)
Heartbeat CPU 0 instructions: 240001414 cycles: 76774380 heartbeat IPC: 2.979 cumulative IPC: 2.977 (Simulation time: 00 hr 21 min 36 sec)
Heartbeat CPU 0 instructions: 240501415 cycles: 76940227 heartbeat IPC: 3.015 cumulative IPC: 2.977 (Simulation time: 00 hr 21 min 38 sec)
Heartbeat CPU 0 instructions: 241001420 cycles: 77107587 heartbeat IPC: 2.988 cumulative IPC: 2.977 (Simulation time: 00 hr 21 min 41 sec)
Heartbeat CPU 0 instructions: 241501427 cycles: 77272102 heartbeat IPC: 3.039 cumulative IPC: 2.977 (Simulation time: 00 hr 21 min 44 sec)
Heartbeat CPU 0 instructions: 242001427 cycles: 77440334 heartbeat IPC: 2.972 cumulative IPC: 2.977 (Simulation time: 00 hr 21 min 46 sec)
Heartbeat CPU 0 instructions: 242501429 cycles: 77606820 heartbeat IPC: 3.003 cumulative IPC: 2.977 (Simulation time: 00 hr 21 min 49 sec)
Heartbeat CPU 0 instructions: 243001430 cycles: 77776528 heartbeat IPC: 2.946 cumulative IPC: 2.977 (Simulation time: 00 hr 21 min 52 sec)
Heartbeat CPU 0 instructions: 243501434 cycles: 77945693 heartbeat IPC: 2.956 cumulative IPC: 2.977 (Simulation time: 00 hr 21 min 54 sec)
Heartbeat CPU 0 instructions: 244001437 cycles: 78111669 heartbeat IPC: 3.013 cumulative IPC: 2.977 (Simulation time: 00 hr 21 min 57 sec)
Heartbeat CPU 0 instructions: 244501438 cycles: 78277115 heartbeat IPC: 3.022 cumulative IPC: 2.977 (Simulation time: 00 hr 22 min 00 sec)
Heartbeat CPU 0 instructions: 245001441 cycles: 78443676 heartbeat IPC: 3.002 cumulative IPC: 2.977 (Simulation time: 00 hr 22 min 02 sec)
Heartbeat CPU 0 instructions: 245501446 cycles: 78609560 heartbeat IPC: 3.014 cumulative IPC: 2.977 (Simulation time: 00 hr 22 min 05 sec)
Heartbeat CPU 0 instructions: 246001446 cycles: 78776180 heartbeat IPC: 3.001 cumulative IPC: 2.977 (Simulation time: 00 hr 22 min 08 sec)
Heartbeat CPU 0 instructions: 246501450 cycles: 78941504 heartbeat IPC: 3.024 cumulative IPC: 2.977 (Simulation time: 00 hr 22 min 10 sec)
Heartbeat CPU 0 instructions: 247001450 cycles: 79110864 heartbeat IPC: 2.952 cumulative IPC: 2.977 (Simulation time: 00 hr 22 min 13 sec)
Heartbeat CPU 0 instructions: 247501453 cycles: 79273463 heartbeat IPC: 3.075 cumulative IPC: 2.978 (Simulation time: 00 hr 22 min 15 sec)
Heartbeat CPU 0 instructions: 248001459 cycles: 79436787 heartbeat IPC: 3.061 cumulative IPC: 2.978 (Simulation time: 00 hr 22 min 18 sec)
Heartbeat CPU 0 instructions: 248501462 cycles: 79600632 heartbeat IPC: 3.052 cumulative IPC: 2.978 (Simulation time: 00 hr 22 min 21 sec)
Heartbeat CPU 0 instructions: 249001465 cycles: 79764495 heartbeat IPC: 3.051 cumulative IPC: 2.978 (Simulation time: 00 hr 22 min 23 sec)
Heartbeat CPU 0 instructions: 249501470 cycles: 79927865 heartbeat IPC: 3.061 cumulative IPC: 2.978 (Simulation time: 00 hr 22 min 26 sec)
Simulation finished CPU 0 instructions: 200000007 cycles: 67145116 cumulative IPC: 2.979 (Simulation time: 00 hr 22 min 28 sec)
Simulation complete CPU 0 instructions: 200000007 cycles: 67145116 cumulative IPC: 2.979 (Simulation time: 00 hr 22 min 28 sec)

ChampSim completed all CPUs

=== Simulation ===
CPU 0 runs /local-ssd/ben/dpc4-traces/ai-ml/whisper_trace_2.champsimtrace.gz

Region of Interest Statistics

CPU 0 cumulative IPC: 2.979 instructions: 200000007 cycles: 67145116
CPU 0 Branch Prediction Accuracy: 96.01% MPKI: 2.804 Average ROB Occupancy at Mispredict: 225.9
Branch type MPKI
BRANCH_DIRECT_JUMP: 0
BRANCH_INDIRECT: 0
BRANCH_CONDITIONAL: 2.804
BRANCH_DIRECT_CALL: 0
BRANCH_INDIRECT_CALL: 0
BRANCH_RETURN: 0

cpu0->cpu0_STLB TOTAL        ACCESS:      27009 HIT:       5796 MISS:      21213 MSHR_MERGE:          0
cpu0->cpu0_STLB LOAD         ACCESS:      27009 HIT:       5796 MISS:      21213 MSHR_MERGE:          0
cpu0->cpu0_STLB RFO          ACCESS:          0 HIT:          0 MISS:          0 MSHR_MERGE:          0
cpu0->cpu0_STLB PREFETCH     ACCESS:          0 HIT:          0 MISS:          0 MSHR_MERGE:          0
cpu0->cpu0_STLB WRITE        ACCESS:          0 HIT:          0 MISS:          0 MSHR_MERGE:          0
cpu0->cpu0_STLB TRANSLATION  ACCESS:          0 HIT:          0 MISS:          0 MSHR_MERGE:          0
cpu0->cpu0_STLB PREFETCH REQUESTED:          0 ISSUED:          0 USEFUL:          0 USELESS:          0
cpu0->cpu0_STLB AVERAGE MISS LATENCY: 48.92 cycles
cpu0->cpu0_L2C TOTAL        ACCESS:   12451817 HIT:    6783960 MISS:    5667857 MSHR_MERGE:    4313368
cpu0->cpu0_L2C LOAD         ACCESS:    3575938 HIT:    2313734 MISS:    1262204 MSHR_MERGE:     695543
cpu0->cpu0_L2C RFO          ACCESS:      33197 HIT:        324 MISS:      32873 MSHR_MERGE:          0
cpu0->cpu0_L2C PREFETCH     ACCESS:    8798020 HIT:    4428162 MISS:    4369858 MSHR_MERGE:    3617825
cpu0->cpu0_L2C WRITE        ACCESS:      40136 HIT:      40131 MISS:          5 MSHR_MERGE:          0
cpu0->cpu0_L2C TRANSLATION  ACCESS:       4526 HIT:       1609 MISS:       2917 MSHR_MERGE:          0
cpu0->cpu0_L2C PREFETCH REQUESTED:   16563847 ISSUED:    8798014 USEFUL:     751782 USELESS:        251
cpu0->cpu0_L2C AVERAGE MISS LATENCY: 138.4 cycles
cpu0->cpu0_L1I TOTAL        ACCESS:   21303797 HIT:   21303797 MISS:          0 MSHR_MERGE:          0
cpu0->cpu0_L1I LOAD         ACCESS:   21303797 HIT:   21303797 MISS:          0 MSHR_MERGE:          0
cpu0->cpu0_L1I RFO          ACCESS:          0 HIT:          0 MISS:          0 MSHR_MERGE:          0
cpu0->cpu0_L1I PREFETCH     ACCESS:          0 HIT:          0 MISS:          0 MSHR_MERGE:          0
cpu0->cpu0_L1I WRITE        ACCESS:          0 HIT:          0 MISS:          0 MSHR_MERGE:          0
cpu0->cpu0_L1I TRANSLATION  ACCESS:          0 HIT:          0 MISS:          0 MSHR_MERGE:          0
cpu0->cpu0_L1I PREFETCH REQUESTED:          0 ISSUED:          0 USEFUL:          0 USELESS:          0
cpu0->cpu0_L1I AVERAGE MISS LATENCY: - cycles
cpu0->cpu0_L1D TOTAL        ACCESS:   55876086 HIT:   52003312 MISS:    3872774 MSHR_MERGE:     259114
cpu0->cpu0_L1D LOAD         ACCESS:   53362041 HIT:   49559863 MISS:    3802178 MSHR_MERGE:     226241
cpu0->cpu0_L1D RFO          ACCESS:          0 HIT:          0 MISS:          0 MSHR_MERGE:          0
cpu0->cpu0_L1D PREFETCH     ACCESS:          0 HIT:          0 MISS:          0 MSHR_MERGE:          0
cpu0->cpu0_L1D WRITE        ACCESS:    2471618 HIT:    2405548 MISS:      66070 MSHR_MERGE:      32873
cpu0->cpu0_L1D TRANSLATION  ACCESS:      42427 HIT:      37901 MISS:       4526 MSHR_MERGE:          0
cpu0->cpu0_L1D PREFETCH REQUESTED:          0 ISSUED:          0 USEFUL:          0 USELESS:          0
cpu0->cpu0_L1D AVERAGE MISS LATENCY: 58.34 cycles
cpu0->cpu0_ITLB TOTAL        ACCESS:   15458556 HIT:   15458556 MISS:          0 MSHR_MERGE:          0
cpu0->cpu0_ITLB LOAD         ACCESS:   15458556 HIT:   15458556 MISS:          0 MSHR_MERGE:          0
cpu0->cpu0_ITLB RFO          ACCESS:          0 HIT:          0 MISS:          0 MSHR_MERGE:          0
cpu0->cpu0_ITLB PREFETCH     ACCESS:          0 HIT:          0 MISS:          0 MSHR_MERGE:          0
cpu0->cpu0_ITLB WRITE        ACCESS:          0 HIT:          0 MISS:          0 MSHR_MERGE:          0
cpu0->cpu0_ITLB TRANSLATION  ACCESS:          0 HIT:          0 MISS:          0 MSHR_MERGE:          0
cpu0->cpu0_ITLB PREFETCH REQUESTED:          0 ISSUED:          0 USEFUL:          0 USELESS:          0
cpu0->cpu0_ITLB AVERAGE MISS LATENCY: - cycles
cpu0->cpu0_DTLB TOTAL        ACCESS:   54900042 HIT:   54717789 MISS:     182253 MSHR_MERGE:     155244
cpu0->cpu0_DTLB LOAD         ACCESS:   54900042 HIT:   54717789 MISS:     182253 MSHR_MERGE:     155244
cpu0->cpu0_DTLB RFO          ACCESS:          0 HIT:          0 MISS:          0 MSHR_MERGE:          0
cpu0->cpu0_DTLB PREFETCH     ACCESS:          0 HIT:          0 MISS:          0 MSHR_MERGE:          0
cpu0->cpu0_DTLB WRITE        ACCESS:          0 HIT:          0 MISS:          0 MSHR_MERGE:          0
cpu0->cpu0_DTLB TRANSLATION  ACCESS:          0 HIT:          0 MISS:          0 MSHR_MERGE:          0
cpu0->cpu0_DTLB PREFETCH REQUESTED:          0 ISSUED:          0 USEFUL:          0 USELESS:          0
cpu0->cpu0_DTLB AVERAGE MISS LATENCY: 44.21 cycles
cpu0->LLC TOTAL        ACCESS:    2663453 HIT:     419050 MISS:    2244403 MSHR_MERGE:    1051800
cpu0->LLC LOAD         ACCESS:     566661 HIT:     178955 MISS:     387706 MSHR_MERGE:     169135
cpu0->LLC RFO          ACCESS:      32873 HIT:          0 MISS:      32873 MSHR_MERGE:          0
cpu0->LLC PREFETCH     ACCESS:    2028083 HIT:     234556 MISS:    1793527 MSHR_MERGE:     882665
cpu0->LLC WRITE        ACCESS:      32919 HIT:       5305 MISS:      27614 MSHR_MERGE:          0
cpu0->LLC TRANSLATION  ACCESS:       2917 HIT:        234 MISS:       2683 MSHR_MERGE:          0
cpu0->LLC PREFETCH REQUESTED:    1276491 ISSUED:    1276050 USEFUL:     221529 USELESS:     614977
cpu0->LLC AVERAGE MISS LATENCY: 176.7 cycles

DRAM Statistics

Channel 0 RQ ROW_BUFFER_HIT:     483972
  ROW_BUFFER_MISS:     681017
  AVG DBUS CONGESTED CYCLE: 5.159
Channel 0 WQ ROW_BUFFER_HIT:       6280
  ROW_BUFFER_MISS:      22778
  FULL:          0
Channel 0 REFRESHES ISSUED:       5595
BERTI Stats...
