[VMEM] WARNING: physical memory size is smaller than virtual memory size.
Berti Gaze Initialized with Sets: 64 Ways: 12

*** ChampSim Multicore Out-of-Order Simulator ***
Warmup Instructions: 50000000
Simulation Instructions: 200000000
Number of CPUs: 1
Page size: 4096
Core 0: /local-ssd/ben/dpc4-traces/Graph/Ligra/ligra_PageRankDelta.com-lj.ungraph.gcc_6.3.0_O3.drop_6000M.length_250M.champsimtrace.xz
Off-chip DRAM Size: 64 GiB Channels: 1 Width: 64-bit Data Rate: 4807 MT/s
Heartbeat CPU 0 instructions: 500000 cycles: 180415 heartbeat IPC: 2.771 cumulative IPC: 2.771 (Simulation time: 00 hr 00 min 02 sec)
Heartbeat CPU 0 instructions: 1000004 cycles: 358734 heartbeat IPC: 2.804 cumulative IPC: 2.788 (Simulation time: 00 hr 00 min 04 sec)
Heartbeat CPU 0 instructions: 1500010 cycles: 537057 heartbeat IPC: 2.804 cumulative IPC: 2.793 (Simulation time: 00 hr 00 min 05 sec)
Heartbeat CPU 0 instructions: 2000013 cycles: 715375 heartbeat IPC: 2.804 cumulative IPC: 2.796 (Simulation time: 00 hr 00 min 07 sec)
Heartbeat CPU 0 instructions: 2500016 cycles: 893698 heartbeat IPC: 2.804 cumulative IPC: 2.797 (Simulation time: 00 hr 00 min 09 sec)
Heartbeat CPU 0 instructions: 3000017 cycles: 1072014 heartbeat IPC: 2.804 cumulative IPC: 2.798 (Simulation time: 00 hr 00 min 11 sec)
Heartbeat CPU 0 instructions: 3500020 cycles: 1250337 heartbeat IPC: 2.804 cumulative IPC: 2.799 (Simulation time: 00 hr 00 min 12 sec)
Heartbeat CPU 0 instructions: 4000023 cycles: 1428660 heartbeat IPC: 2.804 cumulative IPC: 2.8 (Simulation time: 00 hr 00 min 14 sec)
Heartbeat CPU 0 instructions: 4500024 cycles: 1606976 heartbeat IPC: 2.804 cumulative IPC: 2.8 (Simulation time: 00 hr 00 min 16 sec)
Heartbeat CPU 0 instructions: 5000027 cycles: 1785472 heartbeat IPC: 2.801 cumulative IPC: 2.8 (Simulation time: 00 hr 00 min 17 sec)
Heartbeat CPU 0 instructions: 5500028 cycles: 1963788 heartbeat IPC: 2.804 cumulative IPC: 2.801 (Simulation time: 00 hr 00 min 19 sec)
Heartbeat CPU 0 instructions: 6000031 cycles: 2142111 heartbeat IPC: 2.804 cumulative IPC: 2.801 (Simulation time: 00 hr 00 min 21 sec)
Heartbeat CPU 0 instructions: 6500038 cycles: 2320430 heartbeat IPC: 2.804 cumulative IPC: 2.801 (Simulation time: 00 hr 00 min 23 sec)
Heartbeat CPU 0 instructions: 7000040 cycles: 2498752 heartbeat IPC: 2.804 cumulative IPC: 2.801 (Simulation time: 00 hr 00 min 24 sec)
Heartbeat CPU 0 instructions: 7500046 cycles: 2677076 heartbeat IPC: 2.804 cumulative IPC: 2.802 (Simulation time: 00 hr 00 min 26 sec)
Heartbeat CPU 0 instructions: 8000050 cycles: 2855394 heartbeat IPC: 2.804 cumulative IPC: 2.802 (Simulation time: 00 hr 00 min 28 sec)
Heartbeat CPU 0 instructions: 8500052 cycles: 3033716 heartbeat IPC: 2.804 cumulative IPC: 2.802 (Simulation time: 00 hr 00 min 29 sec)
Heartbeat CPU 0 instructions: 9000056 cycles: 3212035 heartbeat IPC: 2.804 cumulative IPC: 2.802 (Simulation time: 00 hr 00 min 31 sec)
Heartbeat CPU 0 instructions: 9500058 cycles: 3390372 heartbeat IPC: 2.804 cumulative IPC: 2.802 (Simulation time: 00 hr 00 min 33 sec)
Heartbeat CPU 0 instructions: 10000060 cycles: 3568674 heartbeat IPC: 2.804 cumulative IPC: 2.802 (Simulation time: 00 hr 00 min 35 sec)
Heartbeat CPU 0 instructions: 10500063 cycles: 3746997 heartbeat IPC: 2.804 cumulative IPC: 2.802 (Simulation time: 00 hr 00 min 36 sec)
Heartbeat CPU 0 instructions: 11000066 cycles: 3925320 heartbeat IPC: 2.804 cumulative IPC: 2.802 (Simulation time: 00 hr 00 min 38 sec)
Heartbeat CPU 0 instructions: 11500067 cycles: 4103636 heartbeat IPC: 2.804 cumulative IPC: 2.802 (Simulation time: 00 hr 00 min 40 sec)
Heartbeat CPU 0 instructions: 12000070 cycles: 4281959 heartbeat IPC: 2.804 cumulative IPC: 2.802 (Simulation time: 00 hr 00 min 42 sec)
Heartbeat CPU 0 instructions: 12500071 cycles: 4460275 heartbeat IPC: 2.804 cumulative IPC: 2.803 (Simulation time: 00 hr 00 min 43 sec)
Heartbeat CPU 0 instructions: 13000074 cycles: 4638598 heartbeat IPC: 2.804 cumulative IPC: 2.803 (Simulation time: 00 hr 00 min 45 sec)
Heartbeat CPU 0 instructions: 13500077 cycles: 4816921 heartbeat IPC: 2.804 cumulative IPC: 2.803 (Simulation time: 00 hr 00 min 47 sec)
Heartbeat CPU 0 instructions: 14000078 cycles: 4995237 heartbeat IPC: 2.804 cumulative IPC: 2.803 (Simulation time: 00 hr 00 min 48 sec)
Heartbeat CPU 0 instructions: 14500081 cycles: 5173560 heartbeat IPC: 2.804 cumulative IPC: 2.803 (Simulation time: 00 hr 00 min 50 sec)
Heartbeat CPU 0 instructions: 15000088 cycles: 5351879 heartbeat IPC: 2.804 cumulative IPC: 2.803 (Simulation time: 00 hr 00 min 52 sec)
Heartbeat CPU 0 instructions: 15500090 cycles: 5530201 heartbeat IPC: 2.804 cumulative IPC: 2.803 (Simulation time: 00 hr 00 min 54 sec)
Heartbeat CPU 0 instructions: 16000094 cycles: 5708696 heartbeat IPC: 2.801 cumulative IPC: 2.803 (Simulation time: 00 hr 00 min 55 sec)
Heartbeat CPU 0 instructions: 16500094 cycles: 5887141 heartbeat IPC: 2.802 cumulative IPC: 2.803 (Simulation time: 00 hr 00 min 57 sec)
Heartbeat CPU 0 instructions: 17000098 cycles: 6065340 heartbeat IPC: 2.806 cumulative IPC: 2.803 (Simulation time: 00 hr 00 min 59 sec)
Heartbeat CPU 0 instructions: 17500101 cycles: 6243658 heartbeat IPC: 2.804 cumulative IPC: 2.803 (Simulation time: 00 hr 01 min 00 sec)
Heartbeat CPU 0 instructions: 18000104 cycles: 6421981 heartbeat IPC: 2.804 cumulative IPC: 2.803 (Simulation time: 00 hr 01 min 02 sec)
Heartbeat CPU 0 instructions: 18500105 cycles: 6600297 heartbeat IPC: 2.804 cumulative IPC: 2.803 (Simulation time: 00 hr 01 min 04 sec)
Heartbeat CPU 0 instructions: 19000108 cycles: 6778620 heartbeat IPC: 2.804 cumulative IPC: 2.803 (Simulation time: 00 hr 01 min 06 sec)
Heartbeat CPU 0 instructions: 19500109 cycles: 6956936 heartbeat IPC: 2.804 cumulative IPC: 2.803 (Simulation time: 00 hr 01 min 07 sec)
Heartbeat CPU 0 instructions: 20000112 cycles: 7135259 heartbeat IPC: 2.804 cumulative IPC: 2.803 (Simulation time: 00 hr 01 min 09 sec)
Heartbeat CPU 0 instructions: 20500115 cycles: 7313582 heartbeat IPC: 2.804 cumulative IPC: 2.803 (Simulation time: 00 hr 01 min 11 sec)
Heartbeat CPU 0 instructions: 21000116 cycles: 7491898 heartbeat IPC: 2.804 cumulative IPC: 2.803 (Simulation time: 00 hr 01 min 13 sec)
Heartbeat CPU 0 instructions: 21500119 cycles: 7670221 heartbeat IPC: 2.804 cumulative IPC: 2.803 (Simulation time: 00 hr 01 min 14 sec)
Heartbeat CPU 0 instructions: 22000126 cycles: 7848540 heartbeat IPC: 2.804 cumulative IPC: 2.803 (Simulation time: 00 hr 01 min 16 sec)
Heartbeat CPU 0 instructions: 22500128 cycles: 8026862 heartbeat IPC: 2.804 cumulative IPC: 2.803 (Simulation time: 00 hr 01 min 18 sec)
Heartbeat CPU 0 instructions: 23000132 cycles: 8205181 heartbeat IPC: 2.804 cumulative IPC: 2.803 (Simulation time: 00 hr 01 min 19 sec)
Heartbeat CPU 0 instructions: 23500138 cycles: 8383504 heartbeat IPC: 2.804 cumulative IPC: 2.803 (Simulation time: 00 hr 01 min 21 sec)
Heartbeat CPU 0 instructions: 24000140 cycles: 8561826 heartbeat IPC: 2.804 cumulative IPC: 2.803 (Simulation time: 00 hr 01 min 23 sec)
Heartbeat CPU 0 instructions: 24500144 cycles: 8740145 heartbeat IPC: 2.804 cumulative IPC: 2.803 (Simulation time: 00 hr 01 min 25 sec)
Heartbeat CPU 0 instructions: 25000150 cycles: 8918468 heartbeat IPC: 2.804 cumulative IPC: 2.803 (Simulation time: 00 hr 01 min 26 sec)
Heartbeat CPU 0 instructions: 25500153 cycles: 9096786 heartbeat IPC: 2.804 cumulative IPC: 2.803 (Simulation time: 00 hr 01 min 28 sec)
Heartbeat CPU 0 instructions: 26000156 cycles: 9275109 heartbeat IPC: 2.804 cumulative IPC: 2.803 (Simulation time: 00 hr 01 min 30 sec)
Heartbeat CPU 0 instructions: 26500157 cycles: 9453425 heartbeat IPC: 2.804 cumulative IPC: 2.803 (Simulation time: 00 hr 01 min 31 sec)
Heartbeat CPU 0 instructions: 27000160 cycles: 9631924 heartbeat IPC: 2.801 cumulative IPC: 2.803 (Simulation time: 00 hr 01 min 33 sec)
Heartbeat CPU 0 instructions: 27500163 cycles: 9810247 heartbeat IPC: 2.804 cumulative IPC: 2.803 (Simulation time: 00 hr 01 min 35 sec)
Heartbeat CPU 0 instructions: 28000164 cycles: 9988563 heartbeat IPC: 2.804 cumulative IPC: 2.803 (Simulation time: 00 hr 01 min 37 sec)
Heartbeat CPU 0 instructions: 28500167 cycles: 10166886 heartbeat IPC: 2.804 cumulative IPC: 2.803 (Simulation time: 00 hr 01 min 38 sec)
Heartbeat CPU 0 instructions: 29000168 cycles: 10345202 heartbeat IPC: 2.804 cumulative IPC: 2.803 (Simulation time: 00 hr 01 min 40 sec)
Heartbeat CPU 0 instructions: 29500171 cycles: 10523525 heartbeat IPC: 2.804 cumulative IPC: 2.803 (Simulation time: 00 hr 01 min 42 sec)
Heartbeat CPU 0 instructions: 30000178 cycles: 10701844 heartbeat IPC: 2.804 cumulative IPC: 2.803 (Simulation time: 00 hr 01 min 44 sec)
Heartbeat CPU 0 instructions: 30500180 cycles: 10880166 heartbeat IPC: 2.804 cumulative IPC: 2.803 (Simulation time: 00 hr 01 min 45 sec)
Heartbeat CPU 0 instructions: 31000186 cycles: 11058490 heartbeat IPC: 2.804 cumulative IPC: 2.803 (Simulation time: 00 hr 01 min 47 sec)
Heartbeat CPU 0 instructions: 31500190 cycles: 11236808 heartbeat IPC: 2.804 cumulative IPC: 2.803 (Simulation time: 00 hr 01 min 49 sec)
Heartbeat CPU 0 instructions: 32000192 cycles: 11415130 heartbeat IPC: 2.804 cumulative IPC: 2.803 (Simulation time: 00 hr 01 min 50 sec)
Heartbeat CPU 0 instructions: 32500196 cycles: 11593449 heartbeat IPC: 2.804 cumulative IPC: 2.803 (Simulation time: 00 hr 01 min 52 sec)
Heartbeat CPU 0 instructions: 33000198 cycles: 11771787 heartbeat IPC: 2.804 cumulative IPC: 2.803 (Simulation time: 00 hr 01 min 54 sec)
Heartbeat CPU 0 instructions: 33500200 cycles: 11950088 heartbeat IPC: 2.804 cumulative IPC: 2.803 (Simulation time: 00 hr 01 min 56 sec)
Heartbeat CPU 0 instructions: 34000203 cycles: 12128411 heartbeat IPC: 2.804 cumulative IPC: 2.803 (Simulation time: 00 hr 01 min 57 sec)
Heartbeat CPU 0 instructions: 34500206 cycles: 12306734 heartbeat IPC: 2.804 cumulative IPC: 2.803 (Simulation time: 00 hr 01 min 59 sec)
Heartbeat CPU 0 instructions: 35000207 cycles: 12485050 heartbeat IPC: 2.804 cumulative IPC: 2.803 (Simulation time: 00 hr 02 min 01 sec)
Heartbeat CPU 0 instructions: 35500210 cycles: 12663373 heartbeat IPC: 2.804 cumulative IPC: 2.803 (Simulation time: 00 hr 02 min 02 sec)
Heartbeat CPU 0 instructions: 36000211 cycles: 12841689 heartbeat IPC: 2.804 cumulative IPC: 2.803 (Simulation time: 00 hr 02 min 04 sec)
Heartbeat CPU 0 instructions: 36500214 cycles: 13020012 heartbeat IPC: 2.804 cumulative IPC: 2.803 (Simulation time: 00 hr 02 min 06 sec)
Heartbeat CPU 0 instructions: 37000217 cycles: 13198335 heartbeat IPC: 2.804 cumulative IPC: 2.803 (Simulation time: 00 hr 02 min 08 sec)
Heartbeat CPU 0 instructions: 37500218 cycles: 13376651 heartbeat IPC: 2.804 cumulative IPC: 2.803 (Simulation time: 00 hr 02 min 09 sec)
Heartbeat CPU 0 instructions: 38000221 cycles: 13555150 heartbeat IPC: 2.801 cumulative IPC: 2.803 (Simulation time: 00 hr 02 min 11 sec)
Heartbeat CPU 0 instructions: 38500228 cycles: 13733469 heartbeat IPC: 2.804 cumulative IPC: 2.803 (Simulation time: 00 hr 02 min 13 sec)
Heartbeat CPU 0 instructions: 39000230 cycles: 13911791 heartbeat IPC: 2.804 cumulative IPC: 2.803 (Simulation time: 00 hr 02 min 14 sec)
Heartbeat CPU 0 instructions: 39500234 cycles: 14090110 heartbeat IPC: 2.804 cumulative IPC: 2.803 (Simulation time: 00 hr 02 min 16 sec)
Heartbeat CPU 0 instructions: 40000234 cycles: 14268554 heartbeat IPC: 2.802 cumulative IPC: 2.803 (Simulation time: 00 hr 02 min 18 sec)
Heartbeat CPU 0 instructions: 40500238 cycles: 14446754 heartbeat IPC: 2.806 cumulative IPC: 2.803 (Simulation time: 00 hr 02 min 20 sec)
Heartbeat CPU 0 instructions: 41000241 cycles: 14625072 heartbeat IPC: 2.804 cumulative IPC: 2.803 (Simulation time: 00 hr 02 min 21 sec)
Heartbeat CPU 0 instructions: 41500244 cycles: 14803395 heartbeat IPC: 2.804 cumulative IPC: 2.803 (Simulation time: 00 hr 02 min 23 sec)
Heartbeat CPU 0 instructions: 42000245 cycles: 14981711 heartbeat IPC: 2.804 cumulative IPC: 2.803 (Simulation time: 00 hr 02 min 25 sec)
Heartbeat CPU 0 instructions: 42500248 cycles: 15160034 heartbeat IPC: 2.804 cumulative IPC: 2.803 (Simulation time: 00 hr 02 min 27 sec)
Heartbeat CPU 0 instructions: 43000249 cycles: 15338350 heartbeat IPC: 2.804 cumulative IPC: 2.803 (Simulation time: 00 hr 02 min 28 sec)
Heartbeat CPU 0 instructions: 43500252 cycles: 15516673 heartbeat IPC: 2.804 cumulative IPC: 2.803 (Simulation time: 00 hr 02 min 30 sec)
Heartbeat CPU 0 instructions: 44000255 cycles: 15694996 heartbeat IPC: 2.804 cumulative IPC: 2.803 (Simulation time: 00 hr 02 min 32 sec)
Heartbeat CPU 0 instructions: 44500256 cycles: 15873312 heartbeat IPC: 2.804 cumulative IPC: 2.803 (Simulation time: 00 hr 02 min 33 sec)
Heartbeat CPU 0 instructions: 45000259 cycles: 16051635 heartbeat IPC: 2.804 cumulative IPC: 2.803 (Simulation time: 00 hr 02 min 35 sec)
Heartbeat CPU 0 instructions: 45500266 cycles: 16229954 heartbeat IPC: 2.804 cumulative IPC: 2.803 (Simulation time: 00 hr 02 min 37 sec)
Heartbeat CPU 0 instructions: 46000268 cycles: 16408276 heartbeat IPC: 2.804 cumulative IPC: 2.803 (Simulation time: 00 hr 02 min 39 sec)
Heartbeat CPU 0 instructions: 46500272 cycles: 16586595 heartbeat IPC: 2.804 cumulative IPC: 2.803 (Simulation time: 00 hr 02 min 40 sec)
Heartbeat CPU 0 instructions: 47000278 cycles: 16764918 heartbeat IPC: 2.804 cumulative IPC: 2.803 (Simulation time: 00 hr 02 min 42 sec)
Heartbeat CPU 0 instructions: 47500280 cycles: 16943240 heartbeat IPC: 2.804 cumulative IPC: 2.803 (Simulation time: 00 hr 02 min 44 sec)
Heartbeat CPU 0 instructions: 48000284 cycles: 17121559 heartbeat IPC: 2.804 cumulative IPC: 2.803 (Simulation time: 00 hr 02 min 46 sec)
Heartbeat CPU 0 instructions: 48500290 cycles: 17299882 heartbeat IPC: 2.804 cumulative IPC: 2.804 (Simulation time: 00 hr 02 min 47 sec)
Heartbeat CPU 0 instructions: 49000293 cycles: 17478376 heartbeat IPC: 2.801 cumulative IPC: 2.803 (Simulation time: 00 hr 02 min 49 sec)
Heartbeat CPU 0 instructions: 49500296 cycles: 17656699 heartbeat IPC: 2.804 cumulative IPC: 2.803 (Simulation time: 00 hr 02 min 51 sec)
Warmup halting CPU 0 at instruction 50000003 cycle 17834910 for remainder of phase
Warmup finished CPU 0 instructions: 50000003 cycles: 17834910 cumulative IPC: 2.803 (Simulation time: 00 hr 02 min 52 sec)
Warmup complete CPU 0 instructions: 50000003 cycles: 17834910 cumulative IPC: 2.803 (Simulation time: 00 hr 02 min 52 sec)
Heartbeat CPU 0 instructions: 50000296 cycles: 17835102 heartbeat IPC: 2.803 cumulative IPC: 1.526 (Simulation time: 00 hr 02 min 52 sec)
Heartbeat CPU 0 instructions: 50500296 cycles: 18193519 heartbeat IPC: 1.395 cumulative IPC: 1.395 (Simulation time: 00 hr 02 min 56 sec)
Heartbeat CPU 0 instructions: 51000297 cycles: 18553198 heartbeat IPC: 1.39 cumulative IPC: 1.393 (Simulation time: 00 hr 02 min 59 sec)
Heartbeat CPU 0 instructions: 51500298 cycles: 18912139 heartbeat IPC: 1.393 cumulative IPC: 1.393 (Simulation time: 00 hr 03 min 02 sec)
Heartbeat CPU 0 instructions: 52000298 cycles: 19272410 heartbeat IPC: 1.388 cumulative IPC: 1.392 (Simulation time: 00 hr 03 min 05 sec)
Heartbeat CPU 0 instructions: 52500298 cycles: 19631981 heartbeat IPC: 1.391 cumulative IPC: 1.391 (Simulation time: 00 hr 03 min 09 sec)
Heartbeat CPU 0 instructions: 53000299 cycles: 19991965 heartbeat IPC: 1.389 cumulative IPC: 1.391 (Simulation time: 00 hr 03 min 12 sec)
Heartbeat CPU 0 instructions: 53500299 cycles: 20352343 heartbeat IPC: 1.387 cumulative IPC: 1.39 (Simulation time: 00 hr 03 min 15 sec)
Heartbeat CPU 0 instructions: 54000299 cycles: 20711335 heartbeat IPC: 1.393 cumulative IPC: 1.391 (Simulation time: 00 hr 03 min 18 sec)
Heartbeat CPU 0 instructions: 54500300 cycles: 21072035 heartbeat IPC: 1.386 cumulative IPC: 1.39 (Simulation time: 00 hr 03 min 21 sec)
Heartbeat CPU 0 instructions: 55000301 cycles: 21430620 heartbeat IPC: 1.394 cumulative IPC: 1.391 (Simulation time: 00 hr 03 min 25 sec)
Heartbeat CPU 0 instructions: 55500301 cycles: 21790426 heartbeat IPC: 1.39 cumulative IPC: 1.391 (Simulation time: 00 hr 03 min 28 sec)
Heartbeat CPU 0 instructions: 56000301 cycles: 22149932 heartbeat IPC: 1.391 cumulative IPC: 1.391 (Simulation time: 00 hr 03 min 31 sec)
Heartbeat CPU 0 instructions: 56500303 cycles: 22509136 heartbeat IPC: 1.392 cumulative IPC: 1.391 (Simulation time: 00 hr 03 min 34 sec)
Heartbeat CPU 0 instructions: 57000304 cycles: 22867981 heartbeat IPC: 1.393 cumulative IPC: 1.391 (Simulation time: 00 hr 03 min 37 sec)
Heartbeat CPU 0 instructions: 57500305 cycles: 23227835 heartbeat IPC: 1.389 cumulative IPC: 1.391 (Simulation time: 00 hr 03 min 41 sec)
Heartbeat CPU 0 instructions: 58000305 cycles: 23586336 heartbeat IPC: 1.395 cumulative IPC: 1.391 (Simulation time: 00 hr 03 min 44 sec)
Heartbeat CPU 0 instructions: 58500306 cycles: 23946006 heartbeat IPC: 1.39 cumulative IPC: 1.391 (Simulation time: 00 hr 03 min 47 sec)
Heartbeat CPU 0 instructions: 59000307 cycles: 24306663 heartbeat IPC: 1.386 cumulative IPC: 1.391 (Simulation time: 00 hr 03 min 50 sec)
Heartbeat CPU 0 instructions: 59500308 cycles: 24666126 heartbeat IPC: 1.391 cumulative IPC: 1.391 (Simulation time: 00 hr 03 min 53 sec)
Heartbeat CPU 0 instructions: 60000308 cycles: 25026400 heartbeat IPC: 1.388 cumulative IPC: 1.391 (Simulation time: 00 hr 03 min 56 sec)
Heartbeat CPU 0 instructions: 60500309 cycles: 25387251 heartbeat IPC: 1.386 cumulative IPC: 1.39 (Simulation time: 00 hr 04 min 00 sec)
Heartbeat CPU 0 instructions: 61000309 cycles: 25745470 heartbeat IPC: 1.396 cumulative IPC: 1.391 (Simulation time: 00 hr 04 min 03 sec)
Heartbeat CPU 0 instructions: 61500309 cycles: 26105801 heartbeat IPC: 1.388 cumulative IPC: 1.39 (Simulation time: 00 hr 04 min 06 sec)
Heartbeat CPU 0 instructions: 62000309 cycles: 26464592 heartbeat IPC: 1.394 cumulative IPC: 1.391 (Simulation time: 00 hr 04 min 09 sec)
Heartbeat CPU 0 instructions: 62500310 cycles: 26824221 heartbeat IPC: 1.39 cumulative IPC: 1.391 (Simulation time: 00 hr 04 min 12 sec)
Heartbeat CPU 0 instructions: 63000311 cycles: 27183883 heartbeat IPC: 1.39 cumulative IPC: 1.391 (Simulation time: 00 hr 04 min 15 sec)
Heartbeat CPU 0 instructions: 63500311 cycles: 27544191 heartbeat IPC: 1.388 cumulative IPC: 1.39 (Simulation time: 00 hr 04 min 19 sec)
Heartbeat CPU 0 instructions: 64000312 cycles: 27904110 heartbeat IPC: 1.389 cumulative IPC: 1.39 (Simulation time: 00 hr 04 min 22 sec)
Heartbeat CPU 0 instructions: 64500313 cycles: 28264429 heartbeat IPC: 1.388 cumulative IPC: 1.39 (Simulation time: 00 hr 04 min 25 sec)
Heartbeat CPU 0 instructions: 65000313 cycles: 28623728 heartbeat IPC: 1.392 cumulative IPC: 1.39 (Simulation time: 00 hr 04 min 28 sec)
Heartbeat CPU 0 instructions: 65500315 cycles: 28983973 heartbeat IPC: 1.388 cumulative IPC: 1.39 (Simulation time: 00 hr 04 min 31 sec)
Heartbeat CPU 0 instructions: 66000315 cycles: 29343008 heartbeat IPC: 1.393 cumulative IPC: 1.39 (Simulation time: 00 hr 04 min 35 sec)
Heartbeat CPU 0 instructions: 66500316 cycles: 29703963 heartbeat IPC: 1.385 cumulative IPC: 1.39 (Simulation time: 00 hr 04 min 38 sec)
Heartbeat CPU 0 instructions: 67000317 cycles: 30063649 heartbeat IPC: 1.39 cumulative IPC: 1.39 (Simulation time: 00 hr 04 min 41 sec)
Heartbeat CPU 0 instructions: 67500317 cycles: 30421895 heartbeat IPC: 1.396 cumulative IPC: 1.39 (Simulation time: 00 hr 04 min 44 sec)
Heartbeat CPU 0 instructions: 68000318 cycles: 30781875 heartbeat IPC: 1.389 cumulative IPC: 1.39 (Simulation time: 00 hr 04 min 47 sec)
Heartbeat CPU 0 instructions: 68500319 cycles: 31140462 heartbeat IPC: 1.394 cumulative IPC: 1.39 (Simulation time: 00 hr 04 min 51 sec)
Heartbeat CPU 0 instructions: 69000319 cycles: 31498572 heartbeat IPC: 1.396 cumulative IPC: 1.391 (Simulation time: 00 hr 04 min 54 sec)
Heartbeat CPU 0 instructions: 69500319 cycles: 31858370 heartbeat IPC: 1.39 cumulative IPC: 1.391 (Simulation time: 00 hr 04 min 57 sec)
Heartbeat CPU 0 instructions: 70000319 cycles: 32218170 heartbeat IPC: 1.39 cumulative IPC: 1.391 (Simulation time: 00 hr 05 min 00 sec)
Heartbeat CPU 0 instructions: 70500320 cycles: 32577844 heartbeat IPC: 1.39 cumulative IPC: 1.391 (Simulation time: 00 hr 05 min 03 sec)
Heartbeat CPU 0 instructions: 71000320 cycles: 32938563 heartbeat IPC: 1.386 cumulative IPC: 1.39 (Simulation time: 00 hr 05 min 07 sec)
Heartbeat CPU 0 instructions: 71500321 cycles: 33297944 heartbeat IPC: 1.391 cumulative IPC: 1.39 (Simulation time: 00 hr 05 min 10 sec)
Heartbeat CPU 0 instructions: 72000322 cycles: 33656605 heartbeat IPC: 1.394 cumulative IPC: 1.391 (Simulation time: 00 hr 05 min 13 sec)
Heartbeat CPU 0 instructions: 72500323 cycles: 34016508 heartbeat IPC: 1.389 cumulative IPC: 1.39 (Simulation time: 00 hr 05 min 16 sec)
Heartbeat CPU 0 instructions: 73000323 cycles: 34379041 heartbeat IPC: 1.379 cumulative IPC: 1.39 (Simulation time: 00 hr 05 min 19 sec)
Heartbeat CPU 0 instructions: 73500325 cycles: 34737304 heartbeat IPC: 1.396 cumulative IPC: 1.39 (Simulation time: 00 hr 05 min 22 sec)
Heartbeat CPU 0 instructions: 74000325 cycles: 35096848 heartbeat IPC: 1.391 cumulative IPC: 1.39 (Simulation time: 00 hr 05 min 26 sec)
Heartbeat CPU 0 instructions: 74500327 cycles: 35456154 heartbeat IPC: 1.392 cumulative IPC: 1.39 (Simulation time: 00 hr 05 min 29 sec)
Heartbeat CPU 0 instructions: 75000327 cycles: 35816410 heartbeat IPC: 1.388 cumulative IPC: 1.39 (Simulation time: 00 hr 05 min 32 sec)
Heartbeat CPU 0 instructions: 75500327 cycles: 36177089 heartbeat IPC: 1.386 cumulative IPC: 1.39 (Simulation time: 00 hr 05 min 35 sec)
Heartbeat CPU 0 instructions: 76000328 cycles: 36536495 heartbeat IPC: 1.391 cumulative IPC: 1.39 (Simulation time: 00 hr 05 min 38 sec)
Heartbeat CPU 0 instructions: 76500329 cycles: 36894689 heartbeat IPC: 1.396 cumulative IPC: 1.39 (Simulation time: 00 hr 05 min 42 sec)
Heartbeat CPU 0 instructions: 77000329 cycles: 37254313 heartbeat IPC: 1.39 cumulative IPC: 1.39 (Simulation time: 00 hr 05 min 45 sec)
Heartbeat CPU 0 instructions: 77500329 cycles: 37612593 heartbeat IPC: 1.396 cumulative IPC: 1.39 (Simulation time: 00 hr 05 min 48 sec)
Heartbeat CPU 0 instructions: 78000331 cycles: 37971133 heartbeat IPC: 1.395 cumulative IPC: 1.391 (Simulation time: 00 hr 05 min 51 sec)
Heartbeat CPU 0 instructions: 78500332 cycles: 38331024 heartbeat IPC: 1.389 cumulative IPC: 1.391 (Simulation time: 00 hr 05 min 54 sec)
Heartbeat CPU 0 instructions: 79000333 cycles: 38690738 heartbeat IPC: 1.39 cumulative IPC: 1.391 (Simulation time: 00 hr 05 min 57 sec)
Heartbeat CPU 0 instructions: 79500334 cycles: 39050874 heartbeat IPC: 1.388 cumulative IPC: 1.39 (Simulation time: 00 hr 06 min 01 sec)
Heartbeat CPU 0 instructions: 80000334 cycles: 39410969 heartbeat IPC: 1.389 cumulative IPC: 1.39 (Simulation time: 00 hr 06 min 04 sec)
Heartbeat CPU 0 instructions: 80500335 cycles: 39770769 heartbeat IPC: 1.39 cumulative IPC: 1.39 (Simulation time: 00 hr 06 min 07 sec)
Heartbeat CPU 0 instructions: 81000336 cycles: 40130428 heartbeat IPC: 1.39 cumulative IPC: 1.39 (Simulation time: 00 hr 06 min 10 sec)
Heartbeat CPU 0 instructions: 81500336 cycles: 40489787 heartbeat IPC: 1.391 cumulative IPC: 1.39 (Simulation time: 00 hr 06 min 13 sec)
Heartbeat CPU 0 instructions: 82000336 cycles: 40848074 heartbeat IPC: 1.396 cumulative IPC: 1.391 (Simulation time: 00 hr 06 min 17 sec)
Heartbeat CPU 0 instructions: 82500337 cycles: 41208239 heartbeat IPC: 1.388 cumulative IPC: 1.39 (Simulation time: 00 hr 06 min 20 sec)
Heartbeat CPU 0 instructions: 83000337 cycles: 41566856 heartbeat IPC: 1.394 cumulative IPC: 1.391 (Simulation time: 00 hr 06 min 23 sec)
Heartbeat CPU 0 instructions: 83500337 cycles: 41926302 heartbeat IPC: 1.391 cumulative IPC: 1.391 (Simulation time: 00 hr 06 min 26 sec)
Heartbeat CPU 0 instructions: 84000338 cycles: 42284135 heartbeat IPC: 1.397 cumulative IPC: 1.391 (Simulation time: 00 hr 06 min 29 sec)
Heartbeat CPU 0 instructions: 84500339 cycles: 42642223 heartbeat IPC: 1.396 cumulative IPC: 1.391 (Simulation time: 00 hr 06 min 33 sec)
Heartbeat CPU 0 instructions: 85000339 cycles: 43001012 heartbeat IPC: 1.394 cumulative IPC: 1.391 (Simulation time: 00 hr 06 min 36 sec)
Heartbeat CPU 0 instructions: 85500339 cycles: 43359166 heartbeat IPC: 1.396 cumulative IPC: 1.391 (Simulation time: 00 hr 06 min 39 sec)
Heartbeat CPU 0 instructions: 86000341 cycles: 43717542 heartbeat IPC: 1.395 cumulative IPC: 1.391 (Simulation time: 00 hr 06 min 42 sec)
Heartbeat CPU 0 instructions: 86500342 cycles: 44078378 heartbeat IPC: 1.386 cumulative IPC: 1.391 (Simulation time: 00 hr 06 min 45 sec)
Heartbeat CPU 0 instructions: 87000343 cycles: 44436885 heartbeat IPC: 1.395 cumulative IPC: 1.391 (Simulation time: 00 hr 06 min 48 sec)
Heartbeat CPU 0 instructions: 87500343 cycles: 44795060 heartbeat IPC: 1.396 cumulative IPC: 1.391 (Simulation time: 00 hr 06 min 52 sec)
Heartbeat CPU 0 instructions: 88000344 cycles: 45154587 heartbeat IPC: 1.391 cumulative IPC: 1.391 (Simulation time: 00 hr 06 min 55 sec)
Heartbeat CPU 0 instructions: 88500345 cycles: 45512925 heartbeat IPC: 1.395 cumulative IPC: 1.391 (Simulation time: 00 hr 06 min 58 sec)
Heartbeat CPU 0 instructions: 89000346 cycles: 45872415 heartbeat IPC: 1.391 cumulative IPC: 1.391 (Simulation time: 00 hr 07 min 01 sec)
Heartbeat CPU 0 instructions: 89500346 cycles: 46231330 heartbeat IPC: 1.393 cumulative IPC: 1.391 (Simulation time: 00 hr 07 min 04 sec)
Heartbeat CPU 0 instructions: 90000346 cycles: 46591099 heartbeat IPC: 1.39 cumulative IPC: 1.391 (Simulation time: 00 hr 07 min 08 sec)
Heartbeat CPU 0 instructions: 90500347 cycles: 46950947 heartbeat IPC: 1.389 cumulative IPC: 1.391 (Simulation time: 00 hr 07 min 11 sec)
Heartbeat CPU 0 instructions: 91000347 cycles: 47310926 heartbeat IPC: 1.389 cumulative IPC: 1.391 (Simulation time: 00 hr 07 min 14 sec)
Heartbeat CPU 0 instructions: 91500347 cycles: 47670459 heartbeat IPC: 1.391 cumulative IPC: 1.391 (Simulation time: 00 hr 07 min 17 sec)
Heartbeat CPU 0 instructions: 92000348 cycles: 48030712 heartbeat IPC: 1.388 cumulative IPC: 1.391 (Simulation time: 00 hr 07 min 20 sec)
Heartbeat CPU 0 instructions: 92500349 cycles: 48389394 heartbeat IPC: 1.394 cumulative IPC: 1.391 (Simulation time: 00 hr 07 min 23 sec)
Heartbeat CPU 0 instructions: 93000349 cycles: 48749627 heartbeat IPC: 1.388 cumulative IPC: 1.391 (Simulation time: 00 hr 07 min 27 sec)
Heartbeat CPU 0 instructions: 93500349 cycles: 49109484 heartbeat IPC: 1.389 cumulative IPC: 1.391 (Simulation time: 00 hr 07 min 30 sec)
Heartbeat CPU 0 instructions: 94000351 cycles: 49468788 heartbeat IPC: 1.392 cumulative IPC: 1.391 (Simulation time: 00 hr 07 min 33 sec)
Heartbeat CPU 0 instructions: 94500351 cycles: 49828056 heartbeat IPC: 1.392 cumulative IPC: 1.391 (Simulation time: 00 hr 07 min 36 sec)
Heartbeat CPU 0 instructions: 95000353 cycles: 50186241 heartbeat IPC: 1.396 cumulative IPC: 1.391 (Simulation time: 00 hr 07 min 39 sec)
Heartbeat CPU 0 instructions: 95500353 cycles: 50544327 heartbeat IPC: 1.396 cumulative IPC: 1.391 (Simulation time: 00 hr 07 min 42 sec)
Heartbeat CPU 0 instructions: 96000354 cycles: 50904444 heartbeat IPC: 1.388 cumulative IPC: 1.391 (Simulation time: 00 hr 07 min 46 sec)
Heartbeat CPU 0 instructions: 96500355 cycles: 51264592 heartbeat IPC: 1.388 cumulative IPC: 1.391 (Simulation time: 00 hr 07 min 49 sec)
Heartbeat CPU 0 instructions: 97000356 cycles: 51624122 heartbeat IPC: 1.391 cumulative IPC: 1.391 (Simulation time: 00 hr 07 min 52 sec)
Heartbeat CPU 0 instructions: 97500356 cycles: 51983949 heartbeat IPC: 1.39 cumulative IPC: 1.391 (Simulation time: 00 hr 07 min 55 sec)
Heartbeat CPU 0 instructions: 98000357 cycles: 52343763 heartbeat IPC: 1.39 cumulative IPC: 1.391 (Simulation time: 00 hr 07 min 58 sec)
Heartbeat CPU 0 instructions: 98500357 cycles: 52703476 heartbeat IPC: 1.39 cumulative IPC: 1.391 (Simulation time: 00 hr 08 min 01 sec)
Heartbeat CPU 0 instructions: 99000357 cycles: 53063593 heartbeat IPC: 1.388 cumulative IPC: 1.391 (Simulation time: 00 hr 08 min 05 sec)
Heartbeat CPU 0 instructions: 99500357 cycles: 53421487 heartbeat IPC: 1.397 cumulative IPC: 1.391 (Simulation time: 00 hr 08 min 08 sec)
Heartbeat CPU 0 instructions: 100000358 cycles: 53779591 heartbeat IPC: 1.396 cumulative IPC: 1.391 (Simulation time: 00 hr 08 min 11 sec)
Heartbeat CPU 0 instructions: 100500359 cycles: 54139256 heartbeat IPC: 1.39 cumulative IPC: 1.391 (Simulation time: 00 hr 08 min 14 sec)
Heartbeat CPU 0 instructions: 101000359 cycles: 54497810 heartbeat IPC: 1.394 cumulative IPC: 1.391 (Simulation time: 00 hr 08 min 17 sec)
Heartbeat CPU 0 instructions: 101500360 cycles: 54859329 heartbeat IPC: 1.383 cumulative IPC: 1.391 (Simulation time: 00 hr 08 min 21 sec)
Heartbeat CPU 0 instructions: 102000361 cycles: 55219199 heartbeat IPC: 1.389 cumulative IPC: 1.391 (Simulation time: 00 hr 08 min 24 sec)
Heartbeat CPU 0 instructions: 102500361 cycles: 55577174 heartbeat IPC: 1.397 cumulative IPC: 1.391 (Simulation time: 00 hr 08 min 27 sec)
Heartbeat CPU 0 instructions: 103000363 cycles: 55938642 heartbeat IPC: 1.383 cumulative IPC: 1.391 (Simulation time: 00 hr 08 min 30 sec)
Heartbeat CPU 0 instructions: 103500363 cycles: 56298941 heartbeat IPC: 1.388 cumulative IPC: 1.391 (Simulation time: 00 hr 08 min 33 sec)
Heartbeat CPU 0 instructions: 104000365 cycles: 56657136 heartbeat IPC: 1.396 cumulative IPC: 1.391 (Simulation time: 00 hr 08 min 37 sec)
Heartbeat CPU 0 instructions: 104500365 cycles: 57016884 heartbeat IPC: 1.39 cumulative IPC: 1.391 (Simulation time: 00 hr 08 min 40 sec)
Heartbeat CPU 0 instructions: 105000365 cycles: 57374826 heartbeat IPC: 1.397 cumulative IPC: 1.391 (Simulation time: 00 hr 08 min 43 sec)
Heartbeat CPU 0 instructions: 105500366 cycles: 57734614 heartbeat IPC: 1.39 cumulative IPC: 1.391 (Simulation time: 00 hr 08 min 46 sec)
Heartbeat CPU 0 instructions: 106000367 cycles: 58093514 heartbeat IPC: 1.393 cumulative IPC: 1.391 (Simulation time: 00 hr 08 min 49 sec)
Heartbeat CPU 0 instructions: 106500367 cycles: 58451377 heartbeat IPC: 1.397 cumulative IPC: 1.391 (Simulation time: 00 hr 08 min 52 sec)
Heartbeat CPU 0 instructions: 107000367 cycles: 58809270 heartbeat IPC: 1.397 cumulative IPC: 1.391 (Simulation time: 00 hr 08 min 56 sec)
Heartbeat CPU 0 instructions: 107500369 cycles: 59167592 heartbeat IPC: 1.395 cumulative IPC: 1.391 (Simulation time: 00 hr 08 min 59 sec)
Heartbeat CPU 0 instructions: 108000370 cycles: 59527190 heartbeat IPC: 1.39 cumulative IPC: 1.391 (Simulation time: 00 hr 09 min 02 sec)
Heartbeat CPU 0 instructions: 108500371 cycles: 59888914 heartbeat IPC: 1.382 cumulative IPC: 1.391 (Simulation time: 00 hr 09 min 05 sec)
Heartbeat CPU 0 instructions: 109000372 cycles: 60247238 heartbeat IPC: 1.395 cumulative IPC: 1.391 (Simulation time: 00 hr 09 min 08 sec)
Heartbeat CPU 0 instructions: 109500372 cycles: 60607075 heartbeat IPC: 1.39 cumulative IPC: 1.391 (Simulation time: 00 hr 09 min 12 sec)
Heartbeat CPU 0 instructions: 110000373 cycles: 60967015 heartbeat IPC: 1.389 cumulative IPC: 1.391 (Simulation time: 00 hr 09 min 15 sec)
Heartbeat CPU 0 instructions: 110500374 cycles: 61327509 heartbeat IPC: 1.387 cumulative IPC: 1.391 (Simulation time: 00 hr 09 min 18 sec)
Heartbeat CPU 0 instructions: 111000374 cycles: 61686858 heartbeat IPC: 1.391 cumulative IPC: 1.391 (Simulation time: 00 hr 09 min 21 sec)
Heartbeat CPU 0 instructions: 111500374 cycles: 62046880 heartbeat IPC: 1.389 cumulative IPC: 1.391 (Simulation time: 00 hr 09 min 24 sec)
Heartbeat CPU 0 instructions: 112000375 cycles: 62406538 heartbeat IPC: 1.39 cumulative IPC: 1.391 (Simulation time: 00 hr 09 min 28 sec)
Heartbeat CPU 0 instructions: 112500375 cycles: 62767679 heartbeat IPC: 1.385 cumulative IPC: 1.391 (Simulation time: 00 hr 09 min 31 sec)
Heartbeat CPU 0 instructions: 113000375 cycles: 63126558 heartbeat IPC: 1.393 cumulative IPC: 1.391 (Simulation time: 00 hr 09 min 34 sec)
Heartbeat CPU 0 instructions: 113500376 cycles: 63486283 heartbeat IPC: 1.39 cumulative IPC: 1.391 (Simulation time: 00 hr 09 min 37 sec)
Heartbeat CPU 0 instructions: 114000377 cycles: 63846153 heartbeat IPC: 1.389 cumulative IPC: 1.391 (Simulation time: 00 hr 09 min 40 sec)
Heartbeat CPU 0 instructions: 114500377 cycles: 64206224 heartbeat IPC: 1.389 cumulative IPC: 1.391 (Simulation time: 00 hr 09 min 44 sec)
Heartbeat CPU 0 instructions: 115000377 cycles: 64565709 heartbeat IPC: 1.391 cumulative IPC: 1.391 (Simulation time: 00 hr 09 min 47 sec)
Heartbeat CPU 0 instructions: 115500379 cycles: 64925964 heartbeat IPC: 1.388 cumulative IPC: 1.391 (Simulation time: 00 hr 09 min 50 sec)
Heartbeat CPU 0 instructions: 116000380 cycles: 65285800 heartbeat IPC: 1.39 cumulative IPC: 1.391 (Simulation time: 00 hr 09 min 53 sec)
Heartbeat CPU 0 instructions: 116500381 cycles: 65645648 heartbeat IPC: 1.389 cumulative IPC: 1.391 (Simulation time: 00 hr 09 min 56 sec)
Heartbeat CPU 0 instructions: 117000382 cycles: 66005326 heartbeat IPC: 1.39 cumulative IPC: 1.391 (Simulation time: 00 hr 09 min 59 sec)
Heartbeat CPU 0 instructions: 117500382 cycles: 66364098 heartbeat IPC: 1.394 cumulative IPC: 1.391 (Simulation time: 00 hr 10 min 03 sec)
Heartbeat CPU 0 instructions: 118000383 cycles: 66724105 heartbeat IPC: 1.389 cumulative IPC: 1.391 (Simulation time: 00 hr 10 min 06 sec)
Heartbeat CPU 0 instructions: 118500384 cycles: 67084568 heartbeat IPC: 1.387 cumulative IPC: 1.391 (Simulation time: 00 hr 10 min 09 sec)
Heartbeat CPU 0 instructions: 119000384 cycles: 67443805 heartbeat IPC: 1.392 cumulative IPC: 1.391 (Simulation time: 00 hr 10 min 12 sec)
Heartbeat CPU 0 instructions: 119500384 cycles: 67804316 heartbeat IPC: 1.387 cumulative IPC: 1.391 (Simulation time: 00 hr 10 min 15 sec)
Heartbeat CPU 0 instructions: 120000385 cycles: 68164029 heartbeat IPC: 1.39 cumulative IPC: 1.391 (Simulation time: 00 hr 10 min 19 sec)
Heartbeat CPU 0 instructions: 120500385 cycles: 68524322 heartbeat IPC: 1.388 cumulative IPC: 1.391 (Simulation time: 00 hr 10 min 22 sec)
Heartbeat CPU 0 instructions: 121000385 cycles: 68884056 heartbeat IPC: 1.39 cumulative IPC: 1.391 (Simulation time: 00 hr 10 min 25 sec)
Heartbeat CPU 0 instructions: 121500386 cycles: 69243818 heartbeat IPC: 1.39 cumulative IPC: 1.391 (Simulation time: 00 hr 10 min 28 sec)
Heartbeat CPU 0 instructions: 122000387 cycles: 69602376 heartbeat IPC: 1.394 cumulative IPC: 1.391 (Simulation time: 00 hr 10 min 31 sec)
Heartbeat CPU 0 instructions: 122500387 cycles: 69963934 heartbeat IPC: 1.383 cumulative IPC: 1.391 (Simulation time: 00 hr 10 min 34 sec)
Heartbeat CPU 0 instructions: 123000387 cycles: 70322237 heartbeat IPC: 1.395 cumulative IPC: 1.391 (Simulation time: 00 hr 10 min 38 sec)
Heartbeat CPU 0 instructions: 123500389 cycles: 70683412 heartbeat IPC: 1.384 cumulative IPC: 1.391 (Simulation time: 00 hr 10 min 41 sec)
Heartbeat CPU 0 instructions: 124000390 cycles: 71041810 heartbeat IPC: 1.395 cumulative IPC: 1.391 (Simulation time: 00 hr 10 min 44 sec)
Heartbeat CPU 0 instructions: 124500391 cycles: 71402857 heartbeat IPC: 1.385 cumulative IPC: 1.391 (Simulation time: 00 hr 10 min 47 sec)
Heartbeat CPU 0 instructions: 125000391 cycles: 71763846 heartbeat IPC: 1.385 cumulative IPC: 1.391 (Simulation time: 00 hr 10 min 51 sec)
Heartbeat CPU 0 instructions: 125500392 cycles: 72121812 heartbeat IPC: 1.397 cumulative IPC: 1.391 (Simulation time: 00 hr 10 min 54 sec)
Heartbeat CPU 0 instructions: 126000393 cycles: 72482753 heartbeat IPC: 1.385 cumulative IPC: 1.391 (Simulation time: 00 hr 10 min 57 sec)
Heartbeat CPU 0 instructions: 126500394 cycles: 72841396 heartbeat IPC: 1.394 cumulative IPC: 1.391 (Simulation time: 00 hr 11 min 00 sec)
Heartbeat CPU 0 instructions: 127000394 cycles: 73201246 heartbeat IPC: 1.389 cumulative IPC: 1.391 (Simulation time: 00 hr 11 min 03 sec)
Heartbeat CPU 0 instructions: 127500395 cycles: 73561397 heartbeat IPC: 1.388 cumulative IPC: 1.391 (Simulation time: 00 hr 11 min 06 sec)
Heartbeat CPU 0 instructions: 128000395 cycles: 73921166 heartbeat IPC: 1.39 cumulative IPC: 1.391 (Simulation time: 00 hr 11 min 09 sec)
Heartbeat CPU 0 instructions: 128500395 cycles: 74280726 heartbeat IPC: 1.391 cumulative IPC: 1.391 (Simulation time: 00 hr 11 min 13 sec)
Heartbeat CPU 0 instructions: 129000395 cycles: 74641750 heartbeat IPC: 1.385 cumulative IPC: 1.391 (Simulation time: 00 hr 11 min 16 sec)
Heartbeat CPU 0 instructions: 129500396 cycles: 75000858 heartbeat IPC: 1.392 cumulative IPC: 1.391 (Simulation time: 00 hr 11 min 19 sec)
Heartbeat CPU 0 instructions: 130000397 cycles: 75360703 heartbeat IPC: 1.389 cumulative IPC: 1.391 (Simulation time: 00 hr 11 min 22 sec)
Heartbeat CPU 0 instructions: 130500397 cycles: 75720588 heartbeat IPC: 1.389 cumulative IPC: 1.391 (Simulation time: 00 hr 11 min 25 sec)
Heartbeat CPU 0 instructions: 131000398 cycles: 76080080 heartbeat IPC: 1.391 cumulative IPC: 1.391 (Simulation time: 00 hr 11 min 28 sec)
Heartbeat CPU 0 instructions: 131500399 cycles: 76439994 heartbeat IPC: 1.389 cumulative IPC: 1.391 (Simulation time: 00 hr 11 min 32 sec)
Heartbeat CPU 0 instructions: 132000399 cycles: 76800323 heartbeat IPC: 1.388 cumulative IPC: 1.391 (Simulation time: 00 hr 11 min 35 sec)
Heartbeat CPU 0 instructions: 132500401 cycles: 77159934 heartbeat IPC: 1.39 cumulative IPC: 1.391 (Simulation time: 00 hr 11 min 38 sec)
Heartbeat CPU 0 instructions: 133000401 cycles: 77519488 heartbeat IPC: 1.391 cumulative IPC: 1.391 (Simulation time: 00 hr 11 min 41 sec)
Heartbeat CPU 0 instructions: 133500402 cycles: 77879333 heartbeat IPC: 1.389 cumulative IPC: 1.391 (Simulation time: 00 hr 11 min 44 sec)
Heartbeat CPU 0 instructions: 134000403 cycles: 78238804 heartbeat IPC: 1.391 cumulative IPC: 1.391 (Simulation time: 00 hr 11 min 48 sec)
Heartbeat CPU 0 instructions: 134500403 cycles: 78599312 heartbeat IPC: 1.387 cumulative IPC: 1.391 (Simulation time: 00 hr 11 min 51 sec)
Heartbeat CPU 0 instructions: 135000404 cycles: 78958290 heartbeat IPC: 1.393 cumulative IPC: 1.391 (Simulation time: 00 hr 11 min 54 sec)
Heartbeat CPU 0 instructions: 135500405 cycles: 79318070 heartbeat IPC: 1.39 cumulative IPC: 1.391 (Simulation time: 00 hr 11 min 57 sec)
Heartbeat CPU 0 instructions: 136000405 cycles: 79678646 heartbeat IPC: 1.387 cumulative IPC: 1.391 (Simulation time: 00 hr 12 min 00 sec)
Heartbeat CPU 0 instructions: 136500405 cycles: 80037171 heartbeat IPC: 1.395 cumulative IPC: 1.391 (Simulation time: 00 hr 12 min 04 sec)
Heartbeat CPU 0 instructions: 137000405 cycles: 80396896 heartbeat IPC: 1.39 cumulative IPC: 1.391 (Simulation time: 00 hr 12 min 07 sec)
Heartbeat CPU 0 instructions: 137500406 cycles: 80757184 heartbeat IPC: 1.388 cumulative IPC: 1.391 (Simulation time: 00 hr 12 min 10 sec)
Heartbeat CPU 0 instructions: 138000406 cycles: 81118069 heartbeat IPC: 1.385 cumulative IPC: 1.391 (Simulation time: 00 hr 12 min 13 sec)
Heartbeat CPU 0 instructions: 138500407 cycles: 81477805 heartbeat IPC: 1.39 cumulative IPC: 1.391 (Simulation time: 00 hr 12 min 16 sec)
Heartbeat CPU 0 instructions: 139000408 cycles: 81836331 heartbeat IPC: 1.395 cumulative IPC: 1.391 (Simulation time: 00 hr 12 min 20 sec)
Heartbeat CPU 0 instructions: 139500409 cycles: 82196594 heartbeat IPC: 1.388 cumulative IPC: 1.391 (Simulation time: 00 hr 12 min 23 sec)
Heartbeat CPU 0 instructions: 140000409 cycles: 82556060 heartbeat IPC: 1.391 cumulative IPC: 1.391 (Simulation time: 00 hr 12 min 26 sec)
Heartbeat CPU 0 instructions: 140500411 cycles: 82915813 heartbeat IPC: 1.39 cumulative IPC: 1.391 (Simulation time: 00 hr 12 min 29 sec)
Heartbeat CPU 0 instructions: 141000411 cycles: 83276002 heartbeat IPC: 1.388 cumulative IPC: 1.391 (Simulation time: 00 hr 12 min 32 sec)
Heartbeat CPU 0 instructions: 141500413 cycles: 83637437 heartbeat IPC: 1.383 cumulative IPC: 1.391 (Simulation time: 00 hr 12 min 36 sec)
Heartbeat CPU 0 instructions: 142000413 cycles: 83995734 heartbeat IPC: 1.395 cumulative IPC: 1.391 (Simulation time: 00 hr 12 min 39 sec)
Heartbeat CPU 0 instructions: 142500413 cycles: 84356632 heartbeat IPC: 1.385 cumulative IPC: 1.391 (Simulation time: 00 hr 12 min 42 sec)
Heartbeat CPU 0 instructions: 143000414 cycles: 84715281 heartbeat IPC: 1.394 cumulative IPC: 1.391 (Simulation time: 00 hr 12 min 45 sec)
Heartbeat CPU 0 instructions: 143500415 cycles: 85075393 heartbeat IPC: 1.388 cumulative IPC: 1.391 (Simulation time: 00 hr 12 min 48 sec)
Heartbeat CPU 0 instructions: 144000415 cycles: 85435193 heartbeat IPC: 1.39 cumulative IPC: 1.391 (Simulation time: 00 hr 12 min 52 sec)
Heartbeat CPU 0 instructions: 144500415 cycles: 85795265 heartbeat IPC: 1.389 cumulative IPC: 1.391 (Simulation time: 00 hr 12 min 55 sec)
Heartbeat CPU 0 instructions: 145000417 cycles: 86154588 heartbeat IPC: 1.392 cumulative IPC: 1.391 (Simulation time: 00 hr 12 min 58 sec)
Heartbeat CPU 0 instructions: 145500418 cycles: 86513270 heartbeat IPC: 1.394 cumulative IPC: 1.391 (Simulation time: 00 hr 13 min 01 sec)
Heartbeat CPU 0 instructions: 146000419 cycles: 86872218 heartbeat IPC: 1.393 cumulative IPC: 1.391 (Simulation time: 00 hr 13 min 04 sec)
Heartbeat CPU 0 instructions: 146500420 cycles: 87231080 heartbeat IPC: 1.393 cumulative IPC: 1.391 (Simulation time: 00 hr 13 min 07 sec)
Heartbeat CPU 0 instructions: 147000420 cycles: 87589609 heartbeat IPC: 1.395 cumulative IPC: 1.391 (Simulation time: 00 hr 13 min 11 sec)
Heartbeat CPU 0 instructions: 147500421 cycles: 87948954 heartbeat IPC: 1.391 cumulative IPC: 1.391 (Simulation time: 00 hr 13 min 14 sec)
Heartbeat CPU 0 instructions: 148000422 cycles: 88306624 heartbeat IPC: 1.398 cumulative IPC: 1.391 (Simulation time: 00 hr 13 min 17 sec)
Heartbeat CPU 0 instructions: 148500422 cycles: 88665450 heartbeat IPC: 1.393 cumulative IPC: 1.391 (Simulation time: 00 hr 13 min 20 sec)
Heartbeat CPU 0 instructions: 149000422 cycles: 89025566 heartbeat IPC: 1.388 cumulative IPC: 1.391 (Simulation time: 00 hr 13 min 23 sec)
Heartbeat CPU 0 instructions: 149500423 cycles: 89385148 heartbeat IPC: 1.391 cumulative IPC: 1.391 (Simulation time: 00 hr 13 min 27 sec)
Heartbeat CPU 0 instructions: 150000423 cycles: 89744572 heartbeat IPC: 1.391 cumulative IPC: 1.391 (Simulation time: 00 hr 13 min 30 sec)
Heartbeat CPU 0 instructions: 150500423 cycles: 90105383 heartbeat IPC: 1.386 cumulative IPC: 1.391 (Simulation time: 00 hr 13 min 33 sec)
Heartbeat CPU 0 instructions: 151000424 cycles: 90464603 heartbeat IPC: 1.392 cumulative IPC: 1.391 (Simulation time: 00 hr 13 min 36 sec)
Heartbeat CPU 0 instructions: 151500425 cycles: 90824423 heartbeat IPC: 1.39 cumulative IPC: 1.391 (Simulation time: 00 hr 13 min 39 sec)
Heartbeat CPU 0 instructions: 152000425 cycles: 91184704 heartbeat IPC: 1.388 cumulative IPC: 1.391 (Simulation time: 00 hr 13 min 43 sec)
Heartbeat CPU 0 instructions: 152500425 cycles: 91544651 heartbeat IPC: 1.389 cumulative IPC: 1.391 (Simulation time: 00 hr 13 min 46 sec)
Heartbeat CPU 0 instructions: 153000427 cycles: 91902684 heartbeat IPC: 1.397 cumulative IPC: 1.391 (Simulation time: 00 hr 13 min 49 sec)
Heartbeat CPU 0 instructions: 153500428 cycles: 92262391 heartbeat IPC: 1.39 cumulative IPC: 1.391 (Simulation time: 00 hr 13 min 52 sec)
Heartbeat CPU 0 instructions: 154000429 cycles: 92620414 heartbeat IPC: 1.397 cumulative IPC: 1.391 (Simulation time: 00 hr 13 min 55 sec)
Heartbeat CPU 0 instructions: 154500429 cycles: 92978657 heartbeat IPC: 1.396 cumulative IPC: 1.391 (Simulation time: 00 hr 13 min 59 sec)
Heartbeat CPU 0 instructions: 155000430 cycles: 93338193 heartbeat IPC: 1.391 cumulative IPC: 1.391 (Simulation time: 00 hr 14 min 02 sec)
Heartbeat CPU 0 instructions: 155500431 cycles: 93698609 heartbeat IPC: 1.387 cumulative IPC: 1.391 (Simulation time: 00 hr 14 min 05 sec)
Heartbeat CPU 0 instructions: 156000432 cycles: 94058535 heartbeat IPC: 1.389 cumulative IPC: 1.391 (Simulation time: 00 hr 14 min 08 sec)
Heartbeat CPU 0 instructions: 156500432 cycles: 94418153 heartbeat IPC: 1.39 cumulative IPC: 1.391 (Simulation time: 00 hr 14 min 11 sec)
Heartbeat CPU 0 instructions: 157000432 cycles: 94778843 heartbeat IPC: 1.386 cumulative IPC: 1.391 (Simulation time: 00 hr 14 min 14 sec)
Heartbeat CPU 0 instructions: 157500433 cycles: 95139467 heartbeat IPC: 1.386 cumulative IPC: 1.391 (Simulation time: 00 hr 14 min 18 sec)
Heartbeat CPU 0 instructions: 158000433 cycles: 95499714 heartbeat IPC: 1.388 cumulative IPC: 1.391 (Simulation time: 00 hr 14 min 21 sec)
Heartbeat CPU 0 instructions: 158500433 cycles: 95857922 heartbeat IPC: 1.396 cumulative IPC: 1.391 (Simulation time: 00 hr 14 min 24 sec)
Heartbeat CPU 0 instructions: 159000434 cycles: 96217168 heartbeat IPC: 1.392 cumulative IPC: 1.391 (Simulation time: 00 hr 14 min 27 sec)
Heartbeat CPU 0 instructions: 159500435 cycles: 96577456 heartbeat IPC: 1.388 cumulative IPC: 1.391 (Simulation time: 00 hr 14 min 30 sec)
Heartbeat CPU 0 instructions: 160000435 cycles: 96937659 heartbeat IPC: 1.388 cumulative IPC: 1.391 (Simulation time: 00 hr 14 min 34 sec)
Heartbeat CPU 0 instructions: 160500435 cycles: 97297624 heartbeat IPC: 1.389 cumulative IPC: 1.391 (Simulation time: 00 hr 14 min 37 sec)
Heartbeat CPU 0 instructions: 161000437 cycles: 97657401 heartbeat IPC: 1.39 cumulative IPC: 1.391 (Simulation time: 00 hr 14 min 40 sec)
Heartbeat CPU 0 instructions: 161500437 cycles: 98016853 heartbeat IPC: 1.391 cumulative IPC: 1.391 (Simulation time: 00 hr 14 min 43 sec)
Heartbeat CPU 0 instructions: 162000439 cycles: 98374879 heartbeat IPC: 1.397 cumulative IPC: 1.391 (Simulation time: 00 hr 14 min 46 sec)
Heartbeat CPU 0 instructions: 162500439 cycles: 98734599 heartbeat IPC: 1.39 cumulative IPC: 1.391 (Simulation time: 00 hr 14 min 50 sec)
Heartbeat CPU 0 instructions: 163000440 cycles: 99093637 heartbeat IPC: 1.393 cumulative IPC: 1.391 (Simulation time: 00 hr 14 min 53 sec)
Heartbeat CPU 0 instructions: 163500441 cycles: 99452975 heartbeat IPC: 1.391 cumulative IPC: 1.391 (Simulation time: 00 hr 14 min 56 sec)
Heartbeat CPU 0 instructions: 164000442 cycles: 99811337 heartbeat IPC: 1.395 cumulative IPC: 1.391 (Simulation time: 00 hr 14 min 59 sec)
Heartbeat CPU 0 instructions: 164500442 cycles: 100171053 heartbeat IPC: 1.39 cumulative IPC: 1.391 (Simulation time: 00 hr 15 min 02 sec)
Heartbeat CPU 0 instructions: 165000443 cycles: 100532560 heartbeat IPC: 1.383 cumulative IPC: 1.391 (Simulation time: 00 hr 15 min 06 sec)
Heartbeat CPU 0 instructions: 165500443 cycles: 100892444 heartbeat IPC: 1.389 cumulative IPC: 1.391 (Simulation time: 00 hr 15 min 09 sec)
Heartbeat CPU 0 instructions: 166000443 cycles: 101251207 heartbeat IPC: 1.394 cumulative IPC: 1.391 (Simulation time: 00 hr 15 min 12 sec)
Heartbeat CPU 0 instructions: 166500443 cycles: 101610776 heartbeat IPC: 1.391 cumulative IPC: 1.391 (Simulation time: 00 hr 15 min 15 sec)
Heartbeat CPU 0 instructions: 167000444 cycles: 101970944 heartbeat IPC: 1.388 cumulative IPC: 1.391 (Simulation time: 00 hr 15 min 18 sec)
Heartbeat CPU 0 instructions: 167500445 cycles: 102330946 heartbeat IPC: 1.389 cumulative IPC: 1.391 (Simulation time: 00 hr 15 min 22 sec)
Heartbeat CPU 0 instructions: 168000445 cycles: 102693626 heartbeat IPC: 1.379 cumulative IPC: 1.391 (Simulation time: 00 hr 15 min 25 sec)
Heartbeat CPU 0 instructions: 168500446 cycles: 103051961 heartbeat IPC: 1.395 cumulative IPC: 1.391 (Simulation time: 00 hr 15 min 28 sec)
Heartbeat CPU 0 instructions: 169000447 cycles: 103411283 heartbeat IPC: 1.392 cumulative IPC: 1.391 (Simulation time: 00 hr 15 min 31 sec)
Heartbeat CPU 0 instructions: 169500447 cycles: 103770203 heartbeat IPC: 1.393 cumulative IPC: 1.391 (Simulation time: 00 hr 15 min 34 sec)
Heartbeat CPU 0 instructions: 170000449 cycles: 104131005 heartbeat IPC: 1.386 cumulative IPC: 1.391 (Simulation time: 00 hr 15 min 37 sec)
Heartbeat CPU 0 instructions: 170500449 cycles: 104491053 heartbeat IPC: 1.389 cumulative IPC: 1.391 (Simulation time: 00 hr 15 min 41 sec)
Heartbeat CPU 0 instructions: 171000451 cycles: 104851148 heartbeat IPC: 1.389 cumulative IPC: 1.391 (Simulation time: 00 hr 15 min 44 sec)
Heartbeat CPU 0 instructions: 171500451 cycles: 105209438 heartbeat IPC: 1.396 cumulative IPC: 1.391 (Simulation time: 00 hr 15 min 47 sec)
Heartbeat CPU 0 instructions: 172000451 cycles: 105569664 heartbeat IPC: 1.388 cumulative IPC: 1.391 (Simulation time: 00 hr 15 min 50 sec)
Heartbeat CPU 0 instructions: 172500452 cycles: 105929427 heartbeat IPC: 1.39 cumulative IPC: 1.391 (Simulation time: 00 hr 15 min 53 sec)
Heartbeat CPU 0 instructions: 173000453 cycles: 106289344 heartbeat IPC: 1.389 cumulative IPC: 1.391 (Simulation time: 00 hr 15 min 57 sec)
Heartbeat CPU 0 instructions: 173500453 cycles: 106648891 heartbeat IPC: 1.391 cumulative IPC: 1.391 (Simulation time: 00 hr 16 min 00 sec)
Heartbeat CPU 0 instructions: 174000453 cycles: 107007077 heartbeat IPC: 1.396 cumulative IPC: 1.391 (Simulation time: 00 hr 16 min 03 sec)
Heartbeat CPU 0 instructions: 174500455 cycles: 107366818 heartbeat IPC: 1.39 cumulative IPC: 1.391 (Simulation time: 00 hr 16 min 06 sec)
Heartbeat CPU 0 instructions: 175000456 cycles: 107725004 heartbeat IPC: 1.396 cumulative IPC: 1.391 (Simulation time: 00 hr 16 min 09 sec)
Heartbeat CPU 0 instructions: 175500457 cycles: 108083520 heartbeat IPC: 1.395 cumulative IPC: 1.391 (Simulation time: 00 hr 16 min 12 sec)
Heartbeat CPU 0 instructions: 176000458 cycles: 108443202 heartbeat IPC: 1.39 cumulative IPC: 1.391 (Simulation time: 00 hr 16 min 16 sec)
Heartbeat CPU 0 instructions: 176500458 cycles: 108803283 heartbeat IPC: 1.389 cumulative IPC: 1.391 (Simulation time: 00 hr 16 min 19 sec)
Heartbeat CPU 0 instructions: 177000459 cycles: 109162964 heartbeat IPC: 1.39 cumulative IPC: 1.391 (Simulation time: 00 hr 16 min 22 sec)
Heartbeat CPU 0 instructions: 177500460 cycles: 109522974 heartbeat IPC: 1.389 cumulative IPC: 1.391 (Simulation time: 00 hr 16 min 25 sec)
Heartbeat CPU 0 instructions: 178000460 cycles: 109882779 heartbeat IPC: 1.39 cumulative IPC: 1.391 (Simulation time: 00 hr 16 min 28 sec)
Heartbeat CPU 0 instructions: 178500460 cycles: 110242184 heartbeat IPC: 1.391 cumulative IPC: 1.391 (Simulation time: 00 hr 16 min 32 sec)
Heartbeat CPU 0 instructions: 179000461 cycles: 110604158 heartbeat IPC: 1.381 cumulative IPC: 1.391 (Simulation time: 00 hr 16 min 35 sec)
Heartbeat CPU 0 instructions: 179500461 cycles: 110962614 heartbeat IPC: 1.395 cumulative IPC: 1.391 (Simulation time: 00 hr 16 min 38 sec)
Heartbeat CPU 0 instructions: 180000461 cycles: 111324864 heartbeat IPC: 1.38 cumulative IPC: 1.391 (Simulation time: 00 hr 16 min 41 sec)
Heartbeat CPU 0 instructions: 180500462 cycles: 111683421 heartbeat IPC: 1.394 cumulative IPC: 1.391 (Simulation time: 00 hr 16 min 44 sec)
Heartbeat CPU 0 instructions: 181000463 cycles: 112043845 heartbeat IPC: 1.387 cumulative IPC: 1.391 (Simulation time: 00 hr 16 min 47 sec)
Heartbeat CPU 0 instructions: 181500463 cycles: 112406906 heartbeat IPC: 1.377 cumulative IPC: 1.39 (Simulation time: 00 hr 16 min 51 sec)
Heartbeat CPU 0 instructions: 182000463 cycles: 112765219 heartbeat IPC: 1.395 cumulative IPC: 1.39 (Simulation time: 00 hr 16 min 54 sec)
Heartbeat CPU 0 instructions: 182500465 cycles: 113124890 heartbeat IPC: 1.39 cumulative IPC: 1.39 (Simulation time: 00 hr 16 min 57 sec)
Heartbeat CPU 0 instructions: 183000466 cycles: 113486059 heartbeat IPC: 1.384 cumulative IPC: 1.39 (Simulation time: 00 hr 17 min 00 sec)
Heartbeat CPU 0 instructions: 183500467 cycles: 113845195 heartbeat IPC: 1.392 cumulative IPC: 1.39 (Simulation time: 00 hr 17 min 03 sec)
Heartbeat CPU 0 instructions: 184000468 cycles: 114204811 heartbeat IPC: 1.39 cumulative IPC: 1.39 (Simulation time: 00 hr 17 min 07 sec)
Heartbeat CPU 0 instructions: 184500468 cycles: 114565015 heartbeat IPC: 1.388 cumulative IPC: 1.39 (Simulation time: 00 hr 17 min 10 sec)
Heartbeat CPU 0 instructions: 185000469 cycles: 114925689 heartbeat IPC: 1.386 cumulative IPC: 1.39 (Simulation time: 00 hr 17 min 13 sec)
Heartbeat CPU 0 instructions: 185500470 cycles: 115285620 heartbeat IPC: 1.389 cumulative IPC: 1.39 (Simulation time: 00 hr 17 min 16 sec)
Heartbeat CPU 0 instructions: 186000470 cycles: 115644444 heartbeat IPC: 1.393 cumulative IPC: 1.39 (Simulation time: 00 hr 17 min 19 sec)
Heartbeat CPU 0 instructions: 186500470 cycles: 116003859 heartbeat IPC: 1.391 cumulative IPC: 1.39 (Simulation time: 00 hr 17 min 23 sec)
Heartbeat CPU 0 instructions: 187000471 cycles: 116363414 heartbeat IPC: 1.391 cumulative IPC: 1.39 (Simulation time: 00 hr 17 min 26 sec)
Heartbeat CPU 0 instructions: 187500471 cycles: 116723994 heartbeat IPC: 1.387 cumulative IPC: 1.39 (Simulation time: 00 hr 17 min 29 sec)
Heartbeat CPU 0 instructions: 188000471 cycles: 117083725 heartbeat IPC: 1.39 cumulative IPC: 1.39 (Simulation time: 00 hr 17 min 32 sec)
Heartbeat CPU 0 instructions: 188500472 cycles: 117443969 heartbeat IPC: 1.388 cumulative IPC: 1.39 (Simulation time: 00 hr 17 min 35 sec)
Heartbeat CPU 0 instructions: 189000473 cycles: 117802940 heartbeat IPC: 1.393 cumulative IPC: 1.39 (Simulation time: 00 hr 17 min 39 sec)
Heartbeat CPU 0 instructions: 189500473 cycles: 118162451 heartbeat IPC: 1.391 cumulative IPC: 1.39 (Simulation time: 00 hr 17 min 42 sec)
Heartbeat CPU 0 instructions: 190000473 cycles: 118522734 heartbeat IPC: 1.388 cumulative IPC: 1.39 (Simulation time: 00 hr 17 min 45 sec)
Heartbeat CPU 0 instructions: 190500475 cycles: 118882750 heartbeat IPC: 1.389 cumulative IPC: 1.39 (Simulation time: 00 hr 17 min 48 sec)
Heartbeat CPU 0 instructions: 191000475 cycles: 119242619 heartbeat IPC: 1.389 cumulative IPC: 1.39 (Simulation time: 00 hr 17 min 51 sec)
Heartbeat CPU 0 instructions: 191500477 cycles: 119601914 heartbeat IPC: 1.392 cumulative IPC: 1.39 (Simulation time: 00 hr 17 min 55 sec)
Heartbeat CPU 0 instructions: 192000477 cycles: 119962412 heartbeat IPC: 1.387 cumulative IPC: 1.39 (Simulation time: 00 hr 17 min 58 sec)
Heartbeat CPU 0 instructions: 192500478 cycles: 120322181 heartbeat IPC: 1.39 cumulative IPC: 1.39 (Simulation time: 00 hr 18 min 01 sec)
Heartbeat CPU 0 instructions: 193000479 cycles: 120680891 heartbeat IPC: 1.394 cumulative IPC: 1.39 (Simulation time: 00 hr 18 min 04 sec)
Heartbeat CPU 0 instructions: 193500480 cycles: 121040666 heartbeat IPC: 1.39 cumulative IPC: 1.39 (Simulation time: 00 hr 18 min 07 sec)
Heartbeat CPU 0 instructions: 194000480 cycles: 121400359 heartbeat IPC: 1.39 cumulative IPC: 1.39 (Simulation time: 00 hr 18 min 11 sec)
Heartbeat CPU 0 instructions: 194500481 cycles: 121759950 heartbeat IPC: 1.39 cumulative IPC: 1.39 (Simulation time: 00 hr 18 min 14 sec)
Heartbeat CPU 0 instructions: 195000481 cycles: 122121373 heartbeat IPC: 1.383 cumulative IPC: 1.39 (Simulation time: 00 hr 18 min 17 sec)
Heartbeat CPU 0 instructions: 195500481 cycles: 122480124 heartbeat IPC: 1.394 cumulative IPC: 1.39 (Simulation time: 00 hr 18 min 20 sec)
Heartbeat CPU 0 instructions: 196000481 cycles: 122839919 heartbeat IPC: 1.39 cumulative IPC: 1.39 (Simulation time: 00 hr 18 min 23 sec)
Heartbeat CPU 0 instructions: 196500482 cycles: 123201115 heartbeat IPC: 1.384 cumulative IPC: 1.39 (Simulation time: 00 hr 18 min 27 sec)
Heartbeat CPU 0 instructions: 197000483 cycles: 123561137 heartbeat IPC: 1.389 cumulative IPC: 1.39 (Simulation time: 00 hr 18 min 30 sec)
Heartbeat CPU 0 instructions: 197500483 cycles: 123919719 heartbeat IPC: 1.394 cumulative IPC: 1.39 (Simulation time: 00 hr 18 min 33 sec)
Heartbeat CPU 0 instructions: 198000484 cycles: 124279533 heartbeat IPC: 1.39 cumulative IPC: 1.39 (Simulation time: 00 hr 18 min 36 sec)
Heartbeat CPU 0 instructions: 198500485 cycles: 124639782 heartbeat IPC: 1.388 cumulative IPC: 1.39 (Simulation time: 00 hr 18 min 39 sec)
Heartbeat CPU 0 instructions: 199000485 cycles: 125001033 heartbeat IPC: 1.384 cumulative IPC: 1.39 (Simulation time: 00 hr 18 min 43 sec)
Heartbeat CPU 0 instructions: 199500487 cycles: 125360225 heartbeat IPC: 1.392 cumulative IPC: 1.39 (Simulation time: 00 hr 18 min 46 sec)
Heartbeat CPU 0 instructions: 200000487 cycles: 125720579 heartbeat IPC: 1.388 cumulative IPC: 1.39 (Simulation time: 00 hr 18 min 49 sec)
Heartbeat CPU 0 instructions: 200500488 cycles: 126079175 heartbeat IPC: 1.394 cumulative IPC: 1.39 (Simulation time: 00 hr 18 min 52 sec)
Heartbeat CPU 0 instructions: 201000489 cycles: 126438986 heartbeat IPC: 1.39 cumulative IPC: 1.39 (Simulation time: 00 hr 18 min 55 sec)
Heartbeat CPU 0 instructions: 201500489 cycles: 126798584 heartbeat IPC: 1.39 cumulative IPC: 1.39 (Simulation time: 00 hr 18 min 59 sec)
Heartbeat CPU 0 instructions: 202000490 cycles: 127159349 heartbeat IPC: 1.386 cumulative IPC: 1.39 (Simulation time: 00 hr 19 min 02 sec)
Heartbeat CPU 0 instructions: 202500491 cycles: 127520214 heartbeat IPC: 1.386 cumulative IPC: 1.39 (Simulation time: 00 hr 19 min 05 sec)
Heartbeat CPU 0 instructions: 203000491 cycles: 127878433 heartbeat IPC: 1.396 cumulative IPC: 1.39 (Simulation time: 00 hr 19 min 08 sec)
Heartbeat CPU 0 instructions: 203500491 cycles: 128238306 heartbeat IPC: 1.389 cumulative IPC: 1.39 (Simulation time: 00 hr 19 min 11 sec)
Heartbeat CPU 0 instructions: 204000491 cycles: 128596737 heartbeat IPC: 1.395 cumulative IPC: 1.39 (Simulation time: 00 hr 19 min 15 sec)
Heartbeat CPU 0 instructions: 204500492 cycles: 128956621 heartbeat IPC: 1.389 cumulative IPC: 1.39 (Simulation time: 00 hr 19 min 18 sec)
Heartbeat CPU 0 instructions: 205000492 cycles: 129317357 heartbeat IPC: 1.386 cumulative IPC: 1.39 (Simulation time: 00 hr 19 min 21 sec)
Heartbeat CPU 0 instructions: 205500493 cycles: 129677163 heartbeat IPC: 1.39 cumulative IPC: 1.39 (Simulation time: 00 hr 19 min 24 sec)
Heartbeat CPU 0 instructions: 206000494 cycles: 130036572 heartbeat IPC: 1.391 cumulative IPC: 1.39 (Simulation time: 00 hr 19 min 27 sec)
Heartbeat CPU 0 instructions: 206500495 cycles: 130396983 heartbeat IPC: 1.387 cumulative IPC: 1.39 (Simulation time: 00 hr 19 min 30 sec)
Heartbeat CPU 0 instructions: 207000495 cycles: 130757048 heartbeat IPC: 1.389 cumulative IPC: 1.39 (Simulation time: 00 hr 19 min 34 sec)
Heartbeat CPU 0 instructions: 207500497 cycles: 131116879 heartbeat IPC: 1.39 cumulative IPC: 1.39 (Simulation time: 00 hr 19 min 37 sec)
Heartbeat CPU 0 instructions: 208000497 cycles: 131475398 heartbeat IPC: 1.395 cumulative IPC: 1.39 (Simulation time: 00 hr 19 min 40 sec)
Heartbeat CPU 0 instructions: 208500499 cycles: 131836697 heartbeat IPC: 1.384 cumulative IPC: 1.39 (Simulation time: 00 hr 19 min 43 sec)
Heartbeat CPU 0 instructions: 209000499 cycles: 132195982 heartbeat IPC: 1.392 cumulative IPC: 1.39 (Simulation time: 00 hr 19 min 46 sec)
Heartbeat CPU 0 instructions: 209500499 cycles: 132556195 heartbeat IPC: 1.388 cumulative IPC: 1.39 (Simulation time: 00 hr 19 min 50 sec)
Heartbeat CPU 0 instructions: 210000501 cycles: 133146053 heartbeat IPC: 0.8477 cumulative IPC: 1.388 (Simulation time: 00 hr 19 min 56 sec)
Heartbeat CPU 0 instructions: 210500501 cycles: 134050139 heartbeat IPC: 0.553 cumulative IPC: 1.381 (Simulation time: 00 hr 20 min 09 sec)
Heartbeat CPU 0 instructions: 211000505 cycles: 134980650 heartbeat IPC: 0.5373 cumulative IPC: 1.374 (Simulation time: 00 hr 20 min 22 sec)
Heartbeat CPU 0 instructions: 211500509 cycles: 135923188 heartbeat IPC: 0.5305 cumulative IPC: 1.368 (Simulation time: 00 hr 20 min 35 sec)
Heartbeat CPU 0 instructions: 212000509 cycles: 136877407 heartbeat IPC: 0.524 cumulative IPC: 1.361 (Simulation time: 00 hr 20 min 49 sec)
Heartbeat CPU 0 instructions: 212500509 cycles: 137826612 heartbeat IPC: 0.5268 cumulative IPC: 1.354 (Simulation time: 00 hr 21 min 02 sec)
Heartbeat CPU 0 instructions: 213000509 cycles: 138766403 heartbeat IPC: 0.532 cumulative IPC: 1.348 (Simulation time: 00 hr 21 min 15 sec)
Heartbeat CPU 0 instructions: 213500509 cycles: 139716061 heartbeat IPC: 0.5265 cumulative IPC: 1.341 (Simulation time: 00 hr 21 min 29 sec)
Heartbeat CPU 0 instructions: 214000509 cycles: 140666064 heartbeat IPC: 0.5263 cumulative IPC: 1.335 (Simulation time: 00 hr 21 min 42 sec)
Heartbeat CPU 0 instructions: 214500509 cycles: 141609008 heartbeat IPC: 0.5303 cumulative IPC: 1.329 (Simulation time: 00 hr 21 min 55 sec)
Heartbeat CPU 0 instructions: 215000509 cycles: 142555783 heartbeat IPC: 0.5281 cumulative IPC: 1.323 (Simulation time: 00 hr 22 min 09 sec)
Heartbeat CPU 0 instructions: 215500509 cycles: 143520821 heartbeat IPC: 0.5181 cumulative IPC: 1.317 (Simulation time: 00 hr 22 min 22 sec)
Heartbeat CPU 0 instructions: 216000513 cycles: 144460626 heartbeat IPC: 0.532 cumulative IPC: 1.311 (Simulation time: 00 hr 22 min 35 sec)
Heartbeat CPU 0 instructions: 216500517 cycles: 145415367 heartbeat IPC: 0.5237 cumulative IPC: 1.305 (Simulation time: 00 hr 22 min 49 sec)
Heartbeat CPU 0 instructions: 217000521 cycles: 146352120 heartbeat IPC: 0.5338 cumulative IPC: 1.299 (Simulation time: 00 hr 23 min 02 sec)
Heartbeat CPU 0 instructions: 217500521 cycles: 147300530 heartbeat IPC: 0.5272 cumulative IPC: 1.294 (Simulation time: 00 hr 23 min 15 sec)
Heartbeat CPU 0 instructions: 218000525 cycles: 148248227 heartbeat IPC: 0.5276 cumulative IPC: 1.288 (Simulation time: 00 hr 23 min 29 sec)
Heartbeat CPU 0 instructions: 218500529 cycles: 149202899 heartbeat IPC: 0.5237 cumulative IPC: 1.283 (Simulation time: 00 hr 23 min 42 sec)
Heartbeat CPU 0 instructions: 219000533 cycles: 150149826 heartbeat IPC: 0.528 cumulative IPC: 1.277 (Simulation time: 00 hr 23 min 55 sec)
Heartbeat CPU 0 instructions: 219500533 cycles: 151107633 heartbeat IPC: 0.522 cumulative IPC: 1.272 (Simulation time: 00 hr 24 min 09 sec)
Heartbeat CPU 0 instructions: 220000537 cycles: 152047267 heartbeat IPC: 0.5321 cumulative IPC: 1.267 (Simulation time: 00 hr 24 min 22 sec)
Heartbeat CPU 0 instructions: 220500541 cycles: 152991427 heartbeat IPC: 0.5296 cumulative IPC: 1.262 (Simulation time: 00 hr 24 min 35 sec)
Heartbeat CPU 0 instructions: 221000545 cycles: 153957643 heartbeat IPC: 0.5175 cumulative IPC: 1.256 (Simulation time: 00 hr 24 min 49 sec)
Heartbeat CPU 0 instructions: 221500545 cycles: 154910995 heartbeat IPC: 0.5245 cumulative IPC: 1.251 (Simulation time: 00 hr 25 min 02 sec)
Heartbeat CPU 0 instructions: 222000549 cycles: 155848263 heartbeat IPC: 0.5335 cumulative IPC: 1.246 (Simulation time: 00 hr 25 min 16 sec)
Heartbeat CPU 0 instructions: 222500553 cycles: 156800590 heartbeat IPC: 0.525 cumulative IPC: 1.241 (Simulation time: 00 hr 25 min 29 sec)
Heartbeat CPU 0 instructions: 223000553 cycles: 157746476 heartbeat IPC: 0.5286 cumulative IPC: 1.236 (Simulation time: 00 hr 25 min 42 sec)
Heartbeat CPU 0 instructions: 223500557 cycles: 158707070 heartbeat IPC: 0.5205 cumulative IPC: 1.232 (Simulation time: 00 hr 25 min 56 sec)
Heartbeat CPU 0 instructions: 224000561 cycles: 159649502 heartbeat IPC: 0.5305 cumulative IPC: 1.227 (Simulation time: 00 hr 26 min 09 sec)
Heartbeat CPU 0 instructions: 224500565 cycles: 160591726 heartbeat IPC: 0.5307 cumulative IPC: 1.222 (Simulation time: 00 hr 26 min 22 sec)
Heartbeat CPU 0 instructions: 225000565 cycles: 161568093 heartbeat IPC: 0.5121 cumulative IPC: 1.218 (Simulation time: 00 hr 26 min 36 sec)
Heartbeat CPU 0 instructions: 225500565 cycles: 162512435 heartbeat IPC: 0.5295 cumulative IPC: 1.213 (Simulation time: 00 hr 26 min 49 sec)
Heartbeat CPU 0 instructions: 226000565 cycles: 163450616 heartbeat IPC: 0.5329 cumulative IPC: 1.209 (Simulation time: 00 hr 27 min 03 sec)
Heartbeat CPU 0 instructions: 226500565 cycles: 164408480 heartbeat IPC: 0.522 cumulative IPC: 1.204 (Simulation time: 00 hr 27 min 16 sec)
Heartbeat CPU 0 instructions: 227000569 cycles: 165366773 heartbeat IPC: 0.5218 cumulative IPC: 1.2 (Simulation time: 00 hr 27 min 30 sec)
Heartbeat CPU 0 instructions: 227500569 cycles: 166305758 heartbeat IPC: 0.5325 cumulative IPC: 1.196 (Simulation time: 00 hr 27 min 43 sec)
Heartbeat CPU 0 instructions: 228000573 cycles: 167270333 heartbeat IPC: 0.5184 cumulative IPC: 1.191 (Simulation time: 00 hr 27 min 56 sec)
Heartbeat CPU 0 instructions: 228500573 cycles: 168230182 heartbeat IPC: 0.5209 cumulative IPC: 1.187 (Simulation time: 00 hr 28 min 10 sec)
Heartbeat CPU 0 instructions: 229000577 cycles: 169174878 heartbeat IPC: 0.5293 cumulative IPC: 1.183 (Simulation time: 00 hr 28 min 23 sec)
Heartbeat CPU 0 instructions: 229500581 cycles: 170118033 heartbeat IPC: 0.5301 cumulative IPC: 1.179 (Simulation time: 00 hr 28 min 36 sec)
Heartbeat CPU 0 instructions: 230000585 cycles: 171073255 heartbeat IPC: 0.5234 cumulative IPC: 1.175 (Simulation time: 00 hr 28 min 50 sec)
Heartbeat CPU 0 instructions: 230500585 cycles: 172028307 heartbeat IPC: 0.5235 cumulative IPC: 1.171 (Simulation time: 00 hr 29 min 03 sec)
Heartbeat CPU 0 instructions: 231000589 cycles: 172973589 heartbeat IPC: 0.5289 cumulative IPC: 1.167 (Simulation time: 00 hr 29 min 17 sec)
Heartbeat CPU 0 instructions: 231500593 cycles: 173932609 heartbeat IPC: 0.5214 cumulative IPC: 1.163 (Simulation time: 00 hr 29 min 30 sec)
Heartbeat CPU 0 instructions: 232000597 cycles: 174895798 heartbeat IPC: 0.5191 cumulative IPC: 1.159 (Simulation time: 00 hr 29 min 44 sec)
Heartbeat CPU 0 instructions: 232500597 cycles: 175842644 heartbeat IPC: 0.5281 cumulative IPC: 1.155 (Simulation time: 00 hr 29 min 57 sec)
Heartbeat CPU 0 instructions: 233000601 cycles: 176778294 heartbeat IPC: 0.5344 cumulative IPC: 1.151 (Simulation time: 00 hr 30 min 10 sec)
Heartbeat CPU 0 instructions: 233500605 cycles: 177736738 heartbeat IPC: 0.5217 cumulative IPC: 1.148 (Simulation time: 00 hr 30 min 24 sec)
Heartbeat CPU 0 instructions: 234000609 cycles: 178697401 heartbeat IPC: 0.5205 cumulative IPC: 1.144 (Simulation time: 00 hr 30 min 37 sec)
Heartbeat CPU 0 instructions: 234500609 cycles: 179641167 heartbeat IPC: 0.5298 cumulative IPC: 1.14 (Simulation time: 00 hr 30 min 51 sec)
Heartbeat CPU 0 instructions: 235000613 cycles: 180598691 heartbeat IPC: 0.5222 cumulative IPC: 1.137 (Simulation time: 00 hr 31 min 04 sec)
Heartbeat CPU 0 instructions: 235500613 cycles: 181553041 heartbeat IPC: 0.5239 cumulative IPC: 1.133 (Simulation time: 00 hr 31 min 18 sec)
Heartbeat CPU 0 instructions: 236000617 cycles: 182478690 heartbeat IPC: 0.5402 cumulative IPC: 1.13 (Simulation time: 00 hr 31 min 31 sec)
Heartbeat CPU 0 instructions: 236500617 cycles: 183445374 heartbeat IPC: 0.5172 cumulative IPC: 1.126 (Simulation time: 00 hr 31 min 44 sec)
Heartbeat CPU 0 instructions: 237000617 cycles: 184393109 heartbeat IPC: 0.5276 cumulative IPC: 1.123 (Simulation time: 00 hr 31 min 58 sec)
Heartbeat CPU 0 instructions: 237500621 cycles: 185343362 heartbeat IPC: 0.5262 cumulative IPC: 1.119 (Simulation time: 00 hr 32 min 11 sec)
Heartbeat CPU 0 instructions: 238000621 cycles: 186283247 heartbeat IPC: 0.532 cumulative IPC: 1.116 (Simulation time: 00 hr 32 min 24 sec)
Heartbeat CPU 0 instructions: 238500621 cycles: 187240771 heartbeat IPC: 0.5222 cumulative IPC: 1.113 (Simulation time: 00 hr 32 min 38 sec)
Heartbeat CPU 0 instructions: 239000625 cycles: 188193470 heartbeat IPC: 0.5248 cumulative IPC: 1.109 (Simulation time: 00 hr 32 min 51 sec)
Heartbeat CPU 0 instructions: 239500629 cycles: 189150403 heartbeat IPC: 0.5225 cumulative IPC: 1.106 (Simulation time: 00 hr 33 min 05 sec)
Heartbeat CPU 0 instructions: 240000629 cycles: 190090493 heartbeat IPC: 0.5319 cumulative IPC: 1.103 (Simulation time: 00 hr 33 min 18 sec)
Heartbeat CPU 0 instructions: 240500633 cycles: 191045297 heartbeat IPC: 0.5237 cumulative IPC: 1.1 (Simulation time: 00 hr 33 min 32 sec)
Heartbeat CPU 0 instructions: 241000633 cycles: 191992265 heartbeat IPC: 0.528 cumulative IPC: 1.097 (Simulation time: 00 hr 33 min 45 sec)
Heartbeat CPU 0 instructions: 241500637 cycles: 192942946 heartbeat IPC: 0.5259 cumulative IPC: 1.094 (Simulation time: 00 hr 33 min 58 sec)
Heartbeat CPU 0 instructions: 242000637 cycles: 193899320 heartbeat IPC: 0.5228 cumulative IPC: 1.091 (Simulation time: 00 hr 34 min 12 sec)
Heartbeat CPU 0 instructions: 242500637 cycles: 194851623 heartbeat IPC: 0.525 cumulative IPC: 1.087 (Simulation time: 00 hr 34 min 25 sec)
Heartbeat CPU 0 instructions: 243000641 cycles: 195795647 heartbeat IPC: 0.5297 cumulative IPC: 1.085 (Simulation time: 00 hr 34 min 39 sec)
Heartbeat CPU 0 instructions: 243500645 cycles: 196743990 heartbeat IPC: 0.5272 cumulative IPC: 1.082 (Simulation time: 00 hr 34 min 52 sec)
Heartbeat CPU 0 instructions: 244000645 cycles: 197705850 heartbeat IPC: 0.5198 cumulative IPC: 1.079 (Simulation time: 00 hr 35 min 06 sec)
Heartbeat CPU 0 instructions: 244500649 cycles: 198646956 heartbeat IPC: 0.5313 cumulative IPC: 1.076 (Simulation time: 00 hr 35 min 19 sec)
Heartbeat CPU 0 instructions: 245000653 cycles: 199593952 heartbeat IPC: 0.528 cumulative IPC: 1.073 (Simulation time: 00 hr 35 min 32 sec)
Heartbeat CPU 0 instructions: 245500657 cycles: 200562506 heartbeat IPC: 0.5162 cumulative IPC: 1.07 (Simulation time: 00 hr 35 min 46 sec)
Heartbeat CPU 0 instructions: 246000657 cycles: 201510945 heartbeat IPC: 0.5272 cumulative IPC: 1.067 (Simulation time: 00 hr 35 min 59 sec)
Heartbeat CPU 0 instructions: 246500657 cycles: 202451320 heartbeat IPC: 0.5317 cumulative IPC: 1.064 (Simulation time: 00 hr 36 min 13 sec)
Heartbeat CPU 0 instructions: 247000657 cycles: 203393403 heartbeat IPC: 0.5307 cumulative IPC: 1.062 (Simulation time: 00 hr 36 min 26 sec)
Heartbeat CPU 0 instructions: 247500661 cycles: 204353259 heartbeat IPC: 0.5209 cumulative IPC: 1.059 (Simulation time: 00 hr 36 min 40 sec)
Heartbeat CPU 0 instructions: 248000661 cycles: 205314189 heartbeat IPC: 0.5203 cumulative IPC: 1.056 (Simulation time: 00 hr 36 min 53 sec)
Heartbeat CPU 0 instructions: 248500661 cycles: 206266291 heartbeat IPC: 0.5252 cumulative IPC: 1.053 (Simulation time: 00 hr 37 min 07 sec)
Heartbeat CPU 0 instructions: 249000665 cycles: 207217514 heartbeat IPC: 0.5256 cumulative IPC: 1.051 (Simulation time: 00 hr 37 min 20 sec)
Heartbeat CPU 0 instructions: 249500669 cycles: 208162564 heartbeat IPC: 0.5291 cumulative IPC: 1.048 (Simulation time: 00 hr 37 min 33 sec)
*** Reached end of trace: (0, "/local-ssd/ben/dpc4-traces/Graph/Ligra/ligra_PageRankDelta.com-lj.ungraph.gcc_6.3.0_O3.drop_6000M.length_250M.champsimtrace.xz")
Simulation finished CPU 0 instructions: 200000002 cycles: 191270666 cumulative IPC: 1.046 (Simulation time: 00 hr 37 min 47 sec)
Simulation complete CPU 0 instructions: 200000002 cycles: 191270666 cumulative IPC: 1.046 (Simulation time: 00 hr 37 min 47 sec)

ChampSim completed all CPUs

=== Simulation ===
CPU 0 runs /local-ssd/ben/dpc4-traces/Graph/Ligra/ligra_PageRankDelta.com-lj.ungraph.gcc_6.3.0_O3.drop_6000M.length_250M.champsimtrace.xz

Region of Interest Statistics

CPU 0 cumulative IPC: 1.046 instructions: 200000002 cycles: 191270666
CPU 0 Branch Prediction Accuracy: 94.27% MPKI: 19.07 Average ROB Occupancy at Mispredict: 21.08
Branch type MPKI
BRANCH_DIRECT_JUMP: 7e-05
BRANCH_INDIRECT: 0
BRANCH_CONDITIONAL: 19.07
BRANCH_DIRECT_CALL: 3e-05
BRANCH_INDIRECT_CALL: 5e-06
BRANCH_RETURN: 4e-05

cpu0->cpu0_STLB TOTAL        ACCESS:      59739 HIT:          0 MISS:      59739 MSHR_MERGE:          0
cpu0->cpu0_STLB LOAD         ACCESS:      59739 HIT:          0 MISS:      59739 MSHR_MERGE:          0
cpu0->cpu0_STLB RFO          ACCESS:          0 HIT:          0 MISS:          0 MSHR_MERGE:          0
cpu0->cpu0_STLB PREFETCH     ACCESS:          0 HIT:          0 MISS:          0 MSHR_MERGE:          0
cpu0->cpu0_STLB WRITE        ACCESS:          0 HIT:          0 MISS:          0 MSHR_MERGE:          0
cpu0->cpu0_STLB TRANSLATION  ACCESS:          0 HIT:          0 MISS:          0 MSHR_MERGE:          0
cpu0->cpu0_STLB PREFETCH REQUESTED:          0 ISSUED:          0 USEFUL:          0 USELESS:          0
cpu0->cpu0_STLB AVERAGE MISS LATENCY: 308.4 cycles
cpu0->cpu0_L2C TOTAL        ACCESS:   14360111 HIT:    7349729 MISS:    7010382 MSHR_MERGE:    3180626
cpu0->cpu0_L2C LOAD         ACCESS:    1912037 HIT:    1157823 MISS:     754214 MSHR_MERGE:     488412
cpu0->cpu0_L2C RFO          ACCESS:    1910088 HIT:          1 MISS:    1910087 MSHR_MERGE:          0
cpu0->cpu0_L2C PREFETCH     ACCESS:    8620267 HIT:    4281803 MISS:    4338464 MSHR_MERGE:    2692214
cpu0->cpu0_L2C WRITE        ACCESS:    1910093 HIT:    1910092 MISS:          1 MSHR_MERGE:          0
cpu0->cpu0_L2C TRANSLATION  ACCESS:       7626 HIT:         10 MISS:       7616 MSHR_MERGE:          0
cpu0->cpu0_L2C PREFETCH REQUESTED:    9831582 ISSUED:    8620267 USEFUL:    1646236 USELESS:         20
cpu0->cpu0_L2C AVERAGE MISS LATENCY: 403.8 cycles
cpu0->cpu0_L1I TOTAL        ACCESS:    4628593 HIT:    4628516 MISS:         77 MSHR_MERGE:          4
cpu0->cpu0_L1I LOAD         ACCESS:    4628593 HIT:    4628516 MISS:         77 MSHR_MERGE:          4
cpu0->cpu0_L1I RFO          ACCESS:          0 HIT:          0 MISS:          0 MSHR_MERGE:          0
cpu0->cpu0_L1I PREFETCH     ACCESS:          0 HIT:          0 MISS:          0 MSHR_MERGE:          0
cpu0->cpu0_L1I WRITE        ACCESS:          0 HIT:          0 MISS:          0 MSHR_MERGE:          0
cpu0->cpu0_L1I TRANSLATION  ACCESS:          0 HIT:          0 MISS:          0 MSHR_MERGE:          0
cpu0->cpu0_L1I PREFETCH REQUESTED:          0 ISSUED:          0 USEFUL:          0 USELESS:          0
cpu0->cpu0_L1I AVERAGE MISS LATENCY: 234.5 cycles
cpu0->cpu0_L1D TOTAL        ACCESS:   42264595 HIT:   28381072 MISS:   13883523 MSHR_MERGE:   10053843
cpu0->cpu0_L1D LOAD         ACCESS:   32605228 HIT:   28072437 MISS:    4532791 MSHR_MERGE:    2620827
cpu0->cpu0_L1D RFO          ACCESS:          0 HIT:          0 MISS:          0 MSHR_MERGE:          0
cpu0->cpu0_L1D PREFETCH     ACCESS:          0 HIT:          0 MISS:          0 MSHR_MERGE:          0
cpu0->cpu0_L1D WRITE        ACCESS:    9539767 HIT:     196661 MISS:    9343106 MSHR_MERGE:    7433016
cpu0->cpu0_L1D TRANSLATION  ACCESS:     119600 HIT:     111974 MISS:       7626 MSHR_MERGE:          0
cpu0->cpu0_L1D PREFETCH REQUESTED:          0 ISSUED:          0 USEFUL:          0 USELESS:          0
cpu0->cpu0_L1D AVERAGE MISS LATENCY: 290.8 cycles
cpu0->cpu0_ITLB TOTAL        ACCESS:    4628582 HIT:    4628572 MISS:         10 MSHR_MERGE:          1
cpu0->cpu0_ITLB LOAD         ACCESS:    4628582 HIT:    4628572 MISS:         10 MSHR_MERGE:          1
cpu0->cpu0_ITLB RFO          ACCESS:          0 HIT:          0 MISS:          0 MSHR_MERGE:          0
cpu0->cpu0_ITLB PREFETCH     ACCESS:          0 HIT:          0 MISS:          0 MSHR_MERGE:          0
cpu0->cpu0_ITLB WRITE        ACCESS:          0 HIT:          0 MISS:          0 MSHR_MERGE:          0
cpu0->cpu0_ITLB TRANSLATION  ACCESS:          0 HIT:          0 MISS:          0 MSHR_MERGE:          0
cpu0->cpu0_ITLB PREFETCH REQUESTED:          0 ISSUED:          0 USEFUL:          0 USELESS:          0
cpu0->cpu0_ITLB AVERAGE MISS LATENCY: 406.7 cycles
cpu0->cpu0_DTLB TOTAL        ACCESS:   41396557 HIT:   40717714 MISS:     678843 MSHR_MERGE:     619113
cpu0->cpu0_DTLB LOAD         ACCESS:   41396557 HIT:   40717714 MISS:     678843 MSHR_MERGE:     619113
cpu0->cpu0_DTLB RFO          ACCESS:          0 HIT:          0 MISS:          0 MSHR_MERGE:          0
cpu0->cpu0_DTLB PREFETCH     ACCESS:          0 HIT:          0 MISS:          0 MSHR_MERGE:          0
cpu0->cpu0_DTLB WRITE        ACCESS:          0 HIT:          0 MISS:          0 MSHR_MERGE:          0
cpu0->cpu0_DTLB TRANSLATION  ACCESS:          0 HIT:          0 MISS:          0 MSHR_MERGE:          0
cpu0->cpu0_DTLB PREFETCH REQUESTED:          0 ISSUED:          0 USEFUL:          0 USELESS:          0
cpu0->cpu0_DTLB AVERAGE MISS LATENCY: 314.4 cycles
cpu0->LLC TOTAL        ACCESS:    7590923 HIT:    1466829 MISS:    6124094 MSHR_MERGE:     616241
cpu0->LLC LOAD         ACCESS:     265802 HIT:      76244 MISS:     189558 MSHR_MERGE:      31876
cpu0->LLC RFO          ACCESS:    1910087 HIT:          0 MISS:    1910087 MSHR_MERGE:          0
cpu0->LLC PREFETCH     ACCESS:    3497308 HIT:    1157424 MISS:    2339884 MSHR_MERGE:     584365
cpu0->LLC WRITE        ACCESS:    1910110 HIT:     233161 MISS:    1676949 MSHR_MERGE:          0
cpu0->LLC TRANSLATION  ACCESS:       7616 HIT:          0 MISS:       7616 MSHR_MERGE:          0
cpu0->LLC PREFETCH REQUESTED:    1851663 ISSUED:    1851058 USEFUL:    1265544 USELESS:     381591
cpu0->LLC AVERAGE MISS LATENCY: 251.6 cycles

DRAM Statistics

Channel 0 RQ ROW_BUFFER_HIT:     165342
  ROW_BUFFER_MISS:    3665558
  AVG DBUS CONGESTED CYCLE: 12.32
Channel 0 WQ ROW_BUFFER_HIT:     180565
  ROW_BUFFER_MISS:    1725918
  FULL:     249539
Channel 0 REFRESHES ISSUED:      15938
BERTI Stats...
