[VMEM] WARNING: physical memory size is smaller than virtual memory size.
Berti Gaze Initialized with Sets: 64 Ways: 12

*** ChampSim Multicore Out-of-Order Simulator ***
Warmup Instructions: 50000000
Simulation Instructions: 200000000
Number of CPUs: 1
Page size: 4096
Core 0: /local-ssd/ben/dpc4-traces/Graph/GAP/cc-13.trace.gz
Off-chip DRAM Size: 64 GiB Channels: 1 Width: 64-bit Data Rate: 4807 MT/s
Heartbeat CPU 0 instructions: 500004 cycles: 151542 heartbeat IPC: 3.299 cumulative IPC: 3.299 (Simulation time: 00 hr 00 min 02 sec)
Heartbeat CPU 0 instructions: 1000005 cycles: 299254 heartbeat IPC: 3.385 cumulative IPC: 3.342 (Simulation time: 00 hr 00 min 04 sec)
Heartbeat CPU 0 instructions: 1500005 cycles: 446818 heartbeat IPC: 3.388 cumulative IPC: 3.357 (Simulation time: 00 hr 00 min 06 sec)
Heartbeat CPU 0 instructions: 2000005 cycles: 556843 heartbeat IPC: 4.544 cumulative IPC: 3.592 (Simulation time: 00 hr 00 min 07 sec)
Heartbeat CPU 0 instructions: 2500012 cycles: 659970 heartbeat IPC: 4.848 cumulative IPC: 3.788 (Simulation time: 00 hr 00 min 09 sec)
Heartbeat CPU 0 instructions: 3000019 cycles: 763054 heartbeat IPC: 4.85 cumulative IPC: 3.932 (Simulation time: 00 hr 00 min 11 sec)
Heartbeat CPU 0 instructions: 3500026 cycles: 866382 heartbeat IPC: 4.839 cumulative IPC: 4.04 (Simulation time: 00 hr 00 min 13 sec)
Heartbeat CPU 0 instructions: 4000031 cycles: 970000 heartbeat IPC: 4.825 cumulative IPC: 4.124 (Simulation time: 00 hr 00 min 15 sec)
Heartbeat CPU 0 instructions: 4500032 cycles: 1073432 heartbeat IPC: 4.834 cumulative IPC: 4.192 (Simulation time: 00 hr 00 min 17 sec)
Heartbeat CPU 0 instructions: 5000033 cycles: 1176668 heartbeat IPC: 4.843 cumulative IPC: 4.249 (Simulation time: 00 hr 00 min 19 sec)
Heartbeat CPU 0 instructions: 5500033 cycles: 1280099 heartbeat IPC: 4.834 cumulative IPC: 4.297 (Simulation time: 00 hr 00 min 21 sec)
Heartbeat CPU 0 instructions: 6000035 cycles: 1383524 heartbeat IPC: 4.834 cumulative IPC: 4.337 (Simulation time: 00 hr 00 min 23 sec)
Heartbeat CPU 0 instructions: 6500037 cycles: 1486952 heartbeat IPC: 4.834 cumulative IPC: 4.371 (Simulation time: 00 hr 00 min 24 sec)
Heartbeat CPU 0 instructions: 7000042 cycles: 1590360 heartbeat IPC: 4.835 cumulative IPC: 4.402 (Simulation time: 00 hr 00 min 26 sec)
Heartbeat CPU 0 instructions: 7500043 cycles: 1694001 heartbeat IPC: 4.824 cumulative IPC: 4.427 (Simulation time: 00 hr 00 min 28 sec)
Heartbeat CPU 0 instructions: 8000046 cycles: 1797321 heartbeat IPC: 4.839 cumulative IPC: 4.451 (Simulation time: 00 hr 00 min 30 sec)
Heartbeat CPU 0 instructions: 8500048 cycles: 1900971 heartbeat IPC: 4.824 cumulative IPC: 4.471 (Simulation time: 00 hr 00 min 32 sec)
Heartbeat CPU 0 instructions: 9000050 cycles: 2004524 heartbeat IPC: 4.828 cumulative IPC: 4.49 (Simulation time: 00 hr 00 min 34 sec)
Heartbeat CPU 0 instructions: 9500057 cycles: 2107965 heartbeat IPC: 4.834 cumulative IPC: 4.507 (Simulation time: 00 hr 00 min 36 sec)
Heartbeat CPU 0 instructions: 10000062 cycles: 2211625 heartbeat IPC: 4.824 cumulative IPC: 4.522 (Simulation time: 00 hr 00 min 38 sec)
Heartbeat CPU 0 instructions: 10500063 cycles: 2315149 heartbeat IPC: 4.83 cumulative IPC: 4.535 (Simulation time: 00 hr 00 min 40 sec)
Heartbeat CPU 0 instructions: 11000063 cycles: 2418721 heartbeat IPC: 4.828 cumulative IPC: 4.548 (Simulation time: 00 hr 00 min 42 sec)
Heartbeat CPU 0 instructions: 11500070 cycles: 2522344 heartbeat IPC: 4.825 cumulative IPC: 4.559 (Simulation time: 00 hr 00 min 44 sec)
Heartbeat CPU 0 instructions: 12000076 cycles: 2625784 heartbeat IPC: 4.834 cumulative IPC: 4.57 (Simulation time: 00 hr 00 min 45 sec)
Heartbeat CPU 0 instructions: 12500077 cycles: 2729532 heartbeat IPC: 4.819 cumulative IPC: 4.58 (Simulation time: 00 hr 00 min 47 sec)
Heartbeat CPU 0 instructions: 13000081 cycles: 2833055 heartbeat IPC: 4.83 cumulative IPC: 4.589 (Simulation time: 00 hr 00 min 49 sec)
Heartbeat CPU 0 instructions: 13500088 cycles: 2936835 heartbeat IPC: 4.818 cumulative IPC: 4.597 (Simulation time: 00 hr 00 min 51 sec)
Heartbeat CPU 0 instructions: 14000088 cycles: 3040479 heartbeat IPC: 4.824 cumulative IPC: 4.605 (Simulation time: 00 hr 00 min 53 sec)
Heartbeat CPU 0 instructions: 14500088 cycles: 3144058 heartbeat IPC: 4.827 cumulative IPC: 4.612 (Simulation time: 00 hr 00 min 55 sec)
Heartbeat CPU 0 instructions: 15000094 cycles: 3247978 heartbeat IPC: 4.811 cumulative IPC: 4.618 (Simulation time: 00 hr 00 min 57 sec)
Heartbeat CPU 0 instructions: 15500101 cycles: 3351653 heartbeat IPC: 4.823 cumulative IPC: 4.625 (Simulation time: 00 hr 00 min 59 sec)
Heartbeat CPU 0 instructions: 16000106 cycles: 3455492 heartbeat IPC: 4.815 cumulative IPC: 4.63 (Simulation time: 00 hr 01 min 01 sec)
Heartbeat CPU 0 instructions: 16500111 cycles: 3558859 heartbeat IPC: 4.837 cumulative IPC: 4.636 (Simulation time: 00 hr 01 min 03 sec)
Heartbeat CPU 0 instructions: 17000111 cycles: 3662419 heartbeat IPC: 4.828 cumulative IPC: 4.642 (Simulation time: 00 hr 01 min 05 sec)
Heartbeat CPU 0 instructions: 17500113 cycles: 3766197 heartbeat IPC: 4.818 cumulative IPC: 4.647 (Simulation time: 00 hr 01 min 07 sec)
Heartbeat CPU 0 instructions: 18000117 cycles: 3869841 heartbeat IPC: 4.824 cumulative IPC: 4.651 (Simulation time: 00 hr 01 min 09 sec)
Heartbeat CPU 0 instructions: 18500119 cycles: 3973567 heartbeat IPC: 4.82 cumulative IPC: 4.656 (Simulation time: 00 hr 01 min 11 sec)
Heartbeat CPU 0 instructions: 19000122 cycles: 4077280 heartbeat IPC: 4.821 cumulative IPC: 4.66 (Simulation time: 00 hr 01 min 13 sec)
Heartbeat CPU 0 instructions: 19500126 cycles: 4180860 heartbeat IPC: 4.827 cumulative IPC: 4.664 (Simulation time: 00 hr 01 min 15 sec)
Heartbeat CPU 0 instructions: 20000127 cycles: 4284608 heartbeat IPC: 4.819 cumulative IPC: 4.668 (Simulation time: 00 hr 01 min 16 sec)
Heartbeat CPU 0 instructions: 20500132 cycles: 4388272 heartbeat IPC: 4.823 cumulative IPC: 4.672 (Simulation time: 00 hr 01 min 18 sec)
Heartbeat CPU 0 instructions: 21000133 cycles: 4492035 heartbeat IPC: 4.819 cumulative IPC: 4.675 (Simulation time: 00 hr 01 min 20 sec)
Heartbeat CPU 0 instructions: 21500138 cycles: 4595708 heartbeat IPC: 4.823 cumulative IPC: 4.678 (Simulation time: 00 hr 01 min 22 sec)
Heartbeat CPU 0 instructions: 22000145 cycles: 4699462 heartbeat IPC: 4.819 cumulative IPC: 4.681 (Simulation time: 00 hr 01 min 24 sec)
Heartbeat CPU 0 instructions: 22500149 cycles: 4803426 heartbeat IPC: 4.809 cumulative IPC: 4.684 (Simulation time: 00 hr 01 min 26 sec)
Heartbeat CPU 0 instructions: 23000150 cycles: 4907047 heartbeat IPC: 4.825 cumulative IPC: 4.687 (Simulation time: 00 hr 01 min 28 sec)
Heartbeat CPU 0 instructions: 23500151 cycles: 5010818 heartbeat IPC: 4.818 cumulative IPC: 4.69 (Simulation time: 00 hr 01 min 30 sec)
Heartbeat CPU 0 instructions: 24000151 cycles: 5114247 heartbeat IPC: 4.834 cumulative IPC: 4.693 (Simulation time: 00 hr 01 min 32 sec)
Heartbeat CPU 0 instructions: 24500156 cycles: 5217979 heartbeat IPC: 4.82 cumulative IPC: 4.695 (Simulation time: 00 hr 01 min 34 sec)
Heartbeat CPU 0 instructions: 25000162 cycles: 5321636 heartbeat IPC: 4.824 cumulative IPC: 4.698 (Simulation time: 00 hr 01 min 36 sec)
Heartbeat CPU 0 instructions: 25500164 cycles: 5425292 heartbeat IPC: 4.824 cumulative IPC: 4.7 (Simulation time: 00 hr 01 min 38 sec)
Heartbeat CPU 0 instructions: 26000166 cycles: 5529072 heartbeat IPC: 4.818 cumulative IPC: 4.702 (Simulation time: 00 hr 01 min 40 sec)
Heartbeat CPU 0 instructions: 26500166 cycles: 5632722 heartbeat IPC: 4.824 cumulative IPC: 4.705 (Simulation time: 00 hr 01 min 42 sec)
Heartbeat CPU 0 instructions: 27000172 cycles: 5736250 heartbeat IPC: 4.83 cumulative IPC: 4.707 (Simulation time: 00 hr 01 min 44 sec)
Heartbeat CPU 0 instructions: 27500177 cycles: 5839920 heartbeat IPC: 4.823 cumulative IPC: 4.709 (Simulation time: 00 hr 01 min 46 sec)
Heartbeat CPU 0 instructions: 28000183 cycles: 5943578 heartbeat IPC: 4.824 cumulative IPC: 4.711 (Simulation time: 00 hr 01 min 48 sec)
Heartbeat CPU 0 instructions: 28500189 cycles: 6047215 heartbeat IPC: 4.825 cumulative IPC: 4.713 (Simulation time: 00 hr 01 min 50 sec)
Heartbeat CPU 0 instructions: 29000193 cycles: 6150964 heartbeat IPC: 4.819 cumulative IPC: 4.715 (Simulation time: 00 hr 01 min 52 sec)
Heartbeat CPU 0 instructions: 29500198 cycles: 6254630 heartbeat IPC: 4.823 cumulative IPC: 4.717 (Simulation time: 00 hr 01 min 54 sec)
Heartbeat CPU 0 instructions: 30000200 cycles: 6358725 heartbeat IPC: 4.803 cumulative IPC: 4.718 (Simulation time: 00 hr 01 min 56 sec)
Heartbeat CPU 0 instructions: 30500206 cycles: 6462248 heartbeat IPC: 4.83 cumulative IPC: 4.72 (Simulation time: 00 hr 01 min 57 sec)
Heartbeat CPU 0 instructions: 31000208 cycles: 6566030 heartbeat IPC: 4.818 cumulative IPC: 4.721 (Simulation time: 00 hr 01 min 59 sec)
Heartbeat CPU 0 instructions: 31500212 cycles: 6669686 heartbeat IPC: 4.824 cumulative IPC: 4.723 (Simulation time: 00 hr 02 min 01 sec)
Heartbeat CPU 0 instructions: 32000217 cycles: 6773358 heartbeat IPC: 4.823 cumulative IPC: 4.724 (Simulation time: 00 hr 02 min 03 sec)
Heartbeat CPU 0 instructions: 32500222 cycles: 6877161 heartbeat IPC: 4.817 cumulative IPC: 4.726 (Simulation time: 00 hr 02 min 05 sec)
Heartbeat CPU 0 instructions: 33000228 cycles: 6980819 heartbeat IPC: 4.824 cumulative IPC: 4.727 (Simulation time: 00 hr 02 min 07 sec)
Heartbeat CPU 0 instructions: 33500230 cycles: 7084435 heartbeat IPC: 4.826 cumulative IPC: 4.729 (Simulation time: 00 hr 02 min 09 sec)
Heartbeat CPU 0 instructions: 34000236 cycles: 7188199 heartbeat IPC: 4.819 cumulative IPC: 4.73 (Simulation time: 00 hr 02 min 11 sec)
Heartbeat CPU 0 instructions: 34500237 cycles: 7292080 heartbeat IPC: 4.813 cumulative IPC: 4.731 (Simulation time: 00 hr 02 min 13 sec)
Heartbeat CPU 0 instructions: 35000240 cycles: 7395389 heartbeat IPC: 4.84 cumulative IPC: 4.733 (Simulation time: 00 hr 02 min 15 sec)
Heartbeat CPU 0 instructions: 35500241 cycles: 7499096 heartbeat IPC: 4.821 cumulative IPC: 4.734 (Simulation time: 00 hr 02 min 17 sec)
Heartbeat CPU 0 instructions: 36000242 cycles: 7602748 heartbeat IPC: 4.824 cumulative IPC: 4.735 (Simulation time: 00 hr 02 min 19 sec)
Heartbeat CPU 0 instructions: 36500249 cycles: 7706619 heartbeat IPC: 4.814 cumulative IPC: 4.736 (Simulation time: 00 hr 02 min 21 sec)
Heartbeat CPU 0 instructions: 37000254 cycles: 7810298 heartbeat IPC: 4.823 cumulative IPC: 4.737 (Simulation time: 00 hr 02 min 23 sec)
Heartbeat CPU 0 instructions: 37500257 cycles: 7914137 heartbeat IPC: 4.815 cumulative IPC: 4.738 (Simulation time: 00 hr 02 min 25 sec)
Heartbeat CPU 0 instructions: 38000258 cycles: 8017645 heartbeat IPC: 4.831 cumulative IPC: 4.74 (Simulation time: 00 hr 02 min 27 sec)
Heartbeat CPU 0 instructions: 38500264 cycles: 8121407 heartbeat IPC: 4.819 cumulative IPC: 4.741 (Simulation time: 00 hr 02 min 29 sec)
Heartbeat CPU 0 instructions: 39000266 cycles: 8224958 heartbeat IPC: 4.829 cumulative IPC: 4.742 (Simulation time: 00 hr 02 min 31 sec)
Heartbeat CPU 0 instructions: 39500268 cycles: 8328737 heartbeat IPC: 4.818 cumulative IPC: 4.743 (Simulation time: 00 hr 02 min 33 sec)
Heartbeat CPU 0 instructions: 40000275 cycles: 8432494 heartbeat IPC: 4.819 cumulative IPC: 4.744 (Simulation time: 00 hr 02 min 35 sec)
Heartbeat CPU 0 instructions: 40500280 cycles: 8536134 heartbeat IPC: 4.824 cumulative IPC: 4.745 (Simulation time: 00 hr 02 min 37 sec)
Heartbeat CPU 0 instructions: 41000281 cycles: 8639869 heartbeat IPC: 4.82 cumulative IPC: 4.745 (Simulation time: 00 hr 02 min 39 sec)
Heartbeat CPU 0 instructions: 41500283 cycles: 8743627 heartbeat IPC: 4.819 cumulative IPC: 4.746 (Simulation time: 00 hr 02 min 41 sec)
Heartbeat CPU 0 instructions: 42000283 cycles: 8847286 heartbeat IPC: 4.824 cumulative IPC: 4.747 (Simulation time: 00 hr 02 min 43 sec)
Heartbeat CPU 0 instructions: 42500283 cycles: 8951156 heartbeat IPC: 4.814 cumulative IPC: 4.748 (Simulation time: 00 hr 02 min 45 sec)
Heartbeat CPU 0 instructions: 43000289 cycles: 9054937 heartbeat IPC: 4.818 cumulative IPC: 4.749 (Simulation time: 00 hr 02 min 47 sec)
Heartbeat CPU 0 instructions: 43500296 cycles: 9158596 heartbeat IPC: 4.824 cumulative IPC: 4.75 (Simulation time: 00 hr 02 min 49 sec)
Heartbeat CPU 0 instructions: 44000300 cycles: 9262326 heartbeat IPC: 4.82 cumulative IPC: 4.75 (Simulation time: 00 hr 02 min 51 sec)
Heartbeat CPU 0 instructions: 44500302 cycles: 9366203 heartbeat IPC: 4.813 cumulative IPC: 4.751 (Simulation time: 00 hr 02 min 53 sec)
Heartbeat CPU 0 instructions: 45000304 cycles: 9470181 heartbeat IPC: 4.809 cumulative IPC: 4.752 (Simulation time: 00 hr 02 min 55 sec)
Heartbeat CPU 0 instructions: 45500308 cycles: 9573969 heartbeat IPC: 4.818 cumulative IPC: 4.753 (Simulation time: 00 hr 02 min 57 sec)
Heartbeat CPU 0 instructions: 46000312 cycles: 9677620 heartbeat IPC: 4.824 cumulative IPC: 4.753 (Simulation time: 00 hr 02 min 59 sec)
Heartbeat CPU 0 instructions: 46500314 cycles: 9781256 heartbeat IPC: 4.825 cumulative IPC: 4.754 (Simulation time: 00 hr 03 min 01 sec)
Heartbeat CPU 0 instructions: 47000315 cycles: 9885010 heartbeat IPC: 4.819 cumulative IPC: 4.755 (Simulation time: 00 hr 03 min 03 sec)
Heartbeat CPU 0 instructions: 47500316 cycles: 9988800 heartbeat IPC: 4.817 cumulative IPC: 4.755 (Simulation time: 00 hr 03 min 05 sec)
Heartbeat CPU 0 instructions: 48000319 cycles: 10092442 heartbeat IPC: 4.824 cumulative IPC: 4.756 (Simulation time: 00 hr 03 min 07 sec)
Heartbeat CPU 0 instructions: 48500325 cycles: 10196102 heartbeat IPC: 4.824 cumulative IPC: 4.757 (Simulation time: 00 hr 03 min 09 sec)
Heartbeat CPU 0 instructions: 49000325 cycles: 10299773 heartbeat IPC: 4.823 cumulative IPC: 4.757 (Simulation time: 00 hr 03 min 11 sec)
Heartbeat CPU 0 instructions: 49500331 cycles: 10403560 heartbeat IPC: 4.818 cumulative IPC: 4.758 (Simulation time: 00 hr 03 min 13 sec)
Warmup halting CPU 0 at instruction 50000005 cycle 10507403 for remainder of phase
Warmup finished CPU 0 instructions: 50000005 cycles: 10507403 cumulative IPC: 4.759 (Simulation time: 00 hr 03 min 15 sec)
Warmup complete CPU 0 instructions: 50000005 cycles: 10507403 cumulative IPC: 4.759 (Simulation time: 00 hr 03 min 15 sec)
Heartbeat CPU 0 instructions: 50000333 cycles: 10507444 heartbeat IPC: 4.813 cumulative IPC: 8 (Simulation time: 00 hr 03 min 15 sec)
Heartbeat CPU 0 instructions: 50500334 cycles: 12019366 heartbeat IPC: 0.3307 cumulative IPC: 0.3309 (Simulation time: 00 hr 03 min 26 sec)
Heartbeat CPU 0 instructions: 51000334 cycles: 13526743 heartbeat IPC: 0.3317 cumulative IPC: 0.3313 (Simulation time: 00 hr 03 min 36 sec)
Heartbeat CPU 0 instructions: 51500336 cycles: 15007705 heartbeat IPC: 0.3376 cumulative IPC: 0.3334 (Simulation time: 00 hr 03 min 47 sec)
Heartbeat CPU 0 instructions: 52000336 cycles: 16394254 heartbeat IPC: 0.3606 cumulative IPC: 0.3398 (Simulation time: 00 hr 03 min 58 sec)
Heartbeat CPU 0 instructions: 52500339 cycles: 17789172 heartbeat IPC: 0.3584 cumulative IPC: 0.3434 (Simulation time: 00 hr 04 min 08 sec)
Heartbeat CPU 0 instructions: 53000339 cycles: 19188865 heartbeat IPC: 0.3572 cumulative IPC: 0.3456 (Simulation time: 00 hr 04 min 18 sec)
Heartbeat CPU 0 instructions: 53500343 cycles: 20639436 heartbeat IPC: 0.3447 cumulative IPC: 0.3455 (Simulation time: 00 hr 04 min 29 sec)
Heartbeat CPU 0 instructions: 54000349 cycles: 22219376 heartbeat IPC: 0.3165 cumulative IPC: 0.3416 (Simulation time: 00 hr 04 min 40 sec)
Heartbeat CPU 0 instructions: 54500349 cycles: 23556631 heartbeat IPC: 0.3739 cumulative IPC: 0.3449 (Simulation time: 00 hr 04 min 51 sec)
Heartbeat CPU 0 instructions: 55000349 cycles: 25051944 heartbeat IPC: 0.3344 cumulative IPC: 0.3438 (Simulation time: 00 hr 05 min 02 sec)
Heartbeat CPU 0 instructions: 55500351 cycles: 26483920 heartbeat IPC: 0.3492 cumulative IPC: 0.3443 (Simulation time: 00 hr 05 min 12 sec)
Heartbeat CPU 0 instructions: 56000355 cycles: 28039744 heartbeat IPC: 0.3214 cumulative IPC: 0.3422 (Simulation time: 00 hr 05 min 23 sec)
Heartbeat CPU 0 instructions: 56500356 cycles: 29442053 heartbeat IPC: 0.3566 cumulative IPC: 0.3433 (Simulation time: 00 hr 05 min 33 sec)
Heartbeat CPU 0 instructions: 57000358 cycles: 30912160 heartbeat IPC: 0.3401 cumulative IPC: 0.3431 (Simulation time: 00 hr 05 min 44 sec)
Heartbeat CPU 0 instructions: 57500358 cycles: 32442032 heartbeat IPC: 0.3268 cumulative IPC: 0.3419 (Simulation time: 00 hr 05 min 55 sec)
Heartbeat CPU 0 instructions: 58000359 cycles: 33990597 heartbeat IPC: 0.3229 cumulative IPC: 0.3407 (Simulation time: 00 hr 06 min 06 sec)
Heartbeat CPU 0 instructions: 58500361 cycles: 35548250 heartbeat IPC: 0.321 cumulative IPC: 0.3395 (Simulation time: 00 hr 06 min 17 sec)
Heartbeat CPU 0 instructions: 59000363 cycles: 36976423 heartbeat IPC: 0.3501 cumulative IPC: 0.34 (Simulation time: 00 hr 06 min 28 sec)
Heartbeat CPU 0 instructions: 59500363 cycles: 38373930 heartbeat IPC: 0.3578 cumulative IPC: 0.3409 (Simulation time: 00 hr 06 min 38 sec)
Heartbeat CPU 0 instructions: 60000363 cycles: 39830147 heartbeat IPC: 0.3434 cumulative IPC: 0.341 (Simulation time: 00 hr 06 min 49 sec)
Heartbeat CPU 0 instructions: 60500364 cycles: 41245537 heartbeat IPC: 0.3533 cumulative IPC: 0.3416 (Simulation time: 00 hr 06 min 59 sec)
Heartbeat CPU 0 instructions: 61000366 cycles: 42649459 heartbeat IPC: 0.3561 cumulative IPC: 0.3422 (Simulation time: 00 hr 07 min 09 sec)
Heartbeat CPU 0 instructions: 61500368 cycles: 44079299 heartbeat IPC: 0.3497 cumulative IPC: 0.3426 (Simulation time: 00 hr 07 min 20 sec)
Heartbeat CPU 0 instructions: 62000371 cycles: 45434368 heartbeat IPC: 0.369 cumulative IPC: 0.3436 (Simulation time: 00 hr 07 min 30 sec)
Heartbeat CPU 0 instructions: 62500371 cycles: 46897491 heartbeat IPC: 0.3417 cumulative IPC: 0.3435 (Simulation time: 00 hr 07 min 41 sec)
Heartbeat CPU 0 instructions: 63000375 cycles: 48491690 heartbeat IPC: 0.3136 cumulative IPC: 0.3423 (Simulation time: 00 hr 07 min 52 sec)
Heartbeat CPU 0 instructions: 63500377 cycles: 49811652 heartbeat IPC: 0.3788 cumulative IPC: 0.3435 (Simulation time: 00 hr 08 min 02 sec)
Heartbeat CPU 0 instructions: 64000378 cycles: 51109459 heartbeat IPC: 0.3853 cumulative IPC: 0.3448 (Simulation time: 00 hr 08 min 12 sec)
Heartbeat CPU 0 instructions: 64500379 cycles: 52532307 heartbeat IPC: 0.3514 cumulative IPC: 0.345 (Simulation time: 00 hr 08 min 23 sec)
Heartbeat CPU 0 instructions: 65000379 cycles: 53940164 heartbeat IPC: 0.3551 cumulative IPC: 0.3454 (Simulation time: 00 hr 08 min 33 sec)
Heartbeat CPU 0 instructions: 65500379 cycles: 55312867 heartbeat IPC: 0.3642 cumulative IPC: 0.3459 (Simulation time: 00 hr 08 min 44 sec)
Heartbeat CPU 0 instructions: 66000383 cycles: 56749789 heartbeat IPC: 0.348 cumulative IPC: 0.346 (Simulation time: 00 hr 08 min 54 sec)
Heartbeat CPU 0 instructions: 66500383 cycles: 58071892 heartbeat IPC: 0.3782 cumulative IPC: 0.3469 (Simulation time: 00 hr 09 min 04 sec)
Heartbeat CPU 0 instructions: 67000385 cycles: 59486597 heartbeat IPC: 0.3534 cumulative IPC: 0.3471 (Simulation time: 00 hr 09 min 15 sec)
Heartbeat CPU 0 instructions: 67500388 cycles: 60930403 heartbeat IPC: 0.3463 cumulative IPC: 0.3471 (Simulation time: 00 hr 09 min 25 sec)
Heartbeat CPU 0 instructions: 68000391 cycles: 62487048 heartbeat IPC: 0.3212 cumulative IPC: 0.3463 (Simulation time: 00 hr 09 min 36 sec)
Heartbeat CPU 0 instructions: 68500394 cycles: 63869301 heartbeat IPC: 0.3617 cumulative IPC: 0.3467 (Simulation time: 00 hr 09 min 47 sec)
Heartbeat CPU 0 instructions: 69000396 cycles: 65193396 heartbeat IPC: 0.3776 cumulative IPC: 0.3474 (Simulation time: 00 hr 09 min 57 sec)
Heartbeat CPU 0 instructions: 69500396 cycles: 66595313 heartbeat IPC: 0.3567 cumulative IPC: 0.3477 (Simulation time: 00 hr 10 min 07 sec)
Heartbeat CPU 0 instructions: 70000396 cycles: 67941702 heartbeat IPC: 0.3714 cumulative IPC: 0.3482 (Simulation time: 00 hr 10 min 17 sec)
Heartbeat CPU 0 instructions: 70500396 cycles: 69205336 heartbeat IPC: 0.3957 cumulative IPC: 0.3493 (Simulation time: 00 hr 10 min 27 sec)
Heartbeat CPU 0 instructions: 71000396 cycles: 70708640 heartbeat IPC: 0.3326 cumulative IPC: 0.3488 (Simulation time: 00 hr 10 min 38 sec)
Heartbeat CPU 0 instructions: 71500396 cycles: 72234813 heartbeat IPC: 0.3276 cumulative IPC: 0.3483 (Simulation time: 00 hr 10 min 49 sec)
Heartbeat CPU 0 instructions: 72000396 cycles: 73650409 heartbeat IPC: 0.3532 cumulative IPC: 0.3484 (Simulation time: 00 hr 10 min 59 sec)
Heartbeat CPU 0 instructions: 72500398 cycles: 75034610 heartbeat IPC: 0.3612 cumulative IPC: 0.3487 (Simulation time: 00 hr 11 min 09 sec)
Heartbeat CPU 0 instructions: 73000398 cycles: 76351811 heartbeat IPC: 0.3796 cumulative IPC: 0.3493 (Simulation time: 00 hr 11 min 19 sec)
Heartbeat CPU 0 instructions: 73500398 cycles: 77654898 heartbeat IPC: 0.3837 cumulative IPC: 0.35 (Simulation time: 00 hr 11 min 29 sec)
Heartbeat CPU 0 instructions: 74000402 cycles: 79124691 heartbeat IPC: 0.3402 cumulative IPC: 0.3498 (Simulation time: 00 hr 11 min 40 sec)
Heartbeat CPU 0 instructions: 74500402 cycles: 80527317 heartbeat IPC: 0.3565 cumulative IPC: 0.3499 (Simulation time: 00 hr 11 min 50 sec)
Heartbeat CPU 0 instructions: 75000402 cycles: 82013282 heartbeat IPC: 0.3365 cumulative IPC: 0.3496 (Simulation time: 00 hr 12 min 01 sec)
Heartbeat CPU 0 instructions: 75500403 cycles: 83389054 heartbeat IPC: 0.3634 cumulative IPC: 0.3499 (Simulation time: 00 hr 12 min 11 sec)
Heartbeat CPU 0 instructions: 76000403 cycles: 84833424 heartbeat IPC: 0.3462 cumulative IPC: 0.3498 (Simulation time: 00 hr 12 min 21 sec)
Heartbeat CPU 0 instructions: 76500405 cycles: 86363520 heartbeat IPC: 0.3268 cumulative IPC: 0.3494 (Simulation time: 00 hr 12 min 32 sec)
Heartbeat CPU 0 instructions: 77000405 cycles: 87751446 heartbeat IPC: 0.3602 cumulative IPC: 0.3495 (Simulation time: 00 hr 12 min 43 sec)
Heartbeat CPU 0 instructions: 77500405 cycles: 89164149 heartbeat IPC: 0.3539 cumulative IPC: 0.3496 (Simulation time: 00 hr 12 min 53 sec)
Heartbeat CPU 0 instructions: 78000406 cycles: 90456235 heartbeat IPC: 0.387 cumulative IPC: 0.3502 (Simulation time: 00 hr 13 min 03 sec)
Heartbeat CPU 0 instructions: 78500406 cycles: 91717099 heartbeat IPC: 0.3966 cumulative IPC: 0.3509 (Simulation time: 00 hr 13 min 13 sec)
Heartbeat CPU 0 instructions: 79000409 cycles: 93119660 heartbeat IPC: 0.3565 cumulative IPC: 0.351 (Simulation time: 00 hr 13 min 24 sec)
Heartbeat CPU 0 instructions: 79500410 cycles: 94511472 heartbeat IPC: 0.3592 cumulative IPC: 0.3512 (Simulation time: 00 hr 13 min 34 sec)
Heartbeat CPU 0 instructions: 80000410 cycles: 95879824 heartbeat IPC: 0.3654 cumulative IPC: 0.3514 (Simulation time: 00 hr 13 min 44 sec)
Heartbeat CPU 0 instructions: 80500414 cycles: 97237532 heartbeat IPC: 0.3683 cumulative IPC: 0.3517 (Simulation time: 00 hr 13 min 54 sec)
Heartbeat CPU 0 instructions: 81000416 cycles: 98797890 heartbeat IPC: 0.3204 cumulative IPC: 0.3511 (Simulation time: 00 hr 14 min 06 sec)
Heartbeat CPU 0 instructions: 81500418 cycles: 100195862 heartbeat IPC: 0.3577 cumulative IPC: 0.3512 (Simulation time: 00 hr 14 min 16 sec)
Heartbeat CPU 0 instructions: 82000418 cycles: 101622012 heartbeat IPC: 0.3506 cumulative IPC: 0.3512 (Simulation time: 00 hr 14 min 26 sec)
Heartbeat CPU 0 instructions: 82500418 cycles: 103106771 heartbeat IPC: 0.3368 cumulative IPC: 0.351 (Simulation time: 00 hr 14 min 37 sec)
Heartbeat CPU 0 instructions: 83000420 cycles: 104591755 heartbeat IPC: 0.3367 cumulative IPC: 0.3508 (Simulation time: 00 hr 14 min 48 sec)
Heartbeat CPU 0 instructions: 83500420 cycles: 106077722 heartbeat IPC: 0.3365 cumulative IPC: 0.3505 (Simulation time: 00 hr 14 min 58 sec)
Heartbeat CPU 0 instructions: 84000426 cycles: 107645712 heartbeat IPC: 0.3189 cumulative IPC: 0.35 (Simulation time: 00 hr 15 min 10 sec)
Heartbeat CPU 0 instructions: 84500428 cycles: 109024319 heartbeat IPC: 0.3627 cumulative IPC: 0.3502 (Simulation time: 00 hr 15 min 20 sec)
Heartbeat CPU 0 instructions: 85000432 cycles: 110466995 heartbeat IPC: 0.3466 cumulative IPC: 0.3501 (Simulation time: 00 hr 15 min 30 sec)
Heartbeat CPU 0 instructions: 85500437 cycles: 111871137 heartbeat IPC: 0.3561 cumulative IPC: 0.3502 (Simulation time: 00 hr 15 min 41 sec)
Heartbeat CPU 0 instructions: 86000441 cycles: 113314253 heartbeat IPC: 0.3465 cumulative IPC: 0.3502 (Simulation time: 00 hr 15 min 52 sec)
Heartbeat CPU 0 instructions: 86500442 cycles: 114795178 heartbeat IPC: 0.3376 cumulative IPC: 0.35 (Simulation time: 00 hr 16 min 02 sec)
Heartbeat CPU 0 instructions: 87000444 cycles: 116183675 heartbeat IPC: 0.3601 cumulative IPC: 0.3501 (Simulation time: 00 hr 16 min 12 sec)
Heartbeat CPU 0 instructions: 87500445 cycles: 117422246 heartbeat IPC: 0.4037 cumulative IPC: 0.3508 (Simulation time: 00 hr 16 min 22 sec)
Heartbeat CPU 0 instructions: 88000450 cycles: 118874570 heartbeat IPC: 0.3443 cumulative IPC: 0.3507 (Simulation time: 00 hr 16 min 33 sec)
Heartbeat CPU 0 instructions: 88500450 cycles: 120121670 heartbeat IPC: 0.4009 cumulative IPC: 0.3512 (Simulation time: 00 hr 16 min 42 sec)
Heartbeat CPU 0 instructions: 89000450 cycles: 121367085 heartbeat IPC: 0.4015 cumulative IPC: 0.3518 (Simulation time: 00 hr 16 min 52 sec)
Heartbeat CPU 0 instructions: 89500451 cycles: 122857180 heartbeat IPC: 0.3355 cumulative IPC: 0.3516 (Simulation time: 00 hr 17 min 03 sec)
Heartbeat CPU 0 instructions: 90000455 cycles: 124198839 heartbeat IPC: 0.3727 cumulative IPC: 0.3518 (Simulation time: 00 hr 17 min 13 sec)
Heartbeat CPU 0 instructions: 90500456 cycles: 125103039 heartbeat IPC: 0.553 cumulative IPC: 0.3534 (Simulation time: 00 hr 17 min 21 sec)
Heartbeat CPU 0 instructions: 91000457 cycles: 126106897 heartbeat IPC: 0.4981 cumulative IPC: 0.3547 (Simulation time: 00 hr 17 min 31 sec)
Heartbeat CPU 0 instructions: 91500459 cycles: 127624697 heartbeat IPC: 0.3294 cumulative IPC: 0.3543 (Simulation time: 00 hr 17 min 41 sec)
Heartbeat CPU 0 instructions: 92000460 cycles: 128964670 heartbeat IPC: 0.3731 cumulative IPC: 0.3546 (Simulation time: 00 hr 17 min 52 sec)
Heartbeat CPU 0 instructions: 92500464 cycles: 130457335 heartbeat IPC: 0.335 cumulative IPC: 0.3543 (Simulation time: 00 hr 18 min 03 sec)
Heartbeat CPU 0 instructions: 93000464 cycles: 131736002 heartbeat IPC: 0.391 cumulative IPC: 0.3547 (Simulation time: 00 hr 18 min 12 sec)
Heartbeat CPU 0 instructions: 93500464 cycles: 133010029 heartbeat IPC: 0.3925 cumulative IPC: 0.3551 (Simulation time: 00 hr 18 min 22 sec)
Heartbeat CPU 0 instructions: 94000464 cycles: 134208797 heartbeat IPC: 0.4171 cumulative IPC: 0.3557 (Simulation time: 00 hr 18 min 32 sec)
Heartbeat CPU 0 instructions: 94500466 cycles: 135595495 heartbeat IPC: 0.3606 cumulative IPC: 0.3558 (Simulation time: 00 hr 18 min 42 sec)
Heartbeat CPU 0 instructions: 95000469 cycles: 136942111 heartbeat IPC: 0.3713 cumulative IPC: 0.3559 (Simulation time: 00 hr 18 min 52 sec)
Heartbeat CPU 0 instructions: 95500472 cycles: 138194935 heartbeat IPC: 0.3991 cumulative IPC: 0.3563 (Simulation time: 00 hr 19 min 02 sec)
Heartbeat CPU 0 instructions: 96000476 cycles: 139601177 heartbeat IPC: 0.3556 cumulative IPC: 0.3563 (Simulation time: 00 hr 19 min 12 sec)
Heartbeat CPU 0 instructions: 96500476 cycles: 140987039 heartbeat IPC: 0.3608 cumulative IPC: 0.3564 (Simulation time: 00 hr 19 min 22 sec)
Heartbeat CPU 0 instructions: 97000476 cycles: 142429941 heartbeat IPC: 0.3465 cumulative IPC: 0.3563 (Simulation time: 00 hr 19 min 33 sec)
Heartbeat CPU 0 instructions: 97500478 cycles: 143977368 heartbeat IPC: 0.3231 cumulative IPC: 0.3559 (Simulation time: 00 hr 19 min 44 sec)
Heartbeat CPU 0 instructions: 98000481 cycles: 145456447 heartbeat IPC: 0.3381 cumulative IPC: 0.3557 (Simulation time: 00 hr 19 min 54 sec)
Heartbeat CPU 0 instructions: 98500487 cycles: 146882810 heartbeat IPC: 0.3505 cumulative IPC: 0.3556 (Simulation time: 00 hr 20 min 05 sec)
Heartbeat CPU 0 instructions: 99000487 cycles: 148200197 heartbeat IPC: 0.3795 cumulative IPC: 0.3559 (Simulation time: 00 hr 20 min 15 sec)
Heartbeat CPU 0 instructions: 99500490 cycles: 149601200 heartbeat IPC: 0.3569 cumulative IPC: 0.3559 (Simulation time: 00 hr 20 min 25 sec)
Heartbeat CPU 0 instructions: 100000490 cycles: 151013187 heartbeat IPC: 0.3541 cumulative IPC: 0.3559 (Simulation time: 00 hr 20 min 36 sec)
Heartbeat CPU 0 instructions: 100500492 cycles: 152397417 heartbeat IPC: 0.3612 cumulative IPC: 0.3559 (Simulation time: 00 hr 20 min 46 sec)
Heartbeat CPU 0 instructions: 101000492 cycles: 153756512 heartbeat IPC: 0.3679 cumulative IPC: 0.356 (Simulation time: 00 hr 20 min 56 sec)
Heartbeat CPU 0 instructions: 101500494 cycles: 155032691 heartbeat IPC: 0.3918 cumulative IPC: 0.3563 (Simulation time: 00 hr 21 min 06 sec)
Heartbeat CPU 0 instructions: 102000495 cycles: 156515303 heartbeat IPC: 0.3372 cumulative IPC: 0.3561 (Simulation time: 00 hr 21 min 17 sec)
Heartbeat CPU 0 instructions: 102500495 cycles: 157849193 heartbeat IPC: 0.3748 cumulative IPC: 0.3563 (Simulation time: 00 hr 21 min 27 sec)
Heartbeat CPU 0 instructions: 103000496 cycles: 159239959 heartbeat IPC: 0.3595 cumulative IPC: 0.3563 (Simulation time: 00 hr 21 min 37 sec)
Heartbeat CPU 0 instructions: 103500502 cycles: 160680260 heartbeat IPC: 0.3472 cumulative IPC: 0.3563 (Simulation time: 00 hr 21 min 48 sec)
Heartbeat CPU 0 instructions: 104000506 cycles: 161923634 heartbeat IPC: 0.4021 cumulative IPC: 0.3566 (Simulation time: 00 hr 21 min 58 sec)
Heartbeat CPU 0 instructions: 104500508 cycles: 163249698 heartbeat IPC: 0.3771 cumulative IPC: 0.3568 (Simulation time: 00 hr 22 min 08 sec)
Heartbeat CPU 0 instructions: 105000510 cycles: 164636464 heartbeat IPC: 0.3606 cumulative IPC: 0.3568 (Simulation time: 00 hr 22 min 18 sec)
Heartbeat CPU 0 instructions: 105500511 cycles: 165954338 heartbeat IPC: 0.3794 cumulative IPC: 0.357 (Simulation time: 00 hr 22 min 28 sec)
Heartbeat CPU 0 instructions: 106000512 cycles: 167451494 heartbeat IPC: 0.334 cumulative IPC: 0.3568 (Simulation time: 00 hr 22 min 39 sec)
Heartbeat CPU 0 instructions: 106500513 cycles: 168753324 heartbeat IPC: 0.3841 cumulative IPC: 0.357 (Simulation time: 00 hr 22 min 49 sec)
Heartbeat CPU 0 instructions: 107000513 cycles: 169671645 heartbeat IPC: 0.5445 cumulative IPC: 0.3581 (Simulation time: 00 hr 22 min 57 sec)
Heartbeat CPU 0 instructions: 107500517 cycles: 171029076 heartbeat IPC: 0.3683 cumulative IPC: 0.3582 (Simulation time: 00 hr 23 min 07 sec)
Heartbeat CPU 0 instructions: 108000517 cycles: 172497899 heartbeat IPC: 0.3404 cumulative IPC: 0.358 (Simulation time: 00 hr 23 min 18 sec)
Heartbeat CPU 0 instructions: 108500519 cycles: 173769931 heartbeat IPC: 0.3931 cumulative IPC: 0.3583 (Simulation time: 00 hr 23 min 28 sec)
Heartbeat CPU 0 instructions: 109000523 cycles: 175073429 heartbeat IPC: 0.3836 cumulative IPC: 0.3585 (Simulation time: 00 hr 23 min 38 sec)
Heartbeat CPU 0 instructions: 109500523 cycles: 176475306 heartbeat IPC: 0.3567 cumulative IPC: 0.3585 (Simulation time: 00 hr 23 min 49 sec)
Heartbeat CPU 0 instructions: 110000527 cycles: 177812270 heartbeat IPC: 0.374 cumulative IPC: 0.3586 (Simulation time: 00 hr 23 min 59 sec)
Heartbeat CPU 0 instructions: 110500528 cycles: 179159466 heartbeat IPC: 0.3711 cumulative IPC: 0.3587 (Simulation time: 00 hr 24 min 09 sec)
Heartbeat CPU 0 instructions: 111000533 cycles: 180426183 heartbeat IPC: 0.3947 cumulative IPC: 0.359 (Simulation time: 00 hr 24 min 19 sec)
Heartbeat CPU 0 instructions: 111500533 cycles: 181793487 heartbeat IPC: 0.3657 cumulative IPC: 0.3591 (Simulation time: 00 hr 24 min 29 sec)
Heartbeat CPU 0 instructions: 112000536 cycles: 183268779 heartbeat IPC: 0.3389 cumulative IPC: 0.3589 (Simulation time: 00 hr 24 min 40 sec)
Heartbeat CPU 0 instructions: 112500540 cycles: 184479240 heartbeat IPC: 0.4131 cumulative IPC: 0.3593 (Simulation time: 00 hr 24 min 49 sec)
Heartbeat CPU 0 instructions: 113000544 cycles: 185644208 heartbeat IPC: 0.4292 cumulative IPC: 0.3597 (Simulation time: 00 hr 24 min 59 sec)
Heartbeat CPU 0 instructions: 113500544 cycles: 186809150 heartbeat IPC: 0.4292 cumulative IPC: 0.3602 (Simulation time: 00 hr 25 min 08 sec)
Heartbeat CPU 0 instructions: 114000544 cycles: 188219293 heartbeat IPC: 0.3546 cumulative IPC: 0.3601 (Simulation time: 00 hr 25 min 19 sec)
Heartbeat CPU 0 instructions: 114500545 cycles: 189473983 heartbeat IPC: 0.3985 cumulative IPC: 0.3604 (Simulation time: 00 hr 25 min 29 sec)
Heartbeat CPU 0 instructions: 115000547 cycles: 190860253 heartbeat IPC: 0.3607 cumulative IPC: 0.3604 (Simulation time: 00 hr 25 min 39 sec)
Heartbeat CPU 0 instructions: 115500548 cycles: 192248750 heartbeat IPC: 0.3601 cumulative IPC: 0.3604 (Simulation time: 00 hr 25 min 49 sec)
Heartbeat CPU 0 instructions: 116000553 cycles: 193566189 heartbeat IPC: 0.3795 cumulative IPC: 0.3605 (Simulation time: 00 hr 25 min 59 sec)
Heartbeat CPU 0 instructions: 116500555 cycles: 194944348 heartbeat IPC: 0.3628 cumulative IPC: 0.3606 (Simulation time: 00 hr 26 min 10 sec)
Heartbeat CPU 0 instructions: 117000555 cycles: 196316179 heartbeat IPC: 0.3645 cumulative IPC: 0.3606 (Simulation time: 00 hr 26 min 20 sec)
Heartbeat CPU 0 instructions: 117500555 cycles: 197683956 heartbeat IPC: 0.3656 cumulative IPC: 0.3606 (Simulation time: 00 hr 26 min 30 sec)
Heartbeat CPU 0 instructions: 118000556 cycles: 199076268 heartbeat IPC: 0.3591 cumulative IPC: 0.3606 (Simulation time: 00 hr 26 min 40 sec)
Heartbeat CPU 0 instructions: 118500557 cycles: 200459346 heartbeat IPC: 0.3615 cumulative IPC: 0.3606 (Simulation time: 00 hr 26 min 50 sec)
Heartbeat CPU 0 instructions: 119000557 cycles: 201658321 heartbeat IPC: 0.417 cumulative IPC: 0.361 (Simulation time: 00 hr 27 min 00 sec)
Heartbeat CPU 0 instructions: 119500559 cycles: 203001298 heartbeat IPC: 0.3723 cumulative IPC: 0.3611 (Simulation time: 00 hr 27 min 10 sec)
Heartbeat CPU 0 instructions: 120000559 cycles: 204433003 heartbeat IPC: 0.3492 cumulative IPC: 0.361 (Simulation time: 00 hr 27 min 21 sec)
Heartbeat CPU 0 instructions: 120500562 cycles: 205816313 heartbeat IPC: 0.3615 cumulative IPC: 0.361 (Simulation time: 00 hr 27 min 31 sec)
Heartbeat CPU 0 instructions: 121000564 cycles: 207234332 heartbeat IPC: 0.3526 cumulative IPC: 0.3609 (Simulation time: 00 hr 27 min 42 sec)
Heartbeat CPU 0 instructions: 121500568 cycles: 208591248 heartbeat IPC: 0.3685 cumulative IPC: 0.361 (Simulation time: 00 hr 27 min 52 sec)
Heartbeat CPU 0 instructions: 122000570 cycles: 210092244 heartbeat IPC: 0.3331 cumulative IPC: 0.3608 (Simulation time: 00 hr 28 min 03 sec)
Heartbeat CPU 0 instructions: 122500571 cycles: 211383199 heartbeat IPC: 0.3873 cumulative IPC: 0.3609 (Simulation time: 00 hr 28 min 12 sec)
Heartbeat CPU 0 instructions: 123000575 cycles: 212743542 heartbeat IPC: 0.3676 cumulative IPC: 0.361 (Simulation time: 00 hr 28 min 23 sec)
Heartbeat CPU 0 instructions: 123500575 cycles: 214198207 heartbeat IPC: 0.3437 cumulative IPC: 0.3608 (Simulation time: 00 hr 28 min 33 sec)
Heartbeat CPU 0 instructions: 124000578 cycles: 215588301 heartbeat IPC: 0.3597 cumulative IPC: 0.3608 (Simulation time: 00 hr 28 min 43 sec)
Heartbeat CPU 0 instructions: 124500578 cycles: 216976698 heartbeat IPC: 0.3601 cumulative IPC: 0.3608 (Simulation time: 00 hr 28 min 54 sec)
Heartbeat CPU 0 instructions: 125000578 cycles: 218348129 heartbeat IPC: 0.3646 cumulative IPC: 0.3609 (Simulation time: 00 hr 29 min 04 sec)
Heartbeat CPU 0 instructions: 125500578 cycles: 219818330 heartbeat IPC: 0.3401 cumulative IPC: 0.3607 (Simulation time: 00 hr 29 min 15 sec)
Heartbeat CPU 0 instructions: 126000578 cycles: 221179014 heartbeat IPC: 0.3675 cumulative IPC: 0.3608 (Simulation time: 00 hr 29 min 25 sec)
Heartbeat CPU 0 instructions: 126500578 cycles: 222587156 heartbeat IPC: 0.3551 cumulative IPC: 0.3607 (Simulation time: 00 hr 29 min 35 sec)
Heartbeat CPU 0 instructions: 127000578 cycles: 223917262 heartbeat IPC: 0.3759 cumulative IPC: 0.3608 (Simulation time: 00 hr 29 min 45 sec)
Heartbeat CPU 0 instructions: 127500578 cycles: 225380590 heartbeat IPC: 0.3417 cumulative IPC: 0.3607 (Simulation time: 00 hr 29 min 56 sec)
Heartbeat CPU 0 instructions: 128000578 cycles: 226704140 heartbeat IPC: 0.3778 cumulative IPC: 0.3608 (Simulation time: 00 hr 30 min 06 sec)
Heartbeat CPU 0 instructions: 128500579 cycles: 228158620 heartbeat IPC: 0.3438 cumulative IPC: 0.3607 (Simulation time: 00 hr 30 min 16 sec)
Heartbeat CPU 0 instructions: 129000582 cycles: 229765944 heartbeat IPC: 0.3111 cumulative IPC: 0.3603 (Simulation time: 00 hr 30 min 28 sec)
Heartbeat CPU 0 instructions: 129500582 cycles: 231093501 heartbeat IPC: 0.3766 cumulative IPC: 0.3604 (Simulation time: 00 hr 30 min 38 sec)
Heartbeat CPU 0 instructions: 130000586 cycles: 232423174 heartbeat IPC: 0.376 cumulative IPC: 0.3605 (Simulation time: 00 hr 30 min 48 sec)
Heartbeat CPU 0 instructions: 130500586 cycles: 233953095 heartbeat IPC: 0.3268 cumulative IPC: 0.3603 (Simulation time: 00 hr 30 min 59 sec)
Heartbeat CPU 0 instructions: 131000587 cycles: 235274409 heartbeat IPC: 0.3784 cumulative IPC: 0.3604 (Simulation time: 00 hr 31 min 09 sec)
Heartbeat CPU 0 instructions: 131500587 cycles: 236685593 heartbeat IPC: 0.3543 cumulative IPC: 0.3603 (Simulation time: 00 hr 31 min 20 sec)
Heartbeat CPU 0 instructions: 132000588 cycles: 238114110 heartbeat IPC: 0.35 cumulative IPC: 0.3603 (Simulation time: 00 hr 31 min 30 sec)
Heartbeat CPU 0 instructions: 132500588 cycles: 239479350 heartbeat IPC: 0.3662 cumulative IPC: 0.3603 (Simulation time: 00 hr 31 min 40 sec)
Heartbeat CPU 0 instructions: 133000588 cycles: 240789394 heartbeat IPC: 0.3817 cumulative IPC: 0.3604 (Simulation time: 00 hr 31 min 50 sec)
Heartbeat CPU 0 instructions: 133500588 cycles: 242275735 heartbeat IPC: 0.3364 cumulative IPC: 0.3603 (Simulation time: 00 hr 32 min 01 sec)
Heartbeat CPU 0 instructions: 134000594 cycles: 243553028 heartbeat IPC: 0.3915 cumulative IPC: 0.3604 (Simulation time: 00 hr 32 min 11 sec)
Heartbeat CPU 0 instructions: 134500594 cycles: 244943640 heartbeat IPC: 0.3596 cumulative IPC: 0.3604 (Simulation time: 00 hr 32 min 21 sec)
Heartbeat CPU 0 instructions: 135000594 cycles: 246327310 heartbeat IPC: 0.3614 cumulative IPC: 0.3604 (Simulation time: 00 hr 32 min 32 sec)
Heartbeat CPU 0 instructions: 135500596 cycles: 247701020 heartbeat IPC: 0.364 cumulative IPC: 0.3605 (Simulation time: 00 hr 32 min 42 sec)
Heartbeat CPU 0 instructions: 136000597 cycles: 249275062 heartbeat IPC: 0.3177 cumulative IPC: 0.3602 (Simulation time: 00 hr 32 min 53 sec)
Heartbeat CPU 0 instructions: 136500597 cycles: 250790250 heartbeat IPC: 0.33 cumulative IPC: 0.36 (Simulation time: 00 hr 33 min 04 sec)
Heartbeat CPU 0 instructions: 137000597 cycles: 251967990 heartbeat IPC: 0.4245 cumulative IPC: 0.3603 (Simulation time: 00 hr 33 min 13 sec)
Heartbeat CPU 0 instructions: 137500597 cycles: 253365148 heartbeat IPC: 0.3579 cumulative IPC: 0.3603 (Simulation time: 00 hr 33 min 23 sec)
Heartbeat CPU 0 instructions: 138000603 cycles: 254945590 heartbeat IPC: 0.3164 cumulative IPC: 0.36 (Simulation time: 00 hr 33 min 35 sec)
Heartbeat CPU 0 instructions: 138500604 cycles: 256282106 heartbeat IPC: 0.3741 cumulative IPC: 0.3601 (Simulation time: 00 hr 33 min 45 sec)
Heartbeat CPU 0 instructions: 139000605 cycles: 257737865 heartbeat IPC: 0.3435 cumulative IPC: 0.36 (Simulation time: 00 hr 33 min 56 sec)
Heartbeat CPU 0 instructions: 139500605 cycles: 259032314 heartbeat IPC: 0.3863 cumulative IPC: 0.3601 (Simulation time: 00 hr 34 min 06 sec)
Heartbeat CPU 0 instructions: 140000607 cycles: 260208972 heartbeat IPC: 0.4249 cumulative IPC: 0.3604 (Simulation time: 00 hr 34 min 15 sec)
Heartbeat CPU 0 instructions: 140500607 cycles: 261552231 heartbeat IPC: 0.3722 cumulative IPC: 0.3605 (Simulation time: 00 hr 34 min 25 sec)
Heartbeat CPU 0 instructions: 141000607 cycles: 262971964 heartbeat IPC: 0.3522 cumulative IPC: 0.3604 (Simulation time: 00 hr 34 min 36 sec)
Heartbeat CPU 0 instructions: 141500607 cycles: 264312884 heartbeat IPC: 0.3729 cumulative IPC: 0.3605 (Simulation time: 00 hr 34 min 46 sec)
Heartbeat CPU 0 instructions: 142000607 cycles: 265561306 heartbeat IPC: 0.4005 cumulative IPC: 0.3607 (Simulation time: 00 hr 34 min 56 sec)
Heartbeat CPU 0 instructions: 142500609 cycles: 267025072 heartbeat IPC: 0.3416 cumulative IPC: 0.3606 (Simulation time: 00 hr 35 min 06 sec)
Heartbeat CPU 0 instructions: 143000609 cycles: 268248674 heartbeat IPC: 0.4086 cumulative IPC: 0.3608 (Simulation time: 00 hr 35 min 16 sec)
Heartbeat CPU 0 instructions: 143500611 cycles: 269721011 heartbeat IPC: 0.3396 cumulative IPC: 0.3607 (Simulation time: 00 hr 35 min 27 sec)
Heartbeat CPU 0 instructions: 144000613 cycles: 271018455 heartbeat IPC: 0.3854 cumulative IPC: 0.3608 (Simulation time: 00 hr 35 min 37 sec)
Heartbeat CPU 0 instructions: 144500616 cycles: 272383398 heartbeat IPC: 0.3663 cumulative IPC: 0.3609 (Simulation time: 00 hr 35 min 47 sec)
Heartbeat CPU 0 instructions: 145000617 cycles: 273767723 heartbeat IPC: 0.3612 cumulative IPC: 0.3609 (Simulation time: 00 hr 35 min 57 sec)
Heartbeat CPU 0 instructions: 145500617 cycles: 275039022 heartbeat IPC: 0.3933 cumulative IPC: 0.361 (Simulation time: 00 hr 36 min 07 sec)
Heartbeat CPU 0 instructions: 146000617 cycles: 276409468 heartbeat IPC: 0.3648 cumulative IPC: 0.361 (Simulation time: 00 hr 36 min 17 sec)
Heartbeat CPU 0 instructions: 146500620 cycles: 277869679 heartbeat IPC: 0.3424 cumulative IPC: 0.3609 (Simulation time: 00 hr 36 min 28 sec)
Heartbeat CPU 0 instructions: 147000621 cycles: 279197497 heartbeat IPC: 0.3766 cumulative IPC: 0.361 (Simulation time: 00 hr 36 min 38 sec)
Heartbeat CPU 0 instructions: 147500622 cycles: 280438497 heartbeat IPC: 0.4029 cumulative IPC: 0.3612 (Simulation time: 00 hr 36 min 47 sec)
Heartbeat CPU 0 instructions: 148000627 cycles: 281472777 heartbeat IPC: 0.4834 cumulative IPC: 0.3617 (Simulation time: 00 hr 36 min 55 sec)
Heartbeat CPU 0 instructions: 148500629 cycles: 281943266 heartbeat IPC: 1.063 cumulative IPC: 0.3629 (Simulation time: 00 hr 37 min 01 sec)
Heartbeat CPU 0 instructions: 149000629 cycles: 283033638 heartbeat IPC: 0.4586 cumulative IPC: 0.3633 (Simulation time: 00 hr 37 min 10 sec)
Heartbeat CPU 0 instructions: 149500631 cycles: 284086580 heartbeat IPC: 0.4749 cumulative IPC: 0.3637 (Simulation time: 00 hr 37 min 19 sec)
Heartbeat CPU 0 instructions: 150000631 cycles: 285481368 heartbeat IPC: 0.3585 cumulative IPC: 0.3637 (Simulation time: 00 hr 37 min 29 sec)
Heartbeat CPU 0 instructions: 150500632 cycles: 286848463 heartbeat IPC: 0.3657 cumulative IPC: 0.3637 (Simulation time: 00 hr 37 min 39 sec)
Heartbeat CPU 0 instructions: 151000633 cycles: 288200447 heartbeat IPC: 0.3698 cumulative IPC: 0.3637 (Simulation time: 00 hr 37 min 49 sec)
Heartbeat CPU 0 instructions: 151500633 cycles: 289527690 heartbeat IPC: 0.3767 cumulative IPC: 0.3638 (Simulation time: 00 hr 38 min 00 sec)
Heartbeat CPU 0 instructions: 152000633 cycles: 290866024 heartbeat IPC: 0.3736 cumulative IPC: 0.3638 (Simulation time: 00 hr 38 min 10 sec)
Heartbeat CPU 0 instructions: 152500633 cycles: 292120378 heartbeat IPC: 0.3986 cumulative IPC: 0.364 (Simulation time: 00 hr 38 min 19 sec)
Heartbeat CPU 0 instructions: 153000635 cycles: 293567253 heartbeat IPC: 0.3456 cumulative IPC: 0.3639 (Simulation time: 00 hr 38 min 30 sec)
Heartbeat CPU 0 instructions: 153500638 cycles: 294959733 heartbeat IPC: 0.3591 cumulative IPC: 0.3639 (Simulation time: 00 hr 38 min 40 sec)
Heartbeat CPU 0 instructions: 154000638 cycles: 296272228 heartbeat IPC: 0.381 cumulative IPC: 0.3639 (Simulation time: 00 hr 38 min 50 sec)
Heartbeat CPU 0 instructions: 154500642 cycles: 297636262 heartbeat IPC: 0.3666 cumulative IPC: 0.364 (Simulation time: 00 hr 39 min 01 sec)
Heartbeat CPU 0 instructions: 155000642 cycles: 299021330 heartbeat IPC: 0.361 cumulative IPC: 0.3639 (Simulation time: 00 hr 39 min 11 sec)
Heartbeat CPU 0 instructions: 155500644 cycles: 300601719 heartbeat IPC: 0.3164 cumulative IPC: 0.3637 (Simulation time: 00 hr 39 min 22 sec)
Heartbeat CPU 0 instructions: 156000646 cycles: 301961238 heartbeat IPC: 0.3678 cumulative IPC: 0.3637 (Simulation time: 00 hr 39 min 33 sec)
Heartbeat CPU 0 instructions: 156500648 cycles: 303327722 heartbeat IPC: 0.3659 cumulative IPC: 0.3637 (Simulation time: 00 hr 39 min 43 sec)
Heartbeat CPU 0 instructions: 157000649 cycles: 304664957 heartbeat IPC: 0.3739 cumulative IPC: 0.3638 (Simulation time: 00 hr 39 min 53 sec)
Heartbeat CPU 0 instructions: 157500649 cycles: 306217494 heartbeat IPC: 0.3221 cumulative IPC: 0.3635 (Simulation time: 00 hr 40 min 04 sec)
Heartbeat CPU 0 instructions: 158000649 cycles: 307597152 heartbeat IPC: 0.3624 cumulative IPC: 0.3635 (Simulation time: 00 hr 40 min 14 sec)
Heartbeat CPU 0 instructions: 158500650 cycles: 309005857 heartbeat IPC: 0.3549 cumulative IPC: 0.3635 (Simulation time: 00 hr 40 min 25 sec)
Heartbeat CPU 0 instructions: 159000650 cycles: 310546598 heartbeat IPC: 0.3245 cumulative IPC: 0.3633 (Simulation time: 00 hr 40 min 36 sec)
Heartbeat CPU 0 instructions: 159500656 cycles: 311639525 heartbeat IPC: 0.4575 cumulative IPC: 0.3636 (Simulation time: 00 hr 40 min 45 sec)
Heartbeat CPU 0 instructions: 160000662 cycles: 312669522 heartbeat IPC: 0.4854 cumulative IPC: 0.364 (Simulation time: 00 hr 40 min 54 sec)
Heartbeat CPU 0 instructions: 160500664 cycles: 314023588 heartbeat IPC: 0.3693 cumulative IPC: 0.3641 (Simulation time: 00 hr 41 min 04 sec)
Heartbeat CPU 0 instructions: 161000665 cycles: 315361217 heartbeat IPC: 0.3738 cumulative IPC: 0.3641 (Simulation time: 00 hr 41 min 14 sec)
Heartbeat CPU 0 instructions: 161500665 cycles: 316686202 heartbeat IPC: 0.3774 cumulative IPC: 0.3642 (Simulation time: 00 hr 41 min 24 sec)
Heartbeat CPU 0 instructions: 162000667 cycles: 318084724 heartbeat IPC: 0.3575 cumulative IPC: 0.3641 (Simulation time: 00 hr 41 min 35 sec)
Heartbeat CPU 0 instructions: 162500670 cycles: 319510182 heartbeat IPC: 0.3508 cumulative IPC: 0.3641 (Simulation time: 00 hr 41 min 45 sec)
Heartbeat CPU 0 instructions: 163000673 cycles: 320881785 heartbeat IPC: 0.3645 cumulative IPC: 0.3641 (Simulation time: 00 hr 41 min 55 sec)
Heartbeat CPU 0 instructions: 163500674 cycles: 322413866 heartbeat IPC: 0.3264 cumulative IPC: 0.3639 (Simulation time: 00 hr 42 min 06 sec)
Heartbeat CPU 0 instructions: 164000676 cycles: 323832519 heartbeat IPC: 0.3524 cumulative IPC: 0.3638 (Simulation time: 00 hr 42 min 17 sec)
Heartbeat CPU 0 instructions: 164500677 cycles: 325040707 heartbeat IPC: 0.4138 cumulative IPC: 0.364 (Simulation time: 00 hr 42 min 26 sec)
Heartbeat CPU 0 instructions: 165000678 cycles: 326430105 heartbeat IPC: 0.3599 cumulative IPC: 0.364 (Simulation time: 00 hr 42 min 37 sec)
Heartbeat CPU 0 instructions: 165500682 cycles: 327806207 heartbeat IPC: 0.3633 cumulative IPC: 0.364 (Simulation time: 00 hr 42 min 47 sec)
Heartbeat CPU 0 instructions: 166000682 cycles: 329308868 heartbeat IPC: 0.3327 cumulative IPC: 0.3639 (Simulation time: 00 hr 42 min 58 sec)
Heartbeat CPU 0 instructions: 166500686 cycles: 330774795 heartbeat IPC: 0.3411 cumulative IPC: 0.3638 (Simulation time: 00 hr 43 min 09 sec)
Heartbeat CPU 0 instructions: 167000687 cycles: 331964736 heartbeat IPC: 0.4202 cumulative IPC: 0.364 (Simulation time: 00 hr 43 min 18 sec)
Heartbeat CPU 0 instructions: 167500687 cycles: 333399431 heartbeat IPC: 0.3485 cumulative IPC: 0.3639 (Simulation time: 00 hr 43 min 29 sec)
Heartbeat CPU 0 instructions: 168000687 cycles: 334609051 heartbeat IPC: 0.4134 cumulative IPC: 0.3641 (Simulation time: 00 hr 43 min 38 sec)
Heartbeat CPU 0 instructions: 168500687 cycles: 335984026 heartbeat IPC: 0.3636 cumulative IPC: 0.3641 (Simulation time: 00 hr 43 min 49 sec)
Heartbeat CPU 0 instructions: 169000693 cycles: 337340391 heartbeat IPC: 0.3686 cumulative IPC: 0.3641 (Simulation time: 00 hr 43 min 59 sec)
Heartbeat CPU 0 instructions: 169500693 cycles: 338502335 heartbeat IPC: 0.4303 cumulative IPC: 0.3643 (Simulation time: 00 hr 44 min 08 sec)
Heartbeat CPU 0 instructions: 170000693 cycles: 339890647 heartbeat IPC: 0.3601 cumulative IPC: 0.3643 (Simulation time: 00 hr 44 min 18 sec)
Heartbeat CPU 0 instructions: 170500695 cycles: 341253406 heartbeat IPC: 0.3669 cumulative IPC: 0.3643 (Simulation time: 00 hr 44 min 29 sec)
Heartbeat CPU 0 instructions: 171000698 cycles: 342655882 heartbeat IPC: 0.3565 cumulative IPC: 0.3643 (Simulation time: 00 hr 44 min 39 sec)
Heartbeat CPU 0 instructions: 171500698 cycles: 344136714 heartbeat IPC: 0.3376 cumulative IPC: 0.3642 (Simulation time: 00 hr 44 min 50 sec)
Heartbeat CPU 0 instructions: 172000700 cycles: 345457234 heartbeat IPC: 0.3786 cumulative IPC: 0.3642 (Simulation time: 00 hr 45 min 00 sec)
Heartbeat CPU 0 instructions: 172500700 cycles: 346986781 heartbeat IPC: 0.3269 cumulative IPC: 0.3641 (Simulation time: 00 hr 45 min 11 sec)
Heartbeat CPU 0 instructions: 173000700 cycles: 348303464 heartbeat IPC: 0.3797 cumulative IPC: 0.3641 (Simulation time: 00 hr 45 min 21 sec)
Heartbeat CPU 0 instructions: 173500701 cycles: 349462800 heartbeat IPC: 0.4313 cumulative IPC: 0.3644 (Simulation time: 00 hr 45 min 30 sec)
Heartbeat CPU 0 instructions: 174000701 cycles: 350791920 heartbeat IPC: 0.3762 cumulative IPC: 0.3644 (Simulation time: 00 hr 45 min 41 sec)
Heartbeat CPU 0 instructions: 174500701 cycles: 352009701 heartbeat IPC: 0.4106 cumulative IPC: 0.3646 (Simulation time: 00 hr 45 min 50 sec)
Heartbeat CPU 0 instructions: 175000701 cycles: 353444109 heartbeat IPC: 0.3486 cumulative IPC: 0.3645 (Simulation time: 00 hr 46 min 01 sec)
Heartbeat CPU 0 instructions: 175500705 cycles: 354762418 heartbeat IPC: 0.3793 cumulative IPC: 0.3646 (Simulation time: 00 hr 46 min 11 sec)
Heartbeat CPU 0 instructions: 176000707 cycles: 356148324 heartbeat IPC: 0.3608 cumulative IPC: 0.3645 (Simulation time: 00 hr 46 min 21 sec)
Heartbeat CPU 0 instructions: 176500708 cycles: 357486031 heartbeat IPC: 0.3738 cumulative IPC: 0.3646 (Simulation time: 00 hr 46 min 31 sec)
Heartbeat CPU 0 instructions: 177000712 cycles: 358820905 heartbeat IPC: 0.3746 cumulative IPC: 0.3646 (Simulation time: 00 hr 46 min 41 sec)
Heartbeat CPU 0 instructions: 177500716 cycles: 360418115 heartbeat IPC: 0.313 cumulative IPC: 0.3644 (Simulation time: 00 hr 46 min 53 sec)
Heartbeat CPU 0 instructions: 178000721 cycles: 361784348 heartbeat IPC: 0.366 cumulative IPC: 0.3644 (Simulation time: 00 hr 47 min 03 sec)
Heartbeat CPU 0 instructions: 178500721 cycles: 363082835 heartbeat IPC: 0.3851 cumulative IPC: 0.3645 (Simulation time: 00 hr 47 min 13 sec)
Heartbeat CPU 0 instructions: 179000724 cycles: 364419762 heartbeat IPC: 0.374 cumulative IPC: 0.3645 (Simulation time: 00 hr 47 min 23 sec)
Heartbeat CPU 0 instructions: 179500724 cycles: 365849871 heartbeat IPC: 0.3496 cumulative IPC: 0.3644 (Simulation time: 00 hr 47 min 34 sec)
Heartbeat CPU 0 instructions: 180000727 cycles: 367074158 heartbeat IPC: 0.4084 cumulative IPC: 0.3646 (Simulation time: 00 hr 47 min 43 sec)
Heartbeat CPU 0 instructions: 180500727 cycles: 368104711 heartbeat IPC: 0.4852 cumulative IPC: 0.3649 (Simulation time: 00 hr 47 min 53 sec)
Heartbeat CPU 0 instructions: 181000732 cycles: 369579896 heartbeat IPC: 0.3389 cumulative IPC: 0.3648 (Simulation time: 00 hr 48 min 03 sec)
Heartbeat CPU 0 instructions: 181500732 cycles: 370957295 heartbeat IPC: 0.363 cumulative IPC: 0.3648 (Simulation time: 00 hr 48 min 13 sec)
Heartbeat CPU 0 instructions: 182000736 cycles: 372428674 heartbeat IPC: 0.3398 cumulative IPC: 0.3647 (Simulation time: 00 hr 48 min 24 sec)
Heartbeat CPU 0 instructions: 182500736 cycles: 373744354 heartbeat IPC: 0.38 cumulative IPC: 0.3648 (Simulation time: 00 hr 48 min 34 sec)
Heartbeat CPU 0 instructions: 183000740 cycles: 375154961 heartbeat IPC: 0.3545 cumulative IPC: 0.3647 (Simulation time: 00 hr 48 min 45 sec)
Heartbeat CPU 0 instructions: 183500740 cycles: 376542980 heartbeat IPC: 0.3602 cumulative IPC: 0.3647 (Simulation time: 00 hr 48 min 55 sec)
Heartbeat CPU 0 instructions: 184000742 cycles: 377730604 heartbeat IPC: 0.421 cumulative IPC: 0.3649 (Simulation time: 00 hr 49 min 04 sec)
Heartbeat CPU 0 instructions: 184500743 cycles: 379019969 heartbeat IPC: 0.3878 cumulative IPC: 0.365 (Simulation time: 00 hr 49 min 14 sec)
Heartbeat CPU 0 instructions: 185000743 cycles: 380451591 heartbeat IPC: 0.3493 cumulative IPC: 0.3649 (Simulation time: 00 hr 49 min 25 sec)
Heartbeat CPU 0 instructions: 185500744 cycles: 381861191 heartbeat IPC: 0.3547 cumulative IPC: 0.3649 (Simulation time: 00 hr 49 min 35 sec)
Heartbeat CPU 0 instructions: 186000744 cycles: 383171522 heartbeat IPC: 0.3816 cumulative IPC: 0.3649 (Simulation time: 00 hr 49 min 45 sec)
Heartbeat CPU 0 instructions: 186500746 cycles: 384582094 heartbeat IPC: 0.3545 cumulative IPC: 0.3649 (Simulation time: 00 hr 49 min 56 sec)
Heartbeat CPU 0 instructions: 187000747 cycles: 385937044 heartbeat IPC: 0.369 cumulative IPC: 0.3649 (Simulation time: 00 hr 50 min 06 sec)
Heartbeat CPU 0 instructions: 187500749 cycles: 387271887 heartbeat IPC: 0.3746 cumulative IPC: 0.365 (Simulation time: 00 hr 50 min 16 sec)
Heartbeat CPU 0 instructions: 188000749 cycles: 388603227 heartbeat IPC: 0.3756 cumulative IPC: 0.365 (Simulation time: 00 hr 50 min 26 sec)
Heartbeat CPU 0 instructions: 188500755 cycles: 389835968 heartbeat IPC: 0.4056 cumulative IPC: 0.3651 (Simulation time: 00 hr 50 min 36 sec)
Heartbeat CPU 0 instructions: 189000755 cycles: 391101979 heartbeat IPC: 0.3949 cumulative IPC: 0.3652 (Simulation time: 00 hr 50 min 45 sec)
Heartbeat CPU 0 instructions: 189500757 cycles: 392584081 heartbeat IPC: 0.3374 cumulative IPC: 0.3651 (Simulation time: 00 hr 50 min 56 sec)
Heartbeat CPU 0 instructions: 190000759 cycles: 394062340 heartbeat IPC: 0.3382 cumulative IPC: 0.365 (Simulation time: 00 hr 51 min 07 sec)
Heartbeat CPU 0 instructions: 190500761 cycles: 395420177 heartbeat IPC: 0.3682 cumulative IPC: 0.365 (Simulation time: 00 hr 51 min 17 sec)
Heartbeat CPU 0 instructions: 191000761 cycles: 396516839 heartbeat IPC: 0.4559 cumulative IPC: 0.3653 (Simulation time: 00 hr 51 min 26 sec)
Heartbeat CPU 0 instructions: 191500763 cycles: 397801206 heartbeat IPC: 0.3893 cumulative IPC: 0.3654 (Simulation time: 00 hr 51 min 36 sec)
Heartbeat CPU 0 instructions: 192000765 cycles: 399173777 heartbeat IPC: 0.3643 cumulative IPC: 0.3654 (Simulation time: 00 hr 51 min 46 sec)
Heartbeat CPU 0 instructions: 192500770 cycles: 400706977 heartbeat IPC: 0.3261 cumulative IPC: 0.3652 (Simulation time: 00 hr 51 min 57 sec)
Heartbeat CPU 0 instructions: 193000772 cycles: 402129857 heartbeat IPC: 0.3514 cumulative IPC: 0.3651 (Simulation time: 00 hr 52 min 08 sec)
Heartbeat CPU 0 instructions: 193500774 cycles: 403448772 heartbeat IPC: 0.3791 cumulative IPC: 0.3652 (Simulation time: 00 hr 52 min 17 sec)
Heartbeat CPU 0 instructions: 194000779 cycles: 404770813 heartbeat IPC: 0.3782 cumulative IPC: 0.3652 (Simulation time: 00 hr 52 min 27 sec)
Heartbeat CPU 0 instructions: 194500781 cycles: 406080941 heartbeat IPC: 0.3816 cumulative IPC: 0.3653 (Simulation time: 00 hr 52 min 37 sec)
Heartbeat CPU 0 instructions: 195000785 cycles: 407510019 heartbeat IPC: 0.3499 cumulative IPC: 0.3652 (Simulation time: 00 hr 52 min 48 sec)
Heartbeat CPU 0 instructions: 195500786 cycles: 408815891 heartbeat IPC: 0.3829 cumulative IPC: 0.3653 (Simulation time: 00 hr 52 min 58 sec)
Heartbeat CPU 0 instructions: 196000787 cycles: 410208821 heartbeat IPC: 0.359 cumulative IPC: 0.3653 (Simulation time: 00 hr 53 min 08 sec)
Heartbeat CPU 0 instructions: 196500787 cycles: 411461097 heartbeat IPC: 0.3993 cumulative IPC: 0.3654 (Simulation time: 00 hr 53 min 18 sec)
Heartbeat CPU 0 instructions: 197000789 cycles: 412862368 heartbeat IPC: 0.3568 cumulative IPC: 0.3654 (Simulation time: 00 hr 53 min 28 sec)
Heartbeat CPU 0 instructions: 197500789 cycles: 414282743 heartbeat IPC: 0.352 cumulative IPC: 0.3653 (Simulation time: 00 hr 53 min 39 sec)
Heartbeat CPU 0 instructions: 198000792 cycles: 415728287 heartbeat IPC: 0.3459 cumulative IPC: 0.3652 (Simulation time: 00 hr 53 min 50 sec)
Heartbeat CPU 0 instructions: 198500793 cycles: 417029784 heartbeat IPC: 0.3842 cumulative IPC: 0.3653 (Simulation time: 00 hr 53 min 59 sec)
Heartbeat CPU 0 instructions: 199000793 cycles: 418420352 heartbeat IPC: 0.3596 cumulative IPC: 0.3653 (Simulation time: 00 hr 54 min 10 sec)
Heartbeat CPU 0 instructions: 199500793 cycles: 419882918 heartbeat IPC: 0.3419 cumulative IPC: 0.3652 (Simulation time: 00 hr 54 min 20 sec)
Heartbeat CPU 0 instructions: 200000793 cycles: 421351029 heartbeat IPC: 0.3406 cumulative IPC: 0.3651 (Simulation time: 00 hr 54 min 31 sec)
Heartbeat CPU 0 instructions: 200500799 cycles: 422500499 heartbeat IPC: 0.435 cumulative IPC: 0.3653 (Simulation time: 00 hr 54 min 41 sec)
Heartbeat CPU 0 instructions: 201000799 cycles: 423538037 heartbeat IPC: 0.4819 cumulative IPC: 0.3656 (Simulation time: 00 hr 54 min 50 sec)
Heartbeat CPU 0 instructions: 201500802 cycles: 424897964 heartbeat IPC: 0.3677 cumulative IPC: 0.3656 (Simulation time: 00 hr 55 min 00 sec)
Heartbeat CPU 0 instructions: 202000806 cycles: 426050152 heartbeat IPC: 0.434 cumulative IPC: 0.3658 (Simulation time: 00 hr 55 min 10 sec)
Heartbeat CPU 0 instructions: 202500812 cycles: 427608729 heartbeat IPC: 0.3208 cumulative IPC: 0.3656 (Simulation time: 00 hr 55 min 21 sec)
Heartbeat CPU 0 instructions: 203000814 cycles: 428827409 heartbeat IPC: 0.4103 cumulative IPC: 0.3658 (Simulation time: 00 hr 55 min 30 sec)
Heartbeat CPU 0 instructions: 203500814 cycles: 430246896 heartbeat IPC: 0.3522 cumulative IPC: 0.3657 (Simulation time: 00 hr 55 min 41 sec)
Heartbeat CPU 0 instructions: 204000814 cycles: 431365729 heartbeat IPC: 0.4469 cumulative IPC: 0.3659 (Simulation time: 00 hr 55 min 50 sec)
Heartbeat CPU 0 instructions: 204500815 cycles: 432797721 heartbeat IPC: 0.3492 cumulative IPC: 0.3659 (Simulation time: 00 hr 56 min 00 sec)
Heartbeat CPU 0 instructions: 205000815 cycles: 434206200 heartbeat IPC: 0.355 cumulative IPC: 0.3658 (Simulation time: 00 hr 56 min 11 sec)
Heartbeat CPU 0 instructions: 205500815 cycles: 435624114 heartbeat IPC: 0.3526 cumulative IPC: 0.3658 (Simulation time: 00 hr 56 min 21 sec)
Heartbeat CPU 0 instructions: 206000821 cycles: 437028174 heartbeat IPC: 0.3561 cumulative IPC: 0.3658 (Simulation time: 00 hr 56 min 31 sec)
Heartbeat CPU 0 instructions: 206500821 cycles: 438242088 heartbeat IPC: 0.4119 cumulative IPC: 0.3659 (Simulation time: 00 hr 56 min 41 sec)
Heartbeat CPU 0 instructions: 207000821 cycles: 439525207 heartbeat IPC: 0.3897 cumulative IPC: 0.366 (Simulation time: 00 hr 56 min 51 sec)
Heartbeat CPU 0 instructions: 207500821 cycles: 440978846 heartbeat IPC: 0.344 cumulative IPC: 0.3659 (Simulation time: 00 hr 57 min 01 sec)
Heartbeat CPU 0 instructions: 208000823 cycles: 442248163 heartbeat IPC: 0.3939 cumulative IPC: 0.366 (Simulation time: 00 hr 57 min 11 sec)
Heartbeat CPU 0 instructions: 208500826 cycles: 443726249 heartbeat IPC: 0.3383 cumulative IPC: 0.3659 (Simulation time: 00 hr 57 min 22 sec)
Heartbeat CPU 0 instructions: 209000827 cycles: 445063041 heartbeat IPC: 0.374 cumulative IPC: 0.3659 (Simulation time: 00 hr 57 min 32 sec)
Heartbeat CPU 0 instructions: 209500827 cycles: 446367097 heartbeat IPC: 0.3834 cumulative IPC: 0.3659 (Simulation time: 00 hr 57 min 42 sec)
Heartbeat CPU 0 instructions: 210000827 cycles: 447648577 heartbeat IPC: 0.3902 cumulative IPC: 0.366 (Simulation time: 00 hr 57 min 52 sec)
Heartbeat CPU 0 instructions: 210500828 cycles: 448775373 heartbeat IPC: 0.4437 cumulative IPC: 0.3662 (Simulation time: 00 hr 58 min 01 sec)
Heartbeat CPU 0 instructions: 211000828 cycles: 450160104 heartbeat IPC: 0.3611 cumulative IPC: 0.3662 (Simulation time: 00 hr 58 min 12 sec)
Heartbeat CPU 0 instructions: 211500830 cycles: 451504734 heartbeat IPC: 0.3719 cumulative IPC: 0.3662 (Simulation time: 00 hr 58 min 22 sec)
Heartbeat CPU 0 instructions: 212000830 cycles: 452991103 heartbeat IPC: 0.3364 cumulative IPC: 0.3661 (Simulation time: 00 hr 58 min 32 sec)
Heartbeat CPU 0 instructions: 212500833 cycles: 454263389 heartbeat IPC: 0.393 cumulative IPC: 0.3662 (Simulation time: 00 hr 58 min 42 sec)
Heartbeat CPU 0 instructions: 213000833 cycles: 455685673 heartbeat IPC: 0.3515 cumulative IPC: 0.3661 (Simulation time: 00 hr 58 min 53 sec)
Heartbeat CPU 0 instructions: 213500833 cycles: 456814533 heartbeat IPC: 0.4429 cumulative IPC: 0.3663 (Simulation time: 00 hr 59 min 02 sec)
Heartbeat CPU 0 instructions: 214000835 cycles: 458172688 heartbeat IPC: 0.3681 cumulative IPC: 0.3663 (Simulation time: 00 hr 59 min 12 sec)
Heartbeat CPU 0 instructions: 214500835 cycles: 459529730 heartbeat IPC: 0.3684 cumulative IPC: 0.3664 (Simulation time: 00 hr 59 min 22 sec)
Heartbeat CPU 0 instructions: 215000838 cycles: 460929188 heartbeat IPC: 0.3573 cumulative IPC: 0.3663 (Simulation time: 00 hr 59 min 33 sec)
Heartbeat CPU 0 instructions: 215500838 cycles: 462312440 heartbeat IPC: 0.3615 cumulative IPC: 0.3663 (Simulation time: 00 hr 59 min 43 sec)
Heartbeat CPU 0 instructions: 216000839 cycles: 463768077 heartbeat IPC: 0.3435 cumulative IPC: 0.3662 (Simulation time: 00 hr 59 min 54 sec)
Heartbeat CPU 0 instructions: 216500843 cycles: 465131080 heartbeat IPC: 0.3668 cumulative IPC: 0.3662 (Simulation time: 01 hr 00 min 04 sec)
Heartbeat CPU 0 instructions: 217000844 cycles: 466494229 heartbeat IPC: 0.3668 cumulative IPC: 0.3662 (Simulation time: 01 hr 00 min 14 sec)
Heartbeat CPU 0 instructions: 217500846 cycles: 467963181 heartbeat IPC: 0.3404 cumulative IPC: 0.3662 (Simulation time: 01 hr 00 min 25 sec)
Heartbeat CPU 0 instructions: 218000851 cycles: 469449297 heartbeat IPC: 0.3365 cumulative IPC: 0.3661 (Simulation time: 01 hr 00 min 35 sec)
Heartbeat CPU 0 instructions: 218500851 cycles: 470932744 heartbeat IPC: 0.3371 cumulative IPC: 0.366 (Simulation time: 01 hr 00 min 46 sec)
Heartbeat CPU 0 instructions: 219000851 cycles: 472408730 heartbeat IPC: 0.3388 cumulative IPC: 0.3659 (Simulation time: 01 hr 00 min 57 sec)
Heartbeat CPU 0 instructions: 219500853 cycles: 473912166 heartbeat IPC: 0.3326 cumulative IPC: 0.3658 (Simulation time: 01 hr 01 min 08 sec)
Heartbeat CPU 0 instructions: 220000857 cycles: 475345465 heartbeat IPC: 0.3488 cumulative IPC: 0.3657 (Simulation time: 01 hr 01 min 18 sec)
Heartbeat CPU 0 instructions: 220500862 cycles: 476862201 heartbeat IPC: 0.3297 cumulative IPC: 0.3656 (Simulation time: 01 hr 01 min 29 sec)
Heartbeat CPU 0 instructions: 221000862 cycles: 478330554 heartbeat IPC: 0.3405 cumulative IPC: 0.3655 (Simulation time: 01 hr 01 min 40 sec)
Heartbeat CPU 0 instructions: 221500862 cycles: 479543857 heartbeat IPC: 0.4121 cumulative IPC: 0.3656 (Simulation time: 01 hr 01 min 50 sec)
Heartbeat CPU 0 instructions: 222000865 cycles: 480845075 heartbeat IPC: 0.3843 cumulative IPC: 0.3657 (Simulation time: 01 hr 02 min 00 sec)
Heartbeat CPU 0 instructions: 222500866 cycles: 482288646 heartbeat IPC: 0.3464 cumulative IPC: 0.3656 (Simulation time: 01 hr 02 min 10 sec)
Heartbeat CPU 0 instructions: 223000870 cycles: 483369610 heartbeat IPC: 0.4626 cumulative IPC: 0.3659 (Simulation time: 01 hr 02 min 19 sec)
Heartbeat CPU 0 instructions: 223500870 cycles: 484700253 heartbeat IPC: 0.3758 cumulative IPC: 0.3659 (Simulation time: 01 hr 02 min 29 sec)
Heartbeat CPU 0 instructions: 224000870 cycles: 485905153 heartbeat IPC: 0.415 cumulative IPC: 0.366 (Simulation time: 01 hr 02 min 39 sec)
Heartbeat CPU 0 instructions: 224500873 cycles: 487359591 heartbeat IPC: 0.3438 cumulative IPC: 0.3659 (Simulation time: 01 hr 02 min 50 sec)
Heartbeat CPU 0 instructions: 225000874 cycles: 488729408 heartbeat IPC: 0.365 cumulative IPC: 0.3659 (Simulation time: 01 hr 03 min 00 sec)
Heartbeat CPU 0 instructions: 225500876 cycles: 490022752 heartbeat IPC: 0.3866 cumulative IPC: 0.366 (Simulation time: 01 hr 03 min 10 sec)
Heartbeat CPU 0 instructions: 226000876 cycles: 491476615 heartbeat IPC: 0.3439 cumulative IPC: 0.3659 (Simulation time: 01 hr 03 min 20 sec)
Heartbeat CPU 0 instructions: 226500876 cycles: 492568787 heartbeat IPC: 0.4578 cumulative IPC: 0.3661 (Simulation time: 01 hr 03 min 30 sec)
Heartbeat CPU 0 instructions: 227000876 cycles: 493817968 heartbeat IPC: 0.4003 cumulative IPC: 0.3662 (Simulation time: 01 hr 03 min 39 sec)
Heartbeat CPU 0 instructions: 227500879 cycles: 495250951 heartbeat IPC: 0.3489 cumulative IPC: 0.3662 (Simulation time: 01 hr 03 min 50 sec)
Heartbeat CPU 0 instructions: 228000882 cycles: 496554161 heartbeat IPC: 0.3837 cumulative IPC: 0.3662 (Simulation time: 01 hr 04 min 00 sec)
Heartbeat CPU 0 instructions: 228500883 cycles: 497924120 heartbeat IPC: 0.365 cumulative IPC: 0.3662 (Simulation time: 01 hr 04 min 10 sec)
Heartbeat CPU 0 instructions: 229000883 cycles: 499322241 heartbeat IPC: 0.3576 cumulative IPC: 0.3662 (Simulation time: 01 hr 04 min 20 sec)
Heartbeat CPU 0 instructions: 229500883 cycles: 500417037 heartbeat IPC: 0.4567 cumulative IPC: 0.3664 (Simulation time: 01 hr 04 min 30 sec)
Heartbeat CPU 0 instructions: 230000883 cycles: 501903887 heartbeat IPC: 0.3363 cumulative IPC: 0.3663 (Simulation time: 01 hr 04 min 40 sec)
Heartbeat CPU 0 instructions: 230500887 cycles: 503351650 heartbeat IPC: 0.3454 cumulative IPC: 0.3662 (Simulation time: 01 hr 04 min 51 sec)
Heartbeat CPU 0 instructions: 231000887 cycles: 504812473 heartbeat IPC: 0.3423 cumulative IPC: 0.3662 (Simulation time: 01 hr 05 min 02 sec)
Heartbeat CPU 0 instructions: 231500889 cycles: 506030264 heartbeat IPC: 0.4106 cumulative IPC: 0.3663 (Simulation time: 01 hr 05 min 11 sec)
Heartbeat CPU 0 instructions: 232000893 cycles: 507337321 heartbeat IPC: 0.3825 cumulative IPC: 0.3663 (Simulation time: 01 hr 05 min 21 sec)
Heartbeat CPU 0 instructions: 232500896 cycles: 508791398 heartbeat IPC: 0.3439 cumulative IPC: 0.3663 (Simulation time: 01 hr 05 min 32 sec)
Heartbeat CPU 0 instructions: 233000899 cycles: 510149600 heartbeat IPC: 0.3681 cumulative IPC: 0.3663 (Simulation time: 01 hr 05 min 42 sec)
Heartbeat CPU 0 instructions: 233500899 cycles: 511363913 heartbeat IPC: 0.4118 cumulative IPC: 0.3664 (Simulation time: 01 hr 05 min 52 sec)
Heartbeat CPU 0 instructions: 234000904 cycles: 512710592 heartbeat IPC: 0.3713 cumulative IPC: 0.3664 (Simulation time: 01 hr 06 min 02 sec)
Heartbeat CPU 0 instructions: 234500904 cycles: 513986635 heartbeat IPC: 0.3918 cumulative IPC: 0.3665 (Simulation time: 01 hr 06 min 12 sec)
Heartbeat CPU 0 instructions: 235000906 cycles: 515386202 heartbeat IPC: 0.3573 cumulative IPC: 0.3664 (Simulation time: 01 hr 06 min 23 sec)
Heartbeat CPU 0 instructions: 235500908 cycles: 516456713 heartbeat IPC: 0.4671 cumulative IPC: 0.3666 (Simulation time: 01 hr 06 min 32 sec)
Heartbeat CPU 0 instructions: 236000908 cycles: 517836900 heartbeat IPC: 0.3623 cumulative IPC: 0.3666 (Simulation time: 01 hr 06 min 42 sec)
Heartbeat CPU 0 instructions: 236500912 cycles: 519211884 heartbeat IPC: 0.3636 cumulative IPC: 0.3666 (Simulation time: 01 hr 06 min 52 sec)
Heartbeat CPU 0 instructions: 237000912 cycles: 520664198 heartbeat IPC: 0.3443 cumulative IPC: 0.3666 (Simulation time: 01 hr 07 min 03 sec)
Heartbeat CPU 0 instructions: 237500915 cycles: 522228011 heartbeat IPC: 0.3197 cumulative IPC: 0.3664 (Simulation time: 01 hr 07 min 14 sec)
Heartbeat CPU 0 instructions: 238000915 cycles: 523755130 heartbeat IPC: 0.3274 cumulative IPC: 0.3663 (Simulation time: 01 hr 07 min 25 sec)
Heartbeat CPU 0 instructions: 238500915 cycles: 525109742 heartbeat IPC: 0.3691 cumulative IPC: 0.3663 (Simulation time: 01 hr 07 min 35 sec)
Heartbeat CPU 0 instructions: 239000915 cycles: 526399782 heartbeat IPC: 0.3876 cumulative IPC: 0.3664 (Simulation time: 01 hr 07 min 45 sec)
Heartbeat CPU 0 instructions: 239500915 cycles: 527748103 heartbeat IPC: 0.3708 cumulative IPC: 0.3664 (Simulation time: 01 hr 07 min 55 sec)
Heartbeat CPU 0 instructions: 240000915 cycles: 529180669 heartbeat IPC: 0.349 cumulative IPC: 0.3663 (Simulation time: 01 hr 08 min 06 sec)
Heartbeat CPU 0 instructions: 240500915 cycles: 530600274 heartbeat IPC: 0.3522 cumulative IPC: 0.3663 (Simulation time: 01 hr 08 min 16 sec)
Heartbeat CPU 0 instructions: 241000917 cycles: 532029993 heartbeat IPC: 0.3497 cumulative IPC: 0.3662 (Simulation time: 01 hr 08 min 27 sec)
Heartbeat CPU 0 instructions: 241500923 cycles: 533437214 heartbeat IPC: 0.3553 cumulative IPC: 0.3662 (Simulation time: 01 hr 08 min 37 sec)
Heartbeat CPU 0 instructions: 242000923 cycles: 534780340 heartbeat IPC: 0.3723 cumulative IPC: 0.3662 (Simulation time: 01 hr 08 min 47 sec)
Heartbeat CPU 0 instructions: 242500925 cycles: 535960505 heartbeat IPC: 0.4237 cumulative IPC: 0.3664 (Simulation time: 01 hr 08 min 57 sec)
Heartbeat CPU 0 instructions: 243000927 cycles: 537257094 heartbeat IPC: 0.3856 cumulative IPC: 0.3664 (Simulation time: 01 hr 09 min 07 sec)
Heartbeat CPU 0 instructions: 243500927 cycles: 538772690 heartbeat IPC: 0.3299 cumulative IPC: 0.3663 (Simulation time: 01 hr 09 min 18 sec)
Heartbeat CPU 0 instructions: 244000929 cycles: 540154012 heartbeat IPC: 0.362 cumulative IPC: 0.3663 (Simulation time: 01 hr 09 min 28 sec)
Heartbeat CPU 0 instructions: 244500931 cycles: 541628008 heartbeat IPC: 0.3392 cumulative IPC: 0.3662 (Simulation time: 01 hr 09 min 39 sec)
Heartbeat CPU 0 instructions: 245000933 cycles: 543010228 heartbeat IPC: 0.3617 cumulative IPC: 0.3662 (Simulation time: 01 hr 09 min 49 sec)
Heartbeat CPU 0 instructions: 245500938 cycles: 544393810 heartbeat IPC: 0.3614 cumulative IPC: 0.3662 (Simulation time: 01 hr 09 min 59 sec)
Heartbeat CPU 0 instructions: 246000939 cycles: 545631628 heartbeat IPC: 0.4039 cumulative IPC: 0.3663 (Simulation time: 01 hr 10 min 09 sec)
Heartbeat CPU 0 instructions: 246500939 cycles: 546910712 heartbeat IPC: 0.3909 cumulative IPC: 0.3663 (Simulation time: 01 hr 10 min 19 sec)
Heartbeat CPU 0 instructions: 247000939 cycles: 548235356 heartbeat IPC: 0.3775 cumulative IPC: 0.3664 (Simulation time: 01 hr 10 min 29 sec)
Heartbeat CPU 0 instructions: 247500939 cycles: 549408474 heartbeat IPC: 0.4262 cumulative IPC: 0.3665 (Simulation time: 01 hr 10 min 39 sec)
Heartbeat CPU 0 instructions: 248000939 cycles: 550568483 heartbeat IPC: 0.431 cumulative IPC: 0.3666 (Simulation time: 01 hr 10 min 48 sec)
Heartbeat CPU 0 instructions: 248500939 cycles: 551877964 heartbeat IPC: 0.3818 cumulative IPC: 0.3667 (Simulation time: 01 hr 10 min 58 sec)
Heartbeat CPU 0 instructions: 249000939 cycles: 553367646 heartbeat IPC: 0.3356 cumulative IPC: 0.3666 (Simulation time: 01 hr 11 min 09 sec)
Heartbeat CPU 0 instructions: 249500939 cycles: 554749807 heartbeat IPC: 0.3618 cumulative IPC: 0.3666 (Simulation time: 01 hr 11 min 19 sec)
Simulation finished CPU 0 instructions: 200000002 cycles: 545616790 cumulative IPC: 0.3666 (Simulation time: 01 hr 11 min 29 sec)
Simulation complete CPU 0 instructions: 200000002 cycles: 545616790 cumulative IPC: 0.3666 (Simulation time: 01 hr 11 min 29 sec)

ChampSim completed all CPUs

=== Simulation ===
CPU 0 runs /local-ssd/ben/dpc4-traces/Graph/GAP/cc-13.trace.gz

Region of Interest Statistics

CPU 0 cumulative IPC: 0.3666 instructions: 200000002 cycles: 545616790
CPU 0 Branch Prediction Accuracy: 90.04% MPKI: 20.34 Average ROB Occupancy at Mispredict: 26.86
Branch type MPKI
BRANCH_DIRECT_JUMP: 0
BRANCH_INDIRECT: 0
BRANCH_CONDITIONAL: 20.34
BRANCH_DIRECT_CALL: 0
BRANCH_INDIRECT_CALL: 0
BRANCH_RETURN: 0

cpu0->cpu0_STLB TOTAL        ACCESS:   10040676 HIT:   10025656 MISS:      15020 MSHR_MERGE:          0
cpu0->cpu0_STLB LOAD         ACCESS:   10040676 HIT:   10025656 MISS:      15020 MSHR_MERGE:          0
cpu0->cpu0_STLB RFO          ACCESS:          0 HIT:          0 MISS:          0 MSHR_MERGE:          0
cpu0->cpu0_STLB PREFETCH     ACCESS:          0 HIT:          0 MISS:          0 MSHR_MERGE:          0
cpu0->cpu0_STLB WRITE        ACCESS:          0 HIT:          0 MISS:          0 MSHR_MERGE:          0
cpu0->cpu0_STLB TRANSLATION  ACCESS:          0 HIT:          0 MISS:          0 MSHR_MERGE:          0
cpu0->cpu0_STLB PREFETCH REQUESTED:          0 ISSUED:          0 USEFUL:          0 USELESS:          0
cpu0->cpu0_STLB AVERAGE MISS LATENCY: 254.4 cycles
cpu0->cpu0_L2C TOTAL        ACCESS:   36892156 HIT:   25107882 MISS:   11784274 MSHR_MERGE:     592768
cpu0->cpu0_L2C LOAD         ACCESS:   15266003 HIT:   10608553 MISS:    4657450 MSHR_MERGE:      38680
cpu0->cpu0_L2C RFO          ACCESS:          0 HIT:          0 MISS:          0 MSHR_MERGE:          0
cpu0->cpu0_L2C PREFETCH     ACCESS:   21415992 HIT:   14291293 MISS:    7124699 MSHR_MERGE:     554088
cpu0->cpu0_L2C WRITE        ACCESS:     195879 HIT:     195856 MISS:         23 MSHR_MERGE:          0
cpu0->cpu0_L2C TRANSLATION  ACCESS:      14282 HIT:      12180 MISS:       2102 MSHR_MERGE:          0
cpu0->cpu0_L2C PREFETCH REQUESTED:   21833660 ISSUED:   21415990 USEFUL:    2172028 USELESS:    4396941
cpu0->cpu0_L2C AVERAGE MISS LATENCY: 116.9 cycles
cpu0->cpu0_L1I TOTAL        ACCESS:    1986045 HIT:    1986045 MISS:          0 MSHR_MERGE:          0
cpu0->cpu0_L1I LOAD         ACCESS:    1986045 HIT:    1986045 MISS:          0 MSHR_MERGE:          0
cpu0->cpu0_L1I RFO          ACCESS:          0 HIT:          0 MISS:          0 MSHR_MERGE:          0
cpu0->cpu0_L1I PREFETCH     ACCESS:          0 HIT:          0 MISS:          0 MSHR_MERGE:          0
cpu0->cpu0_L1I WRITE        ACCESS:          0 HIT:          0 MISS:          0 MSHR_MERGE:          0
cpu0->cpu0_L1I TRANSLATION  ACCESS:          0 HIT:          0 MISS:          0 MSHR_MERGE:          0
cpu0->cpu0_L1I PREFETCH REQUESTED:          0 ISSUED:          0 USEFUL:          0 USELESS:          0
cpu0->cpu0_L1I AVERAGE MISS LATENCY: - cycles
cpu0->cpu0_L1D TOTAL        ACCESS:   53614077 HIT:   36958514 MISS:   16655563 MSHR_MERGE:    1375279
cpu0->cpu0_L1D LOAD         ACCESS:   53336962 HIT:   36695681 MISS:   16641281 MSHR_MERGE:    1375279
cpu0->cpu0_L1D RFO          ACCESS:          0 HIT:          0 MISS:          0 MSHR_MERGE:          0
cpu0->cpu0_L1D PREFETCH     ACCESS:          0 HIT:          0 MISS:          0 MSHR_MERGE:          0
cpu0->cpu0_L1D WRITE        ACCESS:     247045 HIT:     247045 MISS:          0 MSHR_MERGE:          0
cpu0->cpu0_L1D TRANSLATION  ACCESS:      30070 HIT:      15788 MISS:      14282 MSHR_MERGE:          0
cpu0->cpu0_L1D PREFETCH REQUESTED:          0 ISSUED:          0 USEFUL:          0 USELESS:          0
cpu0->cpu0_L1D AVERAGE MISS LATENCY: 44.1 cycles
cpu0->cpu0_ITLB TOTAL        ACCESS:    1893006 HIT:    1893006 MISS:          0 MSHR_MERGE:          0
cpu0->cpu0_ITLB LOAD         ACCESS:    1893006 HIT:    1893006 MISS:          0 MSHR_MERGE:          0
cpu0->cpu0_ITLB RFO          ACCESS:          0 HIT:          0 MISS:          0 MSHR_MERGE:          0
cpu0->cpu0_ITLB PREFETCH     ACCESS:          0 HIT:          0 MISS:          0 MSHR_MERGE:          0
cpu0->cpu0_ITLB WRITE        ACCESS:          0 HIT:          0 MISS:          0 MSHR_MERGE:          0
cpu0->cpu0_ITLB TRANSLATION  ACCESS:          0 HIT:          0 MISS:          0 MSHR_MERGE:          0
cpu0->cpu0_ITLB PREFETCH REQUESTED:          0 ISSUED:          0 USEFUL:          0 USELESS:          0
cpu0->cpu0_ITLB AVERAGE MISS LATENCY: - cycles
cpu0->cpu0_DTLB TOTAL        ACCESS:   53582314 HIT:   41986960 MISS:   11595354 MSHR_MERGE:    1554678
cpu0->cpu0_DTLB LOAD         ACCESS:   53582314 HIT:   41986960 MISS:   11595354 MSHR_MERGE:    1554678
cpu0->cpu0_DTLB RFO          ACCESS:          0 HIT:          0 MISS:          0 MSHR_MERGE:          0
cpu0->cpu0_DTLB PREFETCH     ACCESS:          0 HIT:          0 MISS:          0 MSHR_MERGE:          0
cpu0->cpu0_DTLB WRITE        ACCESS:          0 HIT:          0 MISS:          0 MSHR_MERGE:          0
cpu0->cpu0_DTLB TRANSLATION  ACCESS:          0 HIT:          0 MISS:          0 MSHR_MERGE:          0
cpu0->cpu0_DTLB PREFETCH REQUESTED:          0 ISSUED:          0 USEFUL:          0 USELESS:          0
cpu0->cpu0_DTLB AVERAGE MISS LATENCY: 5.388 cycles
cpu0->LLC TOTAL        ACCESS:   21824420 HIT:   12777882 MISS:    9046538 MSHR_MERGE:    1289684
cpu0->LLC LOAD         ACCESS:    4618769 HIT:    2746151 MISS:    1872618 MSHR_MERGE:      17837
cpu0->LLC RFO          ACCESS:          0 HIT:          0 MISS:          0 MSHR_MERGE:          0
cpu0->LLC PREFETCH     ACCESS:   17009125 HIT:    9911366 MISS:    7097759 MSHR_MERGE:    1271847
cpu0->LLC WRITE        ACCESS:     194424 HIT:     120352 MISS:      74072 MSHR_MERGE:          0
cpu0->LLC TRANSLATION  ACCESS:       2102 HIT:         13 MISS:       2089 MSHR_MERGE:          0
cpu0->LLC PREFETCH REQUESTED:   10476080 ISSUED:   10438513 USEFUL:    1121923 USELESS:    2289727
cpu0->LLC AVERAGE MISS LATENCY: 225 cycles

DRAM Statistics

Channel 0 RQ ROW_BUFFER_HIT:     185024
  ROW_BUFFER_MISS:    7495856
  AVG DBUS CONGESTED CYCLE: 14.1
Channel 0 WQ ROW_BUFFER_HIT:      45038
  ROW_BUFFER_MISS:     115713
  FULL:          0
Channel 0 REFRESHES ISSUED:      45465
BERTI Stats...
