[VMEM] WARNING: physical memory size is smaller than virtual memory size.
Berti Gaze Initialized with Sets: 64 Ways: 12

*** ChampSim Multicore Out-of-Order Simulator ***
Warmup Instructions: 50000000
Simulation Instructions: 200000000
Number of CPUs: 1
Page size: 4096
Core 0: /local-ssd/ben/dpc4-traces/gtraces_v2/sierra.a.4_0001.champsim.gz
Off-chip DRAM Size: 64 GiB Channels: 1 Width: 64-bit Data Rate: 4807 MT/s
[BTB] WARNING: target of return is a lower address than the corresponding call. This is usually a problem with your trace.
Heartbeat CPU 0 instructions: 500006 cycles: 285400 heartbeat IPC: 1.752 cumulative IPC: 1.752 (Simulation time: 00 hr 00 min 05 sec)
[BTB] WARNING: target of return is a lower address than the corresponding call. This is usually a problem with your trace.
[BTB] WARNING: target of return is a lower address than the corresponding call. This is usually a problem with your trace.
[BTB] WARNING: target of return is a lower address than the corresponding call. This is usually a problem with your trace.
Heartbeat CPU 0 instructions: 1000007 cycles: 517635 heartbeat IPC: 2.153 cumulative IPC: 1.932 (Simulation time: 00 hr 00 min 08 sec)
[BTB] WARNING: target of return is a lower address than the corresponding call. This is usually a problem with your trace.
[BTB] WARNING: target of return is a lower address than the corresponding call. This is usually a problem with your trace.
[BTB] WARNING: target of return is a lower address than the corresponding call. This is usually a problem with your trace.
[BTB] WARNING: target of return is a lower address than the corresponding call. This is usually a problem with your trace.
[BTB] WARNING: target of return is a lower address than the corresponding call. This is usually a problem with your trace.
Heartbeat CPU 0 instructions: 1500007 cycles: 697130 heartbeat IPC: 2.786 cumulative IPC: 2.152 (Simulation time: 00 hr 00 min 12 sec)
[BTB] WARNING: target of return is a lower address than the corresponding call. This is usually a problem with your trace.
Heartbeat CPU 0 instructions: 2000013 cycles: 866124 heartbeat IPC: 2.959 cumulative IPC: 2.309 (Simulation time: 00 hr 00 min 15 sec)
Heartbeat CPU 0 instructions: 2500015 cycles: 1070197 heartbeat IPC: 2.45 cumulative IPC: 2.336 (Simulation time: 00 hr 00 min 18 sec)
Heartbeat CPU 0 instructions: 3000016 cycles: 1248443 heartbeat IPC: 2.805 cumulative IPC: 2.403 (Simulation time: 00 hr 00 min 21 sec)
Heartbeat CPU 0 instructions: 3500016 cycles: 1460706 heartbeat IPC: 2.356 cumulative IPC: 2.396 (Simulation time: 00 hr 00 min 24 sec)
Heartbeat CPU 0 instructions: 4000023 cycles: 1659034 heartbeat IPC: 2.521 cumulative IPC: 2.411 (Simulation time: 00 hr 00 min 28 sec)
Heartbeat CPU 0 instructions: 4500027 cycles: 1817356 heartbeat IPC: 3.158 cumulative IPC: 2.476 (Simulation time: 00 hr 00 min 30 sec)
Heartbeat CPU 0 instructions: 5000031 cycles: 1988208 heartbeat IPC: 2.927 cumulative IPC: 2.515 (Simulation time: 00 hr 00 min 33 sec)
Heartbeat CPU 0 instructions: 5500033 cycles: 2155439 heartbeat IPC: 2.99 cumulative IPC: 2.552 (Simulation time: 00 hr 00 min 36 sec)
Heartbeat CPU 0 instructions: 6000040 cycles: 2335276 heartbeat IPC: 2.78 cumulative IPC: 2.569 (Simulation time: 00 hr 00 min 39 sec)
Heartbeat CPU 0 instructions: 6500040 cycles: 2494320 heartbeat IPC: 3.144 cumulative IPC: 2.606 (Simulation time: 00 hr 00 min 42 sec)
Heartbeat CPU 0 instructions: 7000046 cycles: 2672149 heartbeat IPC: 2.812 cumulative IPC: 2.62 (Simulation time: 00 hr 00 min 46 sec)
Heartbeat CPU 0 instructions: 7500052 cycles: 2854378 heartbeat IPC: 2.744 cumulative IPC: 2.628 (Simulation time: 00 hr 00 min 49 sec)
Heartbeat CPU 0 instructions: 8000054 cycles: 3024343 heartbeat IPC: 2.942 cumulative IPC: 2.645 (Simulation time: 00 hr 00 min 52 sec)
Heartbeat CPU 0 instructions: 8500060 cycles: 3181255 heartbeat IPC: 3.187 cumulative IPC: 2.672 (Simulation time: 00 hr 00 min 55 sec)
Heartbeat CPU 0 instructions: 9000066 cycles: 3339618 heartbeat IPC: 3.157 cumulative IPC: 2.695 (Simulation time: 00 hr 00 min 58 sec)
Heartbeat CPU 0 instructions: 9500072 cycles: 3518732 heartbeat IPC: 2.792 cumulative IPC: 2.7 (Simulation time: 00 hr 01 min 02 sec)
Heartbeat CPU 0 instructions: 10000072 cycles: 3668581 heartbeat IPC: 3.337 cumulative IPC: 2.726 (Simulation time: 00 hr 01 min 04 sec)
Heartbeat CPU 0 instructions: 10500078 cycles: 3834708 heartbeat IPC: 3.01 cumulative IPC: 2.738 (Simulation time: 00 hr 01 min 07 sec)
Heartbeat CPU 0 instructions: 11000079 cycles: 4016550 heartbeat IPC: 2.75 cumulative IPC: 2.739 (Simulation time: 00 hr 01 min 10 sec)
Heartbeat CPU 0 instructions: 11500086 cycles: 4181487 heartbeat IPC: 3.032 cumulative IPC: 2.75 (Simulation time: 00 hr 01 min 13 sec)
Heartbeat CPU 0 instructions: 12000089 cycles: 4369175 heartbeat IPC: 2.664 cumulative IPC: 2.747 (Simulation time: 00 hr 01 min 17 sec)
Heartbeat CPU 0 instructions: 12500089 cycles: 4525652 heartbeat IPC: 3.195 cumulative IPC: 2.762 (Simulation time: 00 hr 01 min 19 sec)
Heartbeat CPU 0 instructions: 13000092 cycles: 4654400 heartbeat IPC: 3.884 cumulative IPC: 2.793 (Simulation time: 00 hr 01 min 22 sec)
Heartbeat CPU 0 instructions: 13500096 cycles: 4790357 heartbeat IPC: 3.678 cumulative IPC: 2.818 (Simulation time: 00 hr 01 min 24 sec)
Heartbeat CPU 0 instructions: 14000103 cycles: 4965465 heartbeat IPC: 2.855 cumulative IPC: 2.819 (Simulation time: 00 hr 01 min 27 sec)
Heartbeat CPU 0 instructions: 14500106 cycles: 5151336 heartbeat IPC: 2.69 cumulative IPC: 2.815 (Simulation time: 00 hr 01 min 31 sec)
Heartbeat CPU 0 instructions: 15000113 cycles: 5292389 heartbeat IPC: 3.545 cumulative IPC: 2.834 (Simulation time: 00 hr 01 min 33 sec)
Heartbeat CPU 0 instructions: 15500114 cycles: 5471856 heartbeat IPC: 2.786 cumulative IPC: 2.833 (Simulation time: 00 hr 01 min 36 sec)
Heartbeat CPU 0 instructions: 16000121 cycles: 5626020 heartbeat IPC: 3.243 cumulative IPC: 2.844 (Simulation time: 00 hr 01 min 39 sec)
Heartbeat CPU 0 instructions: 16500123 cycles: 5800909 heartbeat IPC: 2.859 cumulative IPC: 2.844 (Simulation time: 00 hr 01 min 42 sec)
Heartbeat CPU 0 instructions: 17000124 cycles: 5954915 heartbeat IPC: 3.247 cumulative IPC: 2.855 (Simulation time: 00 hr 01 min 45 sec)
Heartbeat CPU 0 instructions: 17500124 cycles: 6103975 heartbeat IPC: 3.354 cumulative IPC: 2.867 (Simulation time: 00 hr 01 min 47 sec)
Heartbeat CPU 0 instructions: 18000125 cycles: 6248196 heartbeat IPC: 3.467 cumulative IPC: 2.881 (Simulation time: 00 hr 01 min 50 sec)
Heartbeat CPU 0 instructions: 18500126 cycles: 6359545 heartbeat IPC: 4.49 cumulative IPC: 2.909 (Simulation time: 00 hr 01 min 52 sec)
Heartbeat CPU 0 instructions: 19000129 cycles: 6473935 heartbeat IPC: 4.371 cumulative IPC: 2.935 (Simulation time: 00 hr 01 min 54 sec)
Heartbeat CPU 0 instructions: 19500133 cycles: 6587204 heartbeat IPC: 4.414 cumulative IPC: 2.96 (Simulation time: 00 hr 01 min 56 sec)
Heartbeat CPU 0 instructions: 20000139 cycles: 6703683 heartbeat IPC: 4.293 cumulative IPC: 2.983 (Simulation time: 00 hr 01 min 58 sec)
Heartbeat CPU 0 instructions: 20500145 cycles: 6874764 heartbeat IPC: 2.923 cumulative IPC: 2.982 (Simulation time: 00 hr 02 min 01 sec)
Heartbeat CPU 0 instructions: 21000152 cycles: 7048388 heartbeat IPC: 2.88 cumulative IPC: 2.979 (Simulation time: 00 hr 02 min 04 sec)
Heartbeat CPU 0 instructions: 21500154 cycles: 7222503 heartbeat IPC: 2.872 cumulative IPC: 2.977 (Simulation time: 00 hr 02 min 07 sec)
Heartbeat CPU 0 instructions: 22000155 cycles: 7391701 heartbeat IPC: 2.955 cumulative IPC: 2.976 (Simulation time: 00 hr 02 min 10 sec)
Heartbeat CPU 0 instructions: 22500160 cycles: 7564858 heartbeat IPC: 2.888 cumulative IPC: 2.974 (Simulation time: 00 hr 02 min 13 sec)
Heartbeat CPU 0 instructions: 23000166 cycles: 7665757 heartbeat IPC: 4.956 cumulative IPC: 3 (Simulation time: 00 hr 02 min 15 sec)
Heartbeat CPU 0 instructions: 23500168 cycles: 7773663 heartbeat IPC: 4.634 cumulative IPC: 3.023 (Simulation time: 00 hr 02 min 17 sec)
Heartbeat CPU 0 instructions: 24000171 cycles: 7879322 heartbeat IPC: 4.732 cumulative IPC: 3.046 (Simulation time: 00 hr 02 min 18 sec)
Heartbeat CPU 0 instructions: 24500171 cycles: 8009078 heartbeat IPC: 3.853 cumulative IPC: 3.059 (Simulation time: 00 hr 02 min 21 sec)
Heartbeat CPU 0 instructions: 25000175 cycles: 8131513 heartbeat IPC: 4.084 cumulative IPC: 3.074 (Simulation time: 00 hr 02 min 23 sec)
Heartbeat CPU 0 instructions: 25500175 cycles: 8287066 heartbeat IPC: 3.214 cumulative IPC: 3.077 (Simulation time: 00 hr 02 min 26 sec)
Heartbeat CPU 0 instructions: 26000179 cycles: 8433401 heartbeat IPC: 3.417 cumulative IPC: 3.083 (Simulation time: 00 hr 02 min 28 sec)
Heartbeat CPU 0 instructions: 26500184 cycles: 8599809 heartbeat IPC: 3.005 cumulative IPC: 3.081 (Simulation time: 00 hr 02 min 32 sec)
Heartbeat CPU 0 instructions: 27000184 cycles: 8755000 heartbeat IPC: 3.222 cumulative IPC: 3.084 (Simulation time: 00 hr 02 min 34 sec)
Heartbeat CPU 0 instructions: 27500184 cycles: 8919696 heartbeat IPC: 3.036 cumulative IPC: 3.083 (Simulation time: 00 hr 02 min 37 sec)
Heartbeat CPU 0 instructions: 28000184 cycles: 9074900 heartbeat IPC: 3.222 cumulative IPC: 3.085 (Simulation time: 00 hr 02 min 40 sec)
Heartbeat CPU 0 instructions: 28500188 cycles: 9283996 heartbeat IPC: 2.391 cumulative IPC: 3.07 (Simulation time: 00 hr 02 min 44 sec)
Heartbeat CPU 0 instructions: 29000188 cycles: 9451867 heartbeat IPC: 2.978 cumulative IPC: 3.068 (Simulation time: 00 hr 02 min 47 sec)
Heartbeat CPU 0 instructions: 29500195 cycles: 9603611 heartbeat IPC: 3.295 cumulative IPC: 3.072 (Simulation time: 00 hr 02 min 50 sec)
Heartbeat CPU 0 instructions: 30000199 cycles: 9750492 heartbeat IPC: 3.404 cumulative IPC: 3.077 (Simulation time: 00 hr 02 min 52 sec)
Heartbeat CPU 0 instructions: 30500203 cycles: 9899806 heartbeat IPC: 3.349 cumulative IPC: 3.081 (Simulation time: 00 hr 02 min 55 sec)
Heartbeat CPU 0 instructions: 31000210 cycles: 10070242 heartbeat IPC: 2.934 cumulative IPC: 3.078 (Simulation time: 00 hr 02 min 58 sec)
Heartbeat CPU 0 instructions: 31500216 cycles: 10215469 heartbeat IPC: 3.443 cumulative IPC: 3.084 (Simulation time: 00 hr 03 min 01 sec)
Heartbeat CPU 0 instructions: 32000219 cycles: 10373952 heartbeat IPC: 3.155 cumulative IPC: 3.085 (Simulation time: 00 hr 03 min 04 sec)
Heartbeat CPU 0 instructions: 32500225 cycles: 10529044 heartbeat IPC: 3.224 cumulative IPC: 3.087 (Simulation time: 00 hr 03 min 06 sec)
Heartbeat CPU 0 instructions: 33000228 cycles: 10670032 heartbeat IPC: 3.546 cumulative IPC: 3.093 (Simulation time: 00 hr 03 min 09 sec)
Heartbeat CPU 0 instructions: 33500229 cycles: 10823892 heartbeat IPC: 3.25 cumulative IPC: 3.095 (Simulation time: 00 hr 03 min 12 sec)
Heartbeat CPU 0 instructions: 34000233 cycles: 10998384 heartbeat IPC: 2.865 cumulative IPC: 3.091 (Simulation time: 00 hr 03 min 15 sec)
Heartbeat CPU 0 instructions: 34500238 cycles: 11151442 heartbeat IPC: 3.267 cumulative IPC: 3.094 (Simulation time: 00 hr 03 min 18 sec)
Heartbeat CPU 0 instructions: 35000243 cycles: 11270849 heartbeat IPC: 4.187 cumulative IPC: 3.105 (Simulation time: 00 hr 03 min 20 sec)
Heartbeat CPU 0 instructions: 35500244 cycles: 11394800 heartbeat IPC: 4.034 cumulative IPC: 3.115 (Simulation time: 00 hr 03 min 22 sec)
Heartbeat CPU 0 instructions: 36000247 cycles: 11515251 heartbeat IPC: 4.151 cumulative IPC: 3.126 (Simulation time: 00 hr 03 min 25 sec)
Heartbeat CPU 0 instructions: 36500248 cycles: 11676009 heartbeat IPC: 3.11 cumulative IPC: 3.126 (Simulation time: 00 hr 03 min 27 sec)
Heartbeat CPU 0 instructions: 37000250 cycles: 11787212 heartbeat IPC: 4.496 cumulative IPC: 3.139 (Simulation time: 00 hr 03 min 30 sec)
Heartbeat CPU 0 instructions: 37500253 cycles: 11917044 heartbeat IPC: 3.851 cumulative IPC: 3.147 (Simulation time: 00 hr 03 min 32 sec)
Heartbeat CPU 0 instructions: 38000257 cycles: 12017059 heartbeat IPC: 4.999 cumulative IPC: 3.162 (Simulation time: 00 hr 03 min 33 sec)
Heartbeat CPU 0 instructions: 38500259 cycles: 12119872 heartbeat IPC: 4.863 cumulative IPC: 3.177 (Simulation time: 00 hr 03 min 35 sec)
Heartbeat CPU 0 instructions: 39000259 cycles: 12230953 heartbeat IPC: 4.501 cumulative IPC: 3.189 (Simulation time: 00 hr 03 min 37 sec)
Heartbeat CPU 0 instructions: 39500263 cycles: 12337939 heartbeat IPC: 4.674 cumulative IPC: 3.202 (Simulation time: 00 hr 03 min 39 sec)
Heartbeat CPU 0 instructions: 40000266 cycles: 12450495 heartbeat IPC: 4.442 cumulative IPC: 3.213 (Simulation time: 00 hr 03 min 41 sec)
Heartbeat CPU 0 instructions: 40500267 cycles: 12565169 heartbeat IPC: 4.36 cumulative IPC: 3.223 (Simulation time: 00 hr 03 min 44 sec)
Heartbeat CPU 0 instructions: 41000267 cycles: 12708645 heartbeat IPC: 3.485 cumulative IPC: 3.226 (Simulation time: 00 hr 03 min 46 sec)
Heartbeat CPU 0 instructions: 41500274 cycles: 12857231 heartbeat IPC: 3.365 cumulative IPC: 3.228 (Simulation time: 00 hr 03 min 49 sec)
Heartbeat CPU 0 instructions: 42000281 cycles: 13006648 heartbeat IPC: 3.346 cumulative IPC: 3.229 (Simulation time: 00 hr 03 min 51 sec)
Heartbeat CPU 0 instructions: 42500286 cycles: 13166042 heartbeat IPC: 3.137 cumulative IPC: 3.228 (Simulation time: 00 hr 03 min 54 sec)
Heartbeat CPU 0 instructions: 43000287 cycles: 13312552 heartbeat IPC: 3.413 cumulative IPC: 3.23 (Simulation time: 00 hr 03 min 57 sec)
Heartbeat CPU 0 instructions: 43500291 cycles: 13480424 heartbeat IPC: 2.978 cumulative IPC: 3.227 (Simulation time: 00 hr 04 min 00 sec)
Heartbeat CPU 0 instructions: 44000291 cycles: 13615096 heartbeat IPC: 3.713 cumulative IPC: 3.232 (Simulation time: 00 hr 04 min 03 sec)
Heartbeat CPU 0 instructions: 44500296 cycles: 13757492 heartbeat IPC: 3.511 cumulative IPC: 3.235 (Simulation time: 00 hr 04 min 06 sec)
Heartbeat CPU 0 instructions: 45000296 cycles: 13916998 heartbeat IPC: 3.135 cumulative IPC: 3.233 (Simulation time: 00 hr 04 min 09 sec)
Heartbeat CPU 0 instructions: 45500300 cycles: 14058683 heartbeat IPC: 3.529 cumulative IPC: 3.236 (Simulation time: 00 hr 04 min 11 sec)
Heartbeat CPU 0 instructions: 46000302 cycles: 14217805 heartbeat IPC: 3.142 cumulative IPC: 3.235 (Simulation time: 00 hr 04 min 14 sec)
Heartbeat CPU 0 instructions: 46500309 cycles: 14377681 heartbeat IPC: 3.127 cumulative IPC: 3.234 (Simulation time: 00 hr 04 min 17 sec)
Heartbeat CPU 0 instructions: 47000310 cycles: 14530496 heartbeat IPC: 3.272 cumulative IPC: 3.235 (Simulation time: 00 hr 04 min 20 sec)
Heartbeat CPU 0 instructions: 47500310 cycles: 14679522 heartbeat IPC: 3.355 cumulative IPC: 3.236 (Simulation time: 00 hr 04 min 23 sec)
Heartbeat CPU 0 instructions: 48000312 cycles: 14824297 heartbeat IPC: 3.454 cumulative IPC: 3.238 (Simulation time: 00 hr 04 min 25 sec)
Heartbeat CPU 0 instructions: 48500312 cycles: 14952094 heartbeat IPC: 3.912 cumulative IPC: 3.244 (Simulation time: 00 hr 04 min 28 sec)
Heartbeat CPU 0 instructions: 49000312 cycles: 15074913 heartbeat IPC: 4.071 cumulative IPC: 3.25 (Simulation time: 00 hr 04 min 30 sec)
Heartbeat CPU 0 instructions: 49500319 cycles: 15201353 heartbeat IPC: 3.955 cumulative IPC: 3.256 (Simulation time: 00 hr 04 min 32 sec)
Warmup halting CPU 0 at instruction 50000005 cycle 15324086 for remainder of phase
Warmup finished CPU 0 instructions: 50000005 cycles: 15324086 cumulative IPC: 3.263 (Simulation time: 00 hr 04 min 34 sec)
Warmup complete CPU 0 instructions: 50000005 cycles: 15324086 cumulative IPC: 3.263 (Simulation time: 00 hr 04 min 34 sec)
Heartbeat CPU 0 instructions: 50000326 cycles: 15324155 heartbeat IPC: 4.072 cumulative IPC: 4.652 (Simulation time: 00 hr 04 min 34 sec)
Heartbeat CPU 0 instructions: 50500330 cycles: 16748961 heartbeat IPC: 0.3509 cumulative IPC: 0.3511 (Simulation time: 00 hr 04 min 45 sec)
Heartbeat CPU 0 instructions: 51000331 cycles: 19221131 heartbeat IPC: 0.2023 cumulative IPC: 0.2567 (Simulation time: 00 hr 05 min 02 sec)
Heartbeat CPU 0 instructions: 51500331 cycles: 20655543 heartbeat IPC: 0.3486 cumulative IPC: 0.2814 (Simulation time: 00 hr 05 min 13 sec)
Heartbeat CPU 0 instructions: 52000331 cycles: 22499211 heartbeat IPC: 0.2712 cumulative IPC: 0.2788 (Simulation time: 00 hr 05 min 26 sec)
Heartbeat CPU 0 instructions: 52500337 cycles: 24456751 heartbeat IPC: 0.2554 cumulative IPC: 0.2738 (Simulation time: 00 hr 05 min 39 sec)
Heartbeat CPU 0 instructions: 53000343 cycles: 26129426 heartbeat IPC: 0.2989 cumulative IPC: 0.2777 (Simulation time: 00 hr 05 min 51 sec)
Heartbeat CPU 0 instructions: 53500345 cycles: 28525601 heartbeat IPC: 0.2087 cumulative IPC: 0.2651 (Simulation time: 00 hr 06 min 07 sec)
Heartbeat CPU 0 instructions: 54000348 cycles: 30864856 heartbeat IPC: 0.2137 cumulative IPC: 0.2574 (Simulation time: 00 hr 06 min 23 sec)
Heartbeat CPU 0 instructions: 54500349 cycles: 32673065 heartbeat IPC: 0.2765 cumulative IPC: 0.2594 (Simulation time: 00 hr 06 min 35 sec)
Heartbeat CPU 0 instructions: 55000349 cycles: 34343508 heartbeat IPC: 0.2993 cumulative IPC: 0.2629 (Simulation time: 00 hr 06 min 47 sec)
Heartbeat CPU 0 instructions: 55500351 cycles: 36415855 heartbeat IPC: 0.2413 cumulative IPC: 0.2608 (Simulation time: 00 hr 07 min 01 sec)
Heartbeat CPU 0 instructions: 56000356 cycles: 38601116 heartbeat IPC: 0.2288 cumulative IPC: 0.2578 (Simulation time: 00 hr 07 min 16 sec)
Heartbeat CPU 0 instructions: 56500358 cycles: 40486272 heartbeat IPC: 0.2652 cumulative IPC: 0.2583 (Simulation time: 00 hr 07 min 29 sec)
Heartbeat CPU 0 instructions: 57000360 cycles: 41713730 heartbeat IPC: 0.4073 cumulative IPC: 0.2653 (Simulation time: 00 hr 07 min 38 sec)
Heartbeat CPU 0 instructions: 57500360 cycles: 44427601 heartbeat IPC: 0.1842 cumulative IPC: 0.2577 (Simulation time: 00 hr 07 min 57 sec)
Heartbeat CPU 0 instructions: 58000360 cycles: 45862774 heartbeat IPC: 0.3484 cumulative IPC: 0.262 (Simulation time: 00 hr 08 min 07 sec)
Heartbeat CPU 0 instructions: 58500360 cycles: 47571950 heartbeat IPC: 0.2925 cumulative IPC: 0.2636 (Simulation time: 00 hr 08 min 19 sec)
Heartbeat CPU 0 instructions: 59000360 cycles: 49068380 heartbeat IPC: 0.3341 cumulative IPC: 0.2667 (Simulation time: 00 hr 08 min 32 sec)
Heartbeat CPU 0 instructions: 59500362 cycles: 49573406 heartbeat IPC: 0.9901 cumulative IPC: 0.2774 (Simulation time: 00 hr 08 min 36 sec)
Heartbeat CPU 0 instructions: 60000367 cycles: 52206760 heartbeat IPC: 0.1899 cumulative IPC: 0.2711 (Simulation time: 00 hr 08 min 54 sec)
Heartbeat CPU 0 instructions: 60500367 cycles: 53312166 heartbeat IPC: 0.4523 cumulative IPC: 0.2764 (Simulation time: 00 hr 09 min 04 sec)
Heartbeat CPU 0 instructions: 61000367 cycles: 55976840 heartbeat IPC: 0.1876 cumulative IPC: 0.2706 (Simulation time: 00 hr 09 min 21 sec)
Heartbeat CPU 0 instructions: 61500369 cycles: 58944320 heartbeat IPC: 0.1685 cumulative IPC: 0.2636 (Simulation time: 00 hr 09 min 41 sec)
Heartbeat CPU 0 instructions: 62000371 cycles: 61320649 heartbeat IPC: 0.2104 cumulative IPC: 0.2609 (Simulation time: 00 hr 09 min 57 sec)
Heartbeat CPU 0 instructions: 62500371 cycles: 63971076 heartbeat IPC: 0.1886 cumulative IPC: 0.257 (Simulation time: 00 hr 10 min 16 sec)
Heartbeat CPU 0 instructions: 63000377 cycles: 66049923 heartbeat IPC: 0.2405 cumulative IPC: 0.2563 (Simulation time: 00 hr 10 min 38 sec)
Heartbeat CPU 0 instructions: 63500377 cycles: 68007480 heartbeat IPC: 0.2554 cumulative IPC: 0.2563 (Simulation time: 00 hr 10 min 56 sec)
Heartbeat CPU 0 instructions: 64000378 cycles: 70014270 heartbeat IPC: 0.2492 cumulative IPC: 0.256 (Simulation time: 00 hr 11 min 09 sec)
Heartbeat CPU 0 instructions: 64500382 cycles: 72215789 heartbeat IPC: 0.2271 cumulative IPC: 0.2549 (Simulation time: 00 hr 11 min 24 sec)
Heartbeat CPU 0 instructions: 65000383 cycles: 74634581 heartbeat IPC: 0.2067 cumulative IPC: 0.2529 (Simulation time: 00 hr 11 min 40 sec)
Heartbeat CPU 0 instructions: 65500385 cycles: 75984139 heartbeat IPC: 0.3705 cumulative IPC: 0.2555 (Simulation time: 00 hr 11 min 50 sec)
Heartbeat CPU 0 instructions: 66000386 cycles: 77670317 heartbeat IPC: 0.2965 cumulative IPC: 0.2566 (Simulation time: 00 hr 12 min 02 sec)
Heartbeat CPU 0 instructions: 66500392 cycles: 78974394 heartbeat IPC: 0.3834 cumulative IPC: 0.2592 (Simulation time: 00 hr 12 min 12 sec)
Heartbeat CPU 0 instructions: 67000398 cycles: 80642698 heartbeat IPC: 0.2997 cumulative IPC: 0.2603 (Simulation time: 00 hr 12 min 23 sec)
Heartbeat CPU 0 instructions: 67500399 cycles: 82343133 heartbeat IPC: 0.294 cumulative IPC: 0.2611 (Simulation time: 00 hr 12 min 35 sec)
Heartbeat CPU 0 instructions: 68000401 cycles: 84037361 heartbeat IPC: 0.2951 cumulative IPC: 0.262 (Simulation time: 00 hr 12 min 47 sec)
Heartbeat CPU 0 instructions: 68500406 cycles: 85364552 heartbeat IPC: 0.3767 cumulative IPC: 0.2641 (Simulation time: 00 hr 12 min 58 sec)
Heartbeat CPU 0 instructions: 69000413 cycles: 85921930 heartbeat IPC: 0.8971 cumulative IPC: 0.2691 (Simulation time: 00 hr 13 min 03 sec)
Heartbeat CPU 0 instructions: 69500420 cycles: 86268613 heartbeat IPC: 1.442 cumulative IPC: 0.2749 (Simulation time: 00 hr 13 min 07 sec)
Heartbeat CPU 0 instructions: 70000424 cycles: 86648353 heartbeat IPC: 1.317 cumulative IPC: 0.2804 (Simulation time: 00 hr 13 min 11 sec)
Heartbeat CPU 0 instructions: 70500425 cycles: 86991131 heartbeat IPC: 1.459 cumulative IPC: 0.2861 (Simulation time: 00 hr 13 min 15 sec)
Heartbeat CPU 0 instructions: 71000429 cycles: 87352210 heartbeat IPC: 1.385 cumulative IPC: 0.2916 (Simulation time: 00 hr 13 min 19 sec)
Heartbeat CPU 0 instructions: 71500429 cycles: 87692326 heartbeat IPC: 1.47 cumulative IPC: 0.2971 (Simulation time: 00 hr 13 min 23 sec)
Heartbeat CPU 0 instructions: 72000431 cycles: 90295069 heartbeat IPC: 0.1921 cumulative IPC: 0.2935 (Simulation time: 00 hr 13 min 41 sec)
Heartbeat CPU 0 instructions: 72500437 cycles: 91584204 heartbeat IPC: 0.3879 cumulative IPC: 0.295 (Simulation time: 00 hr 13 min 52 sec)
Heartbeat CPU 0 instructions: 73000439 cycles: 92072061 heartbeat IPC: 1.025 cumulative IPC: 0.2997 (Simulation time: 00 hr 13 min 57 sec)
Heartbeat CPU 0 instructions: 73500446 cycles: 92589954 heartbeat IPC: 0.9655 cumulative IPC: 0.3042 (Simulation time: 00 hr 14 min 01 sec)
Heartbeat CPU 0 instructions: 74000451 cycles: 93755798 heartbeat IPC: 0.4289 cumulative IPC: 0.306 (Simulation time: 00 hr 14 min 12 sec)
Heartbeat CPU 0 instructions: 74500455 cycles: 95709265 heartbeat IPC: 0.256 cumulative IPC: 0.3048 (Simulation time: 00 hr 14 min 30 sec)
Heartbeat CPU 0 instructions: 75000455 cycles: 96969948 heartbeat IPC: 0.3966 cumulative IPC: 0.3062 (Simulation time: 00 hr 14 min 39 sec)
Heartbeat CPU 0 instructions: 75500455 cycles: 98267944 heartbeat IPC: 0.3852 cumulative IPC: 0.3074 (Simulation time: 00 hr 14 min 48 sec)
Heartbeat CPU 0 instructions: 76000455 cycles: 98819312 heartbeat IPC: 0.9068 cumulative IPC: 0.3114 (Simulation time: 00 hr 14 min 53 sec)
Heartbeat CPU 0 instructions: 76500457 cycles: 99139700 heartbeat IPC: 1.561 cumulative IPC: 0.3162 (Simulation time: 00 hr 14 min 57 sec)
Heartbeat CPU 0 instructions: 77000461 cycles: 99504867 heartbeat IPC: 1.369 cumulative IPC: 0.3207 (Simulation time: 00 hr 15 min 01 sec)
Heartbeat CPU 0 instructions: 77500462 cycles: 99914015 heartbeat IPC: 1.222 cumulative IPC: 0.3251 (Simulation time: 00 hr 15 min 05 sec)
Heartbeat CPU 0 instructions: 78000467 cycles: 100267755 heartbeat IPC: 1.413 cumulative IPC: 0.3296 (Simulation time: 00 hr 15 min 09 sec)
Heartbeat CPU 0 instructions: 78500473 cycles: 102461772 heartbeat IPC: 0.2279 cumulative IPC: 0.3271 (Simulation time: 00 hr 15 min 24 sec)
Heartbeat CPU 0 instructions: 79000474 cycles: 103970597 heartbeat IPC: 0.3314 cumulative IPC: 0.3271 (Simulation time: 00 hr 15 min 35 sec)
Heartbeat CPU 0 instructions: 79500476 cycles: 105544208 heartbeat IPC: 0.3177 cumulative IPC: 0.327 (Simulation time: 00 hr 15 min 46 sec)
Heartbeat CPU 0 instructions: 80000478 cycles: 107584110 heartbeat IPC: 0.2451 cumulative IPC: 0.3252 (Simulation time: 00 hr 16 min 00 sec)
Heartbeat CPU 0 instructions: 80500482 cycles: 109642071 heartbeat IPC: 0.243 cumulative IPC: 0.3234 (Simulation time: 00 hr 16 min 15 sec)
Heartbeat CPU 0 instructions: 81000484 cycles: 111219388 heartbeat IPC: 0.317 cumulative IPC: 0.3233 (Simulation time: 00 hr 16 min 26 sec)
Heartbeat CPU 0 instructions: 81500488 cycles: 113123422 heartbeat IPC: 0.2626 cumulative IPC: 0.3221 (Simulation time: 00 hr 16 min 39 sec)
Heartbeat CPU 0 instructions: 82000490 cycles: 115313709 heartbeat IPC: 0.2283 cumulative IPC: 0.32 (Simulation time: 00 hr 16 min 54 sec)
Heartbeat CPU 0 instructions: 82500493 cycles: 117044833 heartbeat IPC: 0.2888 cumulative IPC: 0.3195 (Simulation time: 00 hr 17 min 06 sec)
Heartbeat CPU 0 instructions: 83000493 cycles: 119153996 heartbeat IPC: 0.2371 cumulative IPC: 0.3178 (Simulation time: 00 hr 17 min 20 sec)
Heartbeat CPU 0 instructions: 83500493 cycles: 120746221 heartbeat IPC: 0.314 cumulative IPC: 0.3178 (Simulation time: 00 hr 17 min 32 sec)
Heartbeat CPU 0 instructions: 84000493 cycles: 122668839 heartbeat IPC: 0.2601 cumulative IPC: 0.3167 (Simulation time: 00 hr 17 min 46 sec)
Heartbeat CPU 0 instructions: 84500493 cycles: 124519441 heartbeat IPC: 0.2702 cumulative IPC: 0.316 (Simulation time: 00 hr 17 min 59 sec)
Heartbeat CPU 0 instructions: 85000496 cycles: 126706940 heartbeat IPC: 0.2286 cumulative IPC: 0.3142 (Simulation time: 00 hr 18 min 14 sec)
Heartbeat CPU 0 instructions: 85500496 cycles: 128196964 heartbeat IPC: 0.3356 cumulative IPC: 0.3145 (Simulation time: 00 hr 18 min 24 sec)
Heartbeat CPU 0 instructions: 86000496 cycles: 129200237 heartbeat IPC: 0.4984 cumulative IPC: 0.3161 (Simulation time: 00 hr 18 min 32 sec)
Heartbeat CPU 0 instructions: 86500496 cycles: 130826449 heartbeat IPC: 0.3075 cumulative IPC: 0.316 (Simulation time: 00 hr 18 min 44 sec)
Heartbeat CPU 0 instructions: 87000498 cycles: 132635643 heartbeat IPC: 0.2764 cumulative IPC: 0.3154 (Simulation time: 00 hr 18 min 57 sec)
Heartbeat CPU 0 instructions: 87500499 cycles: 134163650 heartbeat IPC: 0.3272 cumulative IPC: 0.3156 (Simulation time: 00 hr 19 min 08 sec)
Heartbeat CPU 0 instructions: 88000502 cycles: 136260784 heartbeat IPC: 0.2384 cumulative IPC: 0.3142 (Simulation time: 00 hr 19 min 22 sec)
Heartbeat CPU 0 instructions: 88500504 cycles: 138108893 heartbeat IPC: 0.2705 cumulative IPC: 0.3136 (Simulation time: 00 hr 19 min 35 sec)
Heartbeat CPU 0 instructions: 89000505 cycles: 140627804 heartbeat IPC: 0.1985 cumulative IPC: 0.3112 (Simulation time: 00 hr 19 min 52 sec)
Heartbeat CPU 0 instructions: 89500505 cycles: 142287107 heartbeat IPC: 0.3013 cumulative IPC: 0.3111 (Simulation time: 00 hr 20 min 03 sec)
Heartbeat CPU 0 instructions: 90000505 cycles: 144042091 heartbeat IPC: 0.2849 cumulative IPC: 0.3108 (Simulation time: 00 hr 20 min 16 sec)
Heartbeat CPU 0 instructions: 90500507 cycles: 145851182 heartbeat IPC: 0.2764 cumulative IPC: 0.3103 (Simulation time: 00 hr 20 min 28 sec)
Heartbeat CPU 0 instructions: 91000514 cycles: 146816317 heartbeat IPC: 0.5181 cumulative IPC: 0.3118 (Simulation time: 00 hr 20 min 37 sec)
Heartbeat CPU 0 instructions: 91500519 cycles: 147763152 heartbeat IPC: 0.5281 cumulative IPC: 0.3134 (Simulation time: 00 hr 20 min 45 sec)
Heartbeat CPU 0 instructions: 92000525 cycles: 149066388 heartbeat IPC: 0.3837 cumulative IPC: 0.314 (Simulation time: 00 hr 20 min 55 sec)
Heartbeat CPU 0 instructions: 92500525 cycles: 151313300 heartbeat IPC: 0.2225 cumulative IPC: 0.3125 (Simulation time: 00 hr 21 min 10 sec)
Heartbeat CPU 0 instructions: 93000527 cycles: 153071718 heartbeat IPC: 0.2843 cumulative IPC: 0.3122 (Simulation time: 00 hr 21 min 22 sec)
Heartbeat CPU 0 instructions: 93500527 cycles: 154808147 heartbeat IPC: 0.2879 cumulative IPC: 0.3119 (Simulation time: 00 hr 21 min 35 sec)
Heartbeat CPU 0 instructions: 94000528 cycles: 156262890 heartbeat IPC: 0.3437 cumulative IPC: 0.3122 (Simulation time: 00 hr 21 min 45 sec)
Heartbeat CPU 0 instructions: 94500532 cycles: 158065398 heartbeat IPC: 0.2774 cumulative IPC: 0.3118 (Simulation time: 00 hr 21 min 58 sec)
Heartbeat CPU 0 instructions: 95000536 cycles: 160020871 heartbeat IPC: 0.2557 cumulative IPC: 0.311 (Simulation time: 00 hr 22 min 11 sec)
Heartbeat CPU 0 instructions: 95500536 cycles: 161388179 heartbeat IPC: 0.3657 cumulative IPC: 0.3115 (Simulation time: 00 hr 22 min 21 sec)
Heartbeat CPU 0 instructions: 96000542 cycles: 162532216 heartbeat IPC: 0.4371 cumulative IPC: 0.3125 (Simulation time: 00 hr 22 min 30 sec)
Heartbeat CPU 0 instructions: 96500543 cycles: 164388460 heartbeat IPC: 0.2694 cumulative IPC: 0.3119 (Simulation time: 00 hr 22 min 43 sec)
Heartbeat CPU 0 instructions: 97000544 cycles: 165492526 heartbeat IPC: 0.4529 cumulative IPC: 0.313 (Simulation time: 00 hr 22 min 51 sec)
Heartbeat CPU 0 instructions: 97500545 cycles: 165915705 heartbeat IPC: 1.182 cumulative IPC: 0.3154 (Simulation time: 00 hr 22 min 55 sec)
Heartbeat CPU 0 instructions: 98000550 cycles: 167118689 heartbeat IPC: 0.4156 cumulative IPC: 0.3162 (Simulation time: 00 hr 23 min 04 sec)
Heartbeat CPU 0 instructions: 98500556 cycles: 169683532 heartbeat IPC: 0.1949 cumulative IPC: 0.3142 (Simulation time: 00 hr 23 min 21 sec)
Heartbeat CPU 0 instructions: 99000559 cycles: 170672053 heartbeat IPC: 0.5058 cumulative IPC: 0.3154 (Simulation time: 00 hr 23 min 29 sec)
Heartbeat CPU 0 instructions: 99500559 cycles: 173760835 heartbeat IPC: 0.1619 cumulative IPC: 0.3124 (Simulation time: 00 hr 23 min 49 sec)
Heartbeat CPU 0 instructions: 100000559 cycles: 175459985 heartbeat IPC: 0.2943 cumulative IPC: 0.3122 (Simulation time: 00 hr 24 min 01 sec)
Heartbeat CPU 0 instructions: 100500559 cycles: 177403515 heartbeat IPC: 0.2573 cumulative IPC: 0.3116 (Simulation time: 00 hr 24 min 15 sec)
Heartbeat CPU 0 instructions: 101000564 cycles: 178740848 heartbeat IPC: 0.3739 cumulative IPC: 0.3121 (Simulation time: 00 hr 24 min 26 sec)
Heartbeat CPU 0 instructions: 101500564 cycles: 180815200 heartbeat IPC: 0.241 cumulative IPC: 0.3112 (Simulation time: 00 hr 24 min 40 sec)
Heartbeat CPU 0 instructions: 102000565 cycles: 183389039 heartbeat IPC: 0.1943 cumulative IPC: 0.3094 (Simulation time: 00 hr 24 min 58 sec)
Heartbeat CPU 0 instructions: 102500572 cycles: 185390299 heartbeat IPC: 0.2498 cumulative IPC: 0.3087 (Simulation time: 00 hr 25 min 12 sec)
Heartbeat CPU 0 instructions: 103000572 cycles: 186555156 heartbeat IPC: 0.4292 cumulative IPC: 0.3095 (Simulation time: 00 hr 25 min 21 sec)
Heartbeat CPU 0 instructions: 103500572 cycles: 189522442 heartbeat IPC: 0.1685 cumulative IPC: 0.3071 (Simulation time: 00 hr 25 min 41 sec)
Heartbeat CPU 0 instructions: 104000573 cycles: 191605634 heartbeat IPC: 0.24 cumulative IPC: 0.3063 (Simulation time: 00 hr 25 min 55 sec)
Heartbeat CPU 0 instructions: 104500574 cycles: 193005102 heartbeat IPC: 0.3573 cumulative IPC: 0.3067 (Simulation time: 00 hr 26 min 05 sec)
Heartbeat CPU 0 instructions: 105000574 cycles: 195726518 heartbeat IPC: 0.1837 cumulative IPC: 0.3049 (Simulation time: 00 hr 26 min 24 sec)
Heartbeat CPU 0 instructions: 105500580 cycles: 197556343 heartbeat IPC: 0.2733 cumulative IPC: 0.3046 (Simulation time: 00 hr 26 min 37 sec)
Heartbeat CPU 0 instructions: 106000580 cycles: 199563898 heartbeat IPC: 0.2491 cumulative IPC: 0.304 (Simulation time: 00 hr 26 min 51 sec)
Heartbeat CPU 0 instructions: 106500580 cycles: 201202530 heartbeat IPC: 0.3051 cumulative IPC: 0.304 (Simulation time: 00 hr 27 min 03 sec)
Heartbeat CPU 0 instructions: 107000582 cycles: 203480467 heartbeat IPC: 0.2195 cumulative IPC: 0.3029 (Simulation time: 00 hr 27 min 18 sec)
Heartbeat CPU 0 instructions: 107500585 cycles: 205262367 heartbeat IPC: 0.2806 cumulative IPC: 0.3027 (Simulation time: 00 hr 27 min 30 sec)
Heartbeat CPU 0 instructions: 108000588 cycles: 206911235 heartbeat IPC: 0.3032 cumulative IPC: 0.3027 (Simulation time: 00 hr 27 min 42 sec)
Heartbeat CPU 0 instructions: 108500588 cycles: 208866658 heartbeat IPC: 0.2557 cumulative IPC: 0.3023 (Simulation time: 00 hr 27 min 56 sec)
Heartbeat CPU 0 instructions: 109000590 cycles: 209664911 heartbeat IPC: 0.6264 cumulative IPC: 0.3036 (Simulation time: 00 hr 28 min 02 sec)
Heartbeat CPU 0 instructions: 109500590 cycles: 211844939 heartbeat IPC: 0.2294 cumulative IPC: 0.3028 (Simulation time: 00 hr 28 min 17 sec)
Heartbeat CPU 0 instructions: 110000591 cycles: 213426023 heartbeat IPC: 0.3162 cumulative IPC: 0.3029 (Simulation time: 00 hr 28 min 29 sec)
Heartbeat CPU 0 instructions: 110500592 cycles: 215820180 heartbeat IPC: 0.2088 cumulative IPC: 0.3018 (Simulation time: 00 hr 28 min 44 sec)
Heartbeat CPU 0 instructions: 111000595 cycles: 217845895 heartbeat IPC: 0.2468 cumulative IPC: 0.3012 (Simulation time: 00 hr 28 min 58 sec)
Heartbeat CPU 0 instructions: 111500596 cycles: 219949177 heartbeat IPC: 0.2377 cumulative IPC: 0.3006 (Simulation time: 00 hr 29 min 13 sec)
Heartbeat CPU 0 instructions: 112000602 cycles: 221468482 heartbeat IPC: 0.3291 cumulative IPC: 0.3008 (Simulation time: 00 hr 29 min 24 sec)
Heartbeat CPU 0 instructions: 112500602 cycles: 223143620 heartbeat IPC: 0.2985 cumulative IPC: 0.3007 (Simulation time: 00 hr 29 min 36 sec)
Heartbeat CPU 0 instructions: 113000605 cycles: 224628159 heartbeat IPC: 0.3368 cumulative IPC: 0.301 (Simulation time: 00 hr 29 min 47 sec)
Heartbeat CPU 0 instructions: 113500606 cycles: 226496939 heartbeat IPC: 0.2676 cumulative IPC: 0.3007 (Simulation time: 00 hr 30 min 00 sec)
Heartbeat CPU 0 instructions: 114000606 cycles: 228468399 heartbeat IPC: 0.2536 cumulative IPC: 0.3003 (Simulation time: 00 hr 30 min 13 sec)
Heartbeat CPU 0 instructions: 114500607 cycles: 230604772 heartbeat IPC: 0.234 cumulative IPC: 0.2996 (Simulation time: 00 hr 30 min 28 sec)
Heartbeat CPU 0 instructions: 115000609 cycles: 232923023 heartbeat IPC: 0.2157 cumulative IPC: 0.2987 (Simulation time: 00 hr 30 min 44 sec)
Heartbeat CPU 0 instructions: 115500614 cycles: 234713853 heartbeat IPC: 0.2792 cumulative IPC: 0.2986 (Simulation time: 00 hr 30 min 56 sec)
Heartbeat CPU 0 instructions: 116000617 cycles: 236795702 heartbeat IPC: 0.2402 cumulative IPC: 0.298 (Simulation time: 00 hr 31 min 10 sec)
Heartbeat CPU 0 instructions: 116500620 cycles: 238422654 heartbeat IPC: 0.3073 cumulative IPC: 0.2981 (Simulation time: 00 hr 31 min 22 sec)
Heartbeat CPU 0 instructions: 117000623 cycles: 239597410 heartbeat IPC: 0.4256 cumulative IPC: 0.2987 (Simulation time: 00 hr 31 min 31 sec)
Heartbeat CPU 0 instructions: 117500625 cycles: 240924271 heartbeat IPC: 0.3768 cumulative IPC: 0.2992 (Simulation time: 00 hr 31 min 41 sec)
Heartbeat CPU 0 instructions: 118000626 cycles: 242800030 heartbeat IPC: 0.2666 cumulative IPC: 0.2989 (Simulation time: 00 hr 31 min 54 sec)
Heartbeat CPU 0 instructions: 118500631 cycles: 244488827 heartbeat IPC: 0.2961 cumulative IPC: 0.2989 (Simulation time: 00 hr 32 min 06 sec)
Heartbeat CPU 0 instructions: 119000637 cycles: 246554325 heartbeat IPC: 0.2421 cumulative IPC: 0.2984 (Simulation time: 00 hr 32 min 21 sec)
Heartbeat CPU 0 instructions: 119500638 cycles: 248273912 heartbeat IPC: 0.2908 cumulative IPC: 0.2984 (Simulation time: 00 hr 32 min 33 sec)
Heartbeat CPU 0 instructions: 120000638 cycles: 249890841 heartbeat IPC: 0.3092 cumulative IPC: 0.2984 (Simulation time: 00 hr 32 min 45 sec)
Heartbeat CPU 0 instructions: 120500641 cycles: 251874269 heartbeat IPC: 0.2521 cumulative IPC: 0.298 (Simulation time: 00 hr 32 min 58 sec)
Heartbeat CPU 0 instructions: 121000641 cycles: 254332262 heartbeat IPC: 0.2034 cumulative IPC: 0.2971 (Simulation time: 00 hr 33 min 15 sec)
Heartbeat CPU 0 instructions: 121500647 cycles: 255501411 heartbeat IPC: 0.4277 cumulative IPC: 0.2977 (Simulation time: 00 hr 33 min 23 sec)
Heartbeat CPU 0 instructions: 122000650 cycles: 256212182 heartbeat IPC: 0.7035 cumulative IPC: 0.2989 (Simulation time: 00 hr 33 min 29 sec)
Heartbeat CPU 0 instructions: 122500655 cycles: 256517387 heartbeat IPC: 1.638 cumulative IPC: 0.3006 (Simulation time: 00 hr 33 min 33 sec)
Heartbeat CPU 0 instructions: 123000657 cycles: 257514608 heartbeat IPC: 0.5014 cumulative IPC: 0.3014 (Simulation time: 00 hr 33 min 40 sec)
Heartbeat CPU 0 instructions: 123500664 cycles: 257962774 heartbeat IPC: 1.116 cumulative IPC: 0.3029 (Simulation time: 00 hr 33 min 44 sec)
Heartbeat CPU 0 instructions: 124000665 cycles: 258529966 heartbeat IPC: 0.8815 cumulative IPC: 0.3043 (Simulation time: 00 hr 33 min 49 sec)
Heartbeat CPU 0 instructions: 124500668 cycles: 260139978 heartbeat IPC: 0.3106 cumulative IPC: 0.3043 (Simulation time: 00 hr 34 min 01 sec)
Heartbeat CPU 0 instructions: 125000670 cycles: 262461360 heartbeat IPC: 0.2154 cumulative IPC: 0.3035 (Simulation time: 00 hr 34 min 17 sec)
Heartbeat CPU 0 instructions: 125500670 cycles: 264245784 heartbeat IPC: 0.2802 cumulative IPC: 0.3033 (Simulation time: 00 hr 34 min 29 sec)
Heartbeat CPU 0 instructions: 126000670 cycles: 265822642 heartbeat IPC: 0.3171 cumulative IPC: 0.3034 (Simulation time: 00 hr 34 min 40 sec)
Heartbeat CPU 0 instructions: 126500671 cycles: 268023210 heartbeat IPC: 0.2272 cumulative IPC: 0.3027 (Simulation time: 00 hr 34 min 56 sec)
Heartbeat CPU 0 instructions: 127000671 cycles: 269262760 heartbeat IPC: 0.4034 cumulative IPC: 0.3032 (Simulation time: 00 hr 35 min 05 sec)
Heartbeat CPU 0 instructions: 127500673 cycles: 270751804 heartbeat IPC: 0.3358 cumulative IPC: 0.3034 (Simulation time: 00 hr 35 min 15 sec)
Heartbeat CPU 0 instructions: 128000675 cycles: 272899430 heartbeat IPC: 0.2328 cumulative IPC: 0.3028 (Simulation time: 00 hr 35 min 30 sec)
Heartbeat CPU 0 instructions: 128500682 cycles: 274183087 heartbeat IPC: 0.3895 cumulative IPC: 0.3033 (Simulation time: 00 hr 35 min 40 sec)
Heartbeat CPU 0 instructions: 129000682 cycles: 275706303 heartbeat IPC: 0.3283 cumulative IPC: 0.3034 (Simulation time: 00 hr 35 min 51 sec)
Heartbeat CPU 0 instructions: 129500685 cycles: 276118156 heartbeat IPC: 1.214 cumulative IPC: 0.3048 (Simulation time: 00 hr 35 min 55 sec)
Heartbeat CPU 0 instructions: 130000686 cycles: 278113390 heartbeat IPC: 0.2506 cumulative IPC: 0.3044 (Simulation time: 00 hr 36 min 09 sec)
Heartbeat CPU 0 instructions: 130500693 cycles: 280088695 heartbeat IPC: 0.2531 cumulative IPC: 0.304 (Simulation time: 00 hr 36 min 22 sec)
Heartbeat CPU 0 instructions: 131000694 cycles: 282544155 heartbeat IPC: 0.2036 cumulative IPC: 0.3031 (Simulation time: 00 hr 36 min 39 sec)
Heartbeat CPU 0 instructions: 131500694 cycles: 283768326 heartbeat IPC: 0.4084 cumulative IPC: 0.3036 (Simulation time: 00 hr 36 min 48 sec)
Heartbeat CPU 0 instructions: 132000694 cycles: 285111537 heartbeat IPC: 0.3722 cumulative IPC: 0.3039 (Simulation time: 00 hr 36 min 58 sec)
Heartbeat CPU 0 instructions: 132500697 cycles: 286986868 heartbeat IPC: 0.2666 cumulative IPC: 0.3037 (Simulation time: 00 hr 37 min 12 sec)
Heartbeat CPU 0 instructions: 133000698 cycles: 288713984 heartbeat IPC: 0.2895 cumulative IPC: 0.3036 (Simulation time: 00 hr 37 min 24 sec)
Heartbeat CPU 0 instructions: 133500704 cycles: 289306401 heartbeat IPC: 0.844 cumulative IPC: 0.3048 (Simulation time: 00 hr 37 min 30 sec)
Heartbeat CPU 0 instructions: 134000705 cycles: 290230358 heartbeat IPC: 0.5412 cumulative IPC: 0.3056 (Simulation time: 00 hr 37 min 38 sec)
Heartbeat CPU 0 instructions: 134500706 cycles: 292035945 heartbeat IPC: 0.2769 cumulative IPC: 0.3054 (Simulation time: 00 hr 37 min 51 sec)
Heartbeat CPU 0 instructions: 135000707 cycles: 294143887 heartbeat IPC: 0.2372 cumulative IPC: 0.3049 (Simulation time: 00 hr 38 min 06 sec)
Heartbeat CPU 0 instructions: 135500710 cycles: 296989370 heartbeat IPC: 0.1757 cumulative IPC: 0.3036 (Simulation time: 00 hr 38 min 26 sec)
Heartbeat CPU 0 instructions: 136000710 cycles: 299019220 heartbeat IPC: 0.2463 cumulative IPC: 0.3031 (Simulation time: 00 hr 38 min 41 sec)
Heartbeat CPU 0 instructions: 136500710 cycles: 300568131 heartbeat IPC: 0.3228 cumulative IPC: 0.3033 (Simulation time: 00 hr 38 min 52 sec)
Heartbeat CPU 0 instructions: 137000710 cycles: 302527320 heartbeat IPC: 0.2552 cumulative IPC: 0.3029 (Simulation time: 00 hr 39 min 06 sec)
Heartbeat CPU 0 instructions: 137500711 cycles: 305021234 heartbeat IPC: 0.2005 cumulative IPC: 0.302 (Simulation time: 00 hr 39 min 22 sec)
Heartbeat CPU 0 instructions: 138000716 cycles: 306210214 heartbeat IPC: 0.4205 cumulative IPC: 0.3025 (Simulation time: 00 hr 39 min 31 sec)
Heartbeat CPU 0 instructions: 138500718 cycles: 308306610 heartbeat IPC: 0.2385 cumulative IPC: 0.3021 (Simulation time: 00 hr 39 min 46 sec)
Heartbeat CPU 0 instructions: 139000718 cycles: 309962164 heartbeat IPC: 0.302 cumulative IPC: 0.3021 (Simulation time: 00 hr 39 min 58 sec)
Heartbeat CPU 0 instructions: 139500723 cycles: 311351323 heartbeat IPC: 0.3599 cumulative IPC: 0.3023 (Simulation time: 00 hr 40 min 09 sec)
Heartbeat CPU 0 instructions: 140000725 cycles: 312105494 heartbeat IPC: 0.663 cumulative IPC: 0.3033 (Simulation time: 00 hr 40 min 16 sec)
Heartbeat CPU 0 instructions: 140500726 cycles: 312478322 heartbeat IPC: 1.341 cumulative IPC: 0.3046 (Simulation time: 00 hr 40 min 20 sec)
Heartbeat CPU 0 instructions: 141000726 cycles: 314692099 heartbeat IPC: 0.2259 cumulative IPC: 0.304 (Simulation time: 00 hr 40 min 35 sec)
Heartbeat CPU 0 instructions: 141500727 cycles: 316905935 heartbeat IPC: 0.2259 cumulative IPC: 0.3034 (Simulation time: 00 hr 40 min 51 sec)
Heartbeat CPU 0 instructions: 142000728 cycles: 318181531 heartbeat IPC: 0.392 cumulative IPC: 0.3038 (Simulation time: 00 hr 41 min 02 sec)
Heartbeat CPU 0 instructions: 142500730 cycles: 318857170 heartbeat IPC: 0.74 cumulative IPC: 0.3047 (Simulation time: 00 hr 41 min 09 sec)
Heartbeat CPU 0 instructions: 143000731 cycles: 319289667 heartbeat IPC: 1.156 cumulative IPC: 0.306 (Simulation time: 00 hr 41 min 15 sec)
Heartbeat CPU 0 instructions: 143500732 cycles: 319766147 heartbeat IPC: 1.049 cumulative IPC: 0.3071 (Simulation time: 00 hr 41 min 21 sec)
Heartbeat CPU 0 instructions: 144000737 cycles: 320192294 heartbeat IPC: 1.173 cumulative IPC: 0.3083 (Simulation time: 00 hr 41 min 27 sec)
Heartbeat CPU 0 instructions: 144500740 cycles: 320639906 heartbeat IPC: 1.117 cumulative IPC: 0.3095 (Simulation time: 00 hr 41 min 32 sec)
Heartbeat CPU 0 instructions: 145000743 cycles: 321060306 heartbeat IPC: 1.189 cumulative IPC: 0.3107 (Simulation time: 00 hr 41 min 38 sec)
Heartbeat CPU 0 instructions: 145500749 cycles: 321507039 heartbeat IPC: 1.119 cumulative IPC: 0.3119 (Simulation time: 00 hr 41 min 44 sec)
Heartbeat CPU 0 instructions: 146000751 cycles: 321950411 heartbeat IPC: 1.128 cumulative IPC: 0.3131 (Simulation time: 00 hr 41 min 49 sec)
Heartbeat CPU 0 instructions: 146500754 cycles: 322423906 heartbeat IPC: 1.056 cumulative IPC: 0.3142 (Simulation time: 00 hr 41 min 55 sec)
Heartbeat CPU 0 instructions: 147000755 cycles: 322890101 heartbeat IPC: 1.073 cumulative IPC: 0.3154 (Simulation time: 00 hr 42 min 01 sec)
Heartbeat CPU 0 instructions: 147500755 cycles: 323323304 heartbeat IPC: 1.154 cumulative IPC: 0.3166 (Simulation time: 00 hr 42 min 07 sec)
Heartbeat CPU 0 instructions: 148000757 cycles: 323747687 heartbeat IPC: 1.178 cumulative IPC: 0.3177 (Simulation time: 00 hr 42 min 12 sec)
Heartbeat CPU 0 instructions: 148500757 cycles: 326490744 heartbeat IPC: 0.1823 cumulative IPC: 0.3166 (Simulation time: 00 hr 42 min 33 sec)
Heartbeat CPU 0 instructions: 149000759 cycles: 327559685 heartbeat IPC: 0.4678 cumulative IPC: 0.3171 (Simulation time: 00 hr 42 min 42 sec)
Heartbeat CPU 0 instructions: 149500763 cycles: 327927943 heartbeat IPC: 1.358 cumulative IPC: 0.3183 (Simulation time: 00 hr 42 min 46 sec)
Heartbeat CPU 0 instructions: 150000766 cycles: 328711652 heartbeat IPC: 0.638 cumulative IPC: 0.3191 (Simulation time: 00 hr 42 min 52 sec)
Heartbeat CPU 0 instructions: 150500767 cycles: 330393625 heartbeat IPC: 0.2973 cumulative IPC: 0.319 (Simulation time: 00 hr 43 min 05 sec)
Heartbeat CPU 0 instructions: 151000773 cycles: 330932641 heartbeat IPC: 0.9276 cumulative IPC: 0.32 (Simulation time: 00 hr 43 min 10 sec)
Heartbeat CPU 0 instructions: 151500780 cycles: 331324190 heartbeat IPC: 1.277 cumulative IPC: 0.3212 (Simulation time: 00 hr 43 min 14 sec)
Heartbeat CPU 0 instructions: 152000783 cycles: 331696180 heartbeat IPC: 1.344 cumulative IPC: 0.3224 (Simulation time: 00 hr 43 min 18 sec)
Heartbeat CPU 0 instructions: 152500783 cycles: 332071327 heartbeat IPC: 1.333 cumulative IPC: 0.3236 (Simulation time: 00 hr 43 min 22 sec)
Heartbeat CPU 0 instructions: 153000790 cycles: 333805934 heartbeat IPC: 0.2883 cumulative IPC: 0.3234 (Simulation time: 00 hr 43 min 35 sec)
Heartbeat CPU 0 instructions: 153500791 cycles: 336726081 heartbeat IPC: 0.1712 cumulative IPC: 0.322 (Simulation time: 00 hr 43 min 56 sec)
Heartbeat CPU 0 instructions: 154000791 cycles: 338501166 heartbeat IPC: 0.2817 cumulative IPC: 0.3218 (Simulation time: 00 hr 44 min 09 sec)
Heartbeat CPU 0 instructions: 154500791 cycles: 340853323 heartbeat IPC: 0.2126 cumulative IPC: 0.321 (Simulation time: 00 hr 44 min 26 sec)
Heartbeat CPU 0 instructions: 155000791 cycles: 342058396 heartbeat IPC: 0.4149 cumulative IPC: 0.3214 (Simulation time: 00 hr 44 min 34 sec)
Heartbeat CPU 0 instructions: 155500791 cycles: 343922918 heartbeat IPC: 0.2682 cumulative IPC: 0.3211 (Simulation time: 00 hr 44 min 48 sec)
Heartbeat CPU 0 instructions: 156000792 cycles: 345074251 heartbeat IPC: 0.4343 cumulative IPC: 0.3215 (Simulation time: 00 hr 44 min 57 sec)
Heartbeat CPU 0 instructions: 156500792 cycles: 347920478 heartbeat IPC: 0.1757 cumulative IPC: 0.3202 (Simulation time: 00 hr 45 min 15 sec)
Heartbeat CPU 0 instructions: 157000795 cycles: 349760606 heartbeat IPC: 0.2717 cumulative IPC: 0.3199 (Simulation time: 00 hr 45 min 29 sec)
Heartbeat CPU 0 instructions: 157500795 cycles: 350269773 heartbeat IPC: 0.982 cumulative IPC: 0.3209 (Simulation time: 00 hr 45 min 34 sec)
Heartbeat CPU 0 instructions: 158000796 cycles: 350633265 heartbeat IPC: 1.376 cumulative IPC: 0.3221 (Simulation time: 00 hr 45 min 38 sec)
Heartbeat CPU 0 instructions: 158500799 cycles: 350973779 heartbeat IPC: 1.468 cumulative IPC: 0.3233 (Simulation time: 00 hr 45 min 41 sec)
Heartbeat CPU 0 instructions: 159000803 cycles: 353097951 heartbeat IPC: 0.2354 cumulative IPC: 0.3227 (Simulation time: 00 hr 45 min 57 sec)
Heartbeat CPU 0 instructions: 159500808 cycles: 353599768 heartbeat IPC: 0.9964 cumulative IPC: 0.3237 (Simulation time: 00 hr 46 min 03 sec)
Heartbeat CPU 0 instructions: 160000808 cycles: 354033153 heartbeat IPC: 1.154 cumulative IPC: 0.3248 (Simulation time: 00 hr 46 min 09 sec)
Heartbeat CPU 0 instructions: 160500811 cycles: 354472881 heartbeat IPC: 1.137 cumulative IPC: 0.3258 (Simulation time: 00 hr 46 min 14 sec)
Heartbeat CPU 0 instructions: 161000816 cycles: 354986838 heartbeat IPC: 0.9729 cumulative IPC: 0.3268 (Simulation time: 00 hr 46 min 21 sec)
Heartbeat CPU 0 instructions: 161500822 cycles: 355740273 heartbeat IPC: 0.6636 cumulative IPC: 0.3275 (Simulation time: 00 hr 46 min 30 sec)
Heartbeat CPU 0 instructions: 162000824 cycles: 356286433 heartbeat IPC: 0.9155 cumulative IPC: 0.3285 (Simulation time: 00 hr 46 min 38 sec)
Heartbeat CPU 0 instructions: 162500826 cycles: 356851314 heartbeat IPC: 0.8851 cumulative IPC: 0.3294 (Simulation time: 00 hr 46 min 45 sec)
Heartbeat CPU 0 instructions: 163000826 cycles: 357378387 heartbeat IPC: 0.9486 cumulative IPC: 0.3304 (Simulation time: 00 hr 46 min 51 sec)
Heartbeat CPU 0 instructions: 163500826 cycles: 357901053 heartbeat IPC: 0.9566 cumulative IPC: 0.3313 (Simulation time: 00 hr 46 min 57 sec)
Heartbeat CPU 0 instructions: 164000826 cycles: 358465238 heartbeat IPC: 0.8862 cumulative IPC: 0.3322 (Simulation time: 00 hr 47 min 03 sec)
Heartbeat CPU 0 instructions: 164500832 cycles: 358749593 heartbeat IPC: 1.758 cumulative IPC: 0.3334 (Simulation time: 00 hr 47 min 06 sec)
Heartbeat CPU 0 instructions: 165000832 cycles: 361577820 heartbeat IPC: 0.1768 cumulative IPC: 0.3321 (Simulation time: 00 hr 47 min 26 sec)
Heartbeat CPU 0 instructions: 165500832 cycles: 364401550 heartbeat IPC: 0.1771 cumulative IPC: 0.3309 (Simulation time: 00 hr 47 min 44 sec)
Heartbeat CPU 0 instructions: 166000834 cycles: 366467048 heartbeat IPC: 0.2421 cumulative IPC: 0.3304 (Simulation time: 00 hr 47 min 57 sec)
Heartbeat CPU 0 instructions: 166500835 cycles: 368566256 heartbeat IPC: 0.2382 cumulative IPC: 0.3298 (Simulation time: 00 hr 48 min 11 sec)
Heartbeat CPU 0 instructions: 167000836 cycles: 371681650 heartbeat IPC: 0.1605 cumulative IPC: 0.3283 (Simulation time: 00 hr 48 min 30 sec)
Heartbeat CPU 0 instructions: 167500838 cycles: 372979924 heartbeat IPC: 0.3851 cumulative IPC: 0.3285 (Simulation time: 00 hr 48 min 40 sec)
Heartbeat CPU 0 instructions: 168000842 cycles: 373446972 heartbeat IPC: 1.071 cumulative IPC: 0.3295 (Simulation time: 00 hr 48 min 44 sec)
Heartbeat CPU 0 instructions: 168500848 cycles: 373798692 heartbeat IPC: 1.422 cumulative IPC: 0.3306 (Simulation time: 00 hr 48 min 48 sec)
Heartbeat CPU 0 instructions: 169000851 cycles: 374149008 heartbeat IPC: 1.427 cumulative IPC: 0.3316 (Simulation time: 00 hr 48 min 51 sec)
Heartbeat CPU 0 instructions: 169500851 cycles: 374474081 heartbeat IPC: 1.538 cumulative IPC: 0.3327 (Simulation time: 00 hr 48 min 55 sec)
Heartbeat CPU 0 instructions: 170000852 cycles: 374814861 heartbeat IPC: 1.467 cumulative IPC: 0.3338 (Simulation time: 00 hr 48 min 58 sec)
Heartbeat CPU 0 instructions: 170500859 cycles: 375525437 heartbeat IPC: 0.7037 cumulative IPC: 0.3345 (Simulation time: 00 hr 49 min 05 sec)
Heartbeat CPU 0 instructions: 171000859 cycles: 377645669 heartbeat IPC: 0.2358 cumulative IPC: 0.334 (Simulation time: 00 hr 49 min 22 sec)
Heartbeat CPU 0 instructions: 171500859 cycles: 380967973 heartbeat IPC: 0.1505 cumulative IPC: 0.3323 (Simulation time: 00 hr 49 min 44 sec)
Heartbeat CPU 0 instructions: 172000864 cycles: 381868395 heartbeat IPC: 0.5553 cumulative IPC: 0.3328 (Simulation time: 00 hr 49 min 51 sec)
Heartbeat CPU 0 instructions: 172500864 cycles: 382262503 heartbeat IPC: 1.269 cumulative IPC: 0.3338 (Simulation time: 00 hr 49 min 55 sec)
Heartbeat CPU 0 instructions: 173000869 cycles: 382623488 heartbeat IPC: 1.385 cumulative IPC: 0.3349 (Simulation time: 00 hr 49 min 59 sec)
Heartbeat CPU 0 instructions: 173500869 cycles: 382989316 heartbeat IPC: 1.367 cumulative IPC: 0.3359 (Simulation time: 00 hr 50 min 02 sec)
Heartbeat CPU 0 instructions: 174000869 cycles: 385756076 heartbeat IPC: 0.1807 cumulative IPC: 0.3347 (Simulation time: 00 hr 50 min 21 sec)
Heartbeat CPU 0 instructions: 174500870 cycles: 387647313 heartbeat IPC: 0.2644 cumulative IPC: 0.3344 (Simulation time: 00 hr 50 min 34 sec)
Heartbeat CPU 0 instructions: 175000870 cycles: 388910097 heartbeat IPC: 0.396 cumulative IPC: 0.3346 (Simulation time: 00 hr 50 min 43 sec)
Heartbeat CPU 0 instructions: 175500873 cycles: 391188076 heartbeat IPC: 0.2195 cumulative IPC: 0.3339 (Simulation time: 00 hr 50 min 58 sec)
Heartbeat CPU 0 instructions: 176000873 cycles: 392424115 heartbeat IPC: 0.4045 cumulative IPC: 0.3341 (Simulation time: 00 hr 51 min 07 sec)
Heartbeat CPU 0 instructions: 176500873 cycles: 394154840 heartbeat IPC: 0.2889 cumulative IPC: 0.3339 (Simulation time: 00 hr 51 min 18 sec)
Heartbeat CPU 0 instructions: 177000876 cycles: 395391846 heartbeat IPC: 0.4042 cumulative IPC: 0.3342 (Simulation time: 00 hr 51 min 27 sec)
Heartbeat CPU 0 instructions: 177500881 cycles: 396782784 heartbeat IPC: 0.3595 cumulative IPC: 0.3342 (Simulation time: 00 hr 51 min 36 sec)
Heartbeat CPU 0 instructions: 178000881 cycles: 398230247 heartbeat IPC: 0.3454 cumulative IPC: 0.3343 (Simulation time: 00 hr 51 min 46 sec)
Heartbeat CPU 0 instructions: 178500881 cycles: 399579210 heartbeat IPC: 0.3707 cumulative IPC: 0.3344 (Simulation time: 00 hr 51 min 55 sec)
Heartbeat CPU 0 instructions: 179000881 cycles: 401640433 heartbeat IPC: 0.2426 cumulative IPC: 0.3339 (Simulation time: 00 hr 52 min 08 sec)
Heartbeat CPU 0 instructions: 179500881 cycles: 403669501 heartbeat IPC: 0.2464 cumulative IPC: 0.3335 (Simulation time: 00 hr 52 min 21 sec)
Heartbeat CPU 0 instructions: 180000881 cycles: 405868975 heartbeat IPC: 0.2273 cumulative IPC: 0.3329 (Simulation time: 00 hr 52 min 35 sec)
Heartbeat CPU 0 instructions: 180500885 cycles: 407155221 heartbeat IPC: 0.3887 cumulative IPC: 0.3331 (Simulation time: 00 hr 52 min 43 sec)
Heartbeat CPU 0 instructions: 181000892 cycles: 407906742 heartbeat IPC: 0.6653 cumulative IPC: 0.3337 (Simulation time: 00 hr 52 min 49 sec)
Heartbeat CPU 0 instructions: 181500894 cycles: 408257820 heartbeat IPC: 1.424 cumulative IPC: 0.3347 (Simulation time: 00 hr 52 min 52 sec)
Heartbeat CPU 0 instructions: 182000896 cycles: 409379340 heartbeat IPC: 0.4458 cumulative IPC: 0.335 (Simulation time: 00 hr 53 min 00 sec)
Heartbeat CPU 0 instructions: 182500899 cycles: 411139017 heartbeat IPC: 0.2841 cumulative IPC: 0.3348 (Simulation time: 00 hr 53 min 11 sec)
Heartbeat CPU 0 instructions: 183000900 cycles: 413012568 heartbeat IPC: 0.2669 cumulative IPC: 0.3344 (Simulation time: 00 hr 53 min 23 sec)
Heartbeat CPU 0 instructions: 183500901 cycles: 414208236 heartbeat IPC: 0.4182 cumulative IPC: 0.3347 (Simulation time: 00 hr 53 min 31 sec)
Heartbeat CPU 0 instructions: 184000901 cycles: 415552732 heartbeat IPC: 0.3719 cumulative IPC: 0.3348 (Simulation time: 00 hr 53 min 40 sec)
Heartbeat CPU 0 instructions: 184500905 cycles: 417096793 heartbeat IPC: 0.3238 cumulative IPC: 0.3348 (Simulation time: 00 hr 53 min 50 sec)
Heartbeat CPU 0 instructions: 185000906 cycles: 419195573 heartbeat IPC: 0.2382 cumulative IPC: 0.3343 (Simulation time: 00 hr 54 min 03 sec)
Heartbeat CPU 0 instructions: 185500911 cycles: 421512862 heartbeat IPC: 0.2158 cumulative IPC: 0.3336 (Simulation time: 00 hr 54 min 17 sec)
Heartbeat CPU 0 instructions: 186000918 cycles: 423548138 heartbeat IPC: 0.2457 cumulative IPC: 0.3332 (Simulation time: 00 hr 54 min 30 sec)
Heartbeat CPU 0 instructions: 186500920 cycles: 425264095 heartbeat IPC: 0.2914 cumulative IPC: 0.333 (Simulation time: 00 hr 54 min 41 sec)
Heartbeat CPU 0 instructions: 187000920 cycles: 426846653 heartbeat IPC: 0.3159 cumulative IPC: 0.3329 (Simulation time: 00 hr 54 min 51 sec)
Heartbeat CPU 0 instructions: 187500922 cycles: 428305628 heartbeat IPC: 0.3427 cumulative IPC: 0.3329 (Simulation time: 00 hr 55 min 01 sec)
Heartbeat CPU 0 instructions: 188000925 cycles: 430902598 heartbeat IPC: 0.1925 cumulative IPC: 0.3321 (Simulation time: 00 hr 55 min 17 sec)
Heartbeat CPU 0 instructions: 188500926 cycles: 433387099 heartbeat IPC: 0.2012 cumulative IPC: 0.3313 (Simulation time: 00 hr 55 min 34 sec)
Heartbeat CPU 0 instructions: 189000927 cycles: 435465841 heartbeat IPC: 0.2405 cumulative IPC: 0.3308 (Simulation time: 00 hr 55 min 47 sec)
Heartbeat CPU 0 instructions: 189500931 cycles: 437350917 heartbeat IPC: 0.2652 cumulative IPC: 0.3305 (Simulation time: 00 hr 55 min 58 sec)
Heartbeat CPU 0 instructions: 190000934 cycles: 438574591 heartbeat IPC: 0.4086 cumulative IPC: 0.3308 (Simulation time: 00 hr 56 min 07 sec)
Heartbeat CPU 0 instructions: 190500941 cycles: 441264458 heartbeat IPC: 0.1859 cumulative IPC: 0.3299 (Simulation time: 00 hr 56 min 24 sec)
Heartbeat CPU 0 instructions: 191000941 cycles: 443163630 heartbeat IPC: 0.2633 cumulative IPC: 0.3296 (Simulation time: 00 hr 56 min 36 sec)
Heartbeat CPU 0 instructions: 191500943 cycles: 444214911 heartbeat IPC: 0.4756 cumulative IPC: 0.3299 (Simulation time: 00 hr 56 min 44 sec)
Heartbeat CPU 0 instructions: 192000943 cycles: 446727931 heartbeat IPC: 0.199 cumulative IPC: 0.3292 (Simulation time: 00 hr 56 min 59 sec)
Heartbeat CPU 0 instructions: 192500949 cycles: 448696744 heartbeat IPC: 0.254 cumulative IPC: 0.3288 (Simulation time: 00 hr 57 min 11 sec)
Heartbeat CPU 0 instructions: 193000953 cycles: 450878777 heartbeat IPC: 0.2291 cumulative IPC: 0.3283 (Simulation time: 00 hr 57 min 25 sec)
Heartbeat CPU 0 instructions: 193500955 cycles: 452665074 heartbeat IPC: 0.2799 cumulative IPC: 0.3281 (Simulation time: 00 hr 57 min 36 sec)
Heartbeat CPU 0 instructions: 194000956 cycles: 454604249 heartbeat IPC: 0.2578 cumulative IPC: 0.3278 (Simulation time: 00 hr 57 min 48 sec)
Heartbeat CPU 0 instructions: 194500958 cycles: 456467400 heartbeat IPC: 0.2684 cumulative IPC: 0.3276 (Simulation time: 00 hr 58 min 00 sec)
Heartbeat CPU 0 instructions: 195000958 cycles: 458303403 heartbeat IPC: 0.2723 cumulative IPC: 0.3273 (Simulation time: 00 hr 58 min 16 sec)
Heartbeat CPU 0 instructions: 195500958 cycles: 461252764 heartbeat IPC: 0.1695 cumulative IPC: 0.3263 (Simulation time: 00 hr 58 min 34 sec)
Heartbeat CPU 0 instructions: 196000964 cycles: 463522770 heartbeat IPC: 0.2203 cumulative IPC: 0.3258 (Simulation time: 00 hr 58 min 48 sec)
Heartbeat CPU 0 instructions: 196500965 cycles: 465224948 heartbeat IPC: 0.2937 cumulative IPC: 0.3256 (Simulation time: 00 hr 58 min 59 sec)
Heartbeat CPU 0 instructions: 197000966 cycles: 466914025 heartbeat IPC: 0.296 cumulative IPC: 0.3255 (Simulation time: 00 hr 59 min 09 sec)
Heartbeat CPU 0 instructions: 197500967 cycles: 468985427 heartbeat IPC: 0.2414 cumulative IPC: 0.3251 (Simulation time: 00 hr 59 min 21 sec)
Heartbeat CPU 0 instructions: 198000969 cycles: 470900586 heartbeat IPC: 0.2611 cumulative IPC: 0.3249 (Simulation time: 00 hr 59 min 34 sec)
Heartbeat CPU 0 instructions: 198500970 cycles: 472115214 heartbeat IPC: 0.4116 cumulative IPC: 0.3251 (Simulation time: 00 hr 59 min 42 sec)
Heartbeat CPU 0 instructions: 199000970 cycles: 473276552 heartbeat IPC: 0.4305 cumulative IPC: 0.3254 (Simulation time: 00 hr 59 min 50 sec)
Heartbeat CPU 0 instructions: 199500974 cycles: 473725044 heartbeat IPC: 1.115 cumulative IPC: 0.3261 (Simulation time: 00 hr 59 min 54 sec)
Heartbeat CPU 0 instructions: 200000974 cycles: 474206990 heartbeat IPC: 1.037 cumulative IPC: 0.3269 (Simulation time: 00 hr 59 min 58 sec)
Heartbeat CPU 0 instructions: 200500981 cycles: 474607832 heartbeat IPC: 1.247 cumulative IPC: 0.3277 (Simulation time: 01 hr 00 min 02 sec)
Heartbeat CPU 0 instructions: 201000983 cycles: 474962464 heartbeat IPC: 1.41 cumulative IPC: 0.3285 (Simulation time: 01 hr 00 min 06 sec)
Heartbeat CPU 0 instructions: 201500984 cycles: 476658551 heartbeat IPC: 0.2948 cumulative IPC: 0.3284 (Simulation time: 01 hr 00 min 17 sec)
Heartbeat CPU 0 instructions: 202000988 cycles: 479360589 heartbeat IPC: 0.185 cumulative IPC: 0.3276 (Simulation time: 01 hr 00 min 34 sec)
Heartbeat CPU 0 instructions: 202500988 cycles: 480629375 heartbeat IPC: 0.3941 cumulative IPC: 0.3277 (Simulation time: 01 hr 00 min 43 sec)
Heartbeat CPU 0 instructions: 203000995 cycles: 482897019 heartbeat IPC: 0.2205 cumulative IPC: 0.3272 (Simulation time: 01 hr 00 min 56 sec)
Heartbeat CPU 0 instructions: 203500998 cycles: 484936625 heartbeat IPC: 0.2451 cumulative IPC: 0.3269 (Simulation time: 01 hr 01 min 09 sec)
Heartbeat CPU 0 instructions: 204001005 cycles: 486463027 heartbeat IPC: 0.3276 cumulative IPC: 0.3269 (Simulation time: 01 hr 01 min 18 sec)
Heartbeat CPU 0 instructions: 204501007 cycles: 488093533 heartbeat IPC: 0.3067 cumulative IPC: 0.3268 (Simulation time: 01 hr 01 min 28 sec)
Heartbeat CPU 0 instructions: 205001009 cycles: 489501736 heartbeat IPC: 0.3551 cumulative IPC: 0.3269 (Simulation time: 01 hr 01 min 37 sec)
Heartbeat CPU 0 instructions: 205501009 cycles: 491054415 heartbeat IPC: 0.322 cumulative IPC: 0.3269 (Simulation time: 01 hr 01 min 47 sec)
Heartbeat CPU 0 instructions: 206001009 cycles: 493770289 heartbeat IPC: 0.1841 cumulative IPC: 0.3261 (Simulation time: 01 hr 02 min 03 sec)
Heartbeat CPU 0 instructions: 206501009 cycles: 495899339 heartbeat IPC: 0.2348 cumulative IPC: 0.3257 (Simulation time: 01 hr 02 min 15 sec)
Heartbeat CPU 0 instructions: 207001009 cycles: 497339180 heartbeat IPC: 0.3473 cumulative IPC: 0.3257 (Simulation time: 01 hr 02 min 24 sec)
Heartbeat CPU 0 instructions: 207501012 cycles: 498693056 heartbeat IPC: 0.3693 cumulative IPC: 0.3258 (Simulation time: 01 hr 02 min 33 sec)
Heartbeat CPU 0 instructions: 208001013 cycles: 499599114 heartbeat IPC: 0.5518 cumulative IPC: 0.3263 (Simulation time: 01 hr 02 min 39 sec)
Heartbeat CPU 0 instructions: 208501018 cycles: 501810310 heartbeat IPC: 0.2261 cumulative IPC: 0.3258 (Simulation time: 01 hr 02 min 51 sec)
Heartbeat CPU 0 instructions: 209001018 cycles: 503506580 heartbeat IPC: 0.2948 cumulative IPC: 0.3257 (Simulation time: 01 hr 03 min 01 sec)
Heartbeat CPU 0 instructions: 209501018 cycles: 504510442 heartbeat IPC: 0.4981 cumulative IPC: 0.3261 (Simulation time: 01 hr 03 min 08 sec)
Heartbeat CPU 0 instructions: 210001025 cycles: 505966525 heartbeat IPC: 0.3434 cumulative IPC: 0.3261 (Simulation time: 01 hr 03 min 17 sec)
Heartbeat CPU 0 instructions: 210501025 cycles: 508347798 heartbeat IPC: 0.21 cumulative IPC: 0.3255 (Simulation time: 01 hr 03 min 31 sec)
Heartbeat CPU 0 instructions: 211001026 cycles: 510356600 heartbeat IPC: 0.2489 cumulative IPC: 0.3252 (Simulation time: 01 hr 03 min 42 sec)
Heartbeat CPU 0 instructions: 211501030 cycles: 512055018 heartbeat IPC: 0.2944 cumulative IPC: 0.3251 (Simulation time: 01 hr 03 min 53 sec)
Heartbeat CPU 0 instructions: 212001030 cycles: 513930995 heartbeat IPC: 0.2665 cumulative IPC: 0.3249 (Simulation time: 01 hr 04 min 04 sec)
Heartbeat CPU 0 instructions: 212501033 cycles: 516242118 heartbeat IPC: 0.2163 cumulative IPC: 0.3244 (Simulation time: 01 hr 04 min 17 sec)
Heartbeat CPU 0 instructions: 213001033 cycles: 518029946 heartbeat IPC: 0.2797 cumulative IPC: 0.3242 (Simulation time: 01 hr 04 min 27 sec)
Heartbeat CPU 0 instructions: 213501033 cycles: 519886533 heartbeat IPC: 0.2693 cumulative IPC: 0.324 (Simulation time: 01 hr 04 min 37 sec)
Heartbeat CPU 0 instructions: 214001040 cycles: 521923707 heartbeat IPC: 0.2454 cumulative IPC: 0.3237 (Simulation time: 01 hr 04 min 49 sec)
Heartbeat CPU 0 instructions: 214501040 cycles: 523959336 heartbeat IPC: 0.2456 cumulative IPC: 0.3234 (Simulation time: 01 hr 05 min 00 sec)
Heartbeat CPU 0 instructions: 215001040 cycles: 526208187 heartbeat IPC: 0.2223 cumulative IPC: 0.323 (Simulation time: 01 hr 05 min 13 sec)
Heartbeat CPU 0 instructions: 215501040 cycles: 527627704 heartbeat IPC: 0.3522 cumulative IPC: 0.3231 (Simulation time: 01 hr 05 min 21 sec)
Heartbeat CPU 0 instructions: 216001040 cycles: 529003395 heartbeat IPC: 0.3635 cumulative IPC: 0.3232 (Simulation time: 01 hr 05 min 29 sec)
Heartbeat CPU 0 instructions: 216501042 cycles: 530388273 heartbeat IPC: 0.361 cumulative IPC: 0.3233 (Simulation time: 01 hr 05 min 37 sec)
Heartbeat CPU 0 instructions: 217001042 cycles: 532434730 heartbeat IPC: 0.2443 cumulative IPC: 0.323 (Simulation time: 01 hr 05 min 49 sec)
Heartbeat CPU 0 instructions: 217501045 cycles: 533875408 heartbeat IPC: 0.3471 cumulative IPC: 0.323 (Simulation time: 01 hr 05 min 57 sec)
Heartbeat CPU 0 instructions: 218001046 cycles: 535350685 heartbeat IPC: 0.3389 cumulative IPC: 0.3231 (Simulation time: 01 hr 06 min 06 sec)
Heartbeat CPU 0 instructions: 218501048 cycles: 536950416 heartbeat IPC: 0.3126 cumulative IPC: 0.323 (Simulation time: 01 hr 06 min 16 sec)
Heartbeat CPU 0 instructions: 219001050 cycles: 539600881 heartbeat IPC: 0.1886 cumulative IPC: 0.3224 (Simulation time: 01 hr 06 min 30 sec)
Heartbeat CPU 0 instructions: 219501053 cycles: 540867722 heartbeat IPC: 0.3947 cumulative IPC: 0.3225 (Simulation time: 01 hr 06 min 37 sec)
Heartbeat CPU 0 instructions: 220001053 cycles: 543115768 heartbeat IPC: 0.2224 cumulative IPC: 0.3221 (Simulation time: 01 hr 06 min 50 sec)
Heartbeat CPU 0 instructions: 220501059 cycles: 545054463 heartbeat IPC: 0.2579 cumulative IPC: 0.3219 (Simulation time: 01 hr 07 min 01 sec)
Heartbeat CPU 0 instructions: 221001059 cycles: 547133944 heartbeat IPC: 0.2404 cumulative IPC: 0.3215 (Simulation time: 01 hr 07 min 13 sec)
Heartbeat CPU 0 instructions: 221501059 cycles: 549359246 heartbeat IPC: 0.2247 cumulative IPC: 0.3211 (Simulation time: 01 hr 07 min 25 sec)
Heartbeat CPU 0 instructions: 222001059 cycles: 550463425 heartbeat IPC: 0.4528 cumulative IPC: 0.3214 (Simulation time: 01 hr 07 min 32 sec)
Heartbeat CPU 0 instructions: 222501059 cycles: 552027712 heartbeat IPC: 0.3196 cumulative IPC: 0.3214 (Simulation time: 01 hr 07 min 41 sec)
Heartbeat CPU 0 instructions: 223001059 cycles: 553727736 heartbeat IPC: 0.2941 cumulative IPC: 0.3213 (Simulation time: 01 hr 07 min 51 sec)
Heartbeat CPU 0 instructions: 223501066 cycles: 555036786 heartbeat IPC: 0.382 cumulative IPC: 0.3215 (Simulation time: 01 hr 07 min 59 sec)
Heartbeat CPU 0 instructions: 224001066 cycles: 556662488 heartbeat IPC: 0.3076 cumulative IPC: 0.3214 (Simulation time: 01 hr 08 min 08 sec)
Heartbeat CPU 0 instructions: 224501069 cycles: 559808371 heartbeat IPC: 0.1589 cumulative IPC: 0.3205 (Simulation time: 01 hr 08 min 25 sec)
Heartbeat CPU 0 instructions: 225001074 cycles: 561729745 heartbeat IPC: 0.2602 cumulative IPC: 0.3203 (Simulation time: 01 hr 08 min 37 sec)
Heartbeat CPU 0 instructions: 225501075 cycles: 563658340 heartbeat IPC: 0.2593 cumulative IPC: 0.3201 (Simulation time: 01 hr 08 min 48 sec)
Heartbeat CPU 0 instructions: 226001082 cycles: 566050454 heartbeat IPC: 0.209 cumulative IPC: 0.3196 (Simulation time: 01 hr 09 min 00 sec)
Heartbeat CPU 0 instructions: 226501083 cycles: 567736102 heartbeat IPC: 0.2966 cumulative IPC: 0.3195 (Simulation time: 01 hr 09 min 10 sec)
Heartbeat CPU 0 instructions: 227001083 cycles: 569003295 heartbeat IPC: 0.3946 cumulative IPC: 0.3197 (Simulation time: 01 hr 09 min 18 sec)
Heartbeat CPU 0 instructions: 227501086 cycles: 570119594 heartbeat IPC: 0.4479 cumulative IPC: 0.3199 (Simulation time: 01 hr 09 min 26 sec)
Heartbeat CPU 0 instructions: 228001087 cycles: 573480331 heartbeat IPC: 0.1488 cumulative IPC: 0.3189 (Simulation time: 01 hr 09 min 44 sec)
Heartbeat CPU 0 instructions: 228501093 cycles: 575752083 heartbeat IPC: 0.2201 cumulative IPC: 0.3185 (Simulation time: 01 hr 09 min 56 sec)
Heartbeat CPU 0 instructions: 229001096 cycles: 576919583 heartbeat IPC: 0.4283 cumulative IPC: 0.3187 (Simulation time: 01 hr 10 min 03 sec)
Heartbeat CPU 0 instructions: 229501098 cycles: 577790888 heartbeat IPC: 0.5739 cumulative IPC: 0.3191 (Simulation time: 01 hr 10 min 08 sec)
Heartbeat CPU 0 instructions: 230001098 cycles: 578840869 heartbeat IPC: 0.4762 cumulative IPC: 0.3194 (Simulation time: 01 hr 10 min 14 sec)
Heartbeat CPU 0 instructions: 230501098 cycles: 581175531 heartbeat IPC: 0.2142 cumulative IPC: 0.319 (Simulation time: 01 hr 10 min 27 sec)
Heartbeat CPU 0 instructions: 231001100 cycles: 582496659 heartbeat IPC: 0.3785 cumulative IPC: 0.3191 (Simulation time: 01 hr 10 min 34 sec)
Heartbeat CPU 0 instructions: 231501106 cycles: 584032278 heartbeat IPC: 0.3256 cumulative IPC: 0.3191 (Simulation time: 01 hr 10 min 43 sec)
Heartbeat CPU 0 instructions: 232001111 cycles: 585643779 heartbeat IPC: 0.3103 cumulative IPC: 0.3191 (Simulation time: 01 hr 10 min 52 sec)
Heartbeat CPU 0 instructions: 232501117 cycles: 587441369 heartbeat IPC: 0.2782 cumulative IPC: 0.319 (Simulation time: 01 hr 11 min 01 sec)
Heartbeat CPU 0 instructions: 233001118 cycles: 588796113 heartbeat IPC: 0.3691 cumulative IPC: 0.3191 (Simulation time: 01 hr 11 min 09 sec)
Heartbeat CPU 0 instructions: 233501119 cycles: 590112161 heartbeat IPC: 0.3799 cumulative IPC: 0.3193 (Simulation time: 01 hr 11 min 17 sec)
Heartbeat CPU 0 instructions: 234001122 cycles: 593288966 heartbeat IPC: 0.1574 cumulative IPC: 0.3184 (Simulation time: 01 hr 11 min 34 sec)
Heartbeat CPU 0 instructions: 234501122 cycles: 595395539 heartbeat IPC: 0.2374 cumulative IPC: 0.3181 (Simulation time: 01 hr 11 min 46 sec)
Heartbeat CPU 0 instructions: 235001129 cycles: 596839747 heartbeat IPC: 0.3462 cumulative IPC: 0.3181 (Simulation time: 01 hr 11 min 54 sec)
Heartbeat CPU 0 instructions: 235501129 cycles: 598564630 heartbeat IPC: 0.2899 cumulative IPC: 0.3181 (Simulation time: 01 hr 12 min 03 sec)
Heartbeat CPU 0 instructions: 236001132 cycles: 599678565 heartbeat IPC: 0.4489 cumulative IPC: 0.3183 (Simulation time: 01 hr 12 min 10 sec)
Heartbeat CPU 0 instructions: 236501132 cycles: 600438579 heartbeat IPC: 0.6579 cumulative IPC: 0.3187 (Simulation time: 01 hr 12 min 14 sec)
Heartbeat CPU 0 instructions: 237001132 cycles: 601790492 heartbeat IPC: 0.3698 cumulative IPC: 0.3189 (Simulation time: 01 hr 12 min 22 sec)
Heartbeat CPU 0 instructions: 237501138 cycles: 603145971 heartbeat IPC: 0.3689 cumulative IPC: 0.319 (Simulation time: 01 hr 12 min 30 sec)
Heartbeat CPU 0 instructions: 238001145 cycles: 604975605 heartbeat IPC: 0.2733 cumulative IPC: 0.3188 (Simulation time: 01 hr 12 min 40 sec)
Heartbeat CPU 0 instructions: 238501148 cycles: 607211633 heartbeat IPC: 0.2236 cumulative IPC: 0.3185 (Simulation time: 01 hr 12 min 52 sec)
Heartbeat CPU 0 instructions: 239001148 cycles: 609245394 heartbeat IPC: 0.2458 cumulative IPC: 0.3182 (Simulation time: 01 hr 13 min 03 sec)
Heartbeat CPU 0 instructions: 239501151 cycles: 610851254 heartbeat IPC: 0.3114 cumulative IPC: 0.3182 (Simulation time: 01 hr 13 min 12 sec)
Heartbeat CPU 0 instructions: 240001151 cycles: 612941852 heartbeat IPC: 0.2392 cumulative IPC: 0.3179 (Simulation time: 01 hr 13 min 24 sec)
Heartbeat CPU 0 instructions: 240501152 cycles: 615469246 heartbeat IPC: 0.1978 cumulative IPC: 0.3174 (Simulation time: 01 hr 13 min 37 sec)
Heartbeat CPU 0 instructions: 241001157 cycles: 616676966 heartbeat IPC: 0.414 cumulative IPC: 0.3176 (Simulation time: 01 hr 13 min 45 sec)
Heartbeat CPU 0 instructions: 241501157 cycles: 618680025 heartbeat IPC: 0.2496 cumulative IPC: 0.3174 (Simulation time: 01 hr 13 min 56 sec)
Heartbeat CPU 0 instructions: 242001158 cycles: 620177157 heartbeat IPC: 0.334 cumulative IPC: 0.3174 (Simulation time: 01 hr 14 min 04 sec)
Heartbeat CPU 0 instructions: 242501164 cycles: 621443947 heartbeat IPC: 0.3947 cumulative IPC: 0.3176 (Simulation time: 01 hr 14 min 12 sec)
Heartbeat CPU 0 instructions: 243001167 cycles: 622696786 heartbeat IPC: 0.3991 cumulative IPC: 0.3178 (Simulation time: 01 hr 14 min 19 sec)
Heartbeat CPU 0 instructions: 243501169 cycles: 623736013 heartbeat IPC: 0.4811 cumulative IPC: 0.318 (Simulation time: 01 hr 14 min 25 sec)
Heartbeat CPU 0 instructions: 244001174 cycles: 624965198 heartbeat IPC: 0.4068 cumulative IPC: 0.3182 (Simulation time: 01 hr 14 min 32 sec)
Heartbeat CPU 0 instructions: 244501179 cycles: 626473763 heartbeat IPC: 0.3314 cumulative IPC: 0.3183 (Simulation time: 01 hr 14 min 40 sec)
Heartbeat CPU 0 instructions: 245001182 cycles: 628554796 heartbeat IPC: 0.2403 cumulative IPC: 0.318 (Simulation time: 01 hr 14 min 52 sec)
Heartbeat CPU 0 instructions: 245501185 cycles: 630224236 heartbeat IPC: 0.2995 cumulative IPC: 0.3179 (Simulation time: 01 hr 15 min 01 sec)
Heartbeat CPU 0 instructions: 246001189 cycles: 632090317 heartbeat IPC: 0.2679 cumulative IPC: 0.3178 (Simulation time: 01 hr 15 min 11 sec)
Heartbeat CPU 0 instructions: 246501189 cycles: 634013808 heartbeat IPC: 0.2599 cumulative IPC: 0.3176 (Simulation time: 01 hr 15 min 21 sec)
Heartbeat CPU 0 instructions: 247001189 cycles: 635272244 heartbeat IPC: 0.3973 cumulative IPC: 0.3178 (Simulation time: 01 hr 15 min 28 sec)
Heartbeat CPU 0 instructions: 247501191 cycles: 637164570 heartbeat IPC: 0.2642 cumulative IPC: 0.3176 (Simulation time: 01 hr 15 min 38 sec)
Heartbeat CPU 0 instructions: 248001193 cycles: 638735670 heartbeat IPC: 0.3182 cumulative IPC: 0.3176 (Simulation time: 01 hr 15 min 46 sec)
Heartbeat CPU 0 instructions: 248501199 cycles: 640743964 heartbeat IPC: 0.249 cumulative IPC: 0.3174 (Simulation time: 01 hr 15 min 57 sec)
Heartbeat CPU 0 instructions: 249001202 cycles: 642526707 heartbeat IPC: 0.2805 cumulative IPC: 0.3173 (Simulation time: 01 hr 16 min 08 sec)
Heartbeat CPU 0 instructions: 249501202 cycles: 644136108 heartbeat IPC: 0.3107 cumulative IPC: 0.3173 (Simulation time: 01 hr 16 min 16 sec)
Simulation finished CPU 0 instructions: 200000000 cycles: 630730430 cumulative IPC: 0.3171 (Simulation time: 01 hr 16 min 26 sec)
Simulation complete CPU 0 instructions: 200000000 cycles: 630730430 cumulative IPC: 0.3171 (Simulation time: 01 hr 16 min 26 sec)

ChampSim completed all CPUs

=== Simulation ===
CPU 0 runs /local-ssd/ben/dpc4-traces/gtraces_v2/sierra.a.4_0001.champsim.gz

Region of Interest Statistics

CPU 0 cumulative IPC: 0.3171 instructions: 200000000 cycles: 630730430
CPU 0 Branch Prediction Accuracy: 84.25% MPKI: 26.3 Average ROB Occupancy at Mispredict: 20.39
Branch type MPKI
BRANCH_DIRECT_JUMP: 2.936
BRANCH_INDIRECT: 0.2669
BRANCH_CONDITIONAL: 18.71
BRANCH_DIRECT_CALL: 2.409
BRANCH_INDIRECT_CALL: 0.4506
BRANCH_RETURN: 1.527

cpu0->cpu0_STLB TOTAL        ACCESS:    2877760 HIT:    1990648 MISS:     887112 MSHR_MERGE:          0
cpu0->cpu0_STLB LOAD         ACCESS:    2877760 HIT:    1990648 MISS:     887112 MSHR_MERGE:          0
cpu0->cpu0_STLB RFO          ACCESS:          0 HIT:          0 MISS:          0 MSHR_MERGE:          0
cpu0->cpu0_STLB PREFETCH     ACCESS:          0 HIT:          0 MISS:          0 MSHR_MERGE:          0
cpu0->cpu0_STLB WRITE        ACCESS:          0 HIT:          0 MISS:          0 MSHR_MERGE:          0
cpu0->cpu0_STLB TRANSLATION  ACCESS:          0 HIT:          0 MISS:          0 MSHR_MERGE:          0
cpu0->cpu0_STLB PREFETCH REQUESTED:          0 ISSUED:          0 USEFUL:          0 USELESS:          0
cpu0->cpu0_STLB AVERAGE MISS LATENCY: 167.7 cycles
cpu0->cpu0_L2C TOTAL        ACCESS:   20090007 HIT:   13824685 MISS:    6265322 MSHR_MERGE:     407832
cpu0->cpu0_L2C LOAD         ACCESS:    9422072 HIT:    6216260 MISS:    3205812 MSHR_MERGE:      82442
cpu0->cpu0_L2C RFO          ACCESS:    1798510 HIT:     849244 MISS:     949266 MSHR_MERGE:       2859
cpu0->cpu0_L2C PREFETCH     ACCESS:    5155010 HIT:    3518289 MISS:    1636721 MSHR_MERGE:     322531
cpu0->cpu0_L2C WRITE        ACCESS:    2691571 HIT:    2691509 MISS:         62 MSHR_MERGE:          0
cpu0->cpu0_L2C TRANSLATION  ACCESS:    1022844 HIT:     549383 MISS:     473461 MSHR_MERGE:          0
cpu0->cpu0_L2C PREFETCH REQUESTED:    5913617 ISSUED:    5155010 USEFUL:     554198 USELESS:     759102
cpu0->cpu0_L2C AVERAGE MISS LATENCY: 201.4 cycles
cpu0->cpu0_L1I TOTAL        ACCESS:   22173959 HIT:   14751292 MISS:    7422667 MSHR_MERGE:    1676328
cpu0->cpu0_L1I LOAD         ACCESS:   22173959 HIT:   14751292 MISS:    7422667 MSHR_MERGE:    1676328
cpu0->cpu0_L1I RFO          ACCESS:          0 HIT:          0 MISS:          0 MSHR_MERGE:          0
cpu0->cpu0_L1I PREFETCH     ACCESS:          0 HIT:          0 MISS:          0 MSHR_MERGE:          0
cpu0->cpu0_L1I WRITE        ACCESS:          0 HIT:          0 MISS:          0 MSHR_MERGE:          0
cpu0->cpu0_L1I TRANSLATION  ACCESS:          0 HIT:          0 MISS:          0 MSHR_MERGE:          0
cpu0->cpu0_L1I PREFETCH REQUESTED:          0 ISSUED:          0 USEFUL:          0 USELESS:          0
cpu0->cpu0_L1I AVERAGE MISS LATENCY: 76.35 cycles
cpu0->cpu0_L1D TOTAL        ACCESS:   65189129 HIT:   54773028 MISS:   10416101 MSHR_MERGE:    3918945
cpu0->cpu0_L1D LOAD         ACCESS:   37808333 HIT:   33063361 MISS:    4744972 MSHR_MERGE:    1069202
cpu0->cpu0_L1D RFO          ACCESS:          0 HIT:          0 MISS:          0 MSHR_MERGE:          0
cpu0->cpu0_L1D PREFETCH     ACCESS:          0 HIT:          0 MISS:          0 MSHR_MERGE:          0
cpu0->cpu0_L1D WRITE        ACCESS:   25030732 HIT:   20388737 MISS:    4641995 MSHR_MERGE:    2843453
cpu0->cpu0_L1D TRANSLATION  ACCESS:    2350064 HIT:    1320930 MISS:    1029134 MSHR_MERGE:       6290
cpu0->cpu0_L1D PREFETCH REQUESTED:          0 ISSUED:          0 USEFUL:          0 USELESS:          0
cpu0->cpu0_L1D AVERAGE MISS LATENCY: 92.87 cycles
cpu0->cpu0_ITLB TOTAL        ACCESS:   17882666 HIT:   17008907 MISS:     873759 MSHR_MERGE:     403123
cpu0->cpu0_ITLB LOAD         ACCESS:   17882666 HIT:   17008907 MISS:     873759 MSHR_MERGE:     403123
cpu0->cpu0_ITLB RFO          ACCESS:          0 HIT:          0 MISS:          0 MSHR_MERGE:          0
cpu0->cpu0_ITLB PREFETCH     ACCESS:          0 HIT:          0 MISS:          0 MSHR_MERGE:          0
cpu0->cpu0_ITLB WRITE        ACCESS:          0 HIT:          0 MISS:          0 MSHR_MERGE:          0
cpu0->cpu0_ITLB TRANSLATION  ACCESS:          0 HIT:          0 MISS:          0 MSHR_MERGE:          0
cpu0->cpu0_ITLB PREFETCH REQUESTED:          0 ISSUED:          0 USEFUL:          0 USELESS:          0
cpu0->cpu0_ITLB AVERAGE MISS LATENCY: 30.72 cycles
cpu0->cpu0_DTLB TOTAL        ACCESS:   60479357 HIT:   56421083 MISS:    4058274 MSHR_MERGE:    1651150
cpu0->cpu0_DTLB LOAD         ACCESS:   60479357 HIT:   56421083 MISS:    4058274 MSHR_MERGE:    1651150
cpu0->cpu0_DTLB RFO          ACCESS:          0 HIT:          0 MISS:          0 MSHR_MERGE:          0
cpu0->cpu0_DTLB PREFETCH     ACCESS:          0 HIT:          0 MISS:          0 MSHR_MERGE:          0
cpu0->cpu0_DTLB WRITE        ACCESS:          0 HIT:          0 MISS:          0 MSHR_MERGE:          0
cpu0->cpu0_DTLB TRANSLATION  ACCESS:          0 HIT:          0 MISS:          0 MSHR_MERGE:          0
cpu0->cpu0_DTLB PREFETCH REQUESTED:          0 ISSUED:          0 USEFUL:          0 USELESS:          0
cpu0->cpu0_DTLB AVERAGE MISS LATENCY: 62.15 cycles
cpu0->LLC TOTAL        ACCESS:    8204349 HIT:    1964956 MISS:    6239393 MSHR_MERGE:     207607
cpu0->LLC LOAD         ACCESS:    3123370 HIT:     731608 MISS:    2391762 MSHR_MERGE:      34653
cpu0->LLC RFO          ACCESS:     946407 HIT:      37001 MISS:     909406 MSHR_MERGE:         92
cpu0->LLC PREFETCH     ACCESS:    2271465 HIT:     439595 MISS:    1831870 MSHR_MERGE:     172862
cpu0->LLC WRITE        ACCESS:    1389646 HIT:     701452 MISS:     688194 MSHR_MERGE:          0
cpu0->LLC TRANSLATION  ACCESS:     473461 HIT:      55300 MISS:     418161 MSHR_MERGE:          0
cpu0->LLC PREFETCH REQUESTED:     970144 ISSUED:     957275 USEFUL:     302918 USELESS:     404110
cpu0->LLC AVERAGE MISS LATENCY: 188 cycles

DRAM Statistics

Channel 0 RQ ROW_BUFFER_HIT:     318598
  ROW_BUFFER_MISS:    5024880
  AVG DBUS CONGESTED CYCLE: 24.29
Channel 0 WQ ROW_BUFFER_HIT:     337611
  ROW_BUFFER_MISS:     991809
  FULL:          0
Channel 0 REFRESHES ISSUED:      52558
BERTI Stats...
