[VMEM] WARNING: physical memory size is smaller than virtual memory size.
Berti Gaze Initialized with Sets: 64 Ways: 12

*** ChampSim Multicore Out-of-Order Simulator ***
Warmup Instructions: 50000000
Simulation Instructions: 200000000
Number of CPUs: 1
Page size: 4096
Core 0: /local-ssd/ben/dpc4-traces/gtraces_v2/tango_0002.champsim.gz
Off-chip DRAM Size: 64 GiB Channels: 1 Width: 64-bit Data Rate: 4807 MT/s
[BTB] WARNING: target of return is a lower address than the corresponding call. This is usually a problem with your trace.
[BTB] WARNING: target of return is a lower address than the corresponding call. This is usually a problem with your trace.
[BTB] WARNING: target of return is a lower address than the corresponding call. This is usually a problem with your trace.
[BTB] WARNING: target of return is a lower address than the corresponding call. This is usually a problem with your trace.
Heartbeat CPU 0 instructions: 500004 cycles: 259250 heartbeat IPC: 1.929 cumulative IPC: 1.929 (Simulation time: 00 hr 00 min 05 sec)
[BTB] WARNING: target of return is a lower address than the corresponding call. This is usually a problem with your trace.
[BTB] WARNING: target of return is a lower address than the corresponding call. This is usually a problem with your trace.
[BTB] WARNING: target of return is a lower address than the corresponding call. This is usually a problem with your trace.
[BTB] WARNING: target of return is a lower address than the corresponding call. This is usually a problem with your trace.
[BTB] WARNING: target of return is a lower address than the corresponding call. This is usually a problem with your trace.
[BTB] WARNING: target of return is a lower address than the corresponding call. This is usually a problem with your trace.
Heartbeat CPU 0 instructions: 1000008 cycles: 468506 heartbeat IPC: 2.389 cumulative IPC: 2.134 (Simulation time: 00 hr 00 min 08 sec)
Heartbeat CPU 0 instructions: 1500014 cycles: 652965 heartbeat IPC: 2.711 cumulative IPC: 2.297 (Simulation time: 00 hr 00 min 11 sec)
Heartbeat CPU 0 instructions: 2000017 cycles: 811441 heartbeat IPC: 3.155 cumulative IPC: 2.465 (Simulation time: 00 hr 00 min 14 sec)
Heartbeat CPU 0 instructions: 2500021 cycles: 986143 heartbeat IPC: 2.862 cumulative IPC: 2.535 (Simulation time: 00 hr 00 min 17 sec)
Heartbeat CPU 0 instructions: 3000027 cycles: 1137611 heartbeat IPC: 3.301 cumulative IPC: 2.637 (Simulation time: 00 hr 00 min 20 sec)
Heartbeat CPU 0 instructions: 3500034 cycles: 1254394 heartbeat IPC: 4.282 cumulative IPC: 2.79 (Simulation time: 00 hr 00 min 21 sec)
Heartbeat CPU 0 instructions: 4000035 cycles: 1378632 heartbeat IPC: 4.025 cumulative IPC: 2.901 (Simulation time: 00 hr 00 min 23 sec)
Heartbeat CPU 0 instructions: 4500042 cycles: 1494042 heartbeat IPC: 4.332 cumulative IPC: 3.012 (Simulation time: 00 hr 00 min 25 sec)
Heartbeat CPU 0 instructions: 5000046 cycles: 1616842 heartbeat IPC: 4.072 cumulative IPC: 3.092 (Simulation time: 00 hr 00 min 27 sec)
Heartbeat CPU 0 instructions: 5500052 cycles: 1759398 heartbeat IPC: 3.507 cumulative IPC: 3.126 (Simulation time: 00 hr 00 min 30 sec)
Heartbeat CPU 0 instructions: 6000052 cycles: 1927604 heartbeat IPC: 2.973 cumulative IPC: 3.113 (Simulation time: 00 hr 00 min 32 sec)
Heartbeat CPU 0 instructions: 6500058 cycles: 2094479 heartbeat IPC: 2.996 cumulative IPC: 3.103 (Simulation time: 00 hr 00 min 35 sec)
Heartbeat CPU 0 instructions: 7000060 cycles: 2236579 heartbeat IPC: 3.519 cumulative IPC: 3.13 (Simulation time: 00 hr 00 min 38 sec)
Heartbeat CPU 0 instructions: 7500062 cycles: 2366731 heartbeat IPC: 3.842 cumulative IPC: 3.169 (Simulation time: 00 hr 00 min 41 sec)
Heartbeat CPU 0 instructions: 8000065 cycles: 2538804 heartbeat IPC: 2.906 cumulative IPC: 3.151 (Simulation time: 00 hr 00 min 43 sec)
Heartbeat CPU 0 instructions: 8500067 cycles: 2688784 heartbeat IPC: 3.334 cumulative IPC: 3.161 (Simulation time: 00 hr 00 min 46 sec)
Heartbeat CPU 0 instructions: 9000073 cycles: 2837657 heartbeat IPC: 3.359 cumulative IPC: 3.172 (Simulation time: 00 hr 00 min 49 sec)
Heartbeat CPU 0 instructions: 9500077 cycles: 2991794 heartbeat IPC: 3.244 cumulative IPC: 3.175 (Simulation time: 00 hr 00 min 51 sec)
Heartbeat CPU 0 instructions: 10000079 cycles: 3127046 heartbeat IPC: 3.697 cumulative IPC: 3.198 (Simulation time: 00 hr 00 min 54 sec)
Heartbeat CPU 0 instructions: 10500081 cycles: 3250011 heartbeat IPC: 4.066 cumulative IPC: 3.231 (Simulation time: 00 hr 00 min 56 sec)
Heartbeat CPU 0 instructions: 11000082 cycles: 3365405 heartbeat IPC: 4.333 cumulative IPC: 3.269 (Simulation time: 00 hr 00 min 58 sec)
Heartbeat CPU 0 instructions: 11500083 cycles: 3473171 heartbeat IPC: 4.64 cumulative IPC: 3.311 (Simulation time: 00 hr 00 min 59 sec)
Heartbeat CPU 0 instructions: 12000086 cycles: 3627599 heartbeat IPC: 3.238 cumulative IPC: 3.308 (Simulation time: 00 hr 01 min 02 sec)
Heartbeat CPU 0 instructions: 12500089 cycles: 3779514 heartbeat IPC: 3.291 cumulative IPC: 3.307 (Simulation time: 00 hr 01 min 05 sec)
Heartbeat CPU 0 instructions: 13000094 cycles: 3932593 heartbeat IPC: 3.266 cumulative IPC: 3.306 (Simulation time: 00 hr 01 min 08 sec)
Heartbeat CPU 0 instructions: 13500096 cycles: 4103974 heartbeat IPC: 2.917 cumulative IPC: 3.29 (Simulation time: 00 hr 01 min 11 sec)
Heartbeat CPU 0 instructions: 14000099 cycles: 4225963 heartbeat IPC: 4.099 cumulative IPC: 3.313 (Simulation time: 00 hr 01 min 13 sec)
Heartbeat CPU 0 instructions: 14500099 cycles: 4383256 heartbeat IPC: 3.179 cumulative IPC: 3.308 (Simulation time: 00 hr 01 min 16 sec)
Heartbeat CPU 0 instructions: 15000105 cycles: 4516401 heartbeat IPC: 3.755 cumulative IPC: 3.321 (Simulation time: 00 hr 01 min 18 sec)
Heartbeat CPU 0 instructions: 15500108 cycles: 4664703 heartbeat IPC: 3.372 cumulative IPC: 3.323 (Simulation time: 00 hr 01 min 21 sec)
Heartbeat CPU 0 instructions: 16000115 cycles: 4814766 heartbeat IPC: 3.332 cumulative IPC: 3.323 (Simulation time: 00 hr 01 min 24 sec)
Heartbeat CPU 0 instructions: 16500121 cycles: 4973151 heartbeat IPC: 3.157 cumulative IPC: 3.318 (Simulation time: 00 hr 01 min 27 sec)
Heartbeat CPU 0 instructions: 17000125 cycles: 5126605 heartbeat IPC: 3.258 cumulative IPC: 3.316 (Simulation time: 00 hr 01 min 29 sec)
Heartbeat CPU 0 instructions: 17500127 cycles: 5261312 heartbeat IPC: 3.712 cumulative IPC: 3.326 (Simulation time: 00 hr 01 min 32 sec)
Heartbeat CPU 0 instructions: 18000133 cycles: 5398950 heartbeat IPC: 3.633 cumulative IPC: 3.334 (Simulation time: 00 hr 01 min 34 sec)
Heartbeat CPU 0 instructions: 18500133 cycles: 5527975 heartbeat IPC: 3.875 cumulative IPC: 3.347 (Simulation time: 00 hr 01 min 37 sec)
Heartbeat CPU 0 instructions: 19000135 cycles: 5640115 heartbeat IPC: 4.459 cumulative IPC: 3.369 (Simulation time: 00 hr 01 min 38 sec)
Heartbeat CPU 0 instructions: 19500138 cycles: 5792109 heartbeat IPC: 3.29 cumulative IPC: 3.367 (Simulation time: 00 hr 01 min 41 sec)
Heartbeat CPU 0 instructions: 20000138 cycles: 5935327 heartbeat IPC: 3.491 cumulative IPC: 3.37 (Simulation time: 00 hr 01 min 44 sec)
Heartbeat CPU 0 instructions: 20500142 cycles: 6049767 heartbeat IPC: 4.369 cumulative IPC: 3.389 (Simulation time: 00 hr 01 min 45 sec)
Heartbeat CPU 0 instructions: 21000143 cycles: 6174049 heartbeat IPC: 4.023 cumulative IPC: 3.401 (Simulation time: 00 hr 01 min 47 sec)
Heartbeat CPU 0 instructions: 21500145 cycles: 6323978 heartbeat IPC: 3.335 cumulative IPC: 3.4 (Simulation time: 00 hr 01 min 50 sec)
Heartbeat CPU 0 instructions: 22000148 cycles: 6475326 heartbeat IPC: 3.304 cumulative IPC: 3.398 (Simulation time: 00 hr 01 min 53 sec)
Heartbeat CPU 0 instructions: 22500152 cycles: 6632319 heartbeat IPC: 3.185 cumulative IPC: 3.393 (Simulation time: 00 hr 01 min 56 sec)
Heartbeat CPU 0 instructions: 23000159 cycles: 6780843 heartbeat IPC: 3.367 cumulative IPC: 3.392 (Simulation time: 00 hr 01 min 59 sec)
Heartbeat CPU 0 instructions: 23500166 cycles: 6931419 heartbeat IPC: 3.321 cumulative IPC: 3.39 (Simulation time: 00 hr 02 min 02 sec)
Heartbeat CPU 0 instructions: 24000170 cycles: 7049635 heartbeat IPC: 4.23 cumulative IPC: 3.404 (Simulation time: 00 hr 02 min 04 sec)
Heartbeat CPU 0 instructions: 24500174 cycles: 7214242 heartbeat IPC: 3.038 cumulative IPC: 3.396 (Simulation time: 00 hr 02 min 07 sec)
Heartbeat CPU 0 instructions: 25000176 cycles: 7362858 heartbeat IPC: 3.364 cumulative IPC: 3.395 (Simulation time: 00 hr 02 min 10 sec)
Heartbeat CPU 0 instructions: 25500181 cycles: 7506572 heartbeat IPC: 3.479 cumulative IPC: 3.397 (Simulation time: 00 hr 02 min 12 sec)
Heartbeat CPU 0 instructions: 26000185 cycles: 7640367 heartbeat IPC: 3.737 cumulative IPC: 3.403 (Simulation time: 00 hr 02 min 15 sec)
Heartbeat CPU 0 instructions: 26500186 cycles: 7800807 heartbeat IPC: 3.116 cumulative IPC: 3.397 (Simulation time: 00 hr 02 min 18 sec)
Heartbeat CPU 0 instructions: 27000193 cycles: 7955913 heartbeat IPC: 3.224 cumulative IPC: 3.394 (Simulation time: 00 hr 02 min 20 sec)
Heartbeat CPU 0 instructions: 27500198 cycles: 8091293 heartbeat IPC: 3.693 cumulative IPC: 3.399 (Simulation time: 00 hr 02 min 23 sec)
Heartbeat CPU 0 instructions: 28000203 cycles: 8226615 heartbeat IPC: 3.695 cumulative IPC: 3.404 (Simulation time: 00 hr 02 min 25 sec)
Heartbeat CPU 0 instructions: 28500205 cycles: 8351503 heartbeat IPC: 4.004 cumulative IPC: 3.413 (Simulation time: 00 hr 02 min 28 sec)
Heartbeat CPU 0 instructions: 29000206 cycles: 8492294 heartbeat IPC: 3.551 cumulative IPC: 3.415 (Simulation time: 00 hr 02 min 30 sec)
Heartbeat CPU 0 instructions: 29500209 cycles: 8637748 heartbeat IPC: 3.438 cumulative IPC: 3.415 (Simulation time: 00 hr 02 min 33 sec)
Heartbeat CPU 0 instructions: 30000210 cycles: 8790041 heartbeat IPC: 3.283 cumulative IPC: 3.413 (Simulation time: 00 hr 02 min 36 sec)
Heartbeat CPU 0 instructions: 30500212 cycles: 8939889 heartbeat IPC: 3.337 cumulative IPC: 3.412 (Simulation time: 00 hr 02 min 39 sec)
Heartbeat CPU 0 instructions: 31000215 cycles: 9050869 heartbeat IPC: 4.505 cumulative IPC: 3.425 (Simulation time: 00 hr 02 min 41 sec)
Heartbeat CPU 0 instructions: 31500217 cycles: 9189595 heartbeat IPC: 3.604 cumulative IPC: 3.428 (Simulation time: 00 hr 02 min 43 sec)
Heartbeat CPU 0 instructions: 32000218 cycles: 9324089 heartbeat IPC: 3.718 cumulative IPC: 3.432 (Simulation time: 00 hr 02 min 46 sec)
Heartbeat CPU 0 instructions: 32500223 cycles: 9444646 heartbeat IPC: 4.147 cumulative IPC: 3.441 (Simulation time: 00 hr 02 min 48 sec)
Heartbeat CPU 0 instructions: 33000229 cycles: 9562741 heartbeat IPC: 4.234 cumulative IPC: 3.451 (Simulation time: 00 hr 02 min 50 sec)
Heartbeat CPU 0 instructions: 33500232 cycles: 9701697 heartbeat IPC: 3.598 cumulative IPC: 3.453 (Simulation time: 00 hr 02 min 52 sec)
Heartbeat CPU 0 instructions: 34000237 cycles: 9843479 heartbeat IPC: 3.527 cumulative IPC: 3.454 (Simulation time: 00 hr 02 min 55 sec)
Heartbeat CPU 0 instructions: 34500244 cycles: 9973927 heartbeat IPC: 3.833 cumulative IPC: 3.459 (Simulation time: 00 hr 02 min 57 sec)
Heartbeat CPU 0 instructions: 35000246 cycles: 10128971 heartbeat IPC: 3.225 cumulative IPC: 3.455 (Simulation time: 00 hr 03 min 00 sec)
Heartbeat CPU 0 instructions: 35500246 cycles: 10263694 heartbeat IPC: 3.711 cumulative IPC: 3.459 (Simulation time: 00 hr 03 min 02 sec)
Heartbeat CPU 0 instructions: 36000247 cycles: 10399314 heartbeat IPC: 3.687 cumulative IPC: 3.462 (Simulation time: 00 hr 03 min 05 sec)
Heartbeat CPU 0 instructions: 36500249 cycles: 10531869 heartbeat IPC: 3.772 cumulative IPC: 3.466 (Simulation time: 00 hr 03 min 07 sec)
Heartbeat CPU 0 instructions: 37000251 cycles: 10666681 heartbeat IPC: 3.709 cumulative IPC: 3.469 (Simulation time: 00 hr 03 min 10 sec)
Heartbeat CPU 0 instructions: 37500251 cycles: 10802803 heartbeat IPC: 3.673 cumulative IPC: 3.471 (Simulation time: 00 hr 03 min 12 sec)
Heartbeat CPU 0 instructions: 38000253 cycles: 10945124 heartbeat IPC: 3.513 cumulative IPC: 3.472 (Simulation time: 00 hr 03 min 15 sec)
Heartbeat CPU 0 instructions: 38500253 cycles: 11097151 heartbeat IPC: 3.289 cumulative IPC: 3.469 (Simulation time: 00 hr 03 min 18 sec)
Heartbeat CPU 0 instructions: 39000256 cycles: 11221676 heartbeat IPC: 4.015 cumulative IPC: 3.475 (Simulation time: 00 hr 03 min 21 sec)
Heartbeat CPU 0 instructions: 39500257 cycles: 11331417 heartbeat IPC: 4.556 cumulative IPC: 3.486 (Simulation time: 00 hr 03 min 23 sec)
Heartbeat CPU 0 instructions: 40000261 cycles: 11438536 heartbeat IPC: 4.668 cumulative IPC: 3.497 (Simulation time: 00 hr 03 min 24 sec)
Heartbeat CPU 0 instructions: 40500261 cycles: 11547357 heartbeat IPC: 4.595 cumulative IPC: 3.507 (Simulation time: 00 hr 03 min 26 sec)
Heartbeat CPU 0 instructions: 41000261 cycles: 11688735 heartbeat IPC: 3.537 cumulative IPC: 3.508 (Simulation time: 00 hr 03 min 29 sec)
Heartbeat CPU 0 instructions: 41500262 cycles: 11822714 heartbeat IPC: 3.732 cumulative IPC: 3.51 (Simulation time: 00 hr 03 min 31 sec)
Heartbeat CPU 0 instructions: 42000263 cycles: 11963473 heartbeat IPC: 3.552 cumulative IPC: 3.511 (Simulation time: 00 hr 03 min 34 sec)
Heartbeat CPU 0 instructions: 42500266 cycles: 12136579 heartbeat IPC: 2.888 cumulative IPC: 3.502 (Simulation time: 00 hr 03 min 37 sec)
Heartbeat CPU 0 instructions: 43000272 cycles: 12273067 heartbeat IPC: 3.663 cumulative IPC: 3.504 (Simulation time: 00 hr 03 min 39 sec)
Heartbeat CPU 0 instructions: 43500273 cycles: 12437918 heartbeat IPC: 3.033 cumulative IPC: 3.497 (Simulation time: 00 hr 03 min 42 sec)
Heartbeat CPU 0 instructions: 44000275 cycles: 12593341 heartbeat IPC: 3.217 cumulative IPC: 3.494 (Simulation time: 00 hr 03 min 45 sec)
Heartbeat CPU 0 instructions: 44500277 cycles: 12745028 heartbeat IPC: 3.296 cumulative IPC: 3.492 (Simulation time: 00 hr 03 min 48 sec)
Heartbeat CPU 0 instructions: 45000280 cycles: 12869707 heartbeat IPC: 4.01 cumulative IPC: 3.497 (Simulation time: 00 hr 03 min 50 sec)
Heartbeat CPU 0 instructions: 45500281 cycles: 12975127 heartbeat IPC: 4.743 cumulative IPC: 3.507 (Simulation time: 00 hr 03 min 52 sec)
Heartbeat CPU 0 instructions: 46000283 cycles: 13079764 heartbeat IPC: 4.778 cumulative IPC: 3.517 (Simulation time: 00 hr 03 min 54 sec)
Heartbeat CPU 0 instructions: 46500286 cycles: 13186801 heartbeat IPC: 4.671 cumulative IPC: 3.526 (Simulation time: 00 hr 03 min 56 sec)
Heartbeat CPU 0 instructions: 47000286 cycles: 13293661 heartbeat IPC: 4.679 cumulative IPC: 3.536 (Simulation time: 00 hr 03 min 58 sec)
Heartbeat CPU 0 instructions: 47500288 cycles: 13398035 heartbeat IPC: 4.79 cumulative IPC: 3.545 (Simulation time: 00 hr 04 min 00 sec)
Heartbeat CPU 0 instructions: 48000291 cycles: 13503921 heartbeat IPC: 4.722 cumulative IPC: 3.555 (Simulation time: 00 hr 04 min 02 sec)
Heartbeat CPU 0 instructions: 48500294 cycles: 13607652 heartbeat IPC: 4.82 cumulative IPC: 3.564 (Simulation time: 00 hr 04 min 04 sec)
Heartbeat CPU 0 instructions: 49000298 cycles: 13714166 heartbeat IPC: 4.694 cumulative IPC: 3.573 (Simulation time: 00 hr 04 min 06 sec)
Heartbeat CPU 0 instructions: 49500300 cycles: 13818349 heartbeat IPC: 4.799 cumulative IPC: 3.582 (Simulation time: 00 hr 04 min 07 sec)
Warmup halting CPU 0 at instruction 50000002 cycle 13921431 for remainder of phase
Warmup finished CPU 0 instructions: 50000002 cycles: 13921431 cumulative IPC: 3.592 (Simulation time: 00 hr 04 min 09 sec)
Warmup complete CPU 0 instructions: 50000002 cycles: 13921431 cumulative IPC: 3.592 (Simulation time: 00 hr 04 min 09 sec)
Heartbeat CPU 0 instructions: 50000306 cycles: 13921489 heartbeat IPC: 4.848 cumulative IPC: 5.241 (Simulation time: 00 hr 04 min 09 sec)
Heartbeat CPU 0 instructions: 50500310 cycles: 14228200 heartbeat IPC: 1.63 cumulative IPC: 1.631 (Simulation time: 00 hr 04 min 13 sec)
Heartbeat CPU 0 instructions: 51000311 cycles: 14547818 heartbeat IPC: 1.564 cumulative IPC: 1.597 (Simulation time: 00 hr 04 min 16 sec)
Heartbeat CPU 0 instructions: 51500314 cycles: 14863570 heartbeat IPC: 1.584 cumulative IPC: 1.592 (Simulation time: 00 hr 04 min 20 sec)
Heartbeat CPU 0 instructions: 52000314 cycles: 15185568 heartbeat IPC: 1.553 cumulative IPC: 1.582 (Simulation time: 00 hr 04 min 23 sec)
Heartbeat CPU 0 instructions: 52500316 cycles: 15538551 heartbeat IPC: 1.417 cumulative IPC: 1.546 (Simulation time: 00 hr 04 min 27 sec)
Heartbeat CPU 0 instructions: 53000322 cycles: 15864523 heartbeat IPC: 1.534 cumulative IPC: 1.544 (Simulation time: 00 hr 04 min 30 sec)
Heartbeat CPU 0 instructions: 53500325 cycles: 16161227 heartbeat IPC: 1.685 cumulative IPC: 1.563 (Simulation time: 00 hr 04 min 34 sec)
Heartbeat CPU 0 instructions: 54000326 cycles: 16450494 heartbeat IPC: 1.729 cumulative IPC: 1.582 (Simulation time: 00 hr 04 min 37 sec)
Heartbeat CPU 0 instructions: 54500327 cycles: 16751544 heartbeat IPC: 1.661 cumulative IPC: 1.59 (Simulation time: 00 hr 04 min 40 sec)
Heartbeat CPU 0 instructions: 55000327 cycles: 17040013 heartbeat IPC: 1.733 cumulative IPC: 1.603 (Simulation time: 00 hr 04 min 44 sec)
Heartbeat CPU 0 instructions: 55500332 cycles: 17323794 heartbeat IPC: 1.762 cumulative IPC: 1.617 (Simulation time: 00 hr 04 min 47 sec)
Heartbeat CPU 0 instructions: 56000332 cycles: 17614839 heartbeat IPC: 1.718 cumulative IPC: 1.625 (Simulation time: 00 hr 04 min 50 sec)
Heartbeat CPU 0 instructions: 56500333 cycles: 17941127 heartbeat IPC: 1.532 cumulative IPC: 1.617 (Simulation time: 00 hr 04 min 54 sec)
Heartbeat CPU 0 instructions: 57000338 cycles: 18252028 heartbeat IPC: 1.608 cumulative IPC: 1.616 (Simulation time: 00 hr 04 min 57 sec)
Heartbeat CPU 0 instructions: 57500343 cycles: 18553807 heartbeat IPC: 1.657 cumulative IPC: 1.619 (Simulation time: 00 hr 05 min 01 sec)
Heartbeat CPU 0 instructions: 58000343 cycles: 18845011 heartbeat IPC: 1.717 cumulative IPC: 1.625 (Simulation time: 00 hr 05 min 04 sec)
Heartbeat CPU 0 instructions: 58500349 cycles: 19141194 heartbeat IPC: 1.688 cumulative IPC: 1.628 (Simulation time: 00 hr 05 min 07 sec)
Heartbeat CPU 0 instructions: 59000349 cycles: 19429695 heartbeat IPC: 1.733 cumulative IPC: 1.634 (Simulation time: 00 hr 05 min 11 sec)
Heartbeat CPU 0 instructions: 59500349 cycles: 19750565 heartbeat IPC: 1.558 cumulative IPC: 1.63 (Simulation time: 00 hr 05 min 14 sec)
Heartbeat CPU 0 instructions: 60000349 cycles: 20063921 heartbeat IPC: 1.596 cumulative IPC: 1.628 (Simulation time: 00 hr 05 min 18 sec)
Heartbeat CPU 0 instructions: 60500349 cycles: 20350323 heartbeat IPC: 1.746 cumulative IPC: 1.633 (Simulation time: 00 hr 05 min 21 sec)
Heartbeat CPU 0 instructions: 61000352 cycles: 21004479 heartbeat IPC: 0.7643 cumulative IPC: 1.553 (Simulation time: 00 hr 05 min 26 sec)
Heartbeat CPU 0 instructions: 61500357 cycles: 21580753 heartbeat IPC: 0.8677 cumulative IPC: 1.501 (Simulation time: 00 hr 05 min 31 sec)
Heartbeat CPU 0 instructions: 62000358 cycles: 22036409 heartbeat IPC: 1.097 cumulative IPC: 1.479 (Simulation time: 00 hr 05 min 36 sec)
Heartbeat CPU 0 instructions: 62500361 cycles: 22577761 heartbeat IPC: 0.9236 cumulative IPC: 1.444 (Simulation time: 00 hr 05 min 40 sec)
Heartbeat CPU 0 instructions: 63000361 cycles: 23065704 heartbeat IPC: 1.025 cumulative IPC: 1.422 (Simulation time: 00 hr 05 min 45 sec)
Heartbeat CPU 0 instructions: 63500366 cycles: 23552382 heartbeat IPC: 1.027 cumulative IPC: 1.402 (Simulation time: 00 hr 05 min 51 sec)
Heartbeat CPU 0 instructions: 64000367 cycles: 24027356 heartbeat IPC: 1.053 cumulative IPC: 1.385 (Simulation time: 00 hr 05 min 56 sec)
Heartbeat CPU 0 instructions: 64500367 cycles: 24538790 heartbeat IPC: 0.9776 cumulative IPC: 1.366 (Simulation time: 00 hr 06 min 01 sec)
Heartbeat CPU 0 instructions: 65000369 cycles: 24837835 heartbeat IPC: 1.672 cumulative IPC: 1.374 (Simulation time: 00 hr 06 min 05 sec)
Heartbeat CPU 0 instructions: 65500370 cycles: 25301532 heartbeat IPC: 1.078 cumulative IPC: 1.362 (Simulation time: 00 hr 06 min 09 sec)
Heartbeat CPU 0 instructions: 66000376 cycles: 25842481 heartbeat IPC: 0.9243 cumulative IPC: 1.342 (Simulation time: 00 hr 06 min 14 sec)
Heartbeat CPU 0 instructions: 66500377 cycles: 26403633 heartbeat IPC: 0.891 cumulative IPC: 1.322 (Simulation time: 00 hr 06 min 19 sec)
Heartbeat CPU 0 instructions: 67000379 cycles: 26731693 heartbeat IPC: 1.524 cumulative IPC: 1.327 (Simulation time: 00 hr 06 min 23 sec)
Heartbeat CPU 0 instructions: 67500384 cycles: 27048052 heartbeat IPC: 1.58 cumulative IPC: 1.333 (Simulation time: 00 hr 06 min 27 sec)
Heartbeat CPU 0 instructions: 68000391 cycles: 27428461 heartbeat IPC: 1.314 cumulative IPC: 1.333 (Simulation time: 00 hr 06 min 31 sec)
Heartbeat CPU 0 instructions: 68500391 cycles: 27780286 heartbeat IPC: 1.421 cumulative IPC: 1.335 (Simulation time: 00 hr 06 min 35 sec)
Heartbeat CPU 0 instructions: 69000391 cycles: 28106918 heartbeat IPC: 1.531 cumulative IPC: 1.339 (Simulation time: 00 hr 06 min 39 sec)
Heartbeat CPU 0 instructions: 69500397 cycles: 29715237 heartbeat IPC: 0.3109 cumulative IPC: 1.235 (Simulation time: 00 hr 06 min 51 sec)
Heartbeat CPU 0 instructions: 70000399 cycles: 31104919 heartbeat IPC: 0.3598 cumulative IPC: 1.164 (Simulation time: 00 hr 07 min 04 sec)
Heartbeat CPU 0 instructions: 70500401 cycles: 32412326 heartbeat IPC: 0.3824 cumulative IPC: 1.109 (Simulation time: 00 hr 07 min 15 sec)
Heartbeat CPU 0 instructions: 71000402 cycles: 33486606 heartbeat IPC: 0.4654 cumulative IPC: 1.073 (Simulation time: 00 hr 07 min 23 sec)
Heartbeat CPU 0 instructions: 71500408 cycles: 34406187 heartbeat IPC: 0.5437 cumulative IPC: 1.05 (Simulation time: 00 hr 07 min 31 sec)
Heartbeat CPU 0 instructions: 72000409 cycles: 35114818 heartbeat IPC: 0.7056 cumulative IPC: 1.038 (Simulation time: 00 hr 07 min 37 sec)
Heartbeat CPU 0 instructions: 72500409 cycles: 36036313 heartbeat IPC: 0.5426 cumulative IPC: 1.017 (Simulation time: 00 hr 07 min 44 sec)
Heartbeat CPU 0 instructions: 73000415 cycles: 36937327 heartbeat IPC: 0.5549 cumulative IPC: 0.9993 (Simulation time: 00 hr 07 min 51 sec)
Heartbeat CPU 0 instructions: 73500415 cycles: 37981249 heartbeat IPC: 0.479 cumulative IPC: 0.9767 (Simulation time: 00 hr 07 min 59 sec)
Heartbeat CPU 0 instructions: 74000415 cycles: 38920858 heartbeat IPC: 0.5321 cumulative IPC: 0.96 (Simulation time: 00 hr 08 min 06 sec)
Heartbeat CPU 0 instructions: 74500415 cycles: 39860162 heartbeat IPC: 0.5323 cumulative IPC: 0.9445 (Simulation time: 00 hr 08 min 14 sec)
Heartbeat CPU 0 instructions: 75000415 cycles: 40764242 heartbeat IPC: 0.553 cumulative IPC: 0.9314 (Simulation time: 00 hr 08 min 21 sec)
Heartbeat CPU 0 instructions: 75500421 cycles: 42029154 heartbeat IPC: 0.3953 cumulative IPC: 0.9072 (Simulation time: 00 hr 08 min 30 sec)
Heartbeat CPU 0 instructions: 76000421 cycles: 43109135 heartbeat IPC: 0.463 cumulative IPC: 0.8908 (Simulation time: 00 hr 08 min 38 sec)
Heartbeat CPU 0 instructions: 76500426 cycles: 43932209 heartbeat IPC: 0.6075 cumulative IPC: 0.883 (Simulation time: 00 hr 08 min 45 sec)
Heartbeat CPU 0 instructions: 77000429 cycles: 44837542 heartbeat IPC: 0.5523 cumulative IPC: 0.8733 (Simulation time: 00 hr 08 min 52 sec)
Heartbeat CPU 0 instructions: 77500431 cycles: 45809163 heartbeat IPC: 0.5146 cumulative IPC: 0.8624 (Simulation time: 00 hr 09 min 00 sec)
Heartbeat CPU 0 instructions: 78000434 cycles: 47064040 heartbeat IPC: 0.3984 cumulative IPC: 0.8448 (Simulation time: 00 hr 09 min 11 sec)
Heartbeat CPU 0 instructions: 78500438 cycles: 47782513 heartbeat IPC: 0.6959 cumulative IPC: 0.8417 (Simulation time: 00 hr 09 min 17 sec)
Heartbeat CPU 0 instructions: 79000439 cycles: 48585361 heartbeat IPC: 0.6228 cumulative IPC: 0.8366 (Simulation time: 00 hr 09 min 24 sec)
Heartbeat CPU 0 instructions: 79500441 cycles: 49266447 heartbeat IPC: 0.7341 cumulative IPC: 0.8346 (Simulation time: 00 hr 09 min 30 sec)
Heartbeat CPU 0 instructions: 80000444 cycles: 50146336 heartbeat IPC: 0.5683 cumulative IPC: 0.8282 (Simulation time: 00 hr 09 min 37 sec)
Heartbeat CPU 0 instructions: 80500449 cycles: 51684148 heartbeat IPC: 0.3251 cumulative IPC: 0.8077 (Simulation time: 00 hr 09 min 49 sec)
Heartbeat CPU 0 instructions: 81000452 cycles: 52432610 heartbeat IPC: 0.668 cumulative IPC: 0.805 (Simulation time: 00 hr 09 min 55 sec)
Heartbeat CPU 0 instructions: 81500452 cycles: 53375418 heartbeat IPC: 0.5303 cumulative IPC: 0.7984 (Simulation time: 00 hr 10 min 02 sec)
Heartbeat CPU 0 instructions: 82000452 cycles: 53954960 heartbeat IPC: 0.8628 cumulative IPC: 0.7993 (Simulation time: 00 hr 10 min 07 sec)
Heartbeat CPU 0 instructions: 82500458 cycles: 54324484 heartbeat IPC: 1.353 cumulative IPC: 0.8044 (Simulation time: 00 hr 10 min 11 sec)
Heartbeat CPU 0 instructions: 83000463 cycles: 54675334 heartbeat IPC: 1.425 cumulative IPC: 0.8097 (Simulation time: 00 hr 10 min 15 sec)
Heartbeat CPU 0 instructions: 83500464 cycles: 55004711 heartbeat IPC: 1.518 cumulative IPC: 0.8154 (Simulation time: 00 hr 10 min 18 sec)
Heartbeat CPU 0 instructions: 84000466 cycles: 55335672 heartbeat IPC: 1.511 cumulative IPC: 0.821 (Simulation time: 00 hr 10 min 22 sec)
Heartbeat CPU 0 instructions: 84500468 cycles: 55689110 heartbeat IPC: 1.415 cumulative IPC: 0.826 (Simulation time: 00 hr 10 min 26 sec)
Heartbeat CPU 0 instructions: 85000474 cycles: 56019593 heartbeat IPC: 1.513 cumulative IPC: 0.8314 (Simulation time: 00 hr 10 min 29 sec)
Heartbeat CPU 0 instructions: 85500479 cycles: 56353132 heartbeat IPC: 1.499 cumulative IPC: 0.8366 (Simulation time: 00 hr 10 min 33 sec)
Heartbeat CPU 0 instructions: 86000481 cycles: 56753109 heartbeat IPC: 1.25 cumulative IPC: 0.8405 (Simulation time: 00 hr 10 min 37 sec)
Heartbeat CPU 0 instructions: 86500485 cycles: 57073703 heartbeat IPC: 1.56 cumulative IPC: 0.8459 (Simulation time: 00 hr 10 min 40 sec)
Heartbeat CPU 0 instructions: 87000492 cycles: 57382139 heartbeat IPC: 1.621 cumulative IPC: 0.8514 (Simulation time: 00 hr 10 min 44 sec)
Heartbeat CPU 0 instructions: 87500498 cycles: 57711190 heartbeat IPC: 1.52 cumulative IPC: 0.8564 (Simulation time: 00 hr 10 min 47 sec)
Heartbeat CPU 0 instructions: 88000501 cycles: 58010452 heartbeat IPC: 1.671 cumulative IPC: 0.8619 (Simulation time: 00 hr 10 min 51 sec)
Heartbeat CPU 0 instructions: 88500503 cycles: 58338098 heartbeat IPC: 1.526 cumulative IPC: 0.8668 (Simulation time: 00 hr 10 min 54 sec)
Heartbeat CPU 0 instructions: 89000504 cycles: 58661606 heartbeat IPC: 1.546 cumulative IPC: 0.8717 (Simulation time: 00 hr 10 min 58 sec)
Heartbeat CPU 0 instructions: 89500507 cycles: 58994537 heartbeat IPC: 1.502 cumulative IPC: 0.8764 (Simulation time: 00 hr 11 min 01 sec)
Heartbeat CPU 0 instructions: 90000507 cycles: 59285901 heartbeat IPC: 1.716 cumulative IPC: 0.8818 (Simulation time: 00 hr 11 min 05 sec)
Heartbeat CPU 0 instructions: 90500507 cycles: 59590370 heartbeat IPC: 1.642 cumulative IPC: 0.8868 (Simulation time: 00 hr 11 min 08 sec)
Heartbeat CPU 0 instructions: 91000510 cycles: 59884324 heartbeat IPC: 1.701 cumulative IPC: 0.892 (Simulation time: 00 hr 11 min 11 sec)
Heartbeat CPU 0 instructions: 91500512 cycles: 60195863 heartbeat IPC: 1.605 cumulative IPC: 0.8968 (Simulation time: 00 hr 11 min 15 sec)
Heartbeat CPU 0 instructions: 92000513 cycles: 61460049 heartbeat IPC: 0.3955 cumulative IPC: 0.8835 (Simulation time: 00 hr 11 min 24 sec)
Heartbeat CPU 0 instructions: 92500515 cycles: 61989935 heartbeat IPC: 0.9436 cumulative IPC: 0.8842 (Simulation time: 00 hr 11 min 29 sec)
Heartbeat CPU 0 instructions: 93000515 cycles: 62313110 heartbeat IPC: 1.547 cumulative IPC: 0.8886 (Simulation time: 00 hr 11 min 32 sec)
Heartbeat CPU 0 instructions: 93500518 cycles: 62665860 heartbeat IPC: 1.417 cumulative IPC: 0.8924 (Simulation time: 00 hr 11 min 36 sec)
Heartbeat CPU 0 instructions: 94000518 cycles: 62971282 heartbeat IPC: 1.637 cumulative IPC: 0.8971 (Simulation time: 00 hr 11 min 39 sec)
Heartbeat CPU 0 instructions: 94500523 cycles: 63269845 heartbeat IPC: 1.675 cumulative IPC: 0.9018 (Simulation time: 00 hr 11 min 43 sec)
Heartbeat CPU 0 instructions: 95000523 cycles: 63583296 heartbeat IPC: 1.595 cumulative IPC: 0.9061 (Simulation time: 00 hr 11 min 46 sec)
Heartbeat CPU 0 instructions: 95500524 cycles: 63905979 heartbeat IPC: 1.55 cumulative IPC: 0.9103 (Simulation time: 00 hr 11 min 50 sec)
Heartbeat CPU 0 instructions: 96000527 cycles: 64233181 heartbeat IPC: 1.528 cumulative IPC: 0.9143 (Simulation time: 00 hr 11 min 53 sec)
Heartbeat CPU 0 instructions: 96500527 cycles: 64888728 heartbeat IPC: 0.7627 cumulative IPC: 0.9124 (Simulation time: 00 hr 11 min 59 sec)
Heartbeat CPU 0 instructions: 97000527 cycles: 65505083 heartbeat IPC: 0.8112 cumulative IPC: 0.9112 (Simulation time: 00 hr 12 min 04 sec)
Heartbeat CPU 0 instructions: 97500528 cycles: 66037587 heartbeat IPC: 0.939 cumulative IPC: 0.9114 (Simulation time: 00 hr 12 min 09 sec)
Heartbeat CPU 0 instructions: 98000528 cycles: 66499193 heartbeat IPC: 1.083 cumulative IPC: 0.9129 (Simulation time: 00 hr 12 min 13 sec)
Heartbeat CPU 0 instructions: 98500530 cycles: 66992036 heartbeat IPC: 1.015 cumulative IPC: 0.9139 (Simulation time: 00 hr 12 min 18 sec)
Heartbeat CPU 0 instructions: 99000535 cycles: 67465072 heartbeat IPC: 1.057 cumulative IPC: 0.9152 (Simulation time: 00 hr 12 min 22 sec)
Heartbeat CPU 0 instructions: 99500536 cycles: 67940362 heartbeat IPC: 1.052 cumulative IPC: 0.9164 (Simulation time: 00 hr 12 min 27 sec)
Heartbeat CPU 0 instructions: 100000542 cycles: 68415648 heartbeat IPC: 1.052 cumulative IPC: 0.9175 (Simulation time: 00 hr 12 min 32 sec)
Heartbeat CPU 0 instructions: 100500547 cycles: 68920519 heartbeat IPC: 0.9904 cumulative IPC: 0.9182 (Simulation time: 00 hr 12 min 38 sec)
Heartbeat CPU 0 instructions: 101000548 cycles: 69333513 heartbeat IPC: 1.211 cumulative IPC: 0.9204 (Simulation time: 00 hr 12 min 42 sec)
Heartbeat CPU 0 instructions: 101500553 cycles: 69746104 heartbeat IPC: 1.212 cumulative IPC: 0.9225 (Simulation time: 00 hr 12 min 46 sec)
Heartbeat CPU 0 instructions: 102000556 cycles: 70370024 heartbeat IPC: 0.8014 cumulative IPC: 0.9212 (Simulation time: 00 hr 12 min 52 sec)
Heartbeat CPU 0 instructions: 102500557 cycles: 71914902 heartbeat IPC: 0.3237 cumulative IPC: 0.9053 (Simulation time: 00 hr 13 min 04 sec)
Heartbeat CPU 0 instructions: 103000563 cycles: 72275730 heartbeat IPC: 1.386 cumulative IPC: 0.9083 (Simulation time: 00 hr 13 min 08 sec)
Heartbeat CPU 0 instructions: 103500569 cycles: 72651206 heartbeat IPC: 1.332 cumulative IPC: 0.911 (Simulation time: 00 hr 13 min 12 sec)
Heartbeat CPU 0 instructions: 104000572 cycles: 73049734 heartbeat IPC: 1.255 cumulative IPC: 0.9133 (Simulation time: 00 hr 13 min 16 sec)
Heartbeat CPU 0 instructions: 104500573 cycles: 73468975 heartbeat IPC: 1.193 cumulative IPC: 0.9152 (Simulation time: 00 hr 13 min 20 sec)
Heartbeat CPU 0 instructions: 105000576 cycles: 73868674 heartbeat IPC: 1.251 cumulative IPC: 0.9175 (Simulation time: 00 hr 13 min 25 sec)
Heartbeat CPU 0 instructions: 105500579 cycles: 75507510 heartbeat IPC: 0.3051 cumulative IPC: 0.9012 (Simulation time: 00 hr 13 min 36 sec)
Heartbeat CPU 0 instructions: 106000581 cycles: 76759830 heartbeat IPC: 0.3993 cumulative IPC: 0.8912 (Simulation time: 00 hr 13 min 48 sec)
Heartbeat CPU 0 instructions: 106500588 cycles: 78046169 heartbeat IPC: 0.3887 cumulative IPC: 0.8811 (Simulation time: 00 hr 13 min 59 sec)
Heartbeat CPU 0 instructions: 107000590 cycles: 78910563 heartbeat IPC: 0.5784 cumulative IPC: 0.8771 (Simulation time: 00 hr 14 min 07 sec)
Heartbeat CPU 0 instructions: 107500591 cycles: 79153523 heartbeat IPC: 2.058 cumulative IPC: 0.8815 (Simulation time: 00 hr 14 min 11 sec)
Heartbeat CPU 0 instructions: 108000598 cycles: 79569718 heartbeat IPC: 1.201 cumulative IPC: 0.8835 (Simulation time: 00 hr 14 min 16 sec)
Heartbeat CPU 0 instructions: 108500602 cycles: 79981224 heartbeat IPC: 1.215 cumulative IPC: 0.8856 (Simulation time: 00 hr 14 min 22 sec)
Heartbeat CPU 0 instructions: 109000604 cycles: 80299298 heartbeat IPC: 1.572 cumulative IPC: 0.8889 (Simulation time: 00 hr 14 min 26 sec)
Heartbeat CPU 0 instructions: 109500604 cycles: 80636884 heartbeat IPC: 1.481 cumulative IPC: 0.8919 (Simulation time: 00 hr 14 min 31 sec)
Heartbeat CPU 0 instructions: 110000604 cycles: 80937946 heartbeat IPC: 1.661 cumulative IPC: 0.8953 (Simulation time: 00 hr 14 min 35 sec)
Heartbeat CPU 0 instructions: 110500605 cycles: 81311711 heartbeat IPC: 1.338 cumulative IPC: 0.8978 (Simulation time: 00 hr 14 min 40 sec)
Heartbeat CPU 0 instructions: 111000609 cycles: 81644737 heartbeat IPC: 1.501 cumulative IPC: 0.9007 (Simulation time: 00 hr 14 min 45 sec)
Heartbeat CPU 0 instructions: 111500610 cycles: 82036005 heartbeat IPC: 1.278 cumulative IPC: 0.9029 (Simulation time: 00 hr 14 min 51 sec)
Heartbeat CPU 0 instructions: 112000610 cycles: 82370302 heartbeat IPC: 1.496 cumulative IPC: 0.9058 (Simulation time: 00 hr 14 min 55 sec)
Heartbeat CPU 0 instructions: 112500612 cycles: 82677013 heartbeat IPC: 1.63 cumulative IPC: 0.909 (Simulation time: 00 hr 15 min 00 sec)
Heartbeat CPU 0 instructions: 113000614 cycles: 82935993 heartbeat IPC: 1.931 cumulative IPC: 0.9129 (Simulation time: 00 hr 15 min 04 sec)
Heartbeat CPU 0 instructions: 113500619 cycles: 83315363 heartbeat IPC: 1.318 cumulative IPC: 0.9151 (Simulation time: 00 hr 15 min 10 sec)
Heartbeat CPU 0 instructions: 114000626 cycles: 83727443 heartbeat IPC: 1.213 cumulative IPC: 0.9168 (Simulation time: 00 hr 15 min 16 sec)
Heartbeat CPU 0 instructions: 114500627 cycles: 84095448 heartbeat IPC: 1.359 cumulative IPC: 0.9192 (Simulation time: 00 hr 15 min 21 sec)
Heartbeat CPU 0 instructions: 115000627 cycles: 85643807 heartbeat IPC: 0.3229 cumulative IPC: 0.9063 (Simulation time: 00 hr 15 min 34 sec)
Heartbeat CPU 0 instructions: 115500632 cycles: 86765132 heartbeat IPC: 0.4459 cumulative IPC: 0.8992 (Simulation time: 00 hr 15 min 43 sec)
Heartbeat CPU 0 instructions: 116000632 cycles: 87787106 heartbeat IPC: 0.4892 cumulative IPC: 0.8935 (Simulation time: 00 hr 15 min 51 sec)
Heartbeat CPU 0 instructions: 116500632 cycles: 88760971 heartbeat IPC: 0.5134 cumulative IPC: 0.8886 (Simulation time: 00 hr 15 min 58 sec)
Heartbeat CPU 0 instructions: 117000632 cycles: 89681978 heartbeat IPC: 0.5429 cumulative IPC: 0.8844 (Simulation time: 00 hr 16 min 06 sec)
Heartbeat CPU 0 instructions: 117500634 cycles: 90580472 heartbeat IPC: 0.5565 cumulative IPC: 0.8805 (Simulation time: 00 hr 16 min 13 sec)
Heartbeat CPU 0 instructions: 118000634 cycles: 91555576 heartbeat IPC: 0.5128 cumulative IPC: 0.8759 (Simulation time: 00 hr 16 min 20 sec)
Heartbeat CPU 0 instructions: 118500634 cycles: 93836475 heartbeat IPC: 0.2192 cumulative IPC: 0.8572 (Simulation time: 00 hr 16 min 36 sec)
Heartbeat CPU 0 instructions: 119000640 cycles: 95564785 heartbeat IPC: 0.2893 cumulative IPC: 0.8451 (Simulation time: 00 hr 16 min 48 sec)
Heartbeat CPU 0 instructions: 119500647 cycles: 97179233 heartbeat IPC: 0.3097 cumulative IPC: 0.8348 (Simulation time: 00 hr 17 min 00 sec)
Heartbeat CPU 0 instructions: 120000648 cycles: 98252307 heartbeat IPC: 0.466 cumulative IPC: 0.8301 (Simulation time: 00 hr 17 min 08 sec)
Heartbeat CPU 0 instructions: 120500649 cycles: 98759185 heartbeat IPC: 0.9864 cumulative IPC: 0.831 (Simulation time: 00 hr 17 min 12 sec)
Heartbeat CPU 0 instructions: 121000650 cycles: 99730539 heartbeat IPC: 0.5147 cumulative IPC: 0.8274 (Simulation time: 00 hr 17 min 20 sec)
Heartbeat CPU 0 instructions: 121500650 cycles: 100624181 heartbeat IPC: 0.5595 cumulative IPC: 0.8247 (Simulation time: 00 hr 17 min 27 sec)
Heartbeat CPU 0 instructions: 122000653 cycles: 101620507 heartbeat IPC: 0.5018 cumulative IPC: 0.821 (Simulation time: 00 hr 17 min 35 sec)
Heartbeat CPU 0 instructions: 122500660 cycles: 103027820 heartbeat IPC: 0.3553 cumulative IPC: 0.8136 (Simulation time: 00 hr 17 min 45 sec)
Heartbeat CPU 0 instructions: 123000661 cycles: 104124171 heartbeat IPC: 0.4561 cumulative IPC: 0.8093 (Simulation time: 00 hr 17 min 54 sec)
Heartbeat CPU 0 instructions: 123500663 cycles: 105186552 heartbeat IPC: 0.4706 cumulative IPC: 0.8054 (Simulation time: 00 hr 18 min 02 sec)
Heartbeat CPU 0 instructions: 124000665 cycles: 105853460 heartbeat IPC: 0.7497 cumulative IPC: 0.8049 (Simulation time: 00 hr 18 min 07 sec)
Heartbeat CPU 0 instructions: 124500665 cycles: 106791099 heartbeat IPC: 0.5333 cumulative IPC: 0.8022 (Simulation time: 00 hr 18 min 14 sec)
Heartbeat CPU 0 instructions: 125000665 cycles: 107453638 heartbeat IPC: 0.7547 cumulative IPC: 0.8019 (Simulation time: 00 hr 18 min 20 sec)
Heartbeat CPU 0 instructions: 125500665 cycles: 108974133 heartbeat IPC: 0.3288 cumulative IPC: 0.7943 (Simulation time: 00 hr 18 min 30 sec)
Heartbeat CPU 0 instructions: 126000667 cycles: 110231108 heartbeat IPC: 0.3978 cumulative IPC: 0.7891 (Simulation time: 00 hr 18 min 40 sec)
Heartbeat CPU 0 instructions: 126500669 cycles: 111452396 heartbeat IPC: 0.4094 cumulative IPC: 0.7844 (Simulation time: 00 hr 18 min 49 sec)
Heartbeat CPU 0 instructions: 127000670 cycles: 112671913 heartbeat IPC: 0.41 cumulative IPC: 0.7797 (Simulation time: 00 hr 18 min 58 sec)
Heartbeat CPU 0 instructions: 127500676 cycles: 113565366 heartbeat IPC: 0.5596 cumulative IPC: 0.7778 (Simulation time: 00 hr 19 min 05 sec)
Heartbeat CPU 0 instructions: 128000678 cycles: 114524555 heartbeat IPC: 0.5213 cumulative IPC: 0.7753 (Simulation time: 00 hr 19 min 15 sec)
Heartbeat CPU 0 instructions: 128500678 cycles: 115157250 heartbeat IPC: 0.7903 cumulative IPC: 0.7754 (Simulation time: 00 hr 19 min 22 sec)
Heartbeat CPU 0 instructions: 129000685 cycles: 115803020 heartbeat IPC: 0.7743 cumulative IPC: 0.7754 (Simulation time: 00 hr 19 min 28 sec)
Heartbeat CPU 0 instructions: 129500688 cycles: 116391880 heartbeat IPC: 0.8491 cumulative IPC: 0.7758 (Simulation time: 00 hr 19 min 34 sec)
Heartbeat CPU 0 instructions: 130000689 cycles: 116916844 heartbeat IPC: 0.9524 cumulative IPC: 0.7767 (Simulation time: 00 hr 19 min 40 sec)
Heartbeat CPU 0 instructions: 130500691 cycles: 118570622 heartbeat IPC: 0.3023 cumulative IPC: 0.7692 (Simulation time: 00 hr 19 min 52 sec)
Heartbeat CPU 0 instructions: 131000696 cycles: 119164407 heartbeat IPC: 0.8421 cumulative IPC: 0.7697 (Simulation time: 00 hr 19 min 57 sec)
Heartbeat CPU 0 instructions: 131500698 cycles: 120756078 heartbeat IPC: 0.3141 cumulative IPC: 0.7629 (Simulation time: 00 hr 20 min 09 sec)
Heartbeat CPU 0 instructions: 132000698 cycles: 121868370 heartbeat IPC: 0.4495 cumulative IPC: 0.7596 (Simulation time: 00 hr 20 min 18 sec)
Heartbeat CPU 0 instructions: 132500698 cycles: 122371388 heartbeat IPC: 0.994 cumulative IPC: 0.7607 (Simulation time: 00 hr 20 min 22 sec)
Heartbeat CPU 0 instructions: 133000702 cycles: 123518256 heartbeat IPC: 0.436 cumulative IPC: 0.7573 (Simulation time: 00 hr 20 min 31 sec)
Heartbeat CPU 0 instructions: 133500704 cycles: 124037818 heartbeat IPC: 0.9624 cumulative IPC: 0.7583 (Simulation time: 00 hr 20 min 36 sec)
Heartbeat CPU 0 instructions: 134000707 cycles: 125043870 heartbeat IPC: 0.497 cumulative IPC: 0.7559 (Simulation time: 00 hr 20 min 43 sec)
Heartbeat CPU 0 instructions: 134500707 cycles: 126042638 heartbeat IPC: 0.5006 cumulative IPC: 0.7537 (Simulation time: 00 hr 20 min 51 sec)
Heartbeat CPU 0 instructions: 135000711 cycles: 127200843 heartbeat IPC: 0.4317 cumulative IPC: 0.7504 (Simulation time: 00 hr 21 min 00 sec)
Heartbeat CPU 0 instructions: 135500714 cycles: 128125090 heartbeat IPC: 0.541 cumulative IPC: 0.7487 (Simulation time: 00 hr 21 min 07 sec)
Heartbeat CPU 0 instructions: 136000715 cycles: 129355204 heartbeat IPC: 0.4065 cumulative IPC: 0.745 (Simulation time: 00 hr 21 min 16 sec)
Heartbeat CPU 0 instructions: 136500719 cycles: 129935449 heartbeat IPC: 0.8617 cumulative IPC: 0.7456 (Simulation time: 00 hr 21 min 21 sec)
Heartbeat CPU 0 instructions: 137000720 cycles: 131139548 heartbeat IPC: 0.4152 cumulative IPC: 0.7422 (Simulation time: 00 hr 21 min 30 sec)
Heartbeat CPU 0 instructions: 137500722 cycles: 132010165 heartbeat IPC: 0.5743 cumulative IPC: 0.741 (Simulation time: 00 hr 21 min 36 sec)
Heartbeat CPU 0 instructions: 138000726 cycles: 132979700 heartbeat IPC: 0.5157 cumulative IPC: 0.7391 (Simulation time: 00 hr 21 min 44 sec)
Heartbeat CPU 0 instructions: 138500728 cycles: 134260112 heartbeat IPC: 0.3905 cumulative IPC: 0.7354 (Simulation time: 00 hr 21 min 53 sec)
Heartbeat CPU 0 instructions: 139000732 cycles: 135340991 heartbeat IPC: 0.4626 cumulative IPC: 0.733 (Simulation time: 00 hr 22 min 01 sec)
Heartbeat CPU 0 instructions: 139500732 cycles: 136290657 heartbeat IPC: 0.5265 cumulative IPC: 0.7314 (Simulation time: 00 hr 22 min 08 sec)
Heartbeat CPU 0 instructions: 140000732 cycles: 137379011 heartbeat IPC: 0.4594 cumulative IPC: 0.729 (Simulation time: 00 hr 22 min 16 sec)
Heartbeat CPU 0 instructions: 140500732 cycles: 138666744 heartbeat IPC: 0.3883 cumulative IPC: 0.7255 (Simulation time: 00 hr 22 min 26 sec)
Heartbeat CPU 0 instructions: 141000734 cycles: 139856075 heartbeat IPC: 0.4204 cumulative IPC: 0.7226 (Simulation time: 00 hr 22 min 35 sec)
Heartbeat CPU 0 instructions: 141500734 cycles: 141026173 heartbeat IPC: 0.4273 cumulative IPC: 0.7199 (Simulation time: 00 hr 22 min 44 sec)
Heartbeat CPU 0 instructions: 142000737 cycles: 142269312 heartbeat IPC: 0.4022 cumulative IPC: 0.7168 (Simulation time: 00 hr 22 min 53 sec)
Heartbeat CPU 0 instructions: 142500737 cycles: 143663162 heartbeat IPC: 0.3587 cumulative IPC: 0.713 (Simulation time: 00 hr 23 min 03 sec)
Heartbeat CPU 0 instructions: 143000741 cycles: 144398090 heartbeat IPC: 0.6803 cumulative IPC: 0.7128 (Simulation time: 00 hr 23 min 09 sec)
Heartbeat CPU 0 instructions: 143500741 cycles: 144913034 heartbeat IPC: 0.971 cumulative IPC: 0.7138 (Simulation time: 00 hr 23 min 13 sec)
Heartbeat CPU 0 instructions: 144000743 cycles: 145896326 heartbeat IPC: 0.5085 cumulative IPC: 0.7123 (Simulation time: 00 hr 23 min 21 sec)
Heartbeat CPU 0 instructions: 144500744 cycles: 146545310 heartbeat IPC: 0.7704 cumulative IPC: 0.7125 (Simulation time: 00 hr 23 min 27 sec)
Heartbeat CPU 0 instructions: 145000745 cycles: 147077972 heartbeat IPC: 0.9387 cumulative IPC: 0.7135 (Simulation time: 00 hr 23 min 31 sec)
Heartbeat CPU 0 instructions: 145500750 cycles: 147786649 heartbeat IPC: 0.7055 cumulative IPC: 0.7134 (Simulation time: 00 hr 23 min 37 sec)
Heartbeat CPU 0 instructions: 146000750 cycles: 148879332 heartbeat IPC: 0.4576 cumulative IPC: 0.7113 (Simulation time: 00 hr 23 min 45 sec)
Heartbeat CPU 0 instructions: 146500752 cycles: 149851345 heartbeat IPC: 0.5144 cumulative IPC: 0.7099 (Simulation time: 00 hr 23 min 53 sec)
Heartbeat CPU 0 instructions: 147000756 cycles: 150459526 heartbeat IPC: 0.8221 cumulative IPC: 0.7104 (Simulation time: 00 hr 23 min 58 sec)
Heartbeat CPU 0 instructions: 147500758 cycles: 151653875 heartbeat IPC: 0.4186 cumulative IPC: 0.7079 (Simulation time: 00 hr 24 min 07 sec)
Heartbeat CPU 0 instructions: 148000758 cycles: 152702365 heartbeat IPC: 0.4769 cumulative IPC: 0.7062 (Simulation time: 00 hr 24 min 15 sec)
Heartbeat CPU 0 instructions: 148500758 cycles: 153802118 heartbeat IPC: 0.4546 cumulative IPC: 0.7042 (Simulation time: 00 hr 24 min 23 sec)
Heartbeat CPU 0 instructions: 149000758 cycles: 155768453 heartbeat IPC: 0.2543 cumulative IPC: 0.6979 (Simulation time: 00 hr 24 min 37 sec)
Heartbeat CPU 0 instructions: 149500760 cycles: 156900332 heartbeat IPC: 0.4417 cumulative IPC: 0.6959 (Simulation time: 00 hr 24 min 45 sec)
Heartbeat CPU 0 instructions: 150000761 cycles: 158007257 heartbeat IPC: 0.4517 cumulative IPC: 0.694 (Simulation time: 00 hr 24 min 53 sec)
Heartbeat CPU 0 instructions: 150500765 cycles: 158669804 heartbeat IPC: 0.7547 cumulative IPC: 0.6943 (Simulation time: 00 hr 24 min 59 sec)
Heartbeat CPU 0 instructions: 151000765 cycles: 159504633 heartbeat IPC: 0.5989 cumulative IPC: 0.6938 (Simulation time: 00 hr 25 min 05 sec)
Heartbeat CPU 0 instructions: 151500766 cycles: 160293718 heartbeat IPC: 0.6336 cumulative IPC: 0.6934 (Simulation time: 00 hr 25 min 12 sec)
Heartbeat CPU 0 instructions: 152000773 cycles: 161396057 heartbeat IPC: 0.4536 cumulative IPC: 0.6916 (Simulation time: 00 hr 25 min 20 sec)
Heartbeat CPU 0 instructions: 152500774 cycles: 162594431 heartbeat IPC: 0.4172 cumulative IPC: 0.6894 (Simulation time: 00 hr 25 min 30 sec)
Heartbeat CPU 0 instructions: 153000777 cycles: 163629836 heartbeat IPC: 0.4829 cumulative IPC: 0.688 (Simulation time: 00 hr 25 min 37 sec)
Heartbeat CPU 0 instructions: 153500779 cycles: 164490322 heartbeat IPC: 0.5811 cumulative IPC: 0.6874 (Simulation time: 00 hr 25 min 44 sec)
Heartbeat CPU 0 instructions: 154000783 cycles: 165670497 heartbeat IPC: 0.4237 cumulative IPC: 0.6853 (Simulation time: 00 hr 25 min 53 sec)
Heartbeat CPU 0 instructions: 154500784 cycles: 166285257 heartbeat IPC: 0.8133 cumulative IPC: 0.6859 (Simulation time: 00 hr 25 min 58 sec)
Heartbeat CPU 0 instructions: 155000788 cycles: 166816548 heartbeat IPC: 0.9411 cumulative IPC: 0.6868 (Simulation time: 00 hr 26 min 03 sec)
Heartbeat CPU 0 instructions: 155500790 cycles: 167672367 heartbeat IPC: 0.5842 cumulative IPC: 0.6862 (Simulation time: 00 hr 26 min 10 sec)
Heartbeat CPU 0 instructions: 156000790 cycles: 168588753 heartbeat IPC: 0.5456 cumulative IPC: 0.6853 (Simulation time: 00 hr 26 min 17 sec)
Heartbeat CPU 0 instructions: 156500790 cycles: 169508302 heartbeat IPC: 0.5437 cumulative IPC: 0.6845 (Simulation time: 00 hr 26 min 24 sec)
Heartbeat CPU 0 instructions: 157000796 cycles: 170589184 heartbeat IPC: 0.4626 cumulative IPC: 0.683 (Simulation time: 00 hr 26 min 32 sec)
Heartbeat CPU 0 instructions: 157500799 cycles: 171030153 heartbeat IPC: 1.134 cumulative IPC: 0.6842 (Simulation time: 00 hr 26 min 36 sec)
Heartbeat CPU 0 instructions: 158000800 cycles: 172499117 heartbeat IPC: 0.3404 cumulative IPC: 0.6811 (Simulation time: 00 hr 26 min 47 sec)
Heartbeat CPU 0 instructions: 158500800 cycles: 173691135 heartbeat IPC: 0.4195 cumulative IPC: 0.6791 (Simulation time: 00 hr 26 min 55 sec)
Heartbeat CPU 0 instructions: 159000801 cycles: 174873035 heartbeat IPC: 0.423 cumulative IPC: 0.6772 (Simulation time: 00 hr 27 min 04 sec)
Heartbeat CPU 0 instructions: 159500804 cycles: 176162811 heartbeat IPC: 0.3877 cumulative IPC: 0.6749 (Simulation time: 00 hr 27 min 14 sec)
Heartbeat CPU 0 instructions: 160000806 cycles: 177175478 heartbeat IPC: 0.4937 cumulative IPC: 0.6738 (Simulation time: 00 hr 27 min 22 sec)
Heartbeat CPU 0 instructions: 160500806 cycles: 178474883 heartbeat IPC: 0.3848 cumulative IPC: 0.6715 (Simulation time: 00 hr 27 min 33 sec)
Heartbeat CPU 0 instructions: 161000807 cycles: 179772533 heartbeat IPC: 0.3853 cumulative IPC: 0.6693 (Simulation time: 00 hr 27 min 42 sec)
Heartbeat CPU 0 instructions: 161500807 cycles: 180734986 heartbeat IPC: 0.5195 cumulative IPC: 0.6684 (Simulation time: 00 hr 27 min 50 sec)
Heartbeat CPU 0 instructions: 162000814 cycles: 181277096 heartbeat IPC: 0.9223 cumulative IPC: 0.6692 (Simulation time: 00 hr 27 min 55 sec)
Heartbeat CPU 0 instructions: 162500815 cycles: 182100105 heartbeat IPC: 0.6075 cumulative IPC: 0.6689 (Simulation time: 00 hr 28 min 02 sec)
Heartbeat CPU 0 instructions: 163000820 cycles: 183009453 heartbeat IPC: 0.5499 cumulative IPC: 0.6683 (Simulation time: 00 hr 28 min 09 sec)
Heartbeat CPU 0 instructions: 163500820 cycles: 183940585 heartbeat IPC: 0.537 cumulative IPC: 0.6676 (Simulation time: 00 hr 28 min 16 sec)
Heartbeat CPU 0 instructions: 164000822 cycles: 185053443 heartbeat IPC: 0.4493 cumulative IPC: 0.6662 (Simulation time: 00 hr 28 min 25 sec)
Heartbeat CPU 0 instructions: 164500825 cycles: 186560207 heartbeat IPC: 0.3318 cumulative IPC: 0.6632 (Simulation time: 00 hr 28 min 35 sec)
Heartbeat CPU 0 instructions: 165000829 cycles: 187163648 heartbeat IPC: 0.8286 cumulative IPC: 0.6638 (Simulation time: 00 hr 28 min 41 sec)
Heartbeat CPU 0 instructions: 165500830 cycles: 187969122 heartbeat IPC: 0.6208 cumulative IPC: 0.6636 (Simulation time: 00 hr 28 min 47 sec)
Heartbeat CPU 0 instructions: 166000831 cycles: 188908455 heartbeat IPC: 0.5323 cumulative IPC: 0.6629 (Simulation time: 00 hr 28 min 54 sec)
Heartbeat CPU 0 instructions: 166500834 cycles: 189910073 heartbeat IPC: 0.4992 cumulative IPC: 0.662 (Simulation time: 00 hr 29 min 02 sec)
Heartbeat CPU 0 instructions: 167000838 cycles: 190721522 heartbeat IPC: 0.6162 cumulative IPC: 0.6618 (Simulation time: 00 hr 29 min 08 sec)
Heartbeat CPU 0 instructions: 167500845 cycles: 191847742 heartbeat IPC: 0.444 cumulative IPC: 0.6604 (Simulation time: 00 hr 29 min 17 sec)
Heartbeat CPU 0 instructions: 168000849 cycles: 192138371 heartbeat IPC: 1.72 cumulative IPC: 0.6621 (Simulation time: 00 hr 29 min 20 sec)
Heartbeat CPU 0 instructions: 168500849 cycles: 192943076 heartbeat IPC: 0.6213 cumulative IPC: 0.6619 (Simulation time: 00 hr 29 min 27 sec)
Heartbeat CPU 0 instructions: 169000849 cycles: 194338203 heartbeat IPC: 0.3584 cumulative IPC: 0.6596 (Simulation time: 00 hr 29 min 37 sec)
Heartbeat CPU 0 instructions: 169500849 cycles: 195055837 heartbeat IPC: 0.6967 cumulative IPC: 0.6597 (Simulation time: 00 hr 29 min 43 sec)
Heartbeat CPU 0 instructions: 170000849 cycles: 196425841 heartbeat IPC: 0.365 cumulative IPC: 0.6575 (Simulation time: 00 hr 29 min 53 sec)
Heartbeat CPU 0 instructions: 170500853 cycles: 197369891 heartbeat IPC: 0.5296 cumulative IPC: 0.6569 (Simulation time: 00 hr 30 min 01 sec)
Heartbeat CPU 0 instructions: 171000857 cycles: 197899484 heartbeat IPC: 0.9441 cumulative IPC: 0.6577 (Simulation time: 00 hr 30 min 07 sec)
Heartbeat CPU 0 instructions: 171500857 cycles: 198219945 heartbeat IPC: 1.56 cumulative IPC: 0.6593 (Simulation time: 00 hr 30 min 11 sec)
Heartbeat CPU 0 instructions: 172000857 cycles: 198785029 heartbeat IPC: 0.8848 cumulative IPC: 0.66 (Simulation time: 00 hr 30 min 16 sec)
Heartbeat CPU 0 instructions: 172500858 cycles: 199126714 heartbeat IPC: 1.463 cumulative IPC: 0.6614 (Simulation time: 00 hr 30 min 19 sec)
Heartbeat CPU 0 instructions: 173000859 cycles: 199505153 heartbeat IPC: 1.321 cumulative IPC: 0.6628 (Simulation time: 00 hr 30 min 23 sec)
Heartbeat CPU 0 instructions: 173500862 cycles: 200864370 heartbeat IPC: 0.3679 cumulative IPC: 0.6606 (Simulation time: 00 hr 30 min 32 sec)
Heartbeat CPU 0 instructions: 174000862 cycles: 201918673 heartbeat IPC: 0.4742 cumulative IPC: 0.6596 (Simulation time: 00 hr 30 min 40 sec)
Heartbeat CPU 0 instructions: 174500863 cycles: 203237509 heartbeat IPC: 0.3791 cumulative IPC: 0.6576 (Simulation time: 00 hr 30 min 51 sec)
Heartbeat CPU 0 instructions: 175000863 cycles: 204849950 heartbeat IPC: 0.3101 cumulative IPC: 0.6547 (Simulation time: 00 hr 31 min 04 sec)
Heartbeat CPU 0 instructions: 175500868 cycles: 205925429 heartbeat IPC: 0.4649 cumulative IPC: 0.6536 (Simulation time: 00 hr 31 min 12 sec)
Heartbeat CPU 0 instructions: 176000869 cycles: 207422811 heartbeat IPC: 0.3339 cumulative IPC: 0.6512 (Simulation time: 00 hr 31 min 23 sec)
Heartbeat CPU 0 instructions: 176500870 cycles: 208659385 heartbeat IPC: 0.4043 cumulative IPC: 0.6496 (Simulation time: 00 hr 31 min 33 sec)
Heartbeat CPU 0 instructions: 177000871 cycles: 209310242 heartbeat IPC: 0.7682 cumulative IPC: 0.65 (Simulation time: 00 hr 31 min 38 sec)
Heartbeat CPU 0 instructions: 177500872 cycles: 210146881 heartbeat IPC: 0.5976 cumulative IPC: 0.6498 (Simulation time: 00 hr 31 min 46 sec)
Heartbeat CPU 0 instructions: 178000872 cycles: 210496644 heartbeat IPC: 1.43 cumulative IPC: 0.6512 (Simulation time: 00 hr 31 min 51 sec)
Heartbeat CPU 0 instructions: 178500873 cycles: 210950320 heartbeat IPC: 1.102 cumulative IPC: 0.6522 (Simulation time: 00 hr 31 min 58 sec)
Heartbeat CPU 0 instructions: 179000876 cycles: 211989054 heartbeat IPC: 0.4814 cumulative IPC: 0.6513 (Simulation time: 00 hr 32 min 09 sec)
Heartbeat CPU 0 instructions: 179500876 cycles: 213091309 heartbeat IPC: 0.4536 cumulative IPC: 0.6502 (Simulation time: 00 hr 32 min 18 sec)
Heartbeat CPU 0 instructions: 180000878 cycles: 214378165 heartbeat IPC: 0.3885 cumulative IPC: 0.6485 (Simulation time: 00 hr 32 min 27 sec)
Heartbeat CPU 0 instructions: 180500882 cycles: 214971196 heartbeat IPC: 0.8431 cumulative IPC: 0.6491 (Simulation time: 00 hr 32 min 32 sec)
Heartbeat CPU 0 instructions: 181000882 cycles: 216109128 heartbeat IPC: 0.4394 cumulative IPC: 0.6479 (Simulation time: 00 hr 32 min 40 sec)
Heartbeat CPU 0 instructions: 181500884 cycles: 217210144 heartbeat IPC: 0.4541 cumulative IPC: 0.6469 (Simulation time: 00 hr 32 min 49 sec)
Heartbeat CPU 0 instructions: 182000891 cycles: 218688760 heartbeat IPC: 0.3382 cumulative IPC: 0.6446 (Simulation time: 00 hr 32 min 59 sec)
Heartbeat CPU 0 instructions: 182500897 cycles: 219470085 heartbeat IPC: 0.6399 cumulative IPC: 0.6446 (Simulation time: 00 hr 33 min 06 sec)
Heartbeat CPU 0 instructions: 183000897 cycles: 220309347 heartbeat IPC: 0.5958 cumulative IPC: 0.6444 (Simulation time: 00 hr 33 min 12 sec)
Heartbeat CPU 0 instructions: 183500899 cycles: 221299580 heartbeat IPC: 0.5049 cumulative IPC: 0.6438 (Simulation time: 00 hr 33 min 20 sec)
Heartbeat CPU 0 instructions: 184000900 cycles: 222284937 heartbeat IPC: 0.5074 cumulative IPC: 0.6431 (Simulation time: 00 hr 33 min 27 sec)
Heartbeat CPU 0 instructions: 184500901 cycles: 223511436 heartbeat IPC: 0.4077 cumulative IPC: 0.6417 (Simulation time: 00 hr 33 min 38 sec)
Heartbeat CPU 0 instructions: 185000908 cycles: 224626105 heartbeat IPC: 0.4486 cumulative IPC: 0.6407 (Simulation time: 00 hr 33 min 48 sec)
Heartbeat CPU 0 instructions: 185500914 cycles: 225396534 heartbeat IPC: 0.649 cumulative IPC: 0.6407 (Simulation time: 00 hr 33 min 54 sec)
Heartbeat CPU 0 instructions: 186000914 cycles: 226320805 heartbeat IPC: 0.541 cumulative IPC: 0.6403 (Simulation time: 00 hr 34 min 01 sec)
Heartbeat CPU 0 instructions: 186500921 cycles: 227267370 heartbeat IPC: 0.5282 cumulative IPC: 0.6398 (Simulation time: 00 hr 34 min 08 sec)
Heartbeat CPU 0 instructions: 187000923 cycles: 228165761 heartbeat IPC: 0.5566 cumulative IPC: 0.6395 (Simulation time: 00 hr 34 min 15 sec)
Heartbeat CPU 0 instructions: 187500923 cycles: 229160046 heartbeat IPC: 0.5029 cumulative IPC: 0.6388 (Simulation time: 00 hr 34 min 23 sec)
Heartbeat CPU 0 instructions: 188000923 cycles: 229645466 heartbeat IPC: 1.03 cumulative IPC: 0.6397 (Simulation time: 00 hr 34 min 27 sec)
Heartbeat CPU 0 instructions: 188500923 cycles: 230506675 heartbeat IPC: 0.5806 cumulative IPC: 0.6395 (Simulation time: 00 hr 34 min 34 sec)
Heartbeat CPU 0 instructions: 189000923 cycles: 231032113 heartbeat IPC: 0.9516 cumulative IPC: 0.6402 (Simulation time: 00 hr 34 min 39 sec)
Heartbeat CPU 0 instructions: 189500929 cycles: 231502680 heartbeat IPC: 1.063 cumulative IPC: 0.6411 (Simulation time: 00 hr 34 min 43 sec)
Heartbeat CPU 0 instructions: 190000932 cycles: 231761196 heartbeat IPC: 1.934 cumulative IPC: 0.6427 (Simulation time: 00 hr 34 min 46 sec)
Heartbeat CPU 0 instructions: 190500933 cycles: 232051953 heartbeat IPC: 1.72 cumulative IPC: 0.6441 (Simulation time: 00 hr 34 min 49 sec)
Heartbeat CPU 0 instructions: 191000936 cycles: 232391591 heartbeat IPC: 1.472 cumulative IPC: 0.6454 (Simulation time: 00 hr 34 min 52 sec)
Heartbeat CPU 0 instructions: 191500936 cycles: 232702283 heartbeat IPC: 1.609 cumulative IPC: 0.6468 (Simulation time: 00 hr 34 min 56 sec)
Heartbeat CPU 0 instructions: 192000941 cycles: 233977338 heartbeat IPC: 0.3921 cumulative IPC: 0.6453 (Simulation time: 00 hr 35 min 04 sec)
Heartbeat CPU 0 instructions: 192500941 cycles: 234978370 heartbeat IPC: 0.4995 cumulative IPC: 0.6446 (Simulation time: 00 hr 35 min 12 sec)
Heartbeat CPU 0 instructions: 193000945 cycles: 236485408 heartbeat IPC: 0.3318 cumulative IPC: 0.6425 (Simulation time: 00 hr 35 min 23 sec)
Heartbeat CPU 0 instructions: 193500946 cycles: 236809886 heartbeat IPC: 1.541 cumulative IPC: 0.6438 (Simulation time: 00 hr 35 min 26 sec)
Heartbeat CPU 0 instructions: 194000953 cycles: 237466672 heartbeat IPC: 0.7613 cumulative IPC: 0.6442 (Simulation time: 00 hr 35 min 31 sec)
Heartbeat CPU 0 instructions: 194500953 cycles: 238086481 heartbeat IPC: 0.8067 cumulative IPC: 0.6446 (Simulation time: 00 hr 35 min 36 sec)
Heartbeat CPU 0 instructions: 195000953 cycles: 239422761 heartbeat IPC: 0.3742 cumulative IPC: 0.643 (Simulation time: 00 hr 35 min 46 sec)
Heartbeat CPU 0 instructions: 195500954 cycles: 240287664 heartbeat IPC: 0.5781 cumulative IPC: 0.6428 (Simulation time: 00 hr 35 min 53 sec)
Heartbeat CPU 0 instructions: 196000954 cycles: 240612929 heartbeat IPC: 1.537 cumulative IPC: 0.6441 (Simulation time: 00 hr 35 min 56 sec)
Heartbeat CPU 0 instructions: 196500954 cycles: 241884685 heartbeat IPC: 0.3932 cumulative IPC: 0.6427 (Simulation time: 00 hr 36 min 05 sec)
Heartbeat CPU 0 instructions: 197000955 cycles: 242797231 heartbeat IPC: 0.5479 cumulative IPC: 0.6423 (Simulation time: 00 hr 36 min 13 sec)
Heartbeat CPU 0 instructions: 197500957 cycles: 243937513 heartbeat IPC: 0.4385 cumulative IPC: 0.6413 (Simulation time: 00 hr 36 min 21 sec)
Heartbeat CPU 0 instructions: 198000958 cycles: 244691664 heartbeat IPC: 0.663 cumulative IPC: 0.6413 (Simulation time: 00 hr 36 min 27 sec)
Heartbeat CPU 0 instructions: 198500958 cycles: 245376866 heartbeat IPC: 0.7297 cumulative IPC: 0.6416 (Simulation time: 00 hr 36 min 33 sec)
Heartbeat CPU 0 instructions: 199000958 cycles: 246105838 heartbeat IPC: 0.6859 cumulative IPC: 0.6417 (Simulation time: 00 hr 36 min 39 sec)
Heartbeat CPU 0 instructions: 199500961 cycles: 247369960 heartbeat IPC: 0.3955 cumulative IPC: 0.6404 (Simulation time: 00 hr 36 min 49 sec)
Heartbeat CPU 0 instructions: 200000961 cycles: 248098461 heartbeat IPC: 0.6863 cumulative IPC: 0.6405 (Simulation time: 00 hr 36 min 54 sec)
Heartbeat CPU 0 instructions: 200500968 cycles: 249299528 heartbeat IPC: 0.4163 cumulative IPC: 0.6394 (Simulation time: 00 hr 37 min 03 sec)
Heartbeat CPU 0 instructions: 201000973 cycles: 250283474 heartbeat IPC: 0.5082 cumulative IPC: 0.6389 (Simulation time: 00 hr 37 min 11 sec)
Heartbeat CPU 0 instructions: 201500973 cycles: 251679226 heartbeat IPC: 0.3582 cumulative IPC: 0.6372 (Simulation time: 00 hr 37 min 21 sec)
Heartbeat CPU 0 instructions: 202000976 cycles: 252510723 heartbeat IPC: 0.6013 cumulative IPC: 0.6371 (Simulation time: 00 hr 37 min 28 sec)
Heartbeat CPU 0 instructions: 202500976 cycles: 254046947 heartbeat IPC: 0.3255 cumulative IPC: 0.6351 (Simulation time: 00 hr 37 min 39 sec)
Heartbeat CPU 0 instructions: 203000976 cycles: 255022118 heartbeat IPC: 0.5127 cumulative IPC: 0.6346 (Simulation time: 00 hr 37 min 47 sec)
Heartbeat CPU 0 instructions: 203500977 cycles: 256102210 heartbeat IPC: 0.4629 cumulative IPC: 0.6338 (Simulation time: 00 hr 37 min 55 sec)
Heartbeat CPU 0 instructions: 204000981 cycles: 257263925 heartbeat IPC: 0.4304 cumulative IPC: 0.6329 (Simulation time: 00 hr 38 min 04 sec)
Heartbeat CPU 0 instructions: 204500981 cycles: 258288595 heartbeat IPC: 0.488 cumulative IPC: 0.6322 (Simulation time: 00 hr 38 min 14 sec)
Heartbeat CPU 0 instructions: 205000985 cycles: 259926586 heartbeat IPC: 0.3053 cumulative IPC: 0.6301 (Simulation time: 00 hr 38 min 26 sec)
Heartbeat CPU 0 instructions: 205500985 cycles: 261442505 heartbeat IPC: 0.3298 cumulative IPC: 0.6282 (Simulation time: 00 hr 38 min 36 sec)
Heartbeat CPU 0 instructions: 206000987 cycles: 262836547 heartbeat IPC: 0.3587 cumulative IPC: 0.6267 (Simulation time: 00 hr 38 min 46 sec)
Heartbeat CPU 0 instructions: 206500987 cycles: 264110255 heartbeat IPC: 0.3926 cumulative IPC: 0.6255 (Simulation time: 00 hr 38 min 56 sec)
Heartbeat CPU 0 instructions: 207000987 cycles: 265219927 heartbeat IPC: 0.4506 cumulative IPC: 0.6248 (Simulation time: 00 hr 39 min 04 sec)
Heartbeat CPU 0 instructions: 207500987 cycles: 266630620 heartbeat IPC: 0.3544 cumulative IPC: 0.6232 (Simulation time: 00 hr 39 min 14 sec)
Heartbeat CPU 0 instructions: 208000992 cycles: 267703513 heartbeat IPC: 0.466 cumulative IPC: 0.6226 (Simulation time: 00 hr 39 min 22 sec)
Heartbeat CPU 0 instructions: 208500998 cycles: 268832013 heartbeat IPC: 0.4431 cumulative IPC: 0.6218 (Simulation time: 00 hr 39 min 30 sec)
Heartbeat CPU 0 instructions: 209001001 cycles: 269898784 heartbeat IPC: 0.4687 cumulative IPC: 0.6212 (Simulation time: 00 hr 39 min 38 sec)
Heartbeat CPU 0 instructions: 209501001 cycles: 271054528 heartbeat IPC: 0.4326 cumulative IPC: 0.6203 (Simulation time: 00 hr 39 min 47 sec)
Heartbeat CPU 0 instructions: 210001003 cycles: 272271880 heartbeat IPC: 0.4107 cumulative IPC: 0.6193 (Simulation time: 00 hr 39 min 56 sec)
Heartbeat CPU 0 instructions: 210501003 cycles: 273247273 heartbeat IPC: 0.5126 cumulative IPC: 0.6189 (Simulation time: 00 hr 40 min 03 sec)
Heartbeat CPU 0 instructions: 211001007 cycles: 274069698 heartbeat IPC: 0.608 cumulative IPC: 0.6189 (Simulation time: 00 hr 40 min 09 sec)
Heartbeat CPU 0 instructions: 211501007 cycles: 274370084 heartbeat IPC: 1.665 cumulative IPC: 0.6201 (Simulation time: 00 hr 40 min 12 sec)
Heartbeat CPU 0 instructions: 212001007 cycles: 274665206 heartbeat IPC: 1.694 cumulative IPC: 0.6213 (Simulation time: 00 hr 40 min 16 sec)
Heartbeat CPU 0 instructions: 212501008 cycles: 275578469 heartbeat IPC: 0.5475 cumulative IPC: 0.621 (Simulation time: 00 hr 40 min 23 sec)
Heartbeat CPU 0 instructions: 213001010 cycles: 277065555 heartbeat IPC: 0.3362 cumulative IPC: 0.6194 (Simulation time: 00 hr 40 min 33 sec)
Heartbeat CPU 0 instructions: 213501014 cycles: 278273872 heartbeat IPC: 0.4138 cumulative IPC: 0.6185 (Simulation time: 00 hr 40 min 42 sec)
Heartbeat CPU 0 instructions: 214001014 cycles: 279446052 heartbeat IPC: 0.4266 cumulative IPC: 0.6176 (Simulation time: 00 hr 40 min 51 sec)
Heartbeat CPU 0 instructions: 214501014 cycles: 280209711 heartbeat IPC: 0.6547 cumulative IPC: 0.6178 (Simulation time: 00 hr 40 min 57 sec)
Heartbeat CPU 0 instructions: 215001016 cycles: 281432530 heartbeat IPC: 0.4089 cumulative IPC: 0.6168 (Simulation time: 00 hr 41 min 06 sec)
Heartbeat CPU 0 instructions: 215501017 cycles: 282307277 heartbeat IPC: 0.5716 cumulative IPC: 0.6167 (Simulation time: 00 hr 41 min 12 sec)
Heartbeat CPU 0 instructions: 216001019 cycles: 283675947 heartbeat IPC: 0.3653 cumulative IPC: 0.6154 (Simulation time: 00 hr 41 min 22 sec)
Heartbeat CPU 0 instructions: 216501019 cycles: 284631415 heartbeat IPC: 0.5233 cumulative IPC: 0.6151 (Simulation time: 00 hr 41 min 29 sec)
Heartbeat CPU 0 instructions: 217001019 cycles: 285352318 heartbeat IPC: 0.6936 cumulative IPC: 0.6153 (Simulation time: 00 hr 41 min 36 sec)
Heartbeat CPU 0 instructions: 217501024 cycles: 285944760 heartbeat IPC: 0.844 cumulative IPC: 0.6158 (Simulation time: 00 hr 41 min 41 sec)
Heartbeat CPU 0 instructions: 218001024 cycles: 287260721 heartbeat IPC: 0.38 cumulative IPC: 0.6146 (Simulation time: 00 hr 41 min 51 sec)
Heartbeat CPU 0 instructions: 218501030 cycles: 288684888 heartbeat IPC: 0.3511 cumulative IPC: 0.6133 (Simulation time: 00 hr 42 min 01 sec)
Heartbeat CPU 0 instructions: 219001030 cycles: 289910730 heartbeat IPC: 0.4079 cumulative IPC: 0.6123 (Simulation time: 00 hr 42 min 10 sec)
Heartbeat CPU 0 instructions: 219501030 cycles: 291040210 heartbeat IPC: 0.4427 cumulative IPC: 0.6117 (Simulation time: 00 hr 42 min 18 sec)
Heartbeat CPU 0 instructions: 220001031 cycles: 291993375 heartbeat IPC: 0.5246 cumulative IPC: 0.6114 (Simulation time: 00 hr 42 min 25 sec)
Heartbeat CPU 0 instructions: 220501031 cycles: 293361067 heartbeat IPC: 0.3656 cumulative IPC: 0.6102 (Simulation time: 00 hr 42 min 35 sec)
Heartbeat CPU 0 instructions: 221001033 cycles: 294202965 heartbeat IPC: 0.5939 cumulative IPC: 0.6101 (Simulation time: 00 hr 42 min 42 sec)
Heartbeat CPU 0 instructions: 221501034 cycles: 294745629 heartbeat IPC: 0.9214 cumulative IPC: 0.6107 (Simulation time: 00 hr 42 min 47 sec)
Heartbeat CPU 0 instructions: 222001039 cycles: 295797546 heartbeat IPC: 0.4753 cumulative IPC: 0.6102 (Simulation time: 00 hr 42 min 54 sec)
Heartbeat CPU 0 instructions: 222501039 cycles: 296777157 heartbeat IPC: 0.5104 cumulative IPC: 0.6099 (Simulation time: 00 hr 43 min 02 sec)
Heartbeat CPU 0 instructions: 223001041 cycles: 297669669 heartbeat IPC: 0.5602 cumulative IPC: 0.6097 (Simulation time: 00 hr 43 min 08 sec)
Heartbeat CPU 0 instructions: 223501045 cycles: 298431996 heartbeat IPC: 0.6559 cumulative IPC: 0.6098 (Simulation time: 00 hr 43 min 14 sec)
Heartbeat CPU 0 instructions: 224001052 cycles: 299224676 heartbeat IPC: 0.6308 cumulative IPC: 0.6099 (Simulation time: 00 hr 43 min 21 sec)
Heartbeat CPU 0 instructions: 224501058 cycles: 300632836 heartbeat IPC: 0.3551 cumulative IPC: 0.6086 (Simulation time: 00 hr 43 min 31 sec)
Heartbeat CPU 0 instructions: 225001058 cycles: 302116255 heartbeat IPC: 0.3371 cumulative IPC: 0.6072 (Simulation time: 00 hr 43 min 41 sec)
Heartbeat CPU 0 instructions: 225501058 cycles: 303784988 heartbeat IPC: 0.2996 cumulative IPC: 0.6055 (Simulation time: 00 hr 43 min 54 sec)
Heartbeat CPU 0 instructions: 226001060 cycles: 304989653 heartbeat IPC: 0.4151 cumulative IPC: 0.6047 (Simulation time: 00 hr 44 min 02 sec)
Heartbeat CPU 0 instructions: 226501065 cycles: 306071366 heartbeat IPC: 0.4622 cumulative IPC: 0.6041 (Simulation time: 00 hr 44 min 10 sec)
Heartbeat CPU 0 instructions: 227001068 cycles: 307293246 heartbeat IPC: 0.4092 cumulative IPC: 0.6033 (Simulation time: 00 hr 44 min 19 sec)
Heartbeat CPU 0 instructions: 227501068 cycles: 308589250 heartbeat IPC: 0.3858 cumulative IPC: 0.6024 (Simulation time: 00 hr 44 min 28 sec)
Heartbeat CPU 0 instructions: 228001068 cycles: 309281907 heartbeat IPC: 0.7219 cumulative IPC: 0.6027 (Simulation time: 00 hr 44 min 34 sec)
Heartbeat CPU 0 instructions: 228501068 cycles: 310312810 heartbeat IPC: 0.485 cumulative IPC: 0.6022 (Simulation time: 00 hr 44 min 41 sec)
Heartbeat CPU 0 instructions: 229001074 cycles: 311497620 heartbeat IPC: 0.422 cumulative IPC: 0.6015 (Simulation time: 00 hr 44 min 50 sec)
Heartbeat CPU 0 instructions: 229501074 cycles: 312127311 heartbeat IPC: 0.794 cumulative IPC: 0.6019 (Simulation time: 00 hr 44 min 55 sec)
Heartbeat CPU 0 instructions: 230001075 cycles: 312779542 heartbeat IPC: 0.7666 cumulative IPC: 0.6023 (Simulation time: 00 hr 45 min 00 sec)
Heartbeat CPU 0 instructions: 230501077 cycles: 314170994 heartbeat IPC: 0.3593 cumulative IPC: 0.6012 (Simulation time: 00 hr 45 min 10 sec)
Heartbeat CPU 0 instructions: 231001080 cycles: 314954660 heartbeat IPC: 0.638 cumulative IPC: 0.6013 (Simulation time: 00 hr 45 min 16 sec)
Heartbeat CPU 0 instructions: 231501080 cycles: 315527919 heartbeat IPC: 0.8722 cumulative IPC: 0.6018 (Simulation time: 00 hr 45 min 21 sec)
Heartbeat CPU 0 instructions: 232001083 cycles: 316578023 heartbeat IPC: 0.4761 cumulative IPC: 0.6013 (Simulation time: 00 hr 45 min 29 sec)
Heartbeat CPU 0 instructions: 232501084 cycles: 317764198 heartbeat IPC: 0.4215 cumulative IPC: 0.6006 (Simulation time: 00 hr 45 min 38 sec)
Heartbeat CPU 0 instructions: 233001089 cycles: 318807603 heartbeat IPC: 0.4792 cumulative IPC: 0.6002 (Simulation time: 00 hr 45 min 45 sec)
Heartbeat CPU 0 instructions: 233501091 cycles: 319885643 heartbeat IPC: 0.4638 cumulative IPC: 0.5997 (Simulation time: 00 hr 45 min 53 sec)
Heartbeat CPU 0 instructions: 234001096 cycles: 320695494 heartbeat IPC: 0.6174 cumulative IPC: 0.5998 (Simulation time: 00 hr 45 min 59 sec)
Heartbeat CPU 0 instructions: 234501097 cycles: 321679309 heartbeat IPC: 0.5082 cumulative IPC: 0.5995 (Simulation time: 00 hr 46 min 07 sec)
Heartbeat CPU 0 instructions: 235001097 cycles: 322712478 heartbeat IPC: 0.4839 cumulative IPC: 0.5991 (Simulation time: 00 hr 46 min 14 sec)
Heartbeat CPU 0 instructions: 235501097 cycles: 323652863 heartbeat IPC: 0.5317 cumulative IPC: 0.5989 (Simulation time: 00 hr 46 min 21 sec)
Heartbeat CPU 0 instructions: 236001100 cycles: 324431789 heartbeat IPC: 0.6419 cumulative IPC: 0.599 (Simulation time: 00 hr 46 min 27 sec)
Heartbeat CPU 0 instructions: 236501101 cycles: 325630646 heartbeat IPC: 0.4171 cumulative IPC: 0.5983 (Simulation time: 00 hr 46 min 37 sec)
Heartbeat CPU 0 instructions: 237001103 cycles: 326853614 heartbeat IPC: 0.4088 cumulative IPC: 0.5976 (Simulation time: 00 hr 46 min 45 sec)
Heartbeat CPU 0 instructions: 237501103 cycles: 328267847 heartbeat IPC: 0.3535 cumulative IPC: 0.5965 (Simulation time: 00 hr 46 min 55 sec)
Heartbeat CPU 0 instructions: 238001103 cycles: 329164833 heartbeat IPC: 0.5574 cumulative IPC: 0.5964 (Simulation time: 00 hr 47 min 02 sec)
Heartbeat CPU 0 instructions: 238501106 cycles: 330287327 heartbeat IPC: 0.4454 cumulative IPC: 0.5958 (Simulation time: 00 hr 47 min 10 sec)
Heartbeat CPU 0 instructions: 239001106 cycles: 331225979 heartbeat IPC: 0.5327 cumulative IPC: 0.5956 (Simulation time: 00 hr 47 min 17 sec)
Heartbeat CPU 0 instructions: 239501106 cycles: 332836440 heartbeat IPC: 0.3105 cumulative IPC: 0.5942 (Simulation time: 00 hr 47 min 31 sec)
Heartbeat CPU 0 instructions: 240001109 cycles: 334029072 heartbeat IPC: 0.4192 cumulative IPC: 0.5936 (Simulation time: 00 hr 47 min 39 sec)
Heartbeat CPU 0 instructions: 240501110 cycles: 334382339 heartbeat IPC: 1.415 cumulative IPC: 0.5945 (Simulation time: 00 hr 47 min 43 sec)
Heartbeat CPU 0 instructions: 241001111 cycles: 335013630 heartbeat IPC: 0.792 cumulative IPC: 0.5948 (Simulation time: 00 hr 47 min 48 sec)
Heartbeat CPU 0 instructions: 241501116 cycles: 335794744 heartbeat IPC: 0.6401 cumulative IPC: 0.595 (Simulation time: 00 hr 47 min 54 sec)
Heartbeat CPU 0 instructions: 242001119 cycles: 337375917 heartbeat IPC: 0.3162 cumulative IPC: 0.5936 (Simulation time: 00 hr 48 min 04 sec)
Heartbeat CPU 0 instructions: 242501125 cycles: 338787121 heartbeat IPC: 0.3543 cumulative IPC: 0.5926 (Simulation time: 00 hr 48 min 14 sec)
Heartbeat CPU 0 instructions: 243001125 cycles: 339758452 heartbeat IPC: 0.5148 cumulative IPC: 0.5923 (Simulation time: 00 hr 48 min 21 sec)
Heartbeat CPU 0 instructions: 243501125 cycles: 340358170 heartbeat IPC: 0.8337 cumulative IPC: 0.5928 (Simulation time: 00 hr 48 min 26 sec)
Heartbeat CPU 0 instructions: 244001125 cycles: 341413314 heartbeat IPC: 0.4739 cumulative IPC: 0.5924 (Simulation time: 00 hr 48 min 34 sec)
Heartbeat CPU 0 instructions: 244501132 cycles: 343187816 heartbeat IPC: 0.2818 cumulative IPC: 0.5907 (Simulation time: 00 hr 48 min 49 sec)
Heartbeat CPU 0 instructions: 245001132 cycles: 344385644 heartbeat IPC: 0.4174 cumulative IPC: 0.5901 (Simulation time: 00 hr 48 min 57 sec)
Heartbeat CPU 0 instructions: 245501132 cycles: 345574009 heartbeat IPC: 0.4207 cumulative IPC: 0.5895 (Simulation time: 00 hr 49 min 06 sec)
Heartbeat CPU 0 instructions: 246001134 cycles: 346634230 heartbeat IPC: 0.4716 cumulative IPC: 0.5891 (Simulation time: 00 hr 49 min 14 sec)
Heartbeat CPU 0 instructions: 246501134 cycles: 347348945 heartbeat IPC: 0.6996 cumulative IPC: 0.5893 (Simulation time: 00 hr 49 min 20 sec)
Heartbeat CPU 0 instructions: 247001138 cycles: 348127446 heartbeat IPC: 0.6423 cumulative IPC: 0.5895 (Simulation time: 00 hr 49 min 26 sec)
Heartbeat CPU 0 instructions: 247501138 cycles: 349587009 heartbeat IPC: 0.3426 cumulative IPC: 0.5884 (Simulation time: 00 hr 49 min 35 sec)
Heartbeat CPU 0 instructions: 248001140 cycles: 350535022 heartbeat IPC: 0.5274 cumulative IPC: 0.5882 (Simulation time: 00 hr 49 min 42 sec)
Heartbeat CPU 0 instructions: 248501141 cycles: 351888137 heartbeat IPC: 0.3695 cumulative IPC: 0.5873 (Simulation time: 00 hr 49 min 52 sec)
Heartbeat CPU 0 instructions: 249001142 cycles: 352984857 heartbeat IPC: 0.4559 cumulative IPC: 0.5869 (Simulation time: 00 hr 49 min 59 sec)
Heartbeat CPU 0 instructions: 249501143 cycles: 354120234 heartbeat IPC: 0.4404 cumulative IPC: 0.5864 (Simulation time: 00 hr 50 min 07 sec)
Simulation finished CPU 0 instructions: 200000000 cycles: 341240591 cumulative IPC: 0.5861 (Simulation time: 00 hr 50 min 15 sec)
Simulation complete CPU 0 instructions: 200000000 cycles: 341240591 cumulative IPC: 0.5861 (Simulation time: 00 hr 50 min 15 sec)

ChampSim completed all CPUs

=== Simulation ===
CPU 0 runs /local-ssd/ben/dpc4-traces/gtraces_v2/tango_0002.champsim.gz

Region of Interest Statistics

CPU 0 cumulative IPC: 0.5861 instructions: 200000000 cycles: 341240591
CPU 0 Branch Prediction Accuracy: 89.4% MPKI: 19.18 Average ROB Occupancy at Mispredict: 24.17
Branch type MPKI
BRANCH_DIRECT_JUMP: 0.5358
BRANCH_INDIRECT: 0.4551
BRANCH_CONDITIONAL: 16.34
BRANCH_DIRECT_CALL: 0.803
BRANCH_INDIRECT_CALL: 0.2726
BRANCH_RETURN: 0.774

cpu0->cpu0_STLB TOTAL        ACCESS:    2307266 HIT:    1692296 MISS:     614970 MSHR_MERGE:          0
cpu0->cpu0_STLB LOAD         ACCESS:    2307266 HIT:    1692296 MISS:     614970 MSHR_MERGE:          0
cpu0->cpu0_STLB RFO          ACCESS:          0 HIT:          0 MISS:          0 MSHR_MERGE:          0
cpu0->cpu0_STLB PREFETCH     ACCESS:          0 HIT:          0 MISS:          0 MSHR_MERGE:          0
cpu0->cpu0_STLB WRITE        ACCESS:          0 HIT:          0 MISS:          0 MSHR_MERGE:          0
cpu0->cpu0_STLB TRANSLATION  ACCESS:          0 HIT:          0 MISS:          0 MSHR_MERGE:          0
cpu0->cpu0_STLB PREFETCH REQUESTED:          0 ISSUED:          0 USEFUL:          0 USELESS:          0
cpu0->cpu0_STLB AVERAGE MISS LATENCY: 121.6 cycles
cpu0->cpu0_L2C TOTAL        ACCESS:   10279120 HIT:    7659172 MISS:    2619948 MSHR_MERGE:     176693
cpu0->cpu0_L2C LOAD         ACCESS:    4711207 HIT:    3728036 MISS:     983171 MSHR_MERGE:      29516
cpu0->cpu0_L2C RFO          ACCESS:     773252 HIT:     215829 MISS:     557423 MSHR_MERGE:       5411
cpu0->cpu0_L2C PREFETCH     ACCESS:    2910809 HIT:    2052906 MISS:     857903 MSHR_MERGE:     141766
cpu0->cpu0_L2C WRITE        ACCESS:    1207475 HIT:    1207449 MISS:         26 MSHR_MERGE:          0
cpu0->cpu0_L2C TRANSLATION  ACCESS:     676377 HIT:     454952 MISS:     221425 MSHR_MERGE:          0
cpu0->cpu0_L2C PREFETCH REQUESTED:    2973353 ISSUED:    2910809 USEFUL:     257558 USELESS:     457654
cpu0->cpu0_L2C AVERAGE MISS LATENCY: 206.7 cycles
cpu0->cpu0_L1I TOTAL        ACCESS:   16504974 HIT:   12924524 MISS:    3580450 MSHR_MERGE:     792613
cpu0->cpu0_L1I LOAD         ACCESS:   16504974 HIT:   12924524 MISS:    3580450 MSHR_MERGE:     792613
cpu0->cpu0_L1I RFO          ACCESS:          0 HIT:          0 MISS:          0 MSHR_MERGE:          0
cpu0->cpu0_L1I PREFETCH     ACCESS:          0 HIT:          0 MISS:          0 MSHR_MERGE:          0
cpu0->cpu0_L1I WRITE        ACCESS:          0 HIT:          0 MISS:          0 MSHR_MERGE:          0
cpu0->cpu0_L1I TRANSLATION  ACCESS:          0 HIT:          0 MISS:          0 MSHR_MERGE:          0
cpu0->cpu0_L1I PREFETCH REQUESTED:          0 ISSUED:          0 USEFUL:          0 USELESS:          0
cpu0->cpu0_L1I AVERAGE MISS LATENCY: 34.29 cycles
cpu0->cpu0_L1D TOTAL        ACCESS:   61159512 HIT:   54378439 MISS:    6781073 MSHR_MERGE:    3408042
cpu0->cpu0_L1D LOAD         ACCESS:   32688485 HIT:   29995423 MISS:    2693062 MSHR_MERGE:     769683
cpu0->cpu0_L1D RFO          ACCESS:          0 HIT:          0 MISS:          0 MSHR_MERGE:          0
cpu0->cpu0_L1D PREFETCH     ACCESS:          0 HIT:          0 MISS:          0 MSHR_MERGE:          0
cpu0->cpu0_L1D WRITE        ACCESS:   26876831 HIT:   23470068 MISS:    3406763 MSHR_MERGE:    2633488
cpu0->cpu0_L1D TRANSLATION  ACCESS:    1594196 HIT:     912948 MISS:     681248 MSHR_MERGE:       4871
cpu0->cpu0_L1D PREFETCH REQUESTED:          0 ISSUED:          0 USEFUL:          0 USELESS:          0
cpu0->cpu0_L1D AVERAGE MISS LATENCY: 94.18 cycles
cpu0->cpu0_ITLB TOTAL        ACCESS:   13851399 HIT:   13383627 MISS:     467772 MSHR_MERGE:     221481
cpu0->cpu0_ITLB LOAD         ACCESS:   13851399 HIT:   13383627 MISS:     467772 MSHR_MERGE:     221481
cpu0->cpu0_ITLB RFO          ACCESS:          0 HIT:          0 MISS:          0 MSHR_MERGE:          0
cpu0->cpu0_ITLB PREFETCH     ACCESS:          0 HIT:          0 MISS:          0 MSHR_MERGE:          0
cpu0->cpu0_ITLB WRITE        ACCESS:          0 HIT:          0 MISS:          0 MSHR_MERGE:          0
cpu0->cpu0_ITLB TRANSLATION  ACCESS:          0 HIT:          0 MISS:          0 MSHR_MERGE:          0
cpu0->cpu0_ITLB PREFETCH REQUESTED:          0 ISSUED:          0 USEFUL:          0 USELESS:          0
cpu0->cpu0_ITLB AVERAGE MISS LATENCY: 20.6 cycles
cpu0->cpu0_DTLB TOTAL        ACCESS:   56941576 HIT:   53217790 MISS:    3723786 MSHR_MERGE:    1662810
cpu0->cpu0_DTLB LOAD         ACCESS:   56941576 HIT:   53217790 MISS:    3723786 MSHR_MERGE:    1662810
cpu0->cpu0_DTLB RFO          ACCESS:          0 HIT:          0 MISS:          0 MSHR_MERGE:          0
cpu0->cpu0_DTLB PREFETCH     ACCESS:          0 HIT:          0 MISS:          0 MSHR_MERGE:          0
cpu0->cpu0_DTLB WRITE        ACCESS:          0 HIT:          0 MISS:          0 MSHR_MERGE:          0
cpu0->cpu0_DTLB TRANSLATION  ACCESS:          0 HIT:          0 MISS:          0 MSHR_MERGE:          0
cpu0->cpu0_DTLB PREFETCH REQUESTED:          0 ISSUED:          0 USEFUL:          0 USELESS:          0
cpu0->cpu0_DTLB AVERAGE MISS LATENCY: 39.72 cycles
cpu0->LLC TOTAL        ACCESS:    3851855 HIT:     982228 MISS:    2869627 MSHR_MERGE:      98165
cpu0->LLC LOAD         ACCESS:     953655 HIT:     236917 MISS:     716738 MSHR_MERGE:       1711
cpu0->LLC RFO          ACCESS:     552012 HIT:      16704 MISS:     535308 MSHR_MERGE:        125
cpu0->LLC PREFETCH     ACCESS:    1274718 HIT:     278942 MISS:     995776 MSHR_MERGE:      96329
cpu0->LLC WRITE        ACCESS:     850045 HIT:     413683 MISS:     436362 MSHR_MERGE:          0
cpu0->LLC TRANSLATION  ACCESS:     221425 HIT:      35982 MISS:     185443 MSHR_MERGE:          0
cpu0->LLC PREFETCH REQUESTED:     577194 ISSUED:     558581 USEFUL:      78857 USELESS:     281122
cpu0->LLC AVERAGE MISS LATENCY: 174.6 cycles

DRAM Statistics

Channel 0 RQ ROW_BUFFER_HIT:      30947
  ROW_BUFFER_MISS:    2304089
  AVG DBUS CONGESTED CYCLE: 25.88
Channel 0 WQ ROW_BUFFER_HIT:     207187
  ROW_BUFFER_MISS:     596189
  FULL:        954
Channel 0 REFRESHES ISSUED:      28434
BERTI Stats...
