[VMEM] WARNING: physical memory size is smaller than virtual memory size.
Berti Gaze Initialized with Sets: 64 Ways: 12

*** ChampSim Multicore Out-of-Order Simulator ***
Warmup Instructions: 50000000
Simulation Instructions: 200000000
Number of CPUs: 1
Page size: 4096
Core 0: /local-ssd/ben/dpc4-traces/gtraces_v2/sierra.a.3_0000.champsim.gz
Off-chip DRAM Size: 64 GiB Channels: 1 Width: 64-bit Data Rate: 4807 MT/s
[BTB] WARNING: target of return is a lower address than the corresponding call. This is usually a problem with your trace.
[BTB] WARNING: target of return is a lower address than the corresponding call. This is usually a problem with your trace.
[BTB] WARNING: target of return is a lower address than the corresponding call. This is usually a problem with your trace.
[BTB] WARNING: target of return is a lower address than the corresponding call. This is usually a problem with your trace.
[BTB] WARNING: target of return is a lower address than the corresponding call. This is usually a problem with your trace.
[BTB] WARNING: target of return is a lower address than the corresponding call. This is usually a problem with your trace.
[BTB] WARNING: target of return is a lower address than the corresponding call. This is usually a problem with your trace.
[BTB] WARNING: target of return is a lower address than the corresponding call. This is usually a problem with your trace.
[BTB] WARNING: target of return is a lower address than the corresponding call. This is usually a problem with your trace.
[BTB] WARNING: target of return is a lower address than the corresponding call. This is usually a problem with your trace.
Heartbeat CPU 0 instructions: 500000 cycles: 183849 heartbeat IPC: 2.72 cumulative IPC: 2.72 (Simulation time: 00 hr 00 min 03 sec)
Heartbeat CPU 0 instructions: 1000001 cycles: 422505 heartbeat IPC: 2.095 cumulative IPC: 2.367 (Simulation time: 00 hr 00 min 07 sec)
Heartbeat CPU 0 instructions: 1500007 cycles: 590119 heartbeat IPC: 2.983 cumulative IPC: 2.542 (Simulation time: 00 hr 00 min 10 sec)
Heartbeat CPU 0 instructions: 2000010 cycles: 780195 heartbeat IPC: 2.631 cumulative IPC: 2.563 (Simulation time: 00 hr 00 min 13 sec)
Heartbeat CPU 0 instructions: 2500016 cycles: 947264 heartbeat IPC: 2.993 cumulative IPC: 2.639 (Simulation time: 00 hr 00 min 16 sec)
Heartbeat CPU 0 instructions: 3000020 cycles: 1148669 heartbeat IPC: 2.483 cumulative IPC: 2.612 (Simulation time: 00 hr 00 min 19 sec)
Heartbeat CPU 0 instructions: 3500020 cycles: 1287340 heartbeat IPC: 3.606 cumulative IPC: 2.719 (Simulation time: 00 hr 00 min 22 sec)
Heartbeat CPU 0 instructions: 4000020 cycles: 1443196 heartbeat IPC: 3.208 cumulative IPC: 2.772 (Simulation time: 00 hr 00 min 25 sec)
Heartbeat CPU 0 instructions: 4500024 cycles: 1609695 heartbeat IPC: 3.003 cumulative IPC: 2.796 (Simulation time: 00 hr 00 min 28 sec)
Heartbeat CPU 0 instructions: 5000028 cycles: 1767065 heartbeat IPC: 3.177 cumulative IPC: 2.83 (Simulation time: 00 hr 00 min 30 sec)
Heartbeat CPU 0 instructions: 5500032 cycles: 1902755 heartbeat IPC: 3.685 cumulative IPC: 2.891 (Simulation time: 00 hr 00 min 33 sec)
Heartbeat CPU 0 instructions: 6000036 cycles: 2025356 heartbeat IPC: 4.078 cumulative IPC: 2.962 (Simulation time: 00 hr 00 min 35 sec)
Heartbeat CPU 0 instructions: 6500037 cycles: 2150550 heartbeat IPC: 3.994 cumulative IPC: 3.022 (Simulation time: 00 hr 00 min 37 sec)
Heartbeat CPU 0 instructions: 7000038 cycles: 2271578 heartbeat IPC: 4.131 cumulative IPC: 3.082 (Simulation time: 00 hr 00 min 39 sec)
Heartbeat CPU 0 instructions: 7500038 cycles: 2393125 heartbeat IPC: 4.114 cumulative IPC: 3.134 (Simulation time: 00 hr 00 min 41 sec)
Heartbeat CPU 0 instructions: 8000041 cycles: 2493573 heartbeat IPC: 4.978 cumulative IPC: 3.208 (Simulation time: 00 hr 00 min 42 sec)
Heartbeat CPU 0 instructions: 8500041 cycles: 2593573 heartbeat IPC: 5 cumulative IPC: 3.277 (Simulation time: 00 hr 00 min 43 sec)
Heartbeat CPU 0 instructions: 9000041 cycles: 2693573 heartbeat IPC: 5 cumulative IPC: 3.341 (Simulation time: 00 hr 00 min 44 sec)
Heartbeat CPU 0 instructions: 9500043 cycles: 2853203 heartbeat IPC: 3.132 cumulative IPC: 3.33 (Simulation time: 00 hr 00 min 47 sec)
Heartbeat CPU 0 instructions: 10000044 cycles: 3010361 heartbeat IPC: 3.182 cumulative IPC: 3.322 (Simulation time: 00 hr 00 min 50 sec)
Heartbeat CPU 0 instructions: 10500047 cycles: 3187072 heartbeat IPC: 2.829 cumulative IPC: 3.295 (Simulation time: 00 hr 00 min 53 sec)
Heartbeat CPU 0 instructions: 11000048 cycles: 3338704 heartbeat IPC: 3.297 cumulative IPC: 3.295 (Simulation time: 00 hr 00 min 56 sec)
Heartbeat CPU 0 instructions: 11500055 cycles: 3479664 heartbeat IPC: 3.547 cumulative IPC: 3.305 (Simulation time: 00 hr 00 min 59 sec)
Heartbeat CPU 0 instructions: 12000060 cycles: 3633909 heartbeat IPC: 3.242 cumulative IPC: 3.302 (Simulation time: 00 hr 01 min 01 sec)
Heartbeat CPU 0 instructions: 12500062 cycles: 3791085 heartbeat IPC: 3.181 cumulative IPC: 3.297 (Simulation time: 00 hr 01 min 04 sec)
Heartbeat CPU 0 instructions: 13000062 cycles: 3923914 heartbeat IPC: 3.764 cumulative IPC: 3.313 (Simulation time: 00 hr 01 min 07 sec)
Heartbeat CPU 0 instructions: 13500067 cycles: 4043819 heartbeat IPC: 4.17 cumulative IPC: 3.338 (Simulation time: 00 hr 01 min 09 sec)
Heartbeat CPU 0 instructions: 14000072 cycles: 4205654 heartbeat IPC: 3.09 cumulative IPC: 3.329 (Simulation time: 00 hr 01 min 12 sec)
Heartbeat CPU 0 instructions: 14500072 cycles: 4341880 heartbeat IPC: 3.67 cumulative IPC: 3.34 (Simulation time: 00 hr 01 min 15 sec)
Heartbeat CPU 0 instructions: 15000073 cycles: 4487716 heartbeat IPC: 3.429 cumulative IPC: 3.342 (Simulation time: 00 hr 01 min 18 sec)
Heartbeat CPU 0 instructions: 15500073 cycles: 4604451 heartbeat IPC: 4.283 cumulative IPC: 3.366 (Simulation time: 00 hr 01 min 20 sec)
Heartbeat CPU 0 instructions: 16000077 cycles: 4756321 heartbeat IPC: 3.292 cumulative IPC: 3.364 (Simulation time: 00 hr 01 min 22 sec)
Heartbeat CPU 0 instructions: 16500079 cycles: 4890983 heartbeat IPC: 3.713 cumulative IPC: 3.374 (Simulation time: 00 hr 01 min 25 sec)
Heartbeat CPU 0 instructions: 17000081 cycles: 5019098 heartbeat IPC: 3.903 cumulative IPC: 3.387 (Simulation time: 00 hr 01 min 28 sec)
Heartbeat CPU 0 instructions: 17500085 cycles: 5136066 heartbeat IPC: 4.275 cumulative IPC: 3.407 (Simulation time: 00 hr 01 min 30 sec)
Heartbeat CPU 0 instructions: 18000089 cycles: 5276215 heartbeat IPC: 3.568 cumulative IPC: 3.412 (Simulation time: 00 hr 01 min 32 sec)
Heartbeat CPU 0 instructions: 18500095 cycles: 5436103 heartbeat IPC: 3.127 cumulative IPC: 3.403 (Simulation time: 00 hr 01 min 35 sec)
Heartbeat CPU 0 instructions: 19000099 cycles: 5589530 heartbeat IPC: 3.259 cumulative IPC: 3.399 (Simulation time: 00 hr 01 min 38 sec)
Heartbeat CPU 0 instructions: 19500101 cycles: 5743633 heartbeat IPC: 3.245 cumulative IPC: 3.395 (Simulation time: 00 hr 01 min 41 sec)
Heartbeat CPU 0 instructions: 20000105 cycles: 5890341 heartbeat IPC: 3.408 cumulative IPC: 3.395 (Simulation time: 00 hr 01 min 44 sec)
Heartbeat CPU 0 instructions: 20500112 cycles: 6054707 heartbeat IPC: 3.042 cumulative IPC: 3.386 (Simulation time: 00 hr 01 min 47 sec)
Heartbeat CPU 0 instructions: 21000112 cycles: 6195734 heartbeat IPC: 3.545 cumulative IPC: 3.389 (Simulation time: 00 hr 01 min 50 sec)
Heartbeat CPU 0 instructions: 21500114 cycles: 6333979 heartbeat IPC: 3.617 cumulative IPC: 3.394 (Simulation time: 00 hr 01 min 52 sec)
Heartbeat CPU 0 instructions: 22000120 cycles: 6463670 heartbeat IPC: 3.855 cumulative IPC: 3.404 (Simulation time: 00 hr 01 min 55 sec)
Heartbeat CPU 0 instructions: 22500121 cycles: 6590571 heartbeat IPC: 3.94 cumulative IPC: 3.414 (Simulation time: 00 hr 01 min 57 sec)
Heartbeat CPU 0 instructions: 23000122 cycles: 6713177 heartbeat IPC: 4.078 cumulative IPC: 3.426 (Simulation time: 00 hr 02 min 00 sec)
Heartbeat CPU 0 instructions: 23500127 cycles: 6843794 heartbeat IPC: 3.828 cumulative IPC: 3.434 (Simulation time: 00 hr 02 min 03 sec)
Heartbeat CPU 0 instructions: 24000131 cycles: 6981958 heartbeat IPC: 3.619 cumulative IPC: 3.437 (Simulation time: 00 hr 02 min 05 sec)
Heartbeat CPU 0 instructions: 24500137 cycles: 7132547 heartbeat IPC: 3.32 cumulative IPC: 3.435 (Simulation time: 00 hr 02 min 08 sec)
Heartbeat CPU 0 instructions: 25000141 cycles: 7287569 heartbeat IPC: 3.225 cumulative IPC: 3.431 (Simulation time: 00 hr 02 min 11 sec)
Heartbeat CPU 0 instructions: 25500148 cycles: 7432344 heartbeat IPC: 3.454 cumulative IPC: 3.431 (Simulation time: 00 hr 02 min 13 sec)
Heartbeat CPU 0 instructions: 26000153 cycles: 7619797 heartbeat IPC: 2.667 cumulative IPC: 3.412 (Simulation time: 00 hr 02 min 17 sec)
Heartbeat CPU 0 instructions: 26500158 cycles: 7775933 heartbeat IPC: 3.202 cumulative IPC: 3.408 (Simulation time: 00 hr 02 min 20 sec)
Heartbeat CPU 0 instructions: 27000161 cycles: 7917550 heartbeat IPC: 3.531 cumulative IPC: 3.41 (Simulation time: 00 hr 02 min 22 sec)
Heartbeat CPU 0 instructions: 27500162 cycles: 8054772 heartbeat IPC: 3.644 cumulative IPC: 3.414 (Simulation time: 00 hr 02 min 25 sec)
Heartbeat CPU 0 instructions: 28000166 cycles: 8186770 heartbeat IPC: 3.788 cumulative IPC: 3.42 (Simulation time: 00 hr 02 min 28 sec)
Heartbeat CPU 0 instructions: 28500172 cycles: 8338737 heartbeat IPC: 3.29 cumulative IPC: 3.418 (Simulation time: 00 hr 02 min 31 sec)
Heartbeat CPU 0 instructions: 29000172 cycles: 8487005 heartbeat IPC: 3.372 cumulative IPC: 3.417 (Simulation time: 00 hr 02 min 33 sec)
Heartbeat CPU 0 instructions: 29500174 cycles: 8624766 heartbeat IPC: 3.629 cumulative IPC: 3.42 (Simulation time: 00 hr 02 min 36 sec)
Heartbeat CPU 0 instructions: 30000174 cycles: 8776810 heartbeat IPC: 3.289 cumulative IPC: 3.418 (Simulation time: 00 hr 02 min 39 sec)
Heartbeat CPU 0 instructions: 30500174 cycles: 8933720 heartbeat IPC: 3.187 cumulative IPC: 3.414 (Simulation time: 00 hr 02 min 42 sec)
Heartbeat CPU 0 instructions: 31000176 cycles: 9074569 heartbeat IPC: 3.55 cumulative IPC: 3.416 (Simulation time: 00 hr 02 min 45 sec)
Heartbeat CPU 0 instructions: 31500179 cycles: 9213012 heartbeat IPC: 3.612 cumulative IPC: 3.419 (Simulation time: 00 hr 02 min 47 sec)
Heartbeat CPU 0 instructions: 32000186 cycles: 9361169 heartbeat IPC: 3.375 cumulative IPC: 3.418 (Simulation time: 00 hr 02 min 50 sec)
Heartbeat CPU 0 instructions: 32500188 cycles: 9505908 heartbeat IPC: 3.455 cumulative IPC: 3.419 (Simulation time: 00 hr 02 min 53 sec)
Heartbeat CPU 0 instructions: 33000193 cycles: 9650360 heartbeat IPC: 3.461 cumulative IPC: 3.42 (Simulation time: 00 hr 02 min 56 sec)
Heartbeat CPU 0 instructions: 33500199 cycles: 9781916 heartbeat IPC: 3.801 cumulative IPC: 3.425 (Simulation time: 00 hr 02 min 59 sec)
Heartbeat CPU 0 instructions: 34000205 cycles: 9933921 heartbeat IPC: 3.289 cumulative IPC: 3.423 (Simulation time: 00 hr 03 min 02 sec)
Heartbeat CPU 0 instructions: 34500212 cycles: 10077222 heartbeat IPC: 3.489 cumulative IPC: 3.424 (Simulation time: 00 hr 03 min 04 sec)
Heartbeat CPU 0 instructions: 35000216 cycles: 10212603 heartbeat IPC: 3.693 cumulative IPC: 3.427 (Simulation time: 00 hr 03 min 07 sec)
Heartbeat CPU 0 instructions: 35500218 cycles: 10351795 heartbeat IPC: 3.592 cumulative IPC: 3.429 (Simulation time: 00 hr 03 min 10 sec)
Heartbeat CPU 0 instructions: 36000223 cycles: 10509987 heartbeat IPC: 3.161 cumulative IPC: 3.425 (Simulation time: 00 hr 03 min 13 sec)
Heartbeat CPU 0 instructions: 36500224 cycles: 10662799 heartbeat IPC: 3.272 cumulative IPC: 3.423 (Simulation time: 00 hr 03 min 15 sec)
Heartbeat CPU 0 instructions: 37000224 cycles: 10796557 heartbeat IPC: 3.738 cumulative IPC: 3.427 (Simulation time: 00 hr 03 min 17 sec)
Heartbeat CPU 0 instructions: 37500231 cycles: 10926188 heartbeat IPC: 3.857 cumulative IPC: 3.432 (Simulation time: 00 hr 03 min 20 sec)
Heartbeat CPU 0 instructions: 38000235 cycles: 11048491 heartbeat IPC: 4.088 cumulative IPC: 3.439 (Simulation time: 00 hr 03 min 22 sec)
Heartbeat CPU 0 instructions: 38500242 cycles: 11189664 heartbeat IPC: 3.542 cumulative IPC: 3.441 (Simulation time: 00 hr 03 min 24 sec)
Heartbeat CPU 0 instructions: 39000242 cycles: 11339800 heartbeat IPC: 3.33 cumulative IPC: 3.439 (Simulation time: 00 hr 03 min 27 sec)
Heartbeat CPU 0 instructions: 39500247 cycles: 11479117 heartbeat IPC: 3.589 cumulative IPC: 3.441 (Simulation time: 00 hr 03 min 30 sec)
Heartbeat CPU 0 instructions: 40000248 cycles: 11608296 heartbeat IPC: 3.871 cumulative IPC: 3.446 (Simulation time: 00 hr 03 min 32 sec)
Heartbeat CPU 0 instructions: 40500250 cycles: 11773523 heartbeat IPC: 3.026 cumulative IPC: 3.44 (Simulation time: 00 hr 03 min 35 sec)
Heartbeat CPU 0 instructions: 41000256 cycles: 11905694 heartbeat IPC: 3.783 cumulative IPC: 3.444 (Simulation time: 00 hr 03 min 38 sec)
Heartbeat CPU 0 instructions: 41500257 cycles: 12039300 heartbeat IPC: 3.742 cumulative IPC: 3.447 (Simulation time: 00 hr 03 min 41 sec)
Heartbeat CPU 0 instructions: 42000264 cycles: 12164906 heartbeat IPC: 3.981 cumulative IPC: 3.453 (Simulation time: 00 hr 03 min 43 sec)
Heartbeat CPU 0 instructions: 42500271 cycles: 12297811 heartbeat IPC: 3.762 cumulative IPC: 3.456 (Simulation time: 00 hr 03 min 46 sec)
Heartbeat CPU 0 instructions: 43000277 cycles: 12440954 heartbeat IPC: 3.493 cumulative IPC: 3.456 (Simulation time: 00 hr 03 min 49 sec)
Heartbeat CPU 0 instructions: 43500281 cycles: 12575003 heartbeat IPC: 3.73 cumulative IPC: 3.459 (Simulation time: 00 hr 03 min 52 sec)
Heartbeat CPU 0 instructions: 44000286 cycles: 12716607 heartbeat IPC: 3.531 cumulative IPC: 3.46 (Simulation time: 00 hr 03 min 54 sec)
Heartbeat CPU 0 instructions: 44500287 cycles: 12855633 heartbeat IPC: 3.596 cumulative IPC: 3.462 (Simulation time: 00 hr 03 min 57 sec)
Heartbeat CPU 0 instructions: 45000289 cycles: 13002527 heartbeat IPC: 3.404 cumulative IPC: 3.461 (Simulation time: 00 hr 04 min 00 sec)
Heartbeat CPU 0 instructions: 45500290 cycles: 13136356 heartbeat IPC: 3.736 cumulative IPC: 3.464 (Simulation time: 00 hr 04 min 03 sec)
Heartbeat CPU 0 instructions: 46000294 cycles: 13273921 heartbeat IPC: 3.635 cumulative IPC: 3.465 (Simulation time: 00 hr 04 min 05 sec)
Heartbeat CPU 0 instructions: 46500301 cycles: 13412249 heartbeat IPC: 3.615 cumulative IPC: 3.467 (Simulation time: 00 hr 04 min 08 sec)
Heartbeat CPU 0 instructions: 47000308 cycles: 13541571 heartbeat IPC: 3.866 cumulative IPC: 3.471 (Simulation time: 00 hr 04 min 10 sec)
Heartbeat CPU 0 instructions: 47500311 cycles: 13684303 heartbeat IPC: 3.503 cumulative IPC: 3.471 (Simulation time: 00 hr 04 min 12 sec)
Heartbeat CPU 0 instructions: 48000316 cycles: 13810301 heartbeat IPC: 3.968 cumulative IPC: 3.476 (Simulation time: 00 hr 04 min 14 sec)
Heartbeat CPU 0 instructions: 48500322 cycles: 13948120 heartbeat IPC: 3.628 cumulative IPC: 3.477 (Simulation time: 00 hr 04 min 17 sec)
Heartbeat CPU 0 instructions: 49000329 cycles: 14078812 heartbeat IPC: 3.826 cumulative IPC: 3.48 (Simulation time: 00 hr 04 min 19 sec)
Heartbeat CPU 0 instructions: 49500335 cycles: 14218148 heartbeat IPC: 3.588 cumulative IPC: 3.481 (Simulation time: 00 hr 04 min 22 sec)
Warmup halting CPU 0 at instruction 50000000 cycle 14375312 for remainder of phase
Warmup finished CPU 0 instructions: 50000000 cycles: 14375312 cumulative IPC: 3.478 (Simulation time: 00 hr 04 min 25 sec)
Warmup complete CPU 0 instructions: 50000000 cycles: 14375312 cumulative IPC: 3.478 (Simulation time: 00 hr 04 min 25 sec)
Heartbeat CPU 0 instructions: 50000336 cycles: 14375358 heartbeat IPC: 3.18 cumulative IPC: 7.304 (Simulation time: 00 hr 04 min 25 sec)
Heartbeat CPU 0 instructions: 50500336 cycles: 15484792 heartbeat IPC: 0.4507 cumulative IPC: 0.451 (Simulation time: 00 hr 04 min 34 sec)
Heartbeat CPU 0 instructions: 51000343 cycles: 16880088 heartbeat IPC: 0.3584 cumulative IPC: 0.3994 (Simulation time: 00 hr 04 min 44 sec)
Heartbeat CPU 0 instructions: 51500344 cycles: 17821885 heartbeat IPC: 0.5309 cumulative IPC: 0.4353 (Simulation time: 00 hr 04 min 52 sec)
Heartbeat CPU 0 instructions: 52000344 cycles: 18985244 heartbeat IPC: 0.4298 cumulative IPC: 0.4339 (Simulation time: 00 hr 05 min 01 sec)
Heartbeat CPU 0 instructions: 52500344 cycles: 20246947 heartbeat IPC: 0.3963 cumulative IPC: 0.4258 (Simulation time: 00 hr 05 min 10 sec)
Heartbeat CPU 0 instructions: 53000344 cycles: 21052779 heartbeat IPC: 0.6205 cumulative IPC: 0.4493 (Simulation time: 00 hr 05 min 17 sec)
Heartbeat CPU 0 instructions: 53500346 cycles: 22014775 heartbeat IPC: 0.5198 cumulative IPC: 0.4582 (Simulation time: 00 hr 05 min 24 sec)
Heartbeat CPU 0 instructions: 54000347 cycles: 23710711 heartbeat IPC: 0.2948 cumulative IPC: 0.4285 (Simulation time: 00 hr 05 min 36 sec)
Heartbeat CPU 0 instructions: 54500351 cycles: 25081150 heartbeat IPC: 0.3648 cumulative IPC: 0.4204 (Simulation time: 00 hr 05 min 46 sec)
Heartbeat CPU 0 instructions: 55000351 cycles: 26736193 heartbeat IPC: 0.3021 cumulative IPC: 0.4045 (Simulation time: 00 hr 05 min 58 sec)
Heartbeat CPU 0 instructions: 55500351 cycles: 27660493 heartbeat IPC: 0.5409 cumulative IPC: 0.414 (Simulation time: 00 hr 06 min 06 sec)
Heartbeat CPU 0 instructions: 56000354 cycles: 28897383 heartbeat IPC: 0.4042 cumulative IPC: 0.4132 (Simulation time: 00 hr 06 min 15 sec)
Heartbeat CPU 0 instructions: 56500360 cycles: 30704530 heartbeat IPC: 0.2767 cumulative IPC: 0.3981 (Simulation time: 00 hr 06 min 29 sec)
Heartbeat CPU 0 instructions: 57000364 cycles: 31482555 heartbeat IPC: 0.6427 cumulative IPC: 0.4092 (Simulation time: 00 hr 06 min 38 sec)
Heartbeat CPU 0 instructions: 57500364 cycles: 33119983 heartbeat IPC: 0.3054 cumulative IPC: 0.4001 (Simulation time: 00 hr 06 min 53 sec)
Heartbeat CPU 0 instructions: 58000369 cycles: 35721679 heartbeat IPC: 0.1922 cumulative IPC: 0.3748 (Simulation time: 00 hr 07 min 13 sec)
Heartbeat CPU 0 instructions: 58500369 cycles: 37365106 heartbeat IPC: 0.3042 cumulative IPC: 0.3697 (Simulation time: 00 hr 07 min 25 sec)
Heartbeat CPU 0 instructions: 59000369 cycles: 38521118 heartbeat IPC: 0.4325 cumulative IPC: 0.3728 (Simulation time: 00 hr 07 min 34 sec)
Heartbeat CPU 0 instructions: 59500369 cycles: 40302013 heartbeat IPC: 0.2808 cumulative IPC: 0.3664 (Simulation time: 00 hr 07 min 47 sec)
Heartbeat CPU 0 instructions: 60000371 cycles: 41846097 heartbeat IPC: 0.3238 cumulative IPC: 0.364 (Simulation time: 00 hr 07 min 59 sec)
Heartbeat CPU 0 instructions: 60500375 cycles: 43846068 heartbeat IPC: 0.25 cumulative IPC: 0.3563 (Simulation time: 00 hr 08 min 13 sec)
Heartbeat CPU 0 instructions: 61000376 cycles: 46145969 heartbeat IPC: 0.2174 cumulative IPC: 0.3462 (Simulation time: 00 hr 08 min 29 sec)
Heartbeat CPU 0 instructions: 61500377 cycles: 47998261 heartbeat IPC: 0.2699 cumulative IPC: 0.342 (Simulation time: 00 hr 08 min 42 sec)
Heartbeat CPU 0 instructions: 62000377 cycles: 49077011 heartbeat IPC: 0.4635 cumulative IPC: 0.3458 (Simulation time: 00 hr 08 min 51 sec)
Heartbeat CPU 0 instructions: 62500380 cycles: 50519340 heartbeat IPC: 0.3467 cumulative IPC: 0.3458 (Simulation time: 00 hr 09 min 01 sec)
Heartbeat CPU 0 instructions: 63000384 cycles: 52431234 heartbeat IPC: 0.2615 cumulative IPC: 0.3416 (Simulation time: 00 hr 09 min 14 sec)
Heartbeat CPU 0 instructions: 63500384 cycles: 53607944 heartbeat IPC: 0.4249 cumulative IPC: 0.3441 (Simulation time: 00 hr 09 min 23 sec)
Heartbeat CPU 0 instructions: 64000386 cycles: 54791628 heartbeat IPC: 0.4224 cumulative IPC: 0.3464 (Simulation time: 00 hr 09 min 32 sec)
Heartbeat CPU 0 instructions: 64500386 cycles: 55975480 heartbeat IPC: 0.4224 cumulative IPC: 0.3486 (Simulation time: 00 hr 09 min 42 sec)
Heartbeat CPU 0 instructions: 65000387 cycles: 56882062 heartbeat IPC: 0.5515 cumulative IPC: 0.3529 (Simulation time: 00 hr 09 min 49 sec)
Heartbeat CPU 0 instructions: 65500391 cycles: 57812531 heartbeat IPC: 0.5374 cumulative IPC: 0.3568 (Simulation time: 00 hr 09 min 56 sec)
Heartbeat CPU 0 instructions: 66000392 cycles: 59154184 heartbeat IPC: 0.3727 cumulative IPC: 0.3573 (Simulation time: 00 hr 10 min 11 sec)
Heartbeat CPU 0 instructions: 66500399 cycles: 60233783 heartbeat IPC: 0.4631 cumulative IPC: 0.3598 (Simulation time: 00 hr 10 min 23 sec)
Heartbeat CPU 0 instructions: 67000402 cycles: 61571885 heartbeat IPC: 0.3737 cumulative IPC: 0.3602 (Simulation time: 00 hr 10 min 39 sec)
Heartbeat CPU 0 instructions: 67500408 cycles: 62744568 heartbeat IPC: 0.4264 cumulative IPC: 0.3618 (Simulation time: 00 hr 10 min 54 sec)
Heartbeat CPU 0 instructions: 68000408 cycles: 64612078 heartbeat IPC: 0.2677 cumulative IPC: 0.3583 (Simulation time: 00 hr 11 min 10 sec)
Heartbeat CPU 0 instructions: 68500408 cycles: 67596727 heartbeat IPC: 0.1675 cumulative IPC: 0.3476 (Simulation time: 00 hr 11 min 30 sec)
Heartbeat CPU 0 instructions: 69000408 cycles: 69859254 heartbeat IPC: 0.221 cumulative IPC: 0.3424 (Simulation time: 00 hr 11 min 46 sec)
Heartbeat CPU 0 instructions: 69500412 cycles: 72447938 heartbeat IPC: 0.1931 cumulative IPC: 0.3358 (Simulation time: 00 hr 12 min 04 sec)
Heartbeat CPU 0 instructions: 70000412 cycles: 73488127 heartbeat IPC: 0.4807 cumulative IPC: 0.3383 (Simulation time: 00 hr 12 min 11 sec)
Heartbeat CPU 0 instructions: 70500412 cycles: 74556184 heartbeat IPC: 0.4681 cumulative IPC: 0.3406 (Simulation time: 00 hr 12 min 20 sec)
Heartbeat CPU 0 instructions: 71000418 cycles: 76326966 heartbeat IPC: 0.2824 cumulative IPC: 0.339 (Simulation time: 00 hr 12 min 32 sec)
Heartbeat CPU 0 instructions: 71500419 cycles: 77689650 heartbeat IPC: 0.3669 cumulative IPC: 0.3396 (Simulation time: 00 hr 12 min 42 sec)
Heartbeat CPU 0 instructions: 72000420 cycles: 79475129 heartbeat IPC: 0.28 cumulative IPC: 0.3379 (Simulation time: 00 hr 12 min 55 sec)
Heartbeat CPU 0 instructions: 72500424 cycles: 81651466 heartbeat IPC: 0.2297 cumulative IPC: 0.3344 (Simulation time: 00 hr 13 min 10 sec)
Heartbeat CPU 0 instructions: 73000427 cycles: 83368724 heartbeat IPC: 0.2912 cumulative IPC: 0.3334 (Simulation time: 00 hr 13 min 25 sec)
Heartbeat CPU 0 instructions: 73500427 cycles: 85618296 heartbeat IPC: 0.2223 cumulative IPC: 0.3299 (Simulation time: 00 hr 13 min 41 sec)
Heartbeat CPU 0 instructions: 74000430 cycles: 87616134 heartbeat IPC: 0.2503 cumulative IPC: 0.3277 (Simulation time: 00 hr 13 min 55 sec)
Heartbeat CPU 0 instructions: 74500436 cycles: 89544241 heartbeat IPC: 0.2593 cumulative IPC: 0.3259 (Simulation time: 00 hr 14 min 09 sec)
Heartbeat CPU 0 instructions: 75000436 cycles: 91004842 heartbeat IPC: 0.3423 cumulative IPC: 0.3263 (Simulation time: 00 hr 14 min 20 sec)
Heartbeat CPU 0 instructions: 75500441 cycles: 92581123 heartbeat IPC: 0.3172 cumulative IPC: 0.3261 (Simulation time: 00 hr 14 min 31 sec)
Heartbeat CPU 0 instructions: 76000446 cycles: 94363708 heartbeat IPC: 0.2805 cumulative IPC: 0.3251 (Simulation time: 00 hr 14 min 44 sec)
Heartbeat CPU 0 instructions: 76500447 cycles: 96525888 heartbeat IPC: 0.2312 cumulative IPC: 0.3226 (Simulation time: 00 hr 14 min 59 sec)
Heartbeat CPU 0 instructions: 77000447 cycles: 98367248 heartbeat IPC: 0.2715 cumulative IPC: 0.3215 (Simulation time: 00 hr 15 min 12 sec)
Heartbeat CPU 0 instructions: 77500447 cycles: 99664950 heartbeat IPC: 0.3853 cumulative IPC: 0.3224 (Simulation time: 00 hr 15 min 21 sec)
Heartbeat CPU 0 instructions: 78000447 cycles: 101160576 heartbeat IPC: 0.3343 cumulative IPC: 0.3226 (Simulation time: 00 hr 15 min 32 sec)
Heartbeat CPU 0 instructions: 78500453 cycles: 102243066 heartbeat IPC: 0.4619 cumulative IPC: 0.3244 (Simulation time: 00 hr 15 min 41 sec)
Heartbeat CPU 0 instructions: 79000453 cycles: 103776961 heartbeat IPC: 0.326 cumulative IPC: 0.3244 (Simulation time: 00 hr 15 min 52 sec)
Heartbeat CPU 0 instructions: 79500453 cycles: 105089988 heartbeat IPC: 0.3808 cumulative IPC: 0.3252 (Simulation time: 00 hr 16 min 02 sec)
Heartbeat CPU 0 instructions: 80000453 cycles: 106637360 heartbeat IPC: 0.3231 cumulative IPC: 0.3252 (Simulation time: 00 hr 16 min 13 sec)
Heartbeat CPU 0 instructions: 80500459 cycles: 108073457 heartbeat IPC: 0.3482 cumulative IPC: 0.3255 (Simulation time: 00 hr 16 min 23 sec)
Heartbeat CPU 0 instructions: 81000460 cycles: 109272816 heartbeat IPC: 0.4169 cumulative IPC: 0.3267 (Simulation time: 00 hr 16 min 32 sec)
Heartbeat CPU 0 instructions: 81500461 cycles: 110763993 heartbeat IPC: 0.3353 cumulative IPC: 0.3268 (Simulation time: 00 hr 16 min 44 sec)
Heartbeat CPU 0 instructions: 82000461 cycles: 112753213 heartbeat IPC: 0.2514 cumulative IPC: 0.3253 (Simulation time: 00 hr 16 min 58 sec)
Heartbeat CPU 0 instructions: 82500465 cycles: 113938706 heartbeat IPC: 0.4218 cumulative IPC: 0.3264 (Simulation time: 00 hr 17 min 07 sec)
Heartbeat CPU 0 instructions: 83000470 cycles: 115494605 heartbeat IPC: 0.3214 cumulative IPC: 0.3264 (Simulation time: 00 hr 17 min 18 sec)
Heartbeat CPU 0 instructions: 83500472 cycles: 116431553 heartbeat IPC: 0.5336 cumulative IPC: 0.3283 (Simulation time: 00 hr 17 min 25 sec)
Heartbeat CPU 0 instructions: 84000476 cycles: 117108924 heartbeat IPC: 0.7382 cumulative IPC: 0.331 (Simulation time: 00 hr 17 min 31 sec)
Heartbeat CPU 0 instructions: 84500477 cycles: 117527629 heartbeat IPC: 1.194 cumulative IPC: 0.3345 (Simulation time: 00 hr 17 min 35 sec)
Heartbeat CPU 0 instructions: 85000483 cycles: 117830853 heartbeat IPC: 1.649 cumulative IPC: 0.3383 (Simulation time: 00 hr 17 min 38 sec)
Heartbeat CPU 0 instructions: 85500484 cycles: 118140462 heartbeat IPC: 1.615 cumulative IPC: 0.3421 (Simulation time: 00 hr 17 min 41 sec)
Heartbeat CPU 0 instructions: 86000485 cycles: 118861171 heartbeat IPC: 0.6938 cumulative IPC: 0.3445 (Simulation time: 00 hr 17 min 47 sec)
Heartbeat CPU 0 instructions: 86500485 cycles: 120838815 heartbeat IPC: 0.2528 cumulative IPC: 0.3428 (Simulation time: 00 hr 18 min 01 sec)
Heartbeat CPU 0 instructions: 87000489 cycles: 123151918 heartbeat IPC: 0.2162 cumulative IPC: 0.3402 (Simulation time: 00 hr 18 min 16 sec)
Heartbeat CPU 0 instructions: 87500490 cycles: 124663541 heartbeat IPC: 0.3308 cumulative IPC: 0.34 (Simulation time: 00 hr 18 min 27 sec)
Heartbeat CPU 0 instructions: 88000491 cycles: 126000195 heartbeat IPC: 0.3741 cumulative IPC: 0.3404 (Simulation time: 00 hr 18 min 37 sec)
Heartbeat CPU 0 instructions: 88500495 cycles: 127568327 heartbeat IPC: 0.3189 cumulative IPC: 0.3401 (Simulation time: 00 hr 18 min 48 sec)
Heartbeat CPU 0 instructions: 89000495 cycles: 128789569 heartbeat IPC: 0.4094 cumulative IPC: 0.3409 (Simulation time: 00 hr 18 min 58 sec)
Heartbeat CPU 0 instructions: 89500497 cycles: 130102323 heartbeat IPC: 0.3809 cumulative IPC: 0.3413 (Simulation time: 00 hr 19 min 07 sec)
Heartbeat CPU 0 instructions: 90000497 cycles: 131184357 heartbeat IPC: 0.4621 cumulative IPC: 0.3424 (Simulation time: 00 hr 19 min 16 sec)
Heartbeat CPU 0 instructions: 90500498 cycles: 133167485 heartbeat IPC: 0.2521 cumulative IPC: 0.3409 (Simulation time: 00 hr 19 min 30 sec)
Heartbeat CPU 0 instructions: 91000498 cycles: 134393109 heartbeat IPC: 0.408 cumulative IPC: 0.3416 (Simulation time: 00 hr 19 min 39 sec)
Heartbeat CPU 0 instructions: 91500498 cycles: 136464813 heartbeat IPC: 0.2413 cumulative IPC: 0.3399 (Simulation time: 00 hr 19 min 54 sec)
Heartbeat CPU 0 instructions: 92000498 cycles: 138117033 heartbeat IPC: 0.3026 cumulative IPC: 0.3394 (Simulation time: 00 hr 20 min 05 sec)
Heartbeat CPU 0 instructions: 92500498 cycles: 139357017 heartbeat IPC: 0.4032 cumulative IPC: 0.3401 (Simulation time: 00 hr 20 min 14 sec)
Heartbeat CPU 0 instructions: 93000498 cycles: 139753069 heartbeat IPC: 1.262 cumulative IPC: 0.343 (Simulation time: 00 hr 20 min 18 sec)
Heartbeat CPU 0 instructions: 93500498 cycles: 141366416 heartbeat IPC: 0.3099 cumulative IPC: 0.3425 (Simulation time: 00 hr 20 min 29 sec)
Heartbeat CPU 0 instructions: 94000500 cycles: 143605841 heartbeat IPC: 0.2233 cumulative IPC: 0.3405 (Simulation time: 00 hr 20 min 45 sec)
Heartbeat CPU 0 instructions: 94500500 cycles: 145216233 heartbeat IPC: 0.3105 cumulative IPC: 0.3401 (Simulation time: 00 hr 20 min 56 sec)
Heartbeat CPU 0 instructions: 95000500 cycles: 146846322 heartbeat IPC: 0.3067 cumulative IPC: 0.3397 (Simulation time: 00 hr 21 min 08 sec)
Heartbeat CPU 0 instructions: 95500502 cycles: 147974414 heartbeat IPC: 0.4432 cumulative IPC: 0.3406 (Simulation time: 00 hr 21 min 16 sec)
Heartbeat CPU 0 instructions: 96000503 cycles: 149172627 heartbeat IPC: 0.4173 cumulative IPC: 0.3413 (Simulation time: 00 hr 21 min 25 sec)
Heartbeat CPU 0 instructions: 96500503 cycles: 150051189 heartbeat IPC: 0.5691 cumulative IPC: 0.3427 (Simulation time: 00 hr 21 min 33 sec)
Heartbeat CPU 0 instructions: 97000507 cycles: 151912753 heartbeat IPC: 0.2686 cumulative IPC: 0.3417 (Simulation time: 00 hr 21 min 47 sec)
Heartbeat CPU 0 instructions: 97500508 cycles: 153496494 heartbeat IPC: 0.3157 cumulative IPC: 0.3414 (Simulation time: 00 hr 21 min 59 sec)
Heartbeat CPU 0 instructions: 98000508 cycles: 154452085 heartbeat IPC: 0.5232 cumulative IPC: 0.3427 (Simulation time: 00 hr 22 min 06 sec)
Heartbeat CPU 0 instructions: 98500508 cycles: 155851462 heartbeat IPC: 0.3573 cumulative IPC: 0.3428 (Simulation time: 00 hr 22 min 17 sec)
Heartbeat CPU 0 instructions: 99000512 cycles: 157188385 heartbeat IPC: 0.374 cumulative IPC: 0.3431 (Simulation time: 00 hr 22 min 26 sec)
Heartbeat CPU 0 instructions: 99500512 cycles: 158393525 heartbeat IPC: 0.4149 cumulative IPC: 0.3437 (Simulation time: 00 hr 22 min 35 sec)
Heartbeat CPU 0 instructions: 100000516 cycles: 159919357 heartbeat IPC: 0.3277 cumulative IPC: 0.3435 (Simulation time: 00 hr 22 min 47 sec)
Heartbeat CPU 0 instructions: 100500516 cycles: 161460124 heartbeat IPC: 0.3245 cumulative IPC: 0.3433 (Simulation time: 00 hr 22 min 58 sec)
Heartbeat CPU 0 instructions: 101000516 cycles: 164103495 heartbeat IPC: 0.1892 cumulative IPC: 0.3406 (Simulation time: 00 hr 23 min 15 sec)
Heartbeat CPU 0 instructions: 101500517 cycles: 165314445 heartbeat IPC: 0.4129 cumulative IPC: 0.3412 (Simulation time: 00 hr 23 min 25 sec)
Heartbeat CPU 0 instructions: 102000518 cycles: 166599896 heartbeat IPC: 0.389 cumulative IPC: 0.3416 (Simulation time: 00 hr 23 min 34 sec)
Heartbeat CPU 0 instructions: 102500518 cycles: 167550509 heartbeat IPC: 0.526 cumulative IPC: 0.3427 (Simulation time: 00 hr 23 min 42 sec)
Heartbeat CPU 0 instructions: 103000518 cycles: 169017662 heartbeat IPC: 0.3408 cumulative IPC: 0.3427 (Simulation time: 00 hr 23 min 52 sec)
Heartbeat CPU 0 instructions: 103500519 cycles: 170694977 heartbeat IPC: 0.2981 cumulative IPC: 0.3423 (Simulation time: 00 hr 24 min 04 sec)
Heartbeat CPU 0 instructions: 104000519 cycles: 172011887 heartbeat IPC: 0.3797 cumulative IPC: 0.3426 (Simulation time: 00 hr 24 min 14 sec)
Heartbeat CPU 0 instructions: 104500521 cycles: 172893014 heartbeat IPC: 0.5675 cumulative IPC: 0.3438 (Simulation time: 00 hr 24 min 21 sec)
Heartbeat CPU 0 instructions: 105000523 cycles: 175127031 heartbeat IPC: 0.2238 cumulative IPC: 0.3421 (Simulation time: 00 hr 24 min 37 sec)
Heartbeat CPU 0 instructions: 105500524 cycles: 176168168 heartbeat IPC: 0.4802 cumulative IPC: 0.343 (Simulation time: 00 hr 24 min 45 sec)
Heartbeat CPU 0 instructions: 106000524 cycles: 177776823 heartbeat IPC: 0.3108 cumulative IPC: 0.3427 (Simulation time: 00 hr 24 min 57 sec)
Heartbeat CPU 0 instructions: 106500527 cycles: 178703220 heartbeat IPC: 0.5397 cumulative IPC: 0.3438 (Simulation time: 00 hr 25 min 03 sec)
Heartbeat CPU 0 instructions: 107000527 cycles: 179027770 heartbeat IPC: 1.541 cumulative IPC: 0.3462 (Simulation time: 00 hr 25 min 07 sec)
Heartbeat CPU 0 instructions: 107500530 cycles: 180126622 heartbeat IPC: 0.455 cumulative IPC: 0.3469 (Simulation time: 00 hr 25 min 15 sec)
Heartbeat CPU 0 instructions: 108000532 cycles: 181628253 heartbeat IPC: 0.333 cumulative IPC: 0.3468 (Simulation time: 00 hr 25 min 26 sec)
Heartbeat CPU 0 instructions: 108500532 cycles: 183558051 heartbeat IPC: 0.2591 cumulative IPC: 0.3458 (Simulation time: 00 hr 25 min 40 sec)
Heartbeat CPU 0 instructions: 109000533 cycles: 183911563 heartbeat IPC: 1.414 cumulative IPC: 0.348 (Simulation time: 00 hr 25 min 43 sec)
Heartbeat CPU 0 instructions: 109500536 cycles: 184190384 heartbeat IPC: 1.793 cumulative IPC: 0.3504 (Simulation time: 00 hr 25 min 47 sec)
Heartbeat CPU 0 instructions: 110000537 cycles: 184439464 heartbeat IPC: 2.007 cumulative IPC: 0.3528 (Simulation time: 00 hr 25 min 50 sec)
Heartbeat CPU 0 instructions: 110500538 cycles: 186395636 heartbeat IPC: 0.2556 cumulative IPC: 0.3517 (Simulation time: 00 hr 26 min 03 sec)
Heartbeat CPU 0 instructions: 111000538 cycles: 188382065 heartbeat IPC: 0.2517 cumulative IPC: 0.3506 (Simulation time: 00 hr 26 min 17 sec)
Heartbeat CPU 0 instructions: 111500541 cycles: 189516094 heartbeat IPC: 0.4409 cumulative IPC: 0.3511 (Simulation time: 00 hr 26 min 26 sec)
Heartbeat CPU 0 instructions: 112000542 cycles: 191251751 heartbeat IPC: 0.2881 cumulative IPC: 0.3505 (Simulation time: 00 hr 26 min 38 sec)
Heartbeat CPU 0 instructions: 112500544 cycles: 192896687 heartbeat IPC: 0.304 cumulative IPC: 0.3501 (Simulation time: 00 hr 26 min 50 sec)
Heartbeat CPU 0 instructions: 113000549 cycles: 194972007 heartbeat IPC: 0.2409 cumulative IPC: 0.3488 (Simulation time: 00 hr 27 min 04 sec)
Heartbeat CPU 0 instructions: 113500549 cycles: 196106765 heartbeat IPC: 0.4406 cumulative IPC: 0.3494 (Simulation time: 00 hr 27 min 13 sec)
Heartbeat CPU 0 instructions: 114000554 cycles: 197023804 heartbeat IPC: 0.5452 cumulative IPC: 0.3504 (Simulation time: 00 hr 27 min 20 sec)
Heartbeat CPU 0 instructions: 114500554 cycles: 198502665 heartbeat IPC: 0.3381 cumulative IPC: 0.3503 (Simulation time: 00 hr 27 min 31 sec)
Heartbeat CPU 0 instructions: 115000554 cycles: 200128642 heartbeat IPC: 0.3075 cumulative IPC: 0.3499 (Simulation time: 00 hr 27 min 42 sec)
Heartbeat CPU 0 instructions: 115500560 cycles: 201441575 heartbeat IPC: 0.3808 cumulative IPC: 0.3501 (Simulation time: 00 hr 27 min 53 sec)
Heartbeat CPU 0 instructions: 116000562 cycles: 203084190 heartbeat IPC: 0.3044 cumulative IPC: 0.3497 (Simulation time: 00 hr 28 min 05 sec)
Heartbeat CPU 0 instructions: 116500563 cycles: 204371770 heartbeat IPC: 0.3883 cumulative IPC: 0.35 (Simulation time: 00 hr 28 min 15 sec)
Heartbeat CPU 0 instructions: 117000565 cycles: 205068630 heartbeat IPC: 0.7175 cumulative IPC: 0.3514 (Simulation time: 00 hr 28 min 21 sec)
Heartbeat CPU 0 instructions: 117500571 cycles: 206357607 heartbeat IPC: 0.3879 cumulative IPC: 0.3516 (Simulation time: 00 hr 28 min 30 sec)
Heartbeat CPU 0 instructions: 118000571 cycles: 207135624 heartbeat IPC: 0.6427 cumulative IPC: 0.3528 (Simulation time: 00 hr 28 min 37 sec)
Heartbeat CPU 0 instructions: 118500578 cycles: 208826786 heartbeat IPC: 0.2957 cumulative IPC: 0.3523 (Simulation time: 00 hr 28 min 49 sec)
Heartbeat CPU 0 instructions: 119000581 cycles: 210428995 heartbeat IPC: 0.3121 cumulative IPC: 0.3519 (Simulation time: 00 hr 29 min 00 sec)
Heartbeat CPU 0 instructions: 119500585 cycles: 211929887 heartbeat IPC: 0.3331 cumulative IPC: 0.3518 (Simulation time: 00 hr 29 min 12 sec)
Heartbeat CPU 0 instructions: 120000585 cycles: 213514346 heartbeat IPC: 0.3156 cumulative IPC: 0.3515 (Simulation time: 00 hr 29 min 23 sec)
Heartbeat CPU 0 instructions: 120500589 cycles: 214699032 heartbeat IPC: 0.4221 cumulative IPC: 0.3519 (Simulation time: 00 hr 29 min 32 sec)
Heartbeat CPU 0 instructions: 121000592 cycles: 215486603 heartbeat IPC: 0.6349 cumulative IPC: 0.353 (Simulation time: 00 hr 29 min 38 sec)
Heartbeat CPU 0 instructions: 121500594 cycles: 216781279 heartbeat IPC: 0.3862 cumulative IPC: 0.3533 (Simulation time: 00 hr 29 min 47 sec)
Heartbeat CPU 0 instructions: 122000594 cycles: 218800688 heartbeat IPC: 0.2476 cumulative IPC: 0.3522 (Simulation time: 00 hr 30 min 01 sec)
Heartbeat CPU 0 instructions: 122500597 cycles: 220571376 heartbeat IPC: 0.2824 cumulative IPC: 0.3516 (Simulation time: 00 hr 30 min 13 sec)
Heartbeat CPU 0 instructions: 123000597 cycles: 221541654 heartbeat IPC: 0.5153 cumulative IPC: 0.3524 (Simulation time: 00 hr 30 min 20 sec)
Heartbeat CPU 0 instructions: 123500602 cycles: 222689248 heartbeat IPC: 0.4357 cumulative IPC: 0.3528 (Simulation time: 00 hr 30 min 29 sec)
Heartbeat CPU 0 instructions: 124000603 cycles: 223570946 heartbeat IPC: 0.5671 cumulative IPC: 0.3537 (Simulation time: 00 hr 30 min 36 sec)
Heartbeat CPU 0 instructions: 124500603 cycles: 224414450 heartbeat IPC: 0.5928 cumulative IPC: 0.3547 (Simulation time: 00 hr 30 min 43 sec)
Heartbeat CPU 0 instructions: 125000605 cycles: 226011673 heartbeat IPC: 0.313 cumulative IPC: 0.3544 (Simulation time: 00 hr 30 min 54 sec)
Heartbeat CPU 0 instructions: 125500605 cycles: 227528694 heartbeat IPC: 0.3296 cumulative IPC: 0.3542 (Simulation time: 00 hr 31 min 05 sec)
Heartbeat CPU 0 instructions: 126000605 cycles: 228682308 heartbeat IPC: 0.4334 cumulative IPC: 0.3546 (Simulation time: 00 hr 31 min 13 sec)
Heartbeat CPU 0 instructions: 126500606 cycles: 229876980 heartbeat IPC: 0.4185 cumulative IPC: 0.355 (Simulation time: 00 hr 31 min 22 sec)
Heartbeat CPU 0 instructions: 127000608 cycles: 231282686 heartbeat IPC: 0.3557 cumulative IPC: 0.355 (Simulation time: 00 hr 31 min 32 sec)
Heartbeat CPU 0 instructions: 127500610 cycles: 232360586 heartbeat IPC: 0.4639 cumulative IPC: 0.3555 (Simulation time: 00 hr 31 min 41 sec)
Heartbeat CPU 0 instructions: 128000612 cycles: 233320555 heartbeat IPC: 0.5209 cumulative IPC: 0.3563 (Simulation time: 00 hr 31 min 48 sec)
Heartbeat CPU 0 instructions: 128500612 cycles: 235372467 heartbeat IPC: 0.2437 cumulative IPC: 0.3552 (Simulation time: 00 hr 32 min 02 sec)
Heartbeat CPU 0 instructions: 129000612 cycles: 237669405 heartbeat IPC: 0.2177 cumulative IPC: 0.3538 (Simulation time: 00 hr 32 min 17 sec)
Heartbeat CPU 0 instructions: 129500619 cycles: 238517865 heartbeat IPC: 0.5893 cumulative IPC: 0.3547 (Simulation time: 00 hr 32 min 24 sec)
Heartbeat CPU 0 instructions: 130000625 cycles: 239399160 heartbeat IPC: 0.5674 cumulative IPC: 0.3555 (Simulation time: 00 hr 32 min 31 sec)
Heartbeat CPU 0 instructions: 130500631 cycles: 240825504 heartbeat IPC: 0.3506 cumulative IPC: 0.3555 (Simulation time: 00 hr 32 min 41 sec)
Heartbeat CPU 0 instructions: 131000634 cycles: 241201086 heartbeat IPC: 1.331 cumulative IPC: 0.3571 (Simulation time: 00 hr 32 min 45 sec)
Heartbeat CPU 0 instructions: 131500637 cycles: 241463013 heartbeat IPC: 1.909 cumulative IPC: 0.3589 (Simulation time: 00 hr 32 min 48 sec)
Heartbeat CPU 0 instructions: 132000642 cycles: 243065017 heartbeat IPC: 0.3121 cumulative IPC: 0.3586 (Simulation time: 00 hr 32 min 59 sec)
Heartbeat CPU 0 instructions: 132500644 cycles: 244599567 heartbeat IPC: 0.3258 cumulative IPC: 0.3583 (Simulation time: 00 hr 33 min 09 sec)
Heartbeat CPU 0 instructions: 133000645 cycles: 246139417 heartbeat IPC: 0.3247 cumulative IPC: 0.3581 (Simulation time: 00 hr 33 min 20 sec)
Heartbeat CPU 0 instructions: 133500645 cycles: 247921439 heartbeat IPC: 0.2806 cumulative IPC: 0.3575 (Simulation time: 00 hr 33 min 32 sec)
Heartbeat CPU 0 instructions: 134000651 cycles: 250153301 heartbeat IPC: 0.224 cumulative IPC: 0.3563 (Simulation time: 00 hr 33 min 48 sec)
Heartbeat CPU 0 instructions: 134500655 cycles: 251324028 heartbeat IPC: 0.4271 cumulative IPC: 0.3566 (Simulation time: 00 hr 33 min 56 sec)
Heartbeat CPU 0 instructions: 135000655 cycles: 252851684 heartbeat IPC: 0.3273 cumulative IPC: 0.3564 (Simulation time: 00 hr 34 min 07 sec)
Heartbeat CPU 0 instructions: 135500655 cycles: 254470611 heartbeat IPC: 0.3088 cumulative IPC: 0.3561 (Simulation time: 00 hr 34 min 18 sec)
Heartbeat CPU 0 instructions: 136000655 cycles: 255901856 heartbeat IPC: 0.3493 cumulative IPC: 0.3561 (Simulation time: 00 hr 34 min 28 sec)
Heartbeat CPU 0 instructions: 136500661 cycles: 256974090 heartbeat IPC: 0.4663 cumulative IPC: 0.3566 (Simulation time: 00 hr 34 min 36 sec)
Heartbeat CPU 0 instructions: 137000663 cycles: 258476923 heartbeat IPC: 0.3327 cumulative IPC: 0.3564 (Simulation time: 00 hr 34 min 46 sec)
Heartbeat CPU 0 instructions: 137500670 cycles: 258915043 heartbeat IPC: 1.141 cumulative IPC: 0.3578 (Simulation time: 00 hr 34 min 50 sec)
Heartbeat CPU 0 instructions: 138000674 cycles: 261265824 heartbeat IPC: 0.2127 cumulative IPC: 0.3564 (Simulation time: 00 hr 35 min 06 sec)
Heartbeat CPU 0 instructions: 138500674 cycles: 262906346 heartbeat IPC: 0.3048 cumulative IPC: 0.3561 (Simulation time: 00 hr 35 min 17 sec)
Heartbeat CPU 0 instructions: 139000677 cycles: 264199196 heartbeat IPC: 0.3867 cumulative IPC: 0.3563 (Simulation time: 00 hr 35 min 26 sec)
Heartbeat CPU 0 instructions: 139500678 cycles: 265230045 heartbeat IPC: 0.485 cumulative IPC: 0.3568 (Simulation time: 00 hr 35 min 34 sec)
Heartbeat CPU 0 instructions: 140000680 cycles: 266091848 heartbeat IPC: 0.5802 cumulative IPC: 0.3575 (Simulation time: 00 hr 35 min 41 sec)
Heartbeat CPU 0 instructions: 140500684 cycles: 267601078 heartbeat IPC: 0.3313 cumulative IPC: 0.3574 (Simulation time: 00 hr 35 min 51 sec)
Heartbeat CPU 0 instructions: 141000685 cycles: 269285255 heartbeat IPC: 0.2969 cumulative IPC: 0.357 (Simulation time: 00 hr 36 min 02 sec)
Heartbeat CPU 0 instructions: 141500686 cycles: 270801575 heartbeat IPC: 0.3297 cumulative IPC: 0.3568 (Simulation time: 00 hr 36 min 13 sec)
Heartbeat CPU 0 instructions: 142000686 cycles: 272104493 heartbeat IPC: 0.3838 cumulative IPC: 0.357 (Simulation time: 00 hr 36 min 22 sec)
Heartbeat CPU 0 instructions: 142500689 cycles: 273017010 heartbeat IPC: 0.5479 cumulative IPC: 0.3576 (Simulation time: 00 hr 36 min 29 sec)
Heartbeat CPU 0 instructions: 143000693 cycles: 273458561 heartbeat IPC: 1.132 cumulative IPC: 0.359 (Simulation time: 00 hr 36 min 32 sec)
Heartbeat CPU 0 instructions: 143500699 cycles: 273748396 heartbeat IPC: 1.725 cumulative IPC: 0.3605 (Simulation time: 00 hr 36 min 35 sec)
Heartbeat CPU 0 instructions: 144000699 cycles: 274028414 heartbeat IPC: 1.786 cumulative IPC: 0.362 (Simulation time: 00 hr 36 min 38 sec)
Heartbeat CPU 0 instructions: 144500700 cycles: 276486860 heartbeat IPC: 0.2034 cumulative IPC: 0.3605 (Simulation time: 00 hr 36 min 53 sec)
Heartbeat CPU 0 instructions: 145000706 cycles: 276806879 heartbeat IPC: 1.562 cumulative IPC: 0.362 (Simulation time: 00 hr 36 min 56 sec)
Heartbeat CPU 0 instructions: 145500707 cycles: 277112962 heartbeat IPC: 1.634 cumulative IPC: 0.3635 (Simulation time: 00 hr 36 min 59 sec)
Heartbeat CPU 0 instructions: 146000708 cycles: 277640343 heartbeat IPC: 0.9481 cumulative IPC: 0.3647 (Simulation time: 00 hr 37 min 04 sec)
Heartbeat CPU 0 instructions: 146500708 cycles: 278091753 heartbeat IPC: 1.108 cumulative IPC: 0.3659 (Simulation time: 00 hr 37 min 07 sec)
Heartbeat CPU 0 instructions: 147000715 cycles: 278368970 heartbeat IPC: 1.804 cumulative IPC: 0.3674 (Simulation time: 00 hr 37 min 10 sec)
Heartbeat CPU 0 instructions: 147500716 cycles: 278639752 heartbeat IPC: 1.847 cumulative IPC: 0.369 (Simulation time: 00 hr 37 min 13 sec)
Heartbeat CPU 0 instructions: 148000719 cycles: 278903330 heartbeat IPC: 1.897 cumulative IPC: 0.3705 (Simulation time: 00 hr 37 min 16 sec)
Heartbeat CPU 0 instructions: 148500726 cycles: 280612481 heartbeat IPC: 0.2925 cumulative IPC: 0.37 (Simulation time: 00 hr 37 min 26 sec)
Heartbeat CPU 0 instructions: 149000727 cycles: 280907319 heartbeat IPC: 1.696 cumulative IPC: 0.3714 (Simulation time: 00 hr 37 min 29 sec)
Heartbeat CPU 0 instructions: 149500729 cycles: 281172455 heartbeat IPC: 1.886 cumulative IPC: 0.3729 (Simulation time: 00 hr 37 min 32 sec)
Heartbeat CPU 0 instructions: 150000731 cycles: 281442147 heartbeat IPC: 1.854 cumulative IPC: 0.3744 (Simulation time: 00 hr 37 min 35 sec)
Heartbeat CPU 0 instructions: 150500733 cycles: 282761408 heartbeat IPC: 0.379 cumulative IPC: 0.3745 (Simulation time: 00 hr 37 min 43 sec)
Heartbeat CPU 0 instructions: 151000738 cycles: 285308309 heartbeat IPC: 0.1963 cumulative IPC: 0.3728 (Simulation time: 00 hr 37 min 59 sec)
Heartbeat CPU 0 instructions: 151500740 cycles: 286912357 heartbeat IPC: 0.3117 cumulative IPC: 0.3724 (Simulation time: 00 hr 38 min 09 sec)
Heartbeat CPU 0 instructions: 152000740 cycles: 287854236 heartbeat IPC: 0.5309 cumulative IPC: 0.373 (Simulation time: 00 hr 38 min 16 sec)
Heartbeat CPU 0 instructions: 152500742 cycles: 289262491 heartbeat IPC: 0.3551 cumulative IPC: 0.3729 (Simulation time: 00 hr 38 min 26 sec)
Heartbeat CPU 0 instructions: 153000745 cycles: 290542233 heartbeat IPC: 0.3907 cumulative IPC: 0.373 (Simulation time: 00 hr 38 min 34 sec)
Heartbeat CPU 0 instructions: 153500745 cycles: 291784820 heartbeat IPC: 0.4024 cumulative IPC: 0.3731 (Simulation time: 00 hr 38 min 43 sec)
Heartbeat CPU 0 instructions: 154000745 cycles: 292802988 heartbeat IPC: 0.4911 cumulative IPC: 0.3735 (Simulation time: 00 hr 38 min 50 sec)
Heartbeat CPU 0 instructions: 154500751 cycles: 293747747 heartbeat IPC: 0.5292 cumulative IPC: 0.3741 (Simulation time: 00 hr 38 min 57 sec)
Heartbeat CPU 0 instructions: 155000756 cycles: 295137118 heartbeat IPC: 0.3599 cumulative IPC: 0.374 (Simulation time: 00 hr 39 min 07 sec)
Heartbeat CPU 0 instructions: 155500756 cycles: 296724067 heartbeat IPC: 0.3151 cumulative IPC: 0.3737 (Simulation time: 00 hr 39 min 17 sec)
Heartbeat CPU 0 instructions: 156000756 cycles: 297889524 heartbeat IPC: 0.429 cumulative IPC: 0.3739 (Simulation time: 00 hr 39 min 25 sec)
Heartbeat CPU 0 instructions: 156500759 cycles: 298837676 heartbeat IPC: 0.5273 cumulative IPC: 0.3744 (Simulation time: 00 hr 39 min 31 sec)
Heartbeat CPU 0 instructions: 157000763 cycles: 299671843 heartbeat IPC: 0.5994 cumulative IPC: 0.3751 (Simulation time: 00 hr 39 min 38 sec)
Heartbeat CPU 0 instructions: 157500766 cycles: 300526073 heartbeat IPC: 0.5853 cumulative IPC: 0.3757 (Simulation time: 00 hr 39 min 44 sec)
Heartbeat CPU 0 instructions: 158000772 cycles: 301541930 heartbeat IPC: 0.4922 cumulative IPC: 0.3761 (Simulation time: 00 hr 39 min 51 sec)
Heartbeat CPU 0 instructions: 158500778 cycles: 302779484 heartbeat IPC: 0.404 cumulative IPC: 0.3762 (Simulation time: 00 hr 40 min 00 sec)
Heartbeat CPU 0 instructions: 159000781 cycles: 304430764 heartbeat IPC: 0.3028 cumulative IPC: 0.3758 (Simulation time: 00 hr 40 min 11 sec)
Heartbeat CPU 0 instructions: 159500784 cycles: 305066523 heartbeat IPC: 0.7865 cumulative IPC: 0.3767 (Simulation time: 00 hr 40 min 16 sec)
Heartbeat CPU 0 instructions: 160000790 cycles: 306643215 heartbeat IPC: 0.3171 cumulative IPC: 0.3764 (Simulation time: 00 hr 40 min 26 sec)
Heartbeat CPU 0 instructions: 160500790 cycles: 307758796 heartbeat IPC: 0.4482 cumulative IPC: 0.3766 (Simulation time: 00 hr 40 min 33 sec)
Heartbeat CPU 0 instructions: 161000790 cycles: 308569947 heartbeat IPC: 0.6164 cumulative IPC: 0.3773 (Simulation time: 00 hr 40 min 39 sec)
Heartbeat CPU 0 instructions: 161500796 cycles: 309373555 heartbeat IPC: 0.6222 cumulative IPC: 0.378 (Simulation time: 00 hr 40 min 45 sec)
Heartbeat CPU 0 instructions: 162000798 cycles: 310421880 heartbeat IPC: 0.477 cumulative IPC: 0.3783 (Simulation time: 00 hr 40 min 52 sec)
Heartbeat CPU 0 instructions: 162500798 cycles: 311507190 heartbeat IPC: 0.4607 cumulative IPC: 0.3786 (Simulation time: 00 hr 41 min 00 sec)
Heartbeat CPU 0 instructions: 163000800 cycles: 312437679 heartbeat IPC: 0.5374 cumulative IPC: 0.3791 (Simulation time: 00 hr 41 min 07 sec)
Heartbeat CPU 0 instructions: 163500802 cycles: 313688493 heartbeat IPC: 0.3997 cumulative IPC: 0.3792 (Simulation time: 00 hr 41 min 15 sec)
Heartbeat CPU 0 instructions: 164000803 cycles: 314682534 heartbeat IPC: 0.503 cumulative IPC: 0.3796 (Simulation time: 00 hr 41 min 22 sec)
Heartbeat CPU 0 instructions: 164500806 cycles: 315854901 heartbeat IPC: 0.4265 cumulative IPC: 0.3798 (Simulation time: 00 hr 41 min 31 sec)
Heartbeat CPU 0 instructions: 165000812 cycles: 317165156 heartbeat IPC: 0.3816 cumulative IPC: 0.3798 (Simulation time: 00 hr 41 min 39 sec)
Heartbeat CPU 0 instructions: 165500818 cycles: 318157752 heartbeat IPC: 0.5037 cumulative IPC: 0.3802 (Simulation time: 00 hr 41 min 47 sec)
Heartbeat CPU 0 instructions: 166000823 cycles: 319493757 heartbeat IPC: 0.3743 cumulative IPC: 0.3802 (Simulation time: 00 hr 41 min 55 sec)
Heartbeat CPU 0 instructions: 166500824 cycles: 320541220 heartbeat IPC: 0.4773 cumulative IPC: 0.3805 (Simulation time: 00 hr 42 min 03 sec)
Heartbeat CPU 0 instructions: 167000824 cycles: 321722098 heartbeat IPC: 0.4234 cumulative IPC: 0.3807 (Simulation time: 00 hr 42 min 11 sec)
Heartbeat CPU 0 instructions: 167500825 cycles: 323103178 heartbeat IPC: 0.362 cumulative IPC: 0.3806 (Simulation time: 00 hr 42 min 20 sec)
Heartbeat CPU 0 instructions: 168000826 cycles: 324448609 heartbeat IPC: 0.3716 cumulative IPC: 0.3806 (Simulation time: 00 hr 42 min 28 sec)
Heartbeat CPU 0 instructions: 168500827 cycles: 325503792 heartbeat IPC: 0.4739 cumulative IPC: 0.3809 (Simulation time: 00 hr 42 min 36 sec)
Heartbeat CPU 0 instructions: 169000827 cycles: 326849190 heartbeat IPC: 0.3716 cumulative IPC: 0.3808 (Simulation time: 00 hr 42 min 45 sec)
Heartbeat CPU 0 instructions: 169500829 cycles: 327843712 heartbeat IPC: 0.5028 cumulative IPC: 0.3812 (Simulation time: 00 hr 42 min 51 sec)
Heartbeat CPU 0 instructions: 170000832 cycles: 328740566 heartbeat IPC: 0.5575 cumulative IPC: 0.3817 (Simulation time: 00 hr 42 min 58 sec)
Heartbeat CPU 0 instructions: 170500839 cycles: 329638421 heartbeat IPC: 0.5569 cumulative IPC: 0.3822 (Simulation time: 00 hr 43 min 04 sec)
Heartbeat CPU 0 instructions: 171000839 cycles: 330486759 heartbeat IPC: 0.5894 cumulative IPC: 0.3828 (Simulation time: 00 hr 43 min 10 sec)
Heartbeat CPU 0 instructions: 171500839 cycles: 332873897 heartbeat IPC: 0.2095 cumulative IPC: 0.3815 (Simulation time: 00 hr 43 min 26 sec)
Heartbeat CPU 0 instructions: 172000839 cycles: 334763213 heartbeat IPC: 0.2646 cumulative IPC: 0.3808 (Simulation time: 00 hr 43 min 38 sec)
Heartbeat CPU 0 instructions: 172500839 cycles: 336772541 heartbeat IPC: 0.2488 cumulative IPC: 0.38 (Simulation time: 00 hr 43 min 50 sec)
Heartbeat CPU 0 instructions: 173000839 cycles: 337749441 heartbeat IPC: 0.5118 cumulative IPC: 0.3804 (Simulation time: 00 hr 43 min 57 sec)
Heartbeat CPU 0 instructions: 173500846 cycles: 338622276 heartbeat IPC: 0.5729 cumulative IPC: 0.3809 (Simulation time: 00 hr 44 min 03 sec)
Heartbeat CPU 0 instructions: 174000849 cycles: 338920446 heartbeat IPC: 1.677 cumulative IPC: 0.3821 (Simulation time: 00 hr 44 min 06 sec)
Heartbeat CPU 0 instructions: 174500849 cycles: 339198955 heartbeat IPC: 1.795 cumulative IPC: 0.3833 (Simulation time: 00 hr 44 min 09 sec)
Heartbeat CPU 0 instructions: 175000850 cycles: 339316635 heartbeat IPC: 4.249 cumulative IPC: 0.3847 (Simulation time: 00 hr 44 min 11 sec)
Heartbeat CPU 0 instructions: 175500852 cycles: 339425113 heartbeat IPC: 4.609 cumulative IPC: 0.3861 (Simulation time: 00 hr 44 min 13 sec)
Heartbeat CPU 0 instructions: 176000856 cycles: 339587592 heartbeat IPC: 3.077 cumulative IPC: 0.3874 (Simulation time: 00 hr 44 min 15 sec)
Heartbeat CPU 0 instructions: 176500856 cycles: 339716726 heartbeat IPC: 3.872 cumulative IPC: 0.3888 (Simulation time: 00 hr 44 min 17 sec)
Heartbeat CPU 0 instructions: 177000857 cycles: 340087920 heartbeat IPC: 1.347 cumulative IPC: 0.3899 (Simulation time: 00 hr 44 min 20 sec)
Heartbeat CPU 0 instructions: 177500857 cycles: 341438988 heartbeat IPC: 0.3701 cumulative IPC: 0.3898 (Simulation time: 00 hr 44 min 29 sec)
Heartbeat CPU 0 instructions: 178000857 cycles: 343563819 heartbeat IPC: 0.2353 cumulative IPC: 0.3888 (Simulation time: 00 hr 44 min 42 sec)
Heartbeat CPU 0 instructions: 178500860 cycles: 345255045 heartbeat IPC: 0.2956 cumulative IPC: 0.3884 (Simulation time: 00 hr 44 min 52 sec)
Heartbeat CPU 0 instructions: 179000863 cycles: 346537205 heartbeat IPC: 0.39 cumulative IPC: 0.3884 (Simulation time: 00 hr 45 min 01 sec)
Heartbeat CPU 0 instructions: 179500869 cycles: 347533149 heartbeat IPC: 0.502 cumulative IPC: 0.3887 (Simulation time: 00 hr 45 min 08 sec)
Heartbeat CPU 0 instructions: 180000871 cycles: 348411363 heartbeat IPC: 0.5693 cumulative IPC: 0.3892 (Simulation time: 00 hr 45 min 14 sec)
Heartbeat CPU 0 instructions: 180500871 cycles: 349446379 heartbeat IPC: 0.4831 cumulative IPC: 0.3895 (Simulation time: 00 hr 45 min 21 sec)
Heartbeat CPU 0 instructions: 181000876 cycles: 350307987 heartbeat IPC: 0.5803 cumulative IPC: 0.39 (Simulation time: 00 hr 45 min 27 sec)
Heartbeat CPU 0 instructions: 181500878 cycles: 350637514 heartbeat IPC: 1.517 cumulative IPC: 0.3911 (Simulation time: 00 hr 45 min 30 sec)
Heartbeat CPU 0 instructions: 182000879 cycles: 350946062 heartbeat IPC: 1.62 cumulative IPC: 0.3922 (Simulation time: 00 hr 45 min 33 sec)
Heartbeat CPU 0 instructions: 182500879 cycles: 351225474 heartbeat IPC: 1.789 cumulative IPC: 0.3934 (Simulation time: 00 hr 45 min 35 sec)
Heartbeat CPU 0 instructions: 183000886 cycles: 352312237 heartbeat IPC: 0.4601 cumulative IPC: 0.3936 (Simulation time: 00 hr 45 min 43 sec)
Heartbeat CPU 0 instructions: 183500889 cycles: 353413968 heartbeat IPC: 0.4538 cumulative IPC: 0.3938 (Simulation time: 00 hr 45 min 50 sec)
Heartbeat CPU 0 instructions: 184000889 cycles: 354934437 heartbeat IPC: 0.3288 cumulative IPC: 0.3935 (Simulation time: 00 hr 46 min 00 sec)
Heartbeat CPU 0 instructions: 184500889 cycles: 356135222 heartbeat IPC: 0.4164 cumulative IPC: 0.3936 (Simulation time: 00 hr 46 min 08 sec)
Heartbeat CPU 0 instructions: 185000889 cycles: 357057929 heartbeat IPC: 0.5419 cumulative IPC: 0.394 (Simulation time: 00 hr 46 min 14 sec)
Heartbeat CPU 0 instructions: 185500890 cycles: 357939278 heartbeat IPC: 0.5673 cumulative IPC: 0.3944 (Simulation time: 00 hr 46 min 20 sec)
Heartbeat CPU 0 instructions: 186000892 cycles: 358855932 heartbeat IPC: 0.5455 cumulative IPC: 0.3948 (Simulation time: 00 hr 46 min 27 sec)
Heartbeat CPU 0 instructions: 186500893 cycles: 359862426 heartbeat IPC: 0.4968 cumulative IPC: 0.3951 (Simulation time: 00 hr 46 min 34 sec)
Heartbeat CPU 0 instructions: 187000893 cycles: 361107299 heartbeat IPC: 0.4016 cumulative IPC: 0.3951 (Simulation time: 00 hr 46 min 42 sec)
Heartbeat CPU 0 instructions: 187500896 cycles: 362105549 heartbeat IPC: 0.5009 cumulative IPC: 0.3954 (Simulation time: 00 hr 46 min 49 sec)
Heartbeat CPU 0 instructions: 188000897 cycles: 363021139 heartbeat IPC: 0.5461 cumulative IPC: 0.3958 (Simulation time: 00 hr 46 min 56 sec)
Heartbeat CPU 0 instructions: 188500897 cycles: 364876332 heartbeat IPC: 0.2695 cumulative IPC: 0.3952 (Simulation time: 00 hr 47 min 07 sec)
Heartbeat CPU 0 instructions: 189000901 cycles: 366088993 heartbeat IPC: 0.4123 cumulative IPC: 0.3952 (Simulation time: 00 hr 47 min 15 sec)
Heartbeat CPU 0 instructions: 189500906 cycles: 367831648 heartbeat IPC: 0.2869 cumulative IPC: 0.3947 (Simulation time: 00 hr 47 min 25 sec)
Heartbeat CPU 0 instructions: 190000908 cycles: 368802903 heartbeat IPC: 0.5148 cumulative IPC: 0.395 (Simulation time: 00 hr 47 min 32 sec)
Heartbeat CPU 0 instructions: 190500915 cycles: 370058296 heartbeat IPC: 0.3983 cumulative IPC: 0.395 (Simulation time: 00 hr 47 min 40 sec)
Heartbeat CPU 0 instructions: 191000918 cycles: 371146659 heartbeat IPC: 0.4594 cumulative IPC: 0.3952 (Simulation time: 00 hr 47 min 47 sec)
Heartbeat CPU 0 instructions: 191500918 cycles: 371981634 heartbeat IPC: 0.5988 cumulative IPC: 0.3957 (Simulation time: 00 hr 47 min 53 sec)
Heartbeat CPU 0 instructions: 192000920 cycles: 372795716 heartbeat IPC: 0.6142 cumulative IPC: 0.3962 (Simulation time: 00 hr 47 min 59 sec)
Heartbeat CPU 0 instructions: 192500927 cycles: 374110122 heartbeat IPC: 0.3804 cumulative IPC: 0.3961 (Simulation time: 00 hr 48 min 07 sec)
Heartbeat CPU 0 instructions: 193000929 cycles: 375376610 heartbeat IPC: 0.3948 cumulative IPC: 0.3961 (Simulation time: 00 hr 48 min 15 sec)
Heartbeat CPU 0 instructions: 193500931 cycles: 376400588 heartbeat IPC: 0.4883 cumulative IPC: 0.3964 (Simulation time: 00 hr 48 min 22 sec)
Heartbeat CPU 0 instructions: 194000932 cycles: 377201928 heartbeat IPC: 0.624 cumulative IPC: 0.3969 (Simulation time: 00 hr 48 min 28 sec)
Heartbeat CPU 0 instructions: 194500933 cycles: 378434610 heartbeat IPC: 0.4056 cumulative IPC: 0.3969 (Simulation time: 00 hr 48 min 36 sec)
Heartbeat CPU 0 instructions: 195000933 cycles: 380025569 heartbeat IPC: 0.3143 cumulative IPC: 0.3966 (Simulation time: 00 hr 48 min 46 sec)
Heartbeat CPU 0 instructions: 195500933 cycles: 381641997 heartbeat IPC: 0.3093 cumulative IPC: 0.3962 (Simulation time: 00 hr 48 min 56 sec)
Heartbeat CPU 0 instructions: 196000939 cycles: 382917350 heartbeat IPC: 0.3921 cumulative IPC: 0.3962 (Simulation time: 00 hr 49 min 04 sec)
Heartbeat CPU 0 instructions: 196500940 cycles: 384620647 heartbeat IPC: 0.2935 cumulative IPC: 0.3957 (Simulation time: 00 hr 49 min 14 sec)
Heartbeat CPU 0 instructions: 197000941 cycles: 385865556 heartbeat IPC: 0.4016 cumulative IPC: 0.3957 (Simulation time: 00 hr 49 min 22 sec)
Heartbeat CPU 0 instructions: 197500943 cycles: 387209672 heartbeat IPC: 0.372 cumulative IPC: 0.3956 (Simulation time: 00 hr 49 min 31 sec)
Heartbeat CPU 0 instructions: 198000946 cycles: 388350366 heartbeat IPC: 0.4383 cumulative IPC: 0.3958 (Simulation time: 00 hr 49 min 38 sec)
Heartbeat CPU 0 instructions: 198500946 cycles: 389436050 heartbeat IPC: 0.4605 cumulative IPC: 0.3959 (Simulation time: 00 hr 49 min 45 sec)
Heartbeat CPU 0 instructions: 199000946 cycles: 390948197 heartbeat IPC: 0.3307 cumulative IPC: 0.3957 (Simulation time: 00 hr 49 min 54 sec)
Heartbeat CPU 0 instructions: 199500950 cycles: 392225084 heartbeat IPC: 0.3916 cumulative IPC: 0.3957 (Simulation time: 00 hr 50 min 02 sec)
Heartbeat CPU 0 instructions: 200000951 cycles: 394118177 heartbeat IPC: 0.2641 cumulative IPC: 0.395 (Simulation time: 00 hr 50 min 13 sec)
Heartbeat CPU 0 instructions: 200500957 cycles: 395301444 heartbeat IPC: 0.4226 cumulative IPC: 0.3951 (Simulation time: 00 hr 50 min 21 sec)
Heartbeat CPU 0 instructions: 201000957 cycles: 396392717 heartbeat IPC: 0.4582 cumulative IPC: 0.3953 (Simulation time: 00 hr 50 min 28 sec)
Heartbeat CPU 0 instructions: 201500957 cycles: 397348919 heartbeat IPC: 0.5229 cumulative IPC: 0.3956 (Simulation time: 00 hr 50 min 34 sec)
Heartbeat CPU 0 instructions: 202000958 cycles: 398353777 heartbeat IPC: 0.4976 cumulative IPC: 0.3959 (Simulation time: 00 hr 50 min 40 sec)
Heartbeat CPU 0 instructions: 202500958 cycles: 399328447 heartbeat IPC: 0.513 cumulative IPC: 0.3962 (Simulation time: 00 hr 50 min 47 sec)
Heartbeat CPU 0 instructions: 203000961 cycles: 400210010 heartbeat IPC: 0.5672 cumulative IPC: 0.3965 (Simulation time: 00 hr 50 min 53 sec)
Heartbeat CPU 0 instructions: 203500962 cycles: 401436514 heartbeat IPC: 0.4077 cumulative IPC: 0.3966 (Simulation time: 00 hr 51 min 00 sec)
Heartbeat CPU 0 instructions: 204000969 cycles: 402498646 heartbeat IPC: 0.4708 cumulative IPC: 0.3968 (Simulation time: 00 hr 51 min 08 sec)
Heartbeat CPU 0 instructions: 204500973 cycles: 402809997 heartbeat IPC: 1.606 cumulative IPC: 0.3978 (Simulation time: 00 hr 51 min 10 sec)
Heartbeat CPU 0 instructions: 205000973 cycles: 403029076 heartbeat IPC: 2.282 cumulative IPC: 0.3988 (Simulation time: 00 hr 51 min 13 sec)
Heartbeat CPU 0 instructions: 205500975 cycles: 403258818 heartbeat IPC: 2.176 cumulative IPC: 0.3999 (Simulation time: 00 hr 51 min 15 sec)
Heartbeat CPU 0 instructions: 206000978 cycles: 403494901 heartbeat IPC: 2.118 cumulative IPC: 0.4009 (Simulation time: 00 hr 51 min 17 sec)
Heartbeat CPU 0 instructions: 206500981 cycles: 403734807 heartbeat IPC: 2.084 cumulative IPC: 0.4019 (Simulation time: 00 hr 51 min 20 sec)
Heartbeat CPU 0 instructions: 207000982 cycles: 403967912 heartbeat IPC: 2.145 cumulative IPC: 0.403 (Simulation time: 00 hr 51 min 22 sec)
Heartbeat CPU 0 instructions: 207500982 cycles: 404169242 heartbeat IPC: 2.483 cumulative IPC: 0.4041 (Simulation time: 00 hr 51 min 24 sec)
Heartbeat CPU 0 instructions: 208000983 cycles: 404440416 heartbeat IPC: 1.844 cumulative IPC: 0.4051 (Simulation time: 00 hr 51 min 27 sec)
Heartbeat CPU 0 instructions: 208500983 cycles: 404667656 heartbeat IPC: 2.2 cumulative IPC: 0.4061 (Simulation time: 00 hr 51 min 29 sec)
Heartbeat CPU 0 instructions: 209000985 cycles: 404901293 heartbeat IPC: 2.14 cumulative IPC: 0.4071 (Simulation time: 00 hr 51 min 32 sec)
Heartbeat CPU 0 instructions: 209500990 cycles: 405125389 heartbeat IPC: 2.231 cumulative IPC: 0.4082 (Simulation time: 00 hr 51 min 34 sec)
Heartbeat CPU 0 instructions: 210000992 cycles: 405379805 heartbeat IPC: 1.965 cumulative IPC: 0.4092 (Simulation time: 00 hr 51 min 36 sec)
Heartbeat CPU 0 instructions: 210500996 cycles: 405917901 heartbeat IPC: 0.9292 cumulative IPC: 0.4099 (Simulation time: 00 hr 51 min 40 sec)
Heartbeat CPU 0 instructions: 211000996 cycles: 406088902 heartbeat IPC: 2.924 cumulative IPC: 0.411 (Simulation time: 00 hr 51 min 42 sec)
Heartbeat CPU 0 instructions: 211500998 cycles: 406259771 heartbeat IPC: 2.926 cumulative IPC: 0.4121 (Simulation time: 00 hr 51 min 44 sec)
Heartbeat CPU 0 instructions: 212000998 cycles: 406428694 heartbeat IPC: 2.96 cumulative IPC: 0.4132 (Simulation time: 00 hr 51 min 46 sec)
Heartbeat CPU 0 instructions: 212500998 cycles: 407252783 heartbeat IPC: 0.6067 cumulative IPC: 0.4136 (Simulation time: 00 hr 51 min 52 sec)
Heartbeat CPU 0 instructions: 213001000 cycles: 409809121 heartbeat IPC: 0.1956 cumulative IPC: 0.4122 (Simulation time: 00 hr 52 min 06 sec)
Heartbeat CPU 0 instructions: 213501002 cycles: 411339052 heartbeat IPC: 0.3268 cumulative IPC: 0.4119 (Simulation time: 00 hr 52 min 15 sec)
Heartbeat CPU 0 instructions: 214001005 cycles: 413000813 heartbeat IPC: 0.3009 cumulative IPC: 0.4114 (Simulation time: 00 hr 52 min 25 sec)
Heartbeat CPU 0 instructions: 214501011 cycles: 414629105 heartbeat IPC: 0.3071 cumulative IPC: 0.411 (Simulation time: 00 hr 52 min 35 sec)
Heartbeat CPU 0 instructions: 215001011 cycles: 415462976 heartbeat IPC: 0.5996 cumulative IPC: 0.4114 (Simulation time: 00 hr 52 min 40 sec)
Heartbeat CPU 0 instructions: 215501017 cycles: 416311423 heartbeat IPC: 0.5893 cumulative IPC: 0.4118 (Simulation time: 00 hr 52 min 46 sec)
Heartbeat CPU 0 instructions: 216001018 cycles: 417312917 heartbeat IPC: 0.4993 cumulative IPC: 0.412 (Simulation time: 00 hr 52 min 52 sec)
Heartbeat CPU 0 instructions: 216501022 cycles: 418194273 heartbeat IPC: 0.5673 cumulative IPC: 0.4123 (Simulation time: 00 hr 52 min 58 sec)
Heartbeat CPU 0 instructions: 217001024 cycles: 419045470 heartbeat IPC: 0.5874 cumulative IPC: 0.4127 (Simulation time: 00 hr 53 min 03 sec)
Heartbeat CPU 0 instructions: 217501030 cycles: 420205735 heartbeat IPC: 0.4309 cumulative IPC: 0.4127 (Simulation time: 00 hr 53 min 11 sec)
Heartbeat CPU 0 instructions: 218001030 cycles: 421793768 heartbeat IPC: 0.3149 cumulative IPC: 0.4124 (Simulation time: 00 hr 53 min 20 sec)
Heartbeat CPU 0 instructions: 218501031 cycles: 422911437 heartbeat IPC: 0.4474 cumulative IPC: 0.4125 (Simulation time: 00 hr 53 min 27 sec)
Heartbeat CPU 0 instructions: 219001031 cycles: 423714561 heartbeat IPC: 0.6226 cumulative IPC: 0.4129 (Simulation time: 00 hr 53 min 32 sec)
Heartbeat CPU 0 instructions: 219501031 cycles: 424486648 heartbeat IPC: 0.6476 cumulative IPC: 0.4133 (Simulation time: 00 hr 53 min 37 sec)
Heartbeat CPU 0 instructions: 220001031 cycles: 426036005 heartbeat IPC: 0.3227 cumulative IPC: 0.413 (Simulation time: 00 hr 53 min 46 sec)
Heartbeat CPU 0 instructions: 220501037 cycles: 427749666 heartbeat IPC: 0.2918 cumulative IPC: 0.4125 (Simulation time: 00 hr 53 min 57 sec)
Heartbeat CPU 0 instructions: 221001040 cycles: 428769242 heartbeat IPC: 0.4904 cumulative IPC: 0.4127 (Simulation time: 00 hr 54 min 03 sec)
Heartbeat CPU 0 instructions: 221501040 cycles: 429709909 heartbeat IPC: 0.5315 cumulative IPC: 0.4129 (Simulation time: 00 hr 54 min 10 sec)
Heartbeat CPU 0 instructions: 222001044 cycles: 430639746 heartbeat IPC: 0.5377 cumulative IPC: 0.4132 (Simulation time: 00 hr 54 min 16 sec)
Heartbeat CPU 0 instructions: 222501046 cycles: 431554216 heartbeat IPC: 0.5468 cumulative IPC: 0.4135 (Simulation time: 00 hr 54 min 22 sec)
Heartbeat CPU 0 instructions: 223001047 cycles: 432486797 heartbeat IPC: 0.5361 cumulative IPC: 0.4138 (Simulation time: 00 hr 54 min 28 sec)
Heartbeat CPU 0 instructions: 223501053 cycles: 433413265 heartbeat IPC: 0.5397 cumulative IPC: 0.414 (Simulation time: 00 hr 54 min 34 sec)
Heartbeat CPU 0 instructions: 224001055 cycles: 435322580 heartbeat IPC: 0.2619 cumulative IPC: 0.4134 (Simulation time: 00 hr 54 min 45 sec)
Heartbeat CPU 0 instructions: 224501061 cycles: 437505024 heartbeat IPC: 0.2291 cumulative IPC: 0.4124 (Simulation time: 00 hr 54 min 56 sec)
Heartbeat CPU 0 instructions: 225001065 cycles: 438237895 heartbeat IPC: 0.6823 cumulative IPC: 0.4129 (Simulation time: 00 hr 55 min 01 sec)
Heartbeat CPU 0 instructions: 225501070 cycles: 438610006 heartbeat IPC: 1.344 cumulative IPC: 0.4137 (Simulation time: 00 hr 55 min 04 sec)
Heartbeat CPU 0 instructions: 226001072 cycles: 438896508 heartbeat IPC: 1.745 cumulative IPC: 0.4146 (Simulation time: 00 hr 55 min 06 sec)
Heartbeat CPU 0 instructions: 226501072 cycles: 439568947 heartbeat IPC: 0.7436 cumulative IPC: 0.4151 (Simulation time: 00 hr 55 min 10 sec)
Heartbeat CPU 0 instructions: 227001072 cycles: 441957058 heartbeat IPC: 0.2094 cumulative IPC: 0.414 (Simulation time: 00 hr 55 min 23 sec)
Heartbeat CPU 0 instructions: 227501075 cycles: 443578031 heartbeat IPC: 0.3085 cumulative IPC: 0.4136 (Simulation time: 00 hr 55 min 32 sec)
Heartbeat CPU 0 instructions: 228001076 cycles: 444738187 heartbeat IPC: 0.431 cumulative IPC: 0.4136 (Simulation time: 00 hr 55 min 39 sec)
Heartbeat CPU 0 instructions: 228501080 cycles: 446262279 heartbeat IPC: 0.3281 cumulative IPC: 0.4133 (Simulation time: 00 hr 55 min 48 sec)
Heartbeat CPU 0 instructions: 229001081 cycles: 447385681 heartbeat IPC: 0.4451 cumulative IPC: 0.4134 (Simulation time: 00 hr 55 min 55 sec)
Heartbeat CPU 0 instructions: 229501082 cycles: 448609086 heartbeat IPC: 0.4087 cumulative IPC: 0.4134 (Simulation time: 00 hr 56 min 02 sec)
Heartbeat CPU 0 instructions: 230001089 cycles: 449484053 heartbeat IPC: 0.5715 cumulative IPC: 0.4137 (Simulation time: 00 hr 56 min 07 sec)
Heartbeat CPU 0 instructions: 230501089 cycles: 450326808 heartbeat IPC: 0.5933 cumulative IPC: 0.414 (Simulation time: 00 hr 56 min 13 sec)
Heartbeat CPU 0 instructions: 231001093 cycles: 452010464 heartbeat IPC: 0.297 cumulative IPC: 0.4136 (Simulation time: 00 hr 56 min 22 sec)
Heartbeat CPU 0 instructions: 231501095 cycles: 453578650 heartbeat IPC: 0.3188 cumulative IPC: 0.4133 (Simulation time: 00 hr 56 min 31 sec)
Heartbeat CPU 0 instructions: 232001098 cycles: 454707980 heartbeat IPC: 0.4427 cumulative IPC: 0.4133 (Simulation time: 00 hr 56 min 38 sec)
Heartbeat CPU 0 instructions: 232501103 cycles: 456297113 heartbeat IPC: 0.3146 cumulative IPC: 0.413 (Simulation time: 00 hr 56 min 47 sec)
Heartbeat CPU 0 instructions: 233001103 cycles: 457541481 heartbeat IPC: 0.4018 cumulative IPC: 0.4129 (Simulation time: 00 hr 56 min 55 sec)
Heartbeat CPU 0 instructions: 233501109 cycles: 459347186 heartbeat IPC: 0.2769 cumulative IPC: 0.4124 (Simulation time: 00 hr 57 min 04 sec)
Heartbeat CPU 0 instructions: 234001109 cycles: 461579143 heartbeat IPC: 0.224 cumulative IPC: 0.4114 (Simulation time: 00 hr 57 min 16 sec)
Heartbeat CPU 0 instructions: 234501109 cycles: 462812453 heartbeat IPC: 0.4054 cumulative IPC: 0.4114 (Simulation time: 00 hr 57 min 24 sec)
Heartbeat CPU 0 instructions: 235001110 cycles: 464529659 heartbeat IPC: 0.2912 cumulative IPC: 0.411 (Simulation time: 00 hr 57 min 34 sec)
Heartbeat CPU 0 instructions: 235501112 cycles: 466311669 heartbeat IPC: 0.2806 cumulative IPC: 0.4105 (Simulation time: 00 hr 57 min 43 sec)
Heartbeat CPU 0 instructions: 236001112 cycles: 467197756 heartbeat IPC: 0.5643 cumulative IPC: 0.4108 (Simulation time: 00 hr 57 min 49 sec)
Heartbeat CPU 0 instructions: 236501115 cycles: 469040837 heartbeat IPC: 0.2713 cumulative IPC: 0.4102 (Simulation time: 00 hr 57 min 59 sec)
Heartbeat CPU 0 instructions: 237001117 cycles: 471002550 heartbeat IPC: 0.2549 cumulative IPC: 0.4095 (Simulation time: 00 hr 58 min 10 sec)
Heartbeat CPU 0 instructions: 237501117 cycles: 472805321 heartbeat IPC: 0.2774 cumulative IPC: 0.409 (Simulation time: 00 hr 58 min 20 sec)
Heartbeat CPU 0 instructions: 238001117 cycles: 475282204 heartbeat IPC: 0.2019 cumulative IPC: 0.4079 (Simulation time: 00 hr 58 min 34 sec)
Heartbeat CPU 0 instructions: 238501117 cycles: 477328349 heartbeat IPC: 0.2444 cumulative IPC: 0.4072 (Simulation time: 00 hr 58 min 45 sec)
Heartbeat CPU 0 instructions: 239001117 cycles: 478859186 heartbeat IPC: 0.3266 cumulative IPC: 0.4069 (Simulation time: 00 hr 58 min 53 sec)
Heartbeat CPU 0 instructions: 239501123 cycles: 480995387 heartbeat IPC: 0.2341 cumulative IPC: 0.4061 (Simulation time: 00 hr 59 min 04 sec)
Heartbeat CPU 0 instructions: 240001129 cycles: 482385960 heartbeat IPC: 0.3596 cumulative IPC: 0.406 (Simulation time: 00 hr 59 min 12 sec)
Heartbeat CPU 0 instructions: 240501129 cycles: 483762664 heartbeat IPC: 0.3632 cumulative IPC: 0.4059 (Simulation time: 00 hr 59 min 20 sec)
Heartbeat CPU 0 instructions: 241001130 cycles: 485193258 heartbeat IPC: 0.3495 cumulative IPC: 0.4057 (Simulation time: 00 hr 59 min 28 sec)
Heartbeat CPU 0 instructions: 241501137 cycles: 486669578 heartbeat IPC: 0.3387 cumulative IPC: 0.4055 (Simulation time: 00 hr 59 min 37 sec)
Heartbeat CPU 0 instructions: 242001137 cycles: 488351093 heartbeat IPC: 0.2974 cumulative IPC: 0.4051 (Simulation time: 00 hr 59 min 46 sec)
Heartbeat CPU 0 instructions: 242501143 cycles: 489407938 heartbeat IPC: 0.4731 cumulative IPC: 0.4052 (Simulation time: 00 hr 59 min 53 sec)
Heartbeat CPU 0 instructions: 243001149 cycles: 490585386 heartbeat IPC: 0.4247 cumulative IPC: 0.4053 (Simulation time: 01 hr 00 min 00 sec)
Heartbeat CPU 0 instructions: 243501150 cycles: 492609928 heartbeat IPC: 0.247 cumulative IPC: 0.4046 (Simulation time: 01 hr 00 min 11 sec)
Heartbeat CPU 0 instructions: 244001152 cycles: 494937670 heartbeat IPC: 0.2148 cumulative IPC: 0.4037 (Simulation time: 01 hr 00 min 23 sec)
Heartbeat CPU 0 instructions: 244501152 cycles: 496732610 heartbeat IPC: 0.2786 cumulative IPC: 0.4032 (Simulation time: 01 hr 00 min 33 sec)
Heartbeat CPU 0 instructions: 245001156 cycles: 497859336 heartbeat IPC: 0.4438 cumulative IPC: 0.4033 (Simulation time: 01 hr 00 min 40 sec)
Heartbeat CPU 0 instructions: 245501160 cycles: 499913062 heartbeat IPC: 0.2435 cumulative IPC: 0.4026 (Simulation time: 01 hr 00 min 51 sec)
Heartbeat CPU 0 instructions: 246001160 cycles: 501168151 heartbeat IPC: 0.3984 cumulative IPC: 0.4026 (Simulation time: 01 hr 00 min 58 sec)
Heartbeat CPU 0 instructions: 246501160 cycles: 503815621 heartbeat IPC: 0.1889 cumulative IPC: 0.4015 (Simulation time: 01 hr 01 min 12 sec)
Heartbeat CPU 0 instructions: 247001162 cycles: 505215962 heartbeat IPC: 0.3571 cumulative IPC: 0.4014 (Simulation time: 01 hr 01 min 20 sec)
Heartbeat CPU 0 instructions: 247501162 cycles: 506370264 heartbeat IPC: 0.4332 cumulative IPC: 0.4014 (Simulation time: 01 hr 01 min 27 sec)
Heartbeat CPU 0 instructions: 248001162 cycles: 507519430 heartbeat IPC: 0.4351 cumulative IPC: 0.4015 (Simulation time: 01 hr 01 min 34 sec)
Heartbeat CPU 0 instructions: 248501164 cycles: 507988393 heartbeat IPC: 1.066 cumulative IPC: 0.4021 (Simulation time: 01 hr 01 min 37 sec)
Heartbeat CPU 0 instructions: 249001165 cycles: 508317266 heartbeat IPC: 1.52 cumulative IPC: 0.4029 (Simulation time: 01 hr 01 min 40 sec)
Heartbeat CPU 0 instructions: 249501168 cycles: 509098193 heartbeat IPC: 0.6403 cumulative IPC: 0.4033 (Simulation time: 01 hr 01 min 44 sec)
Simulation finished CPU 0 instructions: 200000006 cycles: 496114007 cumulative IPC: 0.4031 (Simulation time: 01 hr 01 min 52 sec)
Simulation complete CPU 0 instructions: 200000006 cycles: 496114007 cumulative IPC: 0.4031 (Simulation time: 01 hr 01 min 52 sec)

ChampSim completed all CPUs

=== Simulation ===
CPU 0 runs /local-ssd/ben/dpc4-traces/gtraces_v2/sierra.a.3_0000.champsim.gz

Region of Interest Statistics

CPU 0 cumulative IPC: 0.4031 instructions: 200000006 cycles: 496114007
CPU 0 Branch Prediction Accuracy: 85.52% MPKI: 26.71 Average ROB Occupancy at Mispredict: 18.91
Branch type MPKI
BRANCH_DIRECT_JUMP: 2.572
BRANCH_INDIRECT: 0.2864
BRANCH_CONDITIONAL: 20
BRANCH_DIRECT_CALL: 2.006
BRANCH_INDIRECT_CALL: 0.4557
BRANCH_RETURN: 1.397

cpu0->cpu0_STLB TOTAL        ACCESS:    3427456 HIT:    2602615 MISS:     824841 MSHR_MERGE:          0
cpu0->cpu0_STLB LOAD         ACCESS:    3427456 HIT:    2602615 MISS:     824841 MSHR_MERGE:          0
cpu0->cpu0_STLB RFO          ACCESS:          0 HIT:          0 MISS:          0 MSHR_MERGE:          0
cpu0->cpu0_STLB PREFETCH     ACCESS:          0 HIT:          0 MISS:          0 MSHR_MERGE:          0
cpu0->cpu0_STLB WRITE        ACCESS:          0 HIT:          0 MISS:          0 MSHR_MERGE:          0
cpu0->cpu0_STLB TRANSLATION  ACCESS:          0 HIT:          0 MISS:          0 MSHR_MERGE:          0
cpu0->cpu0_STLB PREFETCH REQUESTED:          0 ISSUED:          0 USEFUL:          0 USELESS:          0
cpu0->cpu0_STLB AVERAGE MISS LATENCY: 127.9 cycles
cpu0->cpu0_L2C TOTAL        ACCESS:   18084671 HIT:   13259575 MISS:    4825096 MSHR_MERGE:     602124
cpu0->cpu0_L2C LOAD         ACCESS:    9689233 HIT:    7350593 MISS:    2338640 MSHR_MERGE:      73818
cpu0->cpu0_L2C RFO          ACCESS:    1054888 HIT:     574673 MISS:     480215 MSHR_MERGE:       2901
cpu0->cpu0_L2C PREFETCH     ACCESS:    4623584 HIT:    2975638 MISS:    1647946 MSHR_MERGE:     525405
cpu0->cpu0_L2C WRITE        ACCESS:    1826751 HIT:    1826658 MISS:         93 MSHR_MERGE:          0
cpu0->cpu0_L2C TRANSLATION  ACCESS:     890215 HIT:     532013 MISS:     358202 MSHR_MERGE:          0
cpu0->cpu0_L2C PREFETCH REQUESTED:    4882207 ISSUED:    4623584 USEFUL:     424511 USELESS:     698225
cpu0->cpu0_L2C AVERAGE MISS LATENCY: 181.2 cycles
cpu0->cpu0_L1I TOTAL        ACCESS:   20615967 HIT:   11767672 MISS:    8848295 MSHR_MERGE:    2119076
cpu0->cpu0_L1I LOAD         ACCESS:   20615967 HIT:   11767672 MISS:    8848295 MSHR_MERGE:    2119076
cpu0->cpu0_L1I RFO          ACCESS:          0 HIT:          0 MISS:          0 MSHR_MERGE:          0
cpu0->cpu0_L1I PREFETCH     ACCESS:          0 HIT:          0 MISS:          0 MSHR_MERGE:          0
cpu0->cpu0_L1I WRITE        ACCESS:          0 HIT:          0 MISS:          0 MSHR_MERGE:          0
cpu0->cpu0_L1I TRANSLATION  ACCESS:          0 HIT:          0 MISS:          0 MSHR_MERGE:          0
cpu0->cpu0_L1I PREFETCH REQUESTED:          0 ISSUED:          0 USEFUL:          0 USELESS:          0
cpu0->cpu0_L1I AVERAGE MISS LATENCY: 41.04 cycles
cpu0->cpu0_L1D TOTAL        ACCESS:   63502194 HIT:   55541963 MISS:    7960231 MSHR_MERGE:    3055068
cpu0->cpu0_L1D LOAD         ACCESS:   35950088 HIT:   32155440 MISS:    3794648 MSHR_MERGE:     834608
cpu0->cpu0_L1D RFO          ACCESS:          0 HIT:          0 MISS:          0 MSHR_MERGE:          0
cpu0->cpu0_L1D PREFETCH     ACCESS:          0 HIT:          0 MISS:          0 MSHR_MERGE:          0
cpu0->cpu0_L1D WRITE        ACCESS:   25408487 HIT:   22140133 MISS:    3268354 MSHR_MERGE:    2213446
cpu0->cpu0_L1D TRANSLATION  ACCESS:    2143619 HIT:    1246390 MISS:     897229 MSHR_MERGE:       7014
cpu0->cpu0_L1D PREFETCH REQUESTED:          0 ISSUED:          0 USEFUL:          0 USELESS:          0
cpu0->cpu0_L1D AVERAGE MISS LATENCY: 79.66 cycles
cpu0->cpu0_ITLB TOTAL        ACCESS:   16714866 HIT:   15695427 MISS:    1019439 MSHR_MERGE:     478344
cpu0->cpu0_ITLB LOAD         ACCESS:   16714866 HIT:   15695427 MISS:    1019439 MSHR_MERGE:     478344
cpu0->cpu0_ITLB RFO          ACCESS:          0 HIT:          0 MISS:          0 MSHR_MERGE:          0
cpu0->cpu0_ITLB PREFETCH     ACCESS:          0 HIT:          0 MISS:          0 MSHR_MERGE:          0
cpu0->cpu0_ITLB WRITE        ACCESS:          0 HIT:          0 MISS:          0 MSHR_MERGE:          0
cpu0->cpu0_ITLB TRANSLATION  ACCESS:          0 HIT:          0 MISS:          0 MSHR_MERGE:          0
cpu0->cpu0_ITLB PREFETCH REQUESTED:          0 ISSUED:          0 USEFUL:          0 USELESS:          0
cpu0->cpu0_ITLB AVERAGE MISS LATENCY: 21.86 cycles
cpu0->cpu0_DTLB TOTAL        ACCESS:   59007169 HIT:   54364538 MISS:    4642631 MSHR_MERGE:    1756270
cpu0->cpu0_DTLB LOAD         ACCESS:   59007169 HIT:   54364538 MISS:    4642631 MSHR_MERGE:    1756270
cpu0->cpu0_DTLB RFO          ACCESS:          0 HIT:          0 MISS:          0 MSHR_MERGE:          0
cpu0->cpu0_DTLB PREFETCH     ACCESS:          0 HIT:          0 MISS:          0 MSHR_MERGE:          0
cpu0->cpu0_DTLB WRITE        ACCESS:          0 HIT:          0 MISS:          0 MSHR_MERGE:          0
cpu0->cpu0_DTLB TRANSLATION  ACCESS:          0 HIT:          0 MISS:          0 MSHR_MERGE:          0
cpu0->cpu0_DTLB PREFETCH REQUESTED:          0 ISSUED:          0 USEFUL:          0 USELESS:          0
cpu0->cpu0_DTLB AVERAGE MISS LATENCY: 38.67 cycles
cpu0->LLC TOTAL        ACCESS:    5856368 HIT:    1821724 MISS:    4034644 MSHR_MERGE:     140279
cpu0->LLC LOAD         ACCESS:    2264822 HIT:     700877 MISS:    1563945 MSHR_MERGE:       6642
cpu0->LLC RFO          ACCESS:     477314 HIT:      36993 MISS:     440321 MSHR_MERGE:        107
cpu0->LLC PREFETCH     ACCESS:    1842681 HIT:     381465 MISS:    1461216 MSHR_MERGE:     133530
cpu0->LLC WRITE        ACCESS:     913349 HIT:     631197 MISS:     282152 MSHR_MERGE:          0
cpu0->LLC TRANSLATION  ACCESS:     358202 HIT:      71192 MISS:     287010 MSHR_MERGE:          0
cpu0->LLC PREFETCH REQUESTED:     739292 ISSUED:     720140 USEFUL:     240437 USELESS:     281758
cpu0->LLC AVERAGE MISS LATENCY: 195 cycles

DRAM Statistics

Channel 0 RQ ROW_BUFFER_HIT:     151791
  ROW_BUFFER_MISS:    3460369
  AVG DBUS CONGESTED CYCLE: 25.71
Channel 0 WQ ROW_BUFFER_HIT:     228926
  ROW_BUFFER_MISS:     612679
  FULL:          0
Channel 0 REFRESHES ISSUED:      41341
BERTI Stats...
