[VMEM] WARNING: physical memory size is smaller than virtual memory size.
Berti Gaze Initialized with Sets: 64 Ways: 12

*** ChampSim Multicore Out-of-Order Simulator ***
Warmup Instructions: 50000000
Simulation Instructions: 200000000
Number of CPUs: 1
Page size: 4096
Core 0: /local-ssd/ben/dpc4-traces/gtraces_v2/charlie_0002.champsim.gz
Off-chip DRAM Size: 64 GiB Channels: 1 Width: 64-bit Data Rate: 4807 MT/s
[BTB] WARNING: target of return is a lower address than the corresponding call. This is usually a problem with your trace.
[BTB] WARNING: target of return is a lower address than the corresponding call. This is usually a problem with your trace.
[BTB] WARNING: target of return is a lower address than the corresponding call. This is usually a problem with your trace.
[BTB] WARNING: target of return is a lower address than the corresponding call. This is usually a problem with your trace.
[BTB] WARNING: target of return is a lower address than the corresponding call. This is usually a problem with your trace.
Heartbeat CPU 0 instructions: 500003 cycles: 260097 heartbeat IPC: 1.922 cumulative IPC: 1.922 (Simulation time: 00 hr 00 min 04 sec)
[BTB] WARNING: target of return is a lower address than the corresponding call. This is usually a problem with your trace.
Heartbeat CPU 0 instructions: 1000004 cycles: 470131 heartbeat IPC: 2.381 cumulative IPC: 2.127 (Simulation time: 00 hr 00 min 08 sec)
Heartbeat CPU 0 instructions: 1500010 cycles: 656085 heartbeat IPC: 2.689 cumulative IPC: 2.286 (Simulation time: 00 hr 00 min 11 sec)
[BTB] WARNING: target of return is a lower address than the corresponding call. This is usually a problem with your trace.
[BTB] WARNING: target of return is a lower address than the corresponding call. This is usually a problem with your trace.
Heartbeat CPU 0 instructions: 2000014 cycles: 833053 heartbeat IPC: 2.825 cumulative IPC: 2.401 (Simulation time: 00 hr 00 min 15 sec)
[BTB] WARNING: target of return is a lower address than the corresponding call. This is usually a problem with your trace.
[BTB] WARNING: target of return is a lower address than the corresponding call. This is usually a problem with your trace.
Heartbeat CPU 0 instructions: 2500019 cycles: 1015359 heartbeat IPC: 2.743 cumulative IPC: 2.462 (Simulation time: 00 hr 00 min 18 sec)
Heartbeat CPU 0 instructions: 3000025 cycles: 1167452 heartbeat IPC: 3.288 cumulative IPC: 2.57 (Simulation time: 00 hr 00 min 21 sec)
Heartbeat CPU 0 instructions: 3500031 cycles: 1312872 heartbeat IPC: 3.438 cumulative IPC: 2.666 (Simulation time: 00 hr 00 min 23 sec)
Heartbeat CPU 0 instructions: 4000037 cycles: 1449791 heartbeat IPC: 3.652 cumulative IPC: 2.759 (Simulation time: 00 hr 00 min 26 sec)
Heartbeat CPU 0 instructions: 4500042 cycles: 1602487 heartbeat IPC: 3.275 cumulative IPC: 2.808 (Simulation time: 00 hr 00 min 29 sec)
Heartbeat CPU 0 instructions: 5000047 cycles: 1748052 heartbeat IPC: 3.435 cumulative IPC: 2.86 (Simulation time: 00 hr 00 min 31 sec)
Heartbeat CPU 0 instructions: 5500053 cycles: 1916250 heartbeat IPC: 2.973 cumulative IPC: 2.87 (Simulation time: 00 hr 00 min 35 sec)
Heartbeat CPU 0 instructions: 6000060 cycles: 2080045 heartbeat IPC: 3.053 cumulative IPC: 2.885 (Simulation time: 00 hr 00 min 38 sec)
Heartbeat CPU 0 instructions: 6500065 cycles: 2256143 heartbeat IPC: 2.839 cumulative IPC: 2.881 (Simulation time: 00 hr 00 min 41 sec)
Heartbeat CPU 0 instructions: 7000066 cycles: 2403836 heartbeat IPC: 3.385 cumulative IPC: 2.912 (Simulation time: 00 hr 00 min 44 sec)
Heartbeat CPU 0 instructions: 7500066 cycles: 2555825 heartbeat IPC: 3.29 cumulative IPC: 2.934 (Simulation time: 00 hr 00 min 47 sec)
Heartbeat CPU 0 instructions: 8000070 cycles: 2705448 heartbeat IPC: 3.342 cumulative IPC: 2.957 (Simulation time: 00 hr 00 min 49 sec)
Heartbeat CPU 0 instructions: 8500070 cycles: 2806393 heartbeat IPC: 4.953 cumulative IPC: 3.029 (Simulation time: 00 hr 00 min 51 sec)
Heartbeat CPU 0 instructions: 9000077 cycles: 2906602 heartbeat IPC: 4.99 cumulative IPC: 3.096 (Simulation time: 00 hr 00 min 53 sec)
Heartbeat CPU 0 instructions: 9500084 cycles: 3006815 heartbeat IPC: 4.989 cumulative IPC: 3.16 (Simulation time: 00 hr 00 min 54 sec)
Heartbeat CPU 0 instructions: 10000085 cycles: 3129504 heartbeat IPC: 4.075 cumulative IPC: 3.195 (Simulation time: 00 hr 00 min 57 sec)
Heartbeat CPU 0 instructions: 10500087 cycles: 3331535 heartbeat IPC: 2.475 cumulative IPC: 3.152 (Simulation time: 00 hr 01 min 00 sec)
Heartbeat CPU 0 instructions: 11000090 cycles: 3463811 heartbeat IPC: 3.78 cumulative IPC: 3.176 (Simulation time: 00 hr 01 min 02 sec)
Heartbeat CPU 0 instructions: 11500095 cycles: 3657481 heartbeat IPC: 2.582 cumulative IPC: 3.144 (Simulation time: 00 hr 01 min 05 sec)
Heartbeat CPU 0 instructions: 12000097 cycles: 3831895 heartbeat IPC: 2.867 cumulative IPC: 3.132 (Simulation time: 00 hr 01 min 09 sec)
Heartbeat CPU 0 instructions: 12500097 cycles: 3952327 heartbeat IPC: 4.152 cumulative IPC: 3.163 (Simulation time: 00 hr 01 min 11 sec)
Heartbeat CPU 0 instructions: 13000099 cycles: 4060449 heartbeat IPC: 4.624 cumulative IPC: 3.202 (Simulation time: 00 hr 01 min 12 sec)
Heartbeat CPU 0 instructions: 13500103 cycles: 4240253 heartbeat IPC: 2.781 cumulative IPC: 3.184 (Simulation time: 00 hr 01 min 15 sec)
Heartbeat CPU 0 instructions: 14000109 cycles: 4453115 heartbeat IPC: 2.349 cumulative IPC: 3.144 (Simulation time: 00 hr 01 min 19 sec)
Heartbeat CPU 0 instructions: 14500113 cycles: 4591672 heartbeat IPC: 3.609 cumulative IPC: 3.158 (Simulation time: 00 hr 01 min 21 sec)
Heartbeat CPU 0 instructions: 15000114 cycles: 4698593 heartbeat IPC: 4.676 cumulative IPC: 3.192 (Simulation time: 00 hr 01 min 23 sec)
Heartbeat CPU 0 instructions: 15500119 cycles: 4804518 heartbeat IPC: 4.72 cumulative IPC: 3.226 (Simulation time: 00 hr 01 min 25 sec)
Heartbeat CPU 0 instructions: 16000122 cycles: 4909663 heartbeat IPC: 4.755 cumulative IPC: 3.259 (Simulation time: 00 hr 01 min 27 sec)
Heartbeat CPU 0 instructions: 16500122 cycles: 5014392 heartbeat IPC: 4.774 cumulative IPC: 3.291 (Simulation time: 00 hr 01 min 28 sec)
Heartbeat CPU 0 instructions: 17000122 cycles: 5119108 heartbeat IPC: 4.775 cumulative IPC: 3.321 (Simulation time: 00 hr 01 min 30 sec)
Heartbeat CPU 0 instructions: 17500125 cycles: 5227988 heartbeat IPC: 4.592 cumulative IPC: 3.347 (Simulation time: 00 hr 01 min 32 sec)
Heartbeat CPU 0 instructions: 18000130 cycles: 5331298 heartbeat IPC: 4.84 cumulative IPC: 3.376 (Simulation time: 00 hr 01 min 34 sec)
Heartbeat CPU 0 instructions: 18500137 cycles: 5434663 heartbeat IPC: 4.837 cumulative IPC: 3.404 (Simulation time: 00 hr 01 min 36 sec)
Heartbeat CPU 0 instructions: 19000138 cycles: 5539368 heartbeat IPC: 4.775 cumulative IPC: 3.43 (Simulation time: 00 hr 01 min 38 sec)
Heartbeat CPU 0 instructions: 19500138 cycles: 5644974 heartbeat IPC: 4.735 cumulative IPC: 3.454 (Simulation time: 00 hr 01 min 39 sec)
Heartbeat CPU 0 instructions: 20000142 cycles: 5749591 heartbeat IPC: 4.779 cumulative IPC: 3.479 (Simulation time: 00 hr 01 min 41 sec)
Heartbeat CPU 0 instructions: 20500142 cycles: 5856534 heartbeat IPC: 4.675 cumulative IPC: 3.5 (Simulation time: 00 hr 01 min 43 sec)
Heartbeat CPU 0 instructions: 21000144 cycles: 5961329 heartbeat IPC: 4.771 cumulative IPC: 3.523 (Simulation time: 00 hr 01 min 45 sec)
Heartbeat CPU 0 instructions: 21500149 cycles: 6065609 heartbeat IPC: 4.795 cumulative IPC: 3.545 (Simulation time: 00 hr 01 min 47 sec)
Heartbeat CPU 0 instructions: 22000150 cycles: 6171026 heartbeat IPC: 4.743 cumulative IPC: 3.565 (Simulation time: 00 hr 01 min 49 sec)
Heartbeat CPU 0 instructions: 22500152 cycles: 6275992 heartbeat IPC: 4.763 cumulative IPC: 3.585 (Simulation time: 00 hr 01 min 50 sec)
Heartbeat CPU 0 instructions: 23000155 cycles: 6380590 heartbeat IPC: 4.78 cumulative IPC: 3.605 (Simulation time: 00 hr 01 min 52 sec)
Heartbeat CPU 0 instructions: 23500155 cycles: 6486496 heartbeat IPC: 4.721 cumulative IPC: 3.623 (Simulation time: 00 hr 01 min 54 sec)
Heartbeat CPU 0 instructions: 24000157 cycles: 6594373 heartbeat IPC: 4.635 cumulative IPC: 3.639 (Simulation time: 00 hr 01 min 56 sec)
Heartbeat CPU 0 instructions: 24500157 cycles: 6733071 heartbeat IPC: 3.605 cumulative IPC: 3.639 (Simulation time: 00 hr 01 min 58 sec)
Heartbeat CPU 0 instructions: 25000162 cycles: 6844631 heartbeat IPC: 4.482 cumulative IPC: 3.653 (Simulation time: 00 hr 02 min 00 sec)
Heartbeat CPU 0 instructions: 25500163 cycles: 6957672 heartbeat IPC: 4.423 cumulative IPC: 3.665 (Simulation time: 00 hr 02 min 02 sec)
Heartbeat CPU 0 instructions: 26000166 cycles: 7072672 heartbeat IPC: 4.348 cumulative IPC: 3.676 (Simulation time: 00 hr 02 min 04 sec)
Heartbeat CPU 0 instructions: 26500173 cycles: 7217167 heartbeat IPC: 3.46 cumulative IPC: 3.672 (Simulation time: 00 hr 02 min 07 sec)
Heartbeat CPU 0 instructions: 27000173 cycles: 7339776 heartbeat IPC: 4.078 cumulative IPC: 3.679 (Simulation time: 00 hr 02 min 09 sec)
Heartbeat CPU 0 instructions: 27500173 cycles: 7463574 heartbeat IPC: 4.039 cumulative IPC: 3.685 (Simulation time: 00 hr 02 min 11 sec)
Heartbeat CPU 0 instructions: 28000178 cycles: 7603811 heartbeat IPC: 3.565 cumulative IPC: 3.682 (Simulation time: 00 hr 02 min 13 sec)
Heartbeat CPU 0 instructions: 28500183 cycles: 7737447 heartbeat IPC: 3.742 cumulative IPC: 3.683 (Simulation time: 00 hr 02 min 15 sec)
Heartbeat CPU 0 instructions: 29000189 cycles: 7843998 heartbeat IPC: 4.693 cumulative IPC: 3.697 (Simulation time: 00 hr 02 min 17 sec)
Heartbeat CPU 0 instructions: 29500195 cycles: 7950085 heartbeat IPC: 4.713 cumulative IPC: 3.711 (Simulation time: 00 hr 02 min 19 sec)
Heartbeat CPU 0 instructions: 30000202 cycles: 8061480 heartbeat IPC: 4.489 cumulative IPC: 3.721 (Simulation time: 00 hr 02 min 21 sec)
Heartbeat CPU 0 instructions: 30500207 cycles: 8216537 heartbeat IPC: 3.225 cumulative IPC: 3.712 (Simulation time: 00 hr 02 min 24 sec)
Heartbeat CPU 0 instructions: 31000212 cycles: 8351040 heartbeat IPC: 3.717 cumulative IPC: 3.712 (Simulation time: 00 hr 02 min 26 sec)
Heartbeat CPU 0 instructions: 31500216 cycles: 8494466 heartbeat IPC: 3.486 cumulative IPC: 3.708 (Simulation time: 00 hr 02 min 29 sec)
Heartbeat CPU 0 instructions: 32000218 cycles: 8635875 heartbeat IPC: 3.536 cumulative IPC: 3.705 (Simulation time: 00 hr 02 min 31 sec)
Heartbeat CPU 0 instructions: 32500224 cycles: 8739885 heartbeat IPC: 4.807 cumulative IPC: 3.719 (Simulation time: 00 hr 02 min 33 sec)
Heartbeat CPU 0 instructions: 33000224 cycles: 8845754 heartbeat IPC: 4.723 cumulative IPC: 3.731 (Simulation time: 00 hr 02 min 35 sec)
Heartbeat CPU 0 instructions: 33500231 cycles: 8958519 heartbeat IPC: 4.434 cumulative IPC: 3.739 (Simulation time: 00 hr 02 min 37 sec)
Heartbeat CPU 0 instructions: 34000234 cycles: 9110156 heartbeat IPC: 3.297 cumulative IPC: 3.732 (Simulation time: 00 hr 02 min 39 sec)
Heartbeat CPU 0 instructions: 34500241 cycles: 9276387 heartbeat IPC: 3.008 cumulative IPC: 3.719 (Simulation time: 00 hr 02 min 42 sec)
Heartbeat CPU 0 instructions: 35000243 cycles: 9471181 heartbeat IPC: 2.567 cumulative IPC: 3.695 (Simulation time: 00 hr 02 min 45 sec)
Heartbeat CPU 0 instructions: 35500247 cycles: 9663556 heartbeat IPC: 2.599 cumulative IPC: 3.674 (Simulation time: 00 hr 02 min 49 sec)
Heartbeat CPU 0 instructions: 36000253 cycles: 9813925 heartbeat IPC: 3.325 cumulative IPC: 3.668 (Simulation time: 00 hr 02 min 52 sec)
Heartbeat CPU 0 instructions: 36500254 cycles: 9937159 heartbeat IPC: 4.057 cumulative IPC: 3.673 (Simulation time: 00 hr 02 min 54 sec)
Heartbeat CPU 0 instructions: 37000257 cycles: 10041983 heartbeat IPC: 4.77 cumulative IPC: 3.685 (Simulation time: 00 hr 02 min 56 sec)
Heartbeat CPU 0 instructions: 37500259 cycles: 10146332 heartbeat IPC: 4.792 cumulative IPC: 3.696 (Simulation time: 00 hr 02 min 58 sec)
Heartbeat CPU 0 instructions: 38000266 cycles: 10250436 heartbeat IPC: 4.803 cumulative IPC: 3.707 (Simulation time: 00 hr 02 min 59 sec)
Heartbeat CPU 0 instructions: 38500270 cycles: 10355008 heartbeat IPC: 4.781 cumulative IPC: 3.718 (Simulation time: 00 hr 03 min 01 sec)
Heartbeat CPU 0 instructions: 39000270 cycles: 10459933 heartbeat IPC: 4.765 cumulative IPC: 3.729 (Simulation time: 00 hr 03 min 03 sec)
Heartbeat CPU 0 instructions: 39500271 cycles: 10565050 heartbeat IPC: 4.757 cumulative IPC: 3.739 (Simulation time: 00 hr 03 min 05 sec)
Heartbeat CPU 0 instructions: 40000276 cycles: 10669973 heartbeat IPC: 4.765 cumulative IPC: 3.749 (Simulation time: 00 hr 03 min 07 sec)
Heartbeat CPU 0 instructions: 40500281 cycles: 10775162 heartbeat IPC: 4.753 cumulative IPC: 3.759 (Simulation time: 00 hr 03 min 09 sec)
Heartbeat CPU 0 instructions: 41000287 cycles: 10878460 heartbeat IPC: 4.84 cumulative IPC: 3.769 (Simulation time: 00 hr 03 min 10 sec)
Heartbeat CPU 0 instructions: 41500293 cycles: 10992778 heartbeat IPC: 4.374 cumulative IPC: 3.775 (Simulation time: 00 hr 03 min 12 sec)
Heartbeat CPU 0 instructions: 42000294 cycles: 11107717 heartbeat IPC: 4.35 cumulative IPC: 3.781 (Simulation time: 00 hr 03 min 14 sec)
Heartbeat CPU 0 instructions: 42500301 cycles: 11216780 heartbeat IPC: 4.585 cumulative IPC: 3.789 (Simulation time: 00 hr 03 min 16 sec)
Heartbeat CPU 0 instructions: 43000306 cycles: 11328946 heartbeat IPC: 4.458 cumulative IPC: 3.796 (Simulation time: 00 hr 03 min 18 sec)
Heartbeat CPU 0 instructions: 43500308 cycles: 11438979 heartbeat IPC: 4.544 cumulative IPC: 3.803 (Simulation time: 00 hr 03 min 20 sec)
Heartbeat CPU 0 instructions: 44000309 cycles: 11555811 heartbeat IPC: 4.28 cumulative IPC: 3.808 (Simulation time: 00 hr 03 min 22 sec)
Heartbeat CPU 0 instructions: 44500312 cycles: 11667462 heartbeat IPC: 4.478 cumulative IPC: 3.814 (Simulation time: 00 hr 03 min 24 sec)
Heartbeat CPU 0 instructions: 45000315 cycles: 11781357 heartbeat IPC: 4.39 cumulative IPC: 3.82 (Simulation time: 00 hr 03 min 26 sec)
Heartbeat CPU 0 instructions: 45500319 cycles: 11894697 heartbeat IPC: 4.412 cumulative IPC: 3.825 (Simulation time: 00 hr 03 min 28 sec)
Heartbeat CPU 0 instructions: 46000320 cycles: 12004712 heartbeat IPC: 4.545 cumulative IPC: 3.832 (Simulation time: 00 hr 03 min 30 sec)
Heartbeat CPU 0 instructions: 46500327 cycles: 12116993 heartbeat IPC: 4.453 cumulative IPC: 3.838 (Simulation time: 00 hr 03 min 32 sec)
Heartbeat CPU 0 instructions: 47000327 cycles: 12233861 heartbeat IPC: 4.278 cumulative IPC: 3.842 (Simulation time: 00 hr 03 min 34 sec)
Heartbeat CPU 0 instructions: 47500331 cycles: 12345464 heartbeat IPC: 4.48 cumulative IPC: 3.848 (Simulation time: 00 hr 03 min 36 sec)
Heartbeat CPU 0 instructions: 48000338 cycles: 12487577 heartbeat IPC: 3.518 cumulative IPC: 3.844 (Simulation time: 00 hr 03 min 38 sec)
Heartbeat CPU 0 instructions: 48500341 cycles: 12629914 heartbeat IPC: 3.513 cumulative IPC: 3.84 (Simulation time: 00 hr 03 min 41 sec)
Heartbeat CPU 0 instructions: 49000343 cycles: 12801264 heartbeat IPC: 2.918 cumulative IPC: 3.828 (Simulation time: 00 hr 03 min 44 sec)
Heartbeat CPU 0 instructions: 49500349 cycles: 12906437 heartbeat IPC: 4.754 cumulative IPC: 3.835 (Simulation time: 00 hr 03 min 46 sec)
Warmup halting CPU 0 at instruction 50000001 cycle 13011168 for remainder of phase
Warmup finished CPU 0 instructions: 50000001 cycles: 13011168 cumulative IPC: 3.843 (Simulation time: 00 hr 03 min 48 sec)
Warmup complete CPU 0 instructions: 50000001 cycles: 13011168 cumulative IPC: 3.843 (Simulation time: 00 hr 03 min 48 sec)
Heartbeat CPU 0 instructions: 50000353 cycles: 13011212 heartbeat IPC: 4.772 cumulative IPC: 8 (Simulation time: 00 hr 03 min 48 sec)
Heartbeat CPU 0 instructions: 50500357 cycles: 13379843 heartbeat IPC: 1.356 cumulative IPC: 1.357 (Simulation time: 00 hr 03 min 52 sec)
Heartbeat CPU 0 instructions: 51000357 cycles: 13914108 heartbeat IPC: 0.9359 cumulative IPC: 1.108 (Simulation time: 00 hr 03 min 57 sec)
Heartbeat CPU 0 instructions: 51500361 cycles: 14259597 heartbeat IPC: 1.447 cumulative IPC: 1.202 (Simulation time: 00 hr 04 min 00 sec)
Heartbeat CPU 0 instructions: 52000361 cycles: 14584327 heartbeat IPC: 1.54 cumulative IPC: 1.272 (Simulation time: 00 hr 04 min 04 sec)
Heartbeat CPU 0 instructions: 52500361 cycles: 14892661 heartbeat IPC: 1.622 cumulative IPC: 1.329 (Simulation time: 00 hr 04 min 07 sec)
Heartbeat CPU 0 instructions: 53000364 cycles: 15269855 heartbeat IPC: 1.326 cumulative IPC: 1.328 (Simulation time: 00 hr 04 min 11 sec)
Heartbeat CPU 0 instructions: 53500366 cycles: 15611752 heartbeat IPC: 1.462 cumulative IPC: 1.346 (Simulation time: 00 hr 04 min 15 sec)
Heartbeat CPU 0 instructions: 54000367 cycles: 17120755 heartbeat IPC: 0.3313 cumulative IPC: 0.9734 (Simulation time: 00 hr 04 min 26 sec)
Heartbeat CPU 0 instructions: 54500369 cycles: 18728629 heartbeat IPC: 0.311 cumulative IPC: 0.7871 (Simulation time: 00 hr 04 min 38 sec)
Heartbeat CPU 0 instructions: 55000373 cycles: 19644600 heartbeat IPC: 0.5459 cumulative IPC: 0.7538 (Simulation time: 00 hr 04 min 46 sec)
Heartbeat CPU 0 instructions: 55500376 cycles: 21315325 heartbeat IPC: 0.2993 cumulative IPC: 0.6624 (Simulation time: 00 hr 04 min 58 sec)
Heartbeat CPU 0 instructions: 56000377 cycles: 22133305 heartbeat IPC: 0.6113 cumulative IPC: 0.6578 (Simulation time: 00 hr 05 min 05 sec)
Heartbeat CPU 0 instructions: 56500380 cycles: 23801442 heartbeat IPC: 0.2997 cumulative IPC: 0.6024 (Simulation time: 00 hr 05 min 17 sec)
Heartbeat CPU 0 instructions: 57000381 cycles: 25528224 heartbeat IPC: 0.2896 cumulative IPC: 0.5593 (Simulation time: 00 hr 05 min 30 sec)
Heartbeat CPU 0 instructions: 57500385 cycles: 26502565 heartbeat IPC: 0.5132 cumulative IPC: 0.5559 (Simulation time: 00 hr 05 min 37 sec)
Heartbeat CPU 0 instructions: 58000388 cycles: 27790466 heartbeat IPC: 0.3882 cumulative IPC: 0.5413 (Simulation time: 00 hr 05 min 47 sec)
Heartbeat CPU 0 instructions: 58500388 cycles: 28560630 heartbeat IPC: 0.6492 cumulative IPC: 0.5467 (Simulation time: 00 hr 05 min 53 sec)
Heartbeat CPU 0 instructions: 59000389 cycles: 29004784 heartbeat IPC: 1.126 cumulative IPC: 0.5627 (Simulation time: 00 hr 05 min 57 sec)
Heartbeat CPU 0 instructions: 59500389 cycles: 29437031 heartbeat IPC: 1.157 cumulative IPC: 0.5784 (Simulation time: 00 hr 06 min 01 sec)
Heartbeat CPU 0 instructions: 60000393 cycles: 30772817 heartbeat IPC: 0.3743 cumulative IPC: 0.563 (Simulation time: 00 hr 06 min 11 sec)
Heartbeat CPU 0 instructions: 60500394 cycles: 31919269 heartbeat IPC: 0.4361 cumulative IPC: 0.5553 (Simulation time: 00 hr 06 min 20 sec)
Heartbeat CPU 0 instructions: 61000396 cycles: 32335433 heartbeat IPC: 1.201 cumulative IPC: 0.5693 (Simulation time: 00 hr 06 min 24 sec)
Heartbeat CPU 0 instructions: 61500402 cycles: 32694151 heartbeat IPC: 1.394 cumulative IPC: 0.5843 (Simulation time: 00 hr 06 min 28 sec)
Heartbeat CPU 0 instructions: 62000402 cycles: 33072990 heartbeat IPC: 1.32 cumulative IPC: 0.5982 (Simulation time: 00 hr 06 min 31 sec)
Heartbeat CPU 0 instructions: 62500402 cycles: 33430876 heartbeat IPC: 1.397 cumulative IPC: 0.6122 (Simulation time: 00 hr 06 min 35 sec)
Heartbeat CPU 0 instructions: 63000404 cycles: 33873411 heartbeat IPC: 1.13 cumulative IPC: 0.6232 (Simulation time: 00 hr 06 min 39 sec)
Heartbeat CPU 0 instructions: 63500406 cycles: 34249216 heartbeat IPC: 1.33 cumulative IPC: 0.6357 (Simulation time: 00 hr 06 min 43 sec)
Heartbeat CPU 0 instructions: 64000410 cycles: 34630162 heartbeat IPC: 1.313 cumulative IPC: 0.6476 (Simulation time: 00 hr 06 min 47 sec)
Heartbeat CPU 0 instructions: 64500412 cycles: 34999508 heartbeat IPC: 1.354 cumulative IPC: 0.6595 (Simulation time: 00 hr 06 min 51 sec)
Heartbeat CPU 0 instructions: 65000414 cycles: 35410668 heartbeat IPC: 1.216 cumulative IPC: 0.6697 (Simulation time: 00 hr 06 min 55 sec)
Heartbeat CPU 0 instructions: 65500419 cycles: 35798461 heartbeat IPC: 1.289 cumulative IPC: 0.6802 (Simulation time: 00 hr 06 min 59 sec)
Heartbeat CPU 0 instructions: 66000420 cycles: 36156683 heartbeat IPC: 1.396 cumulative IPC: 0.6913 (Simulation time: 00 hr 07 min 02 sec)
Heartbeat CPU 0 instructions: 66500420 cycles: 36512603 heartbeat IPC: 1.405 cumulative IPC: 0.7021 (Simulation time: 00 hr 07 min 06 sec)
Heartbeat CPU 0 instructions: 67000420 cycles: 36953642 heartbeat IPC: 1.134 cumulative IPC: 0.7101 (Simulation time: 00 hr 07 min 11 sec)
Heartbeat CPU 0 instructions: 67500424 cycles: 37313832 heartbeat IPC: 1.388 cumulative IPC: 0.7201 (Simulation time: 00 hr 07 min 14 sec)
Heartbeat CPU 0 instructions: 68000425 cycles: 37651410 heartbeat IPC: 1.481 cumulative IPC: 0.7305 (Simulation time: 00 hr 07 min 18 sec)
Heartbeat CPU 0 instructions: 68500428 cycles: 38212471 heartbeat IPC: 0.8912 cumulative IPC: 0.7341 (Simulation time: 00 hr 07 min 23 sec)
Heartbeat CPU 0 instructions: 69000429 cycles: 38793110 heartbeat IPC: 0.8611 cumulative IPC: 0.737 (Simulation time: 00 hr 07 min 28 sec)
Heartbeat CPU 0 instructions: 69500433 cycles: 39188255 heartbeat IPC: 1.265 cumulative IPC: 0.7449 (Simulation time: 00 hr 07 min 32 sec)
Heartbeat CPU 0 instructions: 70000433 cycles: 39591286 heartbeat IPC: 1.241 cumulative IPC: 0.7525 (Simulation time: 00 hr 07 min 36 sec)
Heartbeat CPU 0 instructions: 70500436 cycles: 39967078 heartbeat IPC: 1.331 cumulative IPC: 0.7605 (Simulation time: 00 hr 07 min 40 sec)
Heartbeat CPU 0 instructions: 71000440 cycles: 40329041 heartbeat IPC: 1.381 cumulative IPC: 0.7687 (Simulation time: 00 hr 07 min 44 sec)
Heartbeat CPU 0 instructions: 71500442 cycles: 40754141 heartbeat IPC: 1.176 cumulative IPC: 0.775 (Simulation time: 00 hr 07 min 48 sec)
Heartbeat CPU 0 instructions: 72000444 cycles: 41203066 heartbeat IPC: 1.114 cumulative IPC: 0.7804 (Simulation time: 00 hr 07 min 53 sec)
Heartbeat CPU 0 instructions: 72500446 cycles: 41636983 heartbeat IPC: 1.152 cumulative IPC: 0.786 (Simulation time: 00 hr 07 min 57 sec)
Heartbeat CPU 0 instructions: 73000448 cycles: 41996192 heartbeat IPC: 1.392 cumulative IPC: 0.7935 (Simulation time: 00 hr 08 min 01 sec)
Heartbeat CPU 0 instructions: 73500452 cycles: 42392994 heartbeat IPC: 1.26 cumulative IPC: 0.7998 (Simulation time: 00 hr 08 min 05 sec)
Heartbeat CPU 0 instructions: 74000454 cycles: 42782828 heartbeat IPC: 1.283 cumulative IPC: 0.8062 (Simulation time: 00 hr 08 min 10 sec)
Heartbeat CPU 0 instructions: 74500460 cycles: 43184021 heartbeat IPC: 1.246 cumulative IPC: 0.812 (Simulation time: 00 hr 08 min 14 sec)
Heartbeat CPU 0 instructions: 75000460 cycles: 43581195 heartbeat IPC: 1.259 cumulative IPC: 0.8178 (Simulation time: 00 hr 08 min 18 sec)
Heartbeat CPU 0 instructions: 75500460 cycles: 44034781 heartbeat IPC: 1.102 cumulative IPC: 0.822 (Simulation time: 00 hr 08 min 22 sec)
Heartbeat CPU 0 instructions: 76000460 cycles: 44425779 heartbeat IPC: 1.279 cumulative IPC: 0.8277 (Simulation time: 00 hr 08 min 26 sec)
Heartbeat CPU 0 instructions: 76500462 cycles: 44788957 heartbeat IPC: 1.377 cumulative IPC: 0.8339 (Simulation time: 00 hr 08 min 30 sec)
Heartbeat CPU 0 instructions: 77000462 cycles: 45153221 heartbeat IPC: 1.373 cumulative IPC: 0.84 (Simulation time: 00 hr 08 min 34 sec)
Heartbeat CPU 0 instructions: 77500463 cycles: 45506885 heartbeat IPC: 1.414 cumulative IPC: 0.8463 (Simulation time: 00 hr 08 min 38 sec)
Heartbeat CPU 0 instructions: 78000464 cycles: 45894009 heartbeat IPC: 1.292 cumulative IPC: 0.8515 (Simulation time: 00 hr 08 min 41 sec)
Heartbeat CPU 0 instructions: 78500466 cycles: 46295365 heartbeat IPC: 1.246 cumulative IPC: 0.8563 (Simulation time: 00 hr 08 min 45 sec)
Heartbeat CPU 0 instructions: 79000467 cycles: 46936283 heartbeat IPC: 0.7801 cumulative IPC: 0.8548 (Simulation time: 00 hr 08 min 52 sec)
Heartbeat CPU 0 instructions: 79500467 cycles: 47298731 heartbeat IPC: 1.38 cumulative IPC: 0.8604 (Simulation time: 00 hr 08 min 55 sec)
Heartbeat CPU 0 instructions: 80000468 cycles: 47708330 heartbeat IPC: 1.221 cumulative IPC: 0.8646 (Simulation time: 00 hr 08 min 59 sec)
Heartbeat CPU 0 instructions: 80500470 cycles: 48109577 heartbeat IPC: 1.246 cumulative IPC: 0.869 (Simulation time: 00 hr 09 min 04 sec)
Heartbeat CPU 0 instructions: 81000475 cycles: 48511750 heartbeat IPC: 1.243 cumulative IPC: 0.8732 (Simulation time: 00 hr 09 min 08 sec)
Heartbeat CPU 0 instructions: 81500478 cycles: 48878217 heartbeat IPC: 1.364 cumulative IPC: 0.8783 (Simulation time: 00 hr 09 min 12 sec)
Heartbeat CPU 0 instructions: 82000481 cycles: 49290082 heartbeat IPC: 1.214 cumulative IPC: 0.8821 (Simulation time: 00 hr 09 min 16 sec)
Heartbeat CPU 0 instructions: 82500487 cycles: 49651614 heartbeat IPC: 1.383 cumulative IPC: 0.887 (Simulation time: 00 hr 09 min 20 sec)
Heartbeat CPU 0 instructions: 83000489 cycles: 50186871 heartbeat IPC: 0.9341 cumulative IPC: 0.8877 (Simulation time: 00 hr 09 min 25 sec)
Heartbeat CPU 0 instructions: 83500489 cycles: 50597445 heartbeat IPC: 1.218 cumulative IPC: 0.8913 (Simulation time: 00 hr 09 min 30 sec)
Heartbeat CPU 0 instructions: 84000489 cycles: 50979447 heartbeat IPC: 1.309 cumulative IPC: 0.8955 (Simulation time: 00 hr 09 min 34 sec)
Heartbeat CPU 0 instructions: 84500490 cycles: 51430094 heartbeat IPC: 1.11 cumulative IPC: 0.898 (Simulation time: 00 hr 09 min 38 sec)
Heartbeat CPU 0 instructions: 85000492 cycles: 51831439 heartbeat IPC: 1.246 cumulative IPC: 0.9016 (Simulation time: 00 hr 09 min 42 sec)
Heartbeat CPU 0 instructions: 85500496 cycles: 52179402 heartbeat IPC: 1.437 cumulative IPC: 0.9064 (Simulation time: 00 hr 09 min 46 sec)
Heartbeat CPU 0 instructions: 86000501 cycles: 52578100 heartbeat IPC: 1.254 cumulative IPC: 0.9099 (Simulation time: 00 hr 09 min 50 sec)
Heartbeat CPU 0 instructions: 86500501 cycles: 52980857 heartbeat IPC: 1.241 cumulative IPC: 0.9132 (Simulation time: 00 hr 09 min 54 sec)
Heartbeat CPU 0 instructions: 87000508 cycles: 53437170 heartbeat IPC: 1.096 cumulative IPC: 0.9153 (Simulation time: 00 hr 09 min 59 sec)
Heartbeat CPU 0 instructions: 87500511 cycles: 53844230 heartbeat IPC: 1.228 cumulative IPC: 0.9184 (Simulation time: 00 hr 10 min 03 sec)
Heartbeat CPU 0 instructions: 88000511 cycles: 54206562 heartbeat IPC: 1.38 cumulative IPC: 0.9224 (Simulation time: 00 hr 10 min 07 sec)
Heartbeat CPU 0 instructions: 88500516 cycles: 54567395 heartbeat IPC: 1.386 cumulative IPC: 0.9265 (Simulation time: 00 hr 10 min 11 sec)
Heartbeat CPU 0 instructions: 89000519 cycles: 55670544 heartbeat IPC: 0.4533 cumulative IPC: 0.9142 (Simulation time: 00 hr 10 min 20 sec)
Heartbeat CPU 0 instructions: 89500522 cycles: 56104991 heartbeat IPC: 1.151 cumulative IPC: 0.9166 (Simulation time: 00 hr 10 min 25 sec)
Heartbeat CPU 0 instructions: 90000524 cycles: 56461132 heartbeat IPC: 1.404 cumulative IPC: 0.9206 (Simulation time: 00 hr 10 min 28 sec)
Heartbeat CPU 0 instructions: 90500528 cycles: 56882656 heartbeat IPC: 1.186 cumulative IPC: 0.9232 (Simulation time: 00 hr 10 min 33 sec)
Heartbeat CPU 0 instructions: 91000529 cycles: 57236250 heartbeat IPC: 1.414 cumulative IPC: 0.9271 (Simulation time: 00 hr 10 min 36 sec)
Heartbeat CPU 0 instructions: 91500529 cycles: 57585740 heartbeat IPC: 1.431 cumulative IPC: 0.931 (Simulation time: 00 hr 10 min 40 sec)
Heartbeat CPU 0 instructions: 92000529 cycles: 57956058 heartbeat IPC: 1.35 cumulative IPC: 0.9345 (Simulation time: 00 hr 10 min 44 sec)
Heartbeat CPU 0 instructions: 92500529 cycles: 58315895 heartbeat IPC: 1.39 cumulative IPC: 0.9381 (Simulation time: 00 hr 10 min 48 sec)
Heartbeat CPU 0 instructions: 93000529 cycles: 58725819 heartbeat IPC: 1.22 cumulative IPC: 0.9406 (Simulation time: 00 hr 10 min 52 sec)
Heartbeat CPU 0 instructions: 93500530 cycles: 59141276 heartbeat IPC: 1.203 cumulative IPC: 0.943 (Simulation time: 00 hr 10 min 56 sec)
Heartbeat CPU 0 instructions: 94000537 cycles: 59542443 heartbeat IPC: 1.246 cumulative IPC: 0.9456 (Simulation time: 00 hr 11 min 00 sec)
Heartbeat CPU 0 instructions: 94500537 cycles: 59946669 heartbeat IPC: 1.237 cumulative IPC: 0.9481 (Simulation time: 00 hr 11 min 05 sec)
Heartbeat CPU 0 instructions: 95000544 cycles: 60345276 heartbeat IPC: 1.254 cumulative IPC: 0.9507 (Simulation time: 00 hr 11 min 09 sec)
Heartbeat CPU 0 instructions: 95500550 cycles: 60720818 heartbeat IPC: 1.331 cumulative IPC: 0.9537 (Simulation time: 00 hr 11 min 13 sec)
Heartbeat CPU 0 instructions: 96000555 cycles: 61097168 heartbeat IPC: 1.329 cumulative IPC: 0.9566 (Simulation time: 00 hr 11 min 17 sec)
Heartbeat CPU 0 instructions: 96500555 cycles: 61470367 heartbeat IPC: 1.34 cumulative IPC: 0.9596 (Simulation time: 00 hr 11 min 21 sec)
Heartbeat CPU 0 instructions: 97000555 cycles: 61858365 heartbeat IPC: 1.289 cumulative IPC: 0.9622 (Simulation time: 00 hr 11 min 26 sec)
Heartbeat CPU 0 instructions: 97500555 cycles: 62327827 heartbeat IPC: 1.065 cumulative IPC: 0.9632 (Simulation time: 00 hr 11 min 31 sec)
Heartbeat CPU 0 instructions: 98000558 cycles: 62696997 heartbeat IPC: 1.354 cumulative IPC: 0.9661 (Simulation time: 00 hr 11 min 35 sec)
Heartbeat CPU 0 instructions: 98500560 cycles: 63057992 heartbeat IPC: 1.385 cumulative IPC: 0.9691 (Simulation time: 00 hr 11 min 39 sec)
Heartbeat CPU 0 instructions: 99000564 cycles: 63802943 heartbeat IPC: 0.6712 cumulative IPC: 0.9647 (Simulation time: 00 hr 11 min 46 sec)
Heartbeat CPU 0 instructions: 99500568 cycles: 64248827 heartbeat IPC: 1.121 cumulative IPC: 0.9661 (Simulation time: 00 hr 11 min 50 sec)
Heartbeat CPU 0 instructions: 100000568 cycles: 64654189 heartbeat IPC: 1.233 cumulative IPC: 0.9682 (Simulation time: 00 hr 11 min 54 sec)
Heartbeat CPU 0 instructions: 100500572 cycles: 65045636 heartbeat IPC: 1.277 cumulative IPC: 0.9705 (Simulation time: 00 hr 11 min 58 sec)
Heartbeat CPU 0 instructions: 101000574 cycles: 65448266 heartbeat IPC: 1.242 cumulative IPC: 0.9726 (Simulation time: 00 hr 12 min 02 sec)
Heartbeat CPU 0 instructions: 101500575 cycles: 65879489 heartbeat IPC: 1.159 cumulative IPC: 0.9741 (Simulation time: 00 hr 12 min 07 sec)
Heartbeat CPU 0 instructions: 102000575 cycles: 66302991 heartbeat IPC: 1.181 cumulative IPC: 0.9758 (Simulation time: 00 hr 12 min 11 sec)
Heartbeat CPU 0 instructions: 102500575 cycles: 66738502 heartbeat IPC: 1.148 cumulative IPC: 0.9772 (Simulation time: 00 hr 12 min 16 sec)
Heartbeat CPU 0 instructions: 103000576 cycles: 67135045 heartbeat IPC: 1.261 cumulative IPC: 0.9792 (Simulation time: 00 hr 12 min 20 sec)
Heartbeat CPU 0 instructions: 103500583 cycles: 67580349 heartbeat IPC: 1.123 cumulative IPC: 0.9804 (Simulation time: 00 hr 12 min 24 sec)
Heartbeat CPU 0 instructions: 104000587 cycles: 67933647 heartbeat IPC: 1.415 cumulative IPC: 0.9832 (Simulation time: 00 hr 12 min 28 sec)
Heartbeat CPU 0 instructions: 104500588 cycles: 68324823 heartbeat IPC: 1.278 cumulative IPC: 0.9853 (Simulation time: 00 hr 12 min 32 sec)
Heartbeat CPU 0 instructions: 105000590 cycles: 68700430 heartbeat IPC: 1.331 cumulative IPC: 0.9876 (Simulation time: 00 hr 12 min 36 sec)
Heartbeat CPU 0 instructions: 105500590 cycles: 69111061 heartbeat IPC: 1.218 cumulative IPC: 0.9893 (Simulation time: 00 hr 12 min 40 sec)
Heartbeat CPU 0 instructions: 106000591 cycles: 69507192 heartbeat IPC: 1.262 cumulative IPC: 0.9912 (Simulation time: 00 hr 12 min 44 sec)
Heartbeat CPU 0 instructions: 106500592 cycles: 69914489 heartbeat IPC: 1.228 cumulative IPC: 0.9929 (Simulation time: 00 hr 12 min 48 sec)
Heartbeat CPU 0 instructions: 107000592 cycles: 70318973 heartbeat IPC: 1.236 cumulative IPC: 0.9946 (Simulation time: 00 hr 12 min 52 sec)
Heartbeat CPU 0 instructions: 107500593 cycles: 70714581 heartbeat IPC: 1.264 cumulative IPC: 0.9965 (Simulation time: 00 hr 12 min 56 sec)
Heartbeat CPU 0 instructions: 108000596 cycles: 71097124 heartbeat IPC: 1.307 cumulative IPC: 0.9985 (Simulation time: 00 hr 13 min 00 sec)
Heartbeat CPU 0 instructions: 108500597 cycles: 71483846 heartbeat IPC: 1.293 cumulative IPC: 1 (Simulation time: 00 hr 13 min 05 sec)
Heartbeat CPU 0 instructions: 109000597 cycles: 72444947 heartbeat IPC: 0.5202 cumulative IPC: 0.9927 (Simulation time: 00 hr 13 min 13 sec)
Heartbeat CPU 0 instructions: 109500597 cycles: 72886443 heartbeat IPC: 1.133 cumulative IPC: 0.9937 (Simulation time: 00 hr 13 min 17 sec)
Heartbeat CPU 0 instructions: 110000598 cycles: 73247104 heartbeat IPC: 1.386 cumulative IPC: 0.9961 (Simulation time: 00 hr 13 min 21 sec)
Heartbeat CPU 0 instructions: 110500602 cycles: 73641770 heartbeat IPC: 1.267 cumulative IPC: 0.9979 (Simulation time: 00 hr 13 min 25 sec)
Heartbeat CPU 0 instructions: 111000602 cycles: 74041918 heartbeat IPC: 1.25 cumulative IPC: 0.9995 (Simulation time: 00 hr 13 min 29 sec)
Heartbeat CPU 0 instructions: 111500603 cycles: 74420288 heartbeat IPC: 1.321 cumulative IPC: 1.001 (Simulation time: 00 hr 13 min 33 sec)
Heartbeat CPU 0 instructions: 112000603 cycles: 74804412 heartbeat IPC: 1.302 cumulative IPC: 1.003 (Simulation time: 00 hr 13 min 37 sec)
Heartbeat CPU 0 instructions: 112500603 cycles: 75136530 heartbeat IPC: 1.505 cumulative IPC: 1.006 (Simulation time: 00 hr 13 min 40 sec)
Heartbeat CPU 0 instructions: 113000604 cycles: 75539262 heartbeat IPC: 1.242 cumulative IPC: 1.008 (Simulation time: 00 hr 13 min 45 sec)
Heartbeat CPU 0 instructions: 113500604 cycles: 75957410 heartbeat IPC: 1.196 cumulative IPC: 1.009 (Simulation time: 00 hr 13 min 49 sec)
Heartbeat CPU 0 instructions: 114000607 cycles: 76348257 heartbeat IPC: 1.279 cumulative IPC: 1.01 (Simulation time: 00 hr 13 min 53 sec)
Heartbeat CPU 0 instructions: 114500608 cycles: 76752238 heartbeat IPC: 1.238 cumulative IPC: 1.012 (Simulation time: 00 hr 13 min 57 sec)
Heartbeat CPU 0 instructions: 115000609 cycles: 77147086 heartbeat IPC: 1.266 cumulative IPC: 1.013 (Simulation time: 00 hr 14 min 01 sec)
Heartbeat CPU 0 instructions: 115500609 cycles: 77553912 heartbeat IPC: 1.229 cumulative IPC: 1.015 (Simulation time: 00 hr 14 min 05 sec)
Heartbeat CPU 0 instructions: 116000616 cycles: 77984731 heartbeat IPC: 1.161 cumulative IPC: 1.016 (Simulation time: 00 hr 14 min 09 sec)
Heartbeat CPU 0 instructions: 116500617 cycles: 78415819 heartbeat IPC: 1.16 cumulative IPC: 1.017 (Simulation time: 00 hr 14 min 14 sec)
Heartbeat CPU 0 instructions: 117000620 cycles: 78751652 heartbeat IPC: 1.489 cumulative IPC: 1.019 (Simulation time: 00 hr 14 min 18 sec)
Heartbeat CPU 0 instructions: 117500621 cycles: 79112897 heartbeat IPC: 1.384 cumulative IPC: 1.021 (Simulation time: 00 hr 14 min 21 sec)
Heartbeat CPU 0 instructions: 118000628 cycles: 80618195 heartbeat IPC: 0.3322 cumulative IPC: 1.006 (Simulation time: 00 hr 14 min 33 sec)
Heartbeat CPU 0 instructions: 118500628 cycles: 82865292 heartbeat IPC: 0.2225 cumulative IPC: 0.9806 (Simulation time: 00 hr 14 min 58 sec)
Heartbeat CPU 0 instructions: 119000632 cycles: 84938376 heartbeat IPC: 0.2412 cumulative IPC: 0.9593 (Simulation time: 00 hr 15 min 23 sec)
Heartbeat CPU 0 instructions: 119500634 cycles: 87179155 heartbeat IPC: 0.2231 cumulative IPC: 0.9371 (Simulation time: 00 hr 15 min 49 sec)
Heartbeat CPU 0 instructions: 120000635 cycles: 89888461 heartbeat IPC: 0.1845 cumulative IPC: 0.9106 (Simulation time: 00 hr 16 min 08 sec)
Heartbeat CPU 0 instructions: 120500642 cycles: 91402210 heartbeat IPC: 0.3303 cumulative IPC: 0.8993 (Simulation time: 00 hr 16 min 19 sec)
Heartbeat CPU 0 instructions: 121000645 cycles: 91851632 heartbeat IPC: 1.113 cumulative IPC: 0.9006 (Simulation time: 00 hr 16 min 23 sec)
Heartbeat CPU 0 instructions: 121500646 cycles: 92285424 heartbeat IPC: 1.153 cumulative IPC: 0.9019 (Simulation time: 00 hr 16 min 27 sec)
Heartbeat CPU 0 instructions: 122000648 cycles: 92690353 heartbeat IPC: 1.235 cumulative IPC: 0.9036 (Simulation time: 00 hr 16 min 31 sec)
Heartbeat CPU 0 instructions: 122500652 cycles: 94587798 heartbeat IPC: 0.2635 cumulative IPC: 0.8887 (Simulation time: 00 hr 16 min 44 sec)
Heartbeat CPU 0 instructions: 123000652 cycles: 95497377 heartbeat IPC: 0.5497 cumulative IPC: 0.885 (Simulation time: 00 hr 16 min 51 sec)
Heartbeat CPU 0 instructions: 123500656 cycles: 97325122 heartbeat IPC: 0.2736 cumulative IPC: 0.8717 (Simulation time: 00 hr 17 min 04 sec)
Heartbeat CPU 0 instructions: 124000656 cycles: 99178224 heartbeat IPC: 0.2698 cumulative IPC: 0.8588 (Simulation time: 00 hr 17 min 18 sec)
Heartbeat CPU 0 instructions: 124500657 cycles: 100550522 heartbeat IPC: 0.3644 cumulative IPC: 0.8511 (Simulation time: 00 hr 17 min 28 sec)
Heartbeat CPU 0 instructions: 125000657 cycles: 101848509 heartbeat IPC: 0.3852 cumulative IPC: 0.8442 (Simulation time: 00 hr 17 min 37 sec)
Heartbeat CPU 0 instructions: 125500661 cycles: 102548654 heartbeat IPC: 0.7141 cumulative IPC: 0.8432 (Simulation time: 00 hr 17 min 43 sec)
Heartbeat CPU 0 instructions: 126000661 cycles: 103035279 heartbeat IPC: 1.027 cumulative IPC: 0.8442 (Simulation time: 00 hr 17 min 48 sec)
Heartbeat CPU 0 instructions: 126500661 cycles: 103516934 heartbeat IPC: 1.038 cumulative IPC: 0.8453 (Simulation time: 00 hr 17 min 52 sec)
Heartbeat CPU 0 instructions: 127000665 cycles: 104141609 heartbeat IPC: 0.8004 cumulative IPC: 0.8449 (Simulation time: 00 hr 17 min 58 sec)
Heartbeat CPU 0 instructions: 127500665 cycles: 105839626 heartbeat IPC: 0.2945 cumulative IPC: 0.8349 (Simulation time: 00 hr 18 min 10 sec)
Heartbeat CPU 0 instructions: 128000669 cycles: 106754594 heartbeat IPC: 0.5465 cumulative IPC: 0.8321 (Simulation time: 00 hr 18 min 17 sec)
Heartbeat CPU 0 instructions: 128500671 cycles: 108027129 heartbeat IPC: 0.3929 cumulative IPC: 0.8262 (Simulation time: 00 hr 18 min 26 sec)
Heartbeat CPU 0 instructions: 129000674 cycles: 109727661 heartbeat IPC: 0.294 cumulative IPC: 0.8168 (Simulation time: 00 hr 18 min 38 sec)
Heartbeat CPU 0 instructions: 129500676 cycles: 110176914 heartbeat IPC: 1.113 cumulative IPC: 0.8182 (Simulation time: 00 hr 18 min 43 sec)
Heartbeat CPU 0 instructions: 130000682 cycles: 110571357 heartbeat IPC: 1.268 cumulative IPC: 0.82 (Simulation time: 00 hr 18 min 46 sec)
Heartbeat CPU 0 instructions: 130500689 cycles: 110984321 heartbeat IPC: 1.211 cumulative IPC: 0.8217 (Simulation time: 00 hr 18 min 50 sec)
Heartbeat CPU 0 instructions: 131000689 cycles: 112790892 heartbeat IPC: 0.2768 cumulative IPC: 0.8118 (Simulation time: 00 hr 19 min 03 sec)
Heartbeat CPU 0 instructions: 131500693 cycles: 114034067 heartbeat IPC: 0.4022 cumulative IPC: 0.8068 (Simulation time: 00 hr 19 min 13 sec)
Heartbeat CPU 0 instructions: 132000693 cycles: 114589027 heartbeat IPC: 0.901 cumulative IPC: 0.8073 (Simulation time: 00 hr 19 min 17 sec)
Heartbeat CPU 0 instructions: 132500694 cycles: 115524397 heartbeat IPC: 0.5345 cumulative IPC: 0.8048 (Simulation time: 00 hr 19 min 24 sec)
Heartbeat CPU 0 instructions: 133000694 cycles: 116997705 heartbeat IPC: 0.3394 cumulative IPC: 0.7982 (Simulation time: 00 hr 19 min 35 sec)
Heartbeat CPU 0 instructions: 133500695 cycles: 117959007 heartbeat IPC: 0.5201 cumulative IPC: 0.7956 (Simulation time: 00 hr 19 min 42 sec)
Heartbeat CPU 0 instructions: 134000696 cycles: 119094282 heartbeat IPC: 0.4404 cumulative IPC: 0.7918 (Simulation time: 00 hr 19 min 51 sec)
Heartbeat CPU 0 instructions: 134500698 cycles: 120634621 heartbeat IPC: 0.3246 cumulative IPC: 0.7852 (Simulation time: 00 hr 20 min 03 sec)
Heartbeat CPU 0 instructions: 135000698 cycles: 121129536 heartbeat IPC: 1.01 cumulative IPC: 0.7862 (Simulation time: 00 hr 20 min 07 sec)
Heartbeat CPU 0 instructions: 135500700 cycles: 121477080 heartbeat IPC: 1.439 cumulative IPC: 0.7883 (Simulation time: 00 hr 20 min 11 sec)
Heartbeat CPU 0 instructions: 136000706 cycles: 121884184 heartbeat IPC: 1.228 cumulative IPC: 0.7899 (Simulation time: 00 hr 20 min 15 sec)
Heartbeat CPU 0 instructions: 136500707 cycles: 122796620 heartbeat IPC: 0.548 cumulative IPC: 0.7879 (Simulation time: 00 hr 20 min 22 sec)
Heartbeat CPU 0 instructions: 137000710 cycles: 125198268 heartbeat IPC: 0.2082 cumulative IPC: 0.7755 (Simulation time: 00 hr 20 min 39 sec)
Heartbeat CPU 0 instructions: 137500710 cycles: 126295448 heartbeat IPC: 0.4557 cumulative IPC: 0.7724 (Simulation time: 00 hr 20 min 47 sec)
Heartbeat CPU 0 instructions: 138000711 cycles: 126678416 heartbeat IPC: 1.306 cumulative IPC: 0.7742 (Simulation time: 00 hr 20 min 51 sec)
Heartbeat CPU 0 instructions: 138500716 cycles: 127127769 heartbeat IPC: 1.113 cumulative IPC: 0.7755 (Simulation time: 00 hr 20 min 56 sec)
Heartbeat CPU 0 instructions: 139000719 cycles: 127361996 heartbeat IPC: 2.135 cumulative IPC: 0.7783 (Simulation time: 00 hr 20 min 58 sec)
Heartbeat CPU 0 instructions: 139500721 cycles: 127570355 heartbeat IPC: 2.4 cumulative IPC: 0.7813 (Simulation time: 00 hr 21 min 01 sec)
Heartbeat CPU 0 instructions: 140000727 cycles: 128726918 heartbeat IPC: 0.4323 cumulative IPC: 0.7778 (Simulation time: 00 hr 21 min 10 sec)
Heartbeat CPU 0 instructions: 140500728 cycles: 129846905 heartbeat IPC: 0.4464 cumulative IPC: 0.7746 (Simulation time: 00 hr 21 min 18 sec)
Heartbeat CPU 0 instructions: 141000731 cycles: 130789785 heartbeat IPC: 0.5303 cumulative IPC: 0.7726 (Simulation time: 00 hr 21 min 25 sec)
Heartbeat CPU 0 instructions: 141500736 cycles: 131558645 heartbeat IPC: 0.6503 cumulative IPC: 0.7718 (Simulation time: 00 hr 21 min 31 sec)
Heartbeat CPU 0 instructions: 142000738 cycles: 132019699 heartbeat IPC: 1.084 cumulative IPC: 0.7731 (Simulation time: 00 hr 21 min 36 sec)
Heartbeat CPU 0 instructions: 142500745 cycles: 133019024 heartbeat IPC: 0.5003 cumulative IPC: 0.7708 (Simulation time: 00 hr 21 min 43 sec)
Heartbeat CPU 0 instructions: 143000748 cycles: 134243476 heartbeat IPC: 0.4083 cumulative IPC: 0.7671 (Simulation time: 00 hr 21 min 52 sec)
Heartbeat CPU 0 instructions: 143500753 cycles: 135229177 heartbeat IPC: 0.5073 cumulative IPC: 0.765 (Simulation time: 00 hr 21 min 59 sec)
Heartbeat CPU 0 instructions: 144000760 cycles: 136763199 heartbeat IPC: 0.3259 cumulative IPC: 0.7596 (Simulation time: 00 hr 22 min 10 sec)
Heartbeat CPU 0 instructions: 144500765 cycles: 138294285 heartbeat IPC: 0.3266 cumulative IPC: 0.7543 (Simulation time: 00 hr 22 min 21 sec)
Heartbeat CPU 0 instructions: 145000768 cycles: 139993509 heartbeat IPC: 0.2943 cumulative IPC: 0.7481 (Simulation time: 00 hr 22 min 33 sec)
Heartbeat CPU 0 instructions: 145500768 cycles: 141464048 heartbeat IPC: 0.34 cumulative IPC: 0.7435 (Simulation time: 00 hr 22 min 43 sec)
Heartbeat CPU 0 instructions: 146000769 cycles: 142143557 heartbeat IPC: 0.7358 cumulative IPC: 0.7434 (Simulation time: 00 hr 22 min 49 sec)
Heartbeat CPU 0 instructions: 146500770 cycles: 142593002 heartbeat IPC: 1.112 cumulative IPC: 0.7447 (Simulation time: 00 hr 22 min 53 sec)
Heartbeat CPU 0 instructions: 147000777 cycles: 143006983 heartbeat IPC: 1.208 cumulative IPC: 0.7462 (Simulation time: 00 hr 22 min 57 sec)
Heartbeat CPU 0 instructions: 147500783 cycles: 143396802 heartbeat IPC: 1.283 cumulative IPC: 0.7478 (Simulation time: 00 hr 23 min 01 sec)
Heartbeat CPU 0 instructions: 148000785 cycles: 143792944 heartbeat IPC: 1.262 cumulative IPC: 0.7493 (Simulation time: 00 hr 23 min 05 sec)
Heartbeat CPU 0 instructions: 148500789 cycles: 144199408 heartbeat IPC: 1.23 cumulative IPC: 0.7508 (Simulation time: 00 hr 23 min 09 sec)
Heartbeat CPU 0 instructions: 149000795 cycles: 144593774 heartbeat IPC: 1.268 cumulative IPC: 0.7524 (Simulation time: 00 hr 23 min 13 sec)
Heartbeat CPU 0 instructions: 149500799 cycles: 144995403 heartbeat IPC: 1.245 cumulative IPC: 0.7539 (Simulation time: 00 hr 23 min 16 sec)
Heartbeat CPU 0 instructions: 150000800 cycles: 145372958 heartbeat IPC: 1.324 cumulative IPC: 0.7555 (Simulation time: 00 hr 23 min 20 sec)
Heartbeat CPU 0 instructions: 150500806 cycles: 145739960 heartbeat IPC: 1.362 cumulative IPC: 0.7572 (Simulation time: 00 hr 23 min 24 sec)
Heartbeat CPU 0 instructions: 151000813 cycles: 146079418 heartbeat IPC: 1.473 cumulative IPC: 0.759 (Simulation time: 00 hr 23 min 28 sec)
Heartbeat CPU 0 instructions: 151500818 cycles: 146659535 heartbeat IPC: 0.8619 cumulative IPC: 0.7595 (Simulation time: 00 hr 23 min 33 sec)
Heartbeat CPU 0 instructions: 152000819 cycles: 147023464 heartbeat IPC: 1.374 cumulative IPC: 0.7611 (Simulation time: 00 hr 23 min 37 sec)
Heartbeat CPU 0 instructions: 152500822 cycles: 148082482 heartbeat IPC: 0.4721 cumulative IPC: 0.7589 (Simulation time: 00 hr 23 min 45 sec)
Heartbeat CPU 0 instructions: 153000822 cycles: 149425836 heartbeat IPC: 0.3722 cumulative IPC: 0.7551 (Simulation time: 00 hr 23 min 56 sec)
Heartbeat CPU 0 instructions: 153500822 cycles: 151351070 heartbeat IPC: 0.2597 cumulative IPC: 0.7482 (Simulation time: 00 hr 24 min 12 sec)
Heartbeat CPU 0 instructions: 154000823 cycles: 153706966 heartbeat IPC: 0.2122 cumulative IPC: 0.7392 (Simulation time: 00 hr 24 min 28 sec)
Heartbeat CPU 0 instructions: 154500827 cycles: 154400028 heartbeat IPC: 0.7214 cumulative IPC: 0.7391 (Simulation time: 00 hr 24 min 34 sec)
Heartbeat CPU 0 instructions: 155000828 cycles: 155117279 heartbeat IPC: 0.6971 cumulative IPC: 0.7389 (Simulation time: 00 hr 24 min 40 sec)
Heartbeat CPU 0 instructions: 155500829 cycles: 155803822 heartbeat IPC: 0.7283 cumulative IPC: 0.7388 (Simulation time: 00 hr 24 min 47 sec)
Heartbeat CPU 0 instructions: 156000830 cycles: 156465782 heartbeat IPC: 0.7553 cumulative IPC: 0.7389 (Simulation time: 00 hr 24 min 53 sec)
Heartbeat CPU 0 instructions: 156500837 cycles: 157215156 heartbeat IPC: 0.6672 cumulative IPC: 0.7385 (Simulation time: 00 hr 25 min 01 sec)
Heartbeat CPU 0 instructions: 157000839 cycles: 158059015 heartbeat IPC: 0.5925 cumulative IPC: 0.7377 (Simulation time: 00 hr 25 min 09 sec)
Heartbeat CPU 0 instructions: 157500842 cycles: 158741545 heartbeat IPC: 0.7326 cumulative IPC: 0.7377 (Simulation time: 00 hr 25 min 18 sec)
Heartbeat CPU 0 instructions: 158000845 cycles: 159304845 heartbeat IPC: 0.8876 cumulative IPC: 0.7382 (Simulation time: 00 hr 25 min 25 sec)
Heartbeat CPU 0 instructions: 158500847 cycles: 160110821 heartbeat IPC: 0.6204 cumulative IPC: 0.7376 (Simulation time: 00 hr 25 min 33 sec)
Heartbeat CPU 0 instructions: 159000847 cycles: 160819932 heartbeat IPC: 0.7051 cumulative IPC: 0.7374 (Simulation time: 00 hr 25 min 41 sec)
Heartbeat CPU 0 instructions: 159500848 cycles: 161532478 heartbeat IPC: 0.7017 cumulative IPC: 0.7373 (Simulation time: 00 hr 25 min 48 sec)
Heartbeat CPU 0 instructions: 160000849 cycles: 162216283 heartbeat IPC: 0.7312 cumulative IPC: 0.7372 (Simulation time: 00 hr 25 min 56 sec)
Heartbeat CPU 0 instructions: 160500851 cycles: 163002485 heartbeat IPC: 0.636 cumulative IPC: 0.7367 (Simulation time: 00 hr 26 min 04 sec)
Heartbeat CPU 0 instructions: 161000852 cycles: 163701622 heartbeat IPC: 0.7152 cumulative IPC: 0.7366 (Simulation time: 00 hr 26 min 12 sec)
Heartbeat CPU 0 instructions: 161500856 cycles: 164532710 heartbeat IPC: 0.6016 cumulative IPC: 0.7359 (Simulation time: 00 hr 26 min 21 sec)
Heartbeat CPU 0 instructions: 162000857 cycles: 165104690 heartbeat IPC: 0.8742 cumulative IPC: 0.7364 (Simulation time: 00 hr 26 min 29 sec)
Heartbeat CPU 0 instructions: 162500857 cycles: 165773128 heartbeat IPC: 0.748 cumulative IPC: 0.7364 (Simulation time: 00 hr 26 min 36 sec)
Heartbeat CPU 0 instructions: 163000857 cycles: 166754363 heartbeat IPC: 0.5096 cumulative IPC: 0.735 (Simulation time: 00 hr 26 min 46 sec)
Heartbeat CPU 0 instructions: 163500863 cycles: 167566066 heartbeat IPC: 0.616 cumulative IPC: 0.7344 (Simulation time: 00 hr 26 min 53 sec)
Heartbeat CPU 0 instructions: 164000863 cycles: 168244415 heartbeat IPC: 0.7371 cumulative IPC: 0.7344 (Simulation time: 00 hr 27 min 01 sec)
Heartbeat CPU 0 instructions: 164500863 cycles: 168994396 heartbeat IPC: 0.6667 cumulative IPC: 0.7341 (Simulation time: 00 hr 27 min 09 sec)
Heartbeat CPU 0 instructions: 165000866 cycles: 169683892 heartbeat IPC: 0.7252 cumulative IPC: 0.734 (Simulation time: 00 hr 27 min 17 sec)
Heartbeat CPU 0 instructions: 165500871 cycles: 170337463 heartbeat IPC: 0.765 cumulative IPC: 0.7341 (Simulation time: 00 hr 27 min 25 sec)
Heartbeat CPU 0 instructions: 166000875 cycles: 171084375 heartbeat IPC: 0.6694 cumulative IPC: 0.7338 (Simulation time: 00 hr 27 min 34 sec)
Heartbeat CPU 0 instructions: 166500876 cycles: 171701357 heartbeat IPC: 0.8104 cumulative IPC: 0.7341 (Simulation time: 00 hr 27 min 41 sec)
Heartbeat CPU 0 instructions: 167000876 cycles: 172403323 heartbeat IPC: 0.7123 cumulative IPC: 0.734 (Simulation time: 00 hr 27 min 49 sec)
Heartbeat CPU 0 instructions: 167500876 cycles: 173220384 heartbeat IPC: 0.6119 cumulative IPC: 0.7334 (Simulation time: 00 hr 27 min 57 sec)
Heartbeat CPU 0 instructions: 168000876 cycles: 173910795 heartbeat IPC: 0.7242 cumulative IPC: 0.7334 (Simulation time: 00 hr 28 min 05 sec)
Heartbeat CPU 0 instructions: 168500882 cycles: 174611308 heartbeat IPC: 0.7138 cumulative IPC: 0.7333 (Simulation time: 00 hr 28 min 13 sec)
Heartbeat CPU 0 instructions: 169000882 cycles: 175219958 heartbeat IPC: 0.8215 cumulative IPC: 0.7336 (Simulation time: 00 hr 28 min 20 sec)
Heartbeat CPU 0 instructions: 169500882 cycles: 175963180 heartbeat IPC: 0.6727 cumulative IPC: 0.7334 (Simulation time: 00 hr 28 min 29 sec)
Heartbeat CPU 0 instructions: 170000882 cycles: 176685077 heartbeat IPC: 0.6926 cumulative IPC: 0.7332 (Simulation time: 00 hr 28 min 36 sec)
Heartbeat CPU 0 instructions: 170500886 cycles: 177338467 heartbeat IPC: 0.7652 cumulative IPC: 0.7333 (Simulation time: 00 hr 28 min 44 sec)
Heartbeat CPU 0 instructions: 171000892 cycles: 178096201 heartbeat IPC: 0.6599 cumulative IPC: 0.733 (Simulation time: 00 hr 28 min 52 sec)
Heartbeat CPU 0 instructions: 171500896 cycles: 178921359 heartbeat IPC: 0.6059 cumulative IPC: 0.7323 (Simulation time: 00 hr 29 min 01 sec)
Heartbeat CPU 0 instructions: 172000899 cycles: 179565326 heartbeat IPC: 0.7764 cumulative IPC: 0.7325 (Simulation time: 00 hr 29 min 09 sec)
Heartbeat CPU 0 instructions: 172500899 cycles: 180257634 heartbeat IPC: 0.7222 cumulative IPC: 0.7325 (Simulation time: 00 hr 29 min 17 sec)
Heartbeat CPU 0 instructions: 173000899 cycles: 181069379 heartbeat IPC: 0.616 cumulative IPC: 0.7319 (Simulation time: 00 hr 29 min 25 sec)
Heartbeat CPU 0 instructions: 173500906 cycles: 181823586 heartbeat IPC: 0.663 cumulative IPC: 0.7316 (Simulation time: 00 hr 29 min 34 sec)
Heartbeat CPU 0 instructions: 174000906 cycles: 182471682 heartbeat IPC: 0.7715 cumulative IPC: 0.7317 (Simulation time: 00 hr 29 min 41 sec)
Heartbeat CPU 0 instructions: 174500908 cycles: 183139777 heartbeat IPC: 0.7484 cumulative IPC: 0.7318 (Simulation time: 00 hr 29 min 48 sec)
Heartbeat CPU 0 instructions: 175000908 cycles: 183803402 heartbeat IPC: 0.7534 cumulative IPC: 0.7319 (Simulation time: 00 hr 29 min 56 sec)
Heartbeat CPU 0 instructions: 175500913 cycles: 186505546 heartbeat IPC: 0.185 cumulative IPC: 0.7234 (Simulation time: 00 hr 30 min 17 sec)
Heartbeat CPU 0 instructions: 176000915 cycles: 188029240 heartbeat IPC: 0.3282 cumulative IPC: 0.7199 (Simulation time: 00 hr 30 min 28 sec)
Heartbeat CPU 0 instructions: 176500919 cycles: 189423087 heartbeat IPC: 0.3587 cumulative IPC: 0.7171 (Simulation time: 00 hr 30 min 39 sec)
Heartbeat CPU 0 instructions: 177000923 cycles: 190523330 heartbeat IPC: 0.4544 cumulative IPC: 0.7154 (Simulation time: 00 hr 30 min 47 sec)
Heartbeat CPU 0 instructions: 177500923 cycles: 194831877 heartbeat IPC: 0.116 cumulative IPC: 0.7012 (Simulation time: 00 hr 31 min 17 sec)
Heartbeat CPU 0 instructions: 178000925 cycles: 198359792 heartbeat IPC: 0.1417 cumulative IPC: 0.6906 (Simulation time: 00 hr 31 min 42 sec)
Heartbeat CPU 0 instructions: 178500930 cycles: 199744280 heartbeat IPC: 0.3611 cumulative IPC: 0.6882 (Simulation time: 00 hr 31 min 52 sec)
Heartbeat CPU 0 instructions: 179000936 cycles: 200352312 heartbeat IPC: 0.8223 cumulative IPC: 0.6886 (Simulation time: 00 hr 31 min 59 sec)
Heartbeat CPU 0 instructions: 179500936 cycles: 200783374 heartbeat IPC: 1.16 cumulative IPC: 0.6897 (Simulation time: 00 hr 32 min 04 sec)
Heartbeat CPU 0 instructions: 180000937 cycles: 201080234 heartbeat IPC: 1.684 cumulative IPC: 0.6912 (Simulation time: 00 hr 32 min 09 sec)
Heartbeat CPU 0 instructions: 180500937 cycles: 201284047 heartbeat IPC: 2.453 cumulative IPC: 0.6931 (Simulation time: 00 hr 32 min 12 sec)
Heartbeat CPU 0 instructions: 181000941 cycles: 202103205 heartbeat IPC: 0.6104 cumulative IPC: 0.6928 (Simulation time: 00 hr 32 min 21 sec)
Heartbeat CPU 0 instructions: 181500946 cycles: 202967282 heartbeat IPC: 0.5787 cumulative IPC: 0.6923 (Simulation time: 00 hr 32 min 30 sec)
Heartbeat CPU 0 instructions: 182000949 cycles: 203567226 heartbeat IPC: 0.8334 cumulative IPC: 0.6927 (Simulation time: 00 hr 32 min 38 sec)
Heartbeat CPU 0 instructions: 182500952 cycles: 204094408 heartbeat IPC: 0.9484 cumulative IPC: 0.6934 (Simulation time: 00 hr 32 min 44 sec)
Heartbeat CPU 0 instructions: 183000952 cycles: 204677979 heartbeat IPC: 0.8568 cumulative IPC: 0.6939 (Simulation time: 00 hr 32 min 53 sec)
Heartbeat CPU 0 instructions: 183500953 cycles: 205374301 heartbeat IPC: 0.7181 cumulative IPC: 0.694 (Simulation time: 00 hr 33 min 00 sec)
Heartbeat CPU 0 instructions: 184000960 cycles: 205724667 heartbeat IPC: 1.427 cumulative IPC: 0.6953 (Simulation time: 00 hr 33 min 05 sec)
Heartbeat CPU 0 instructions: 184500964 cycles: 207231933 heartbeat IPC: 0.3317 cumulative IPC: 0.6925 (Simulation time: 00 hr 33 min 16 sec)
Heartbeat CPU 0 instructions: 185000967 cycles: 208071947 heartbeat IPC: 0.5952 cumulative IPC: 0.6921 (Simulation time: 00 hr 33 min 24 sec)
Heartbeat CPU 0 instructions: 185500971 cycles: 208794099 heartbeat IPC: 0.6924 cumulative IPC: 0.6921 (Simulation time: 00 hr 33 min 31 sec)
Heartbeat CPU 0 instructions: 186000977 cycles: 209313216 heartbeat IPC: 0.9632 cumulative IPC: 0.6928 (Simulation time: 00 hr 33 min 37 sec)
Heartbeat CPU 0 instructions: 186500978 cycles: 210046323 heartbeat IPC: 0.682 cumulative IPC: 0.6928 (Simulation time: 00 hr 33 min 44 sec)
Heartbeat CPU 0 instructions: 187000982 cycles: 210822025 heartbeat IPC: 0.6446 cumulative IPC: 0.6926 (Simulation time: 00 hr 33 min 52 sec)
Heartbeat CPU 0 instructions: 187500983 cycles: 211497263 heartbeat IPC: 0.7405 cumulative IPC: 0.6927 (Simulation time: 00 hr 33 min 59 sec)
Heartbeat CPU 0 instructions: 188000986 cycles: 212203873 heartbeat IPC: 0.7076 cumulative IPC: 0.6928 (Simulation time: 00 hr 34 min 07 sec)
Heartbeat CPU 0 instructions: 188500989 cycles: 212889184 heartbeat IPC: 0.7296 cumulative IPC: 0.6929 (Simulation time: 00 hr 34 min 15 sec)
Heartbeat CPU 0 instructions: 189000990 cycles: 213518169 heartbeat IPC: 0.7949 cumulative IPC: 0.6932 (Simulation time: 00 hr 34 min 21 sec)
Heartbeat CPU 0 instructions: 189500993 cycles: 214560684 heartbeat IPC: 0.4796 cumulative IPC: 0.6921 (Simulation time: 00 hr 34 min 30 sec)
Heartbeat CPU 0 instructions: 190000999 cycles: 215625805 heartbeat IPC: 0.4694 cumulative IPC: 0.691 (Simulation time: 00 hr 34 min 42 sec)
Heartbeat CPU 0 instructions: 190501003 cycles: 217370004 heartbeat IPC: 0.2867 cumulative IPC: 0.6875 (Simulation time: 00 hr 35 min 02 sec)
Heartbeat CPU 0 instructions: 191001009 cycles: 218960200 heartbeat IPC: 0.3144 cumulative IPC: 0.6846 (Simulation time: 00 hr 35 min 20 sec)
Heartbeat CPU 0 instructions: 191501016 cycles: 220332657 heartbeat IPC: 0.3643 cumulative IPC: 0.6825 (Simulation time: 00 hr 35 min 32 sec)
Heartbeat CPU 0 instructions: 192001022 cycles: 221501091 heartbeat IPC: 0.4279 cumulative IPC: 0.6811 (Simulation time: 00 hr 35 min 44 sec)
Heartbeat CPU 0 instructions: 192501024 cycles: 222744045 heartbeat IPC: 0.4023 cumulative IPC: 0.6794 (Simulation time: 00 hr 35 min 56 sec)
Heartbeat CPU 0 instructions: 193001030 cycles: 223865321 heartbeat IPC: 0.4459 cumulative IPC: 0.6782 (Simulation time: 00 hr 36 min 07 sec)
Heartbeat CPU 0 instructions: 193501030 cycles: 225184414 heartbeat IPC: 0.379 cumulative IPC: 0.6763 (Simulation time: 00 hr 36 min 20 sec)
Heartbeat CPU 0 instructions: 194001035 cycles: 226442288 heartbeat IPC: 0.3975 cumulative IPC: 0.6747 (Simulation time: 00 hr 36 min 33 sec)
Heartbeat CPU 0 instructions: 194501041 cycles: 227613651 heartbeat IPC: 0.4269 cumulative IPC: 0.6733 (Simulation time: 00 hr 36 min 45 sec)
Heartbeat CPU 0 instructions: 195001045 cycles: 228630590 heartbeat IPC: 0.4917 cumulative IPC: 0.6725 (Simulation time: 00 hr 36 min 56 sec)
Heartbeat CPU 0 instructions: 195501052 cycles: 229912930 heartbeat IPC: 0.3899 cumulative IPC: 0.6708 (Simulation time: 00 hr 37 min 09 sec)
Heartbeat CPU 0 instructions: 196001052 cycles: 230557586 heartbeat IPC: 0.7756 cumulative IPC: 0.6711 (Simulation time: 00 hr 37 min 17 sec)
Heartbeat CPU 0 instructions: 196501055 cycles: 231164555 heartbeat IPC: 0.8238 cumulative IPC: 0.6716 (Simulation time: 00 hr 37 min 25 sec)
Heartbeat CPU 0 instructions: 197001056 cycles: 231825517 heartbeat IPC: 0.7565 cumulative IPC: 0.6718 (Simulation time: 00 hr 37 min 33 sec)
Heartbeat CPU 0 instructions: 197501059 cycles: 232742256 heartbeat IPC: 0.5454 cumulative IPC: 0.6713 (Simulation time: 00 hr 37 min 43 sec)
Heartbeat CPU 0 instructions: 198001059 cycles: 234477009 heartbeat IPC: 0.2882 cumulative IPC: 0.6683 (Simulation time: 00 hr 38 min 00 sec)
Heartbeat CPU 0 instructions: 198501066 cycles: 235344788 heartbeat IPC: 0.5762 cumulative IPC: 0.6679 (Simulation time: 00 hr 38 min 10 sec)
Heartbeat CPU 0 instructions: 199001066 cycles: 236181660 heartbeat IPC: 0.5975 cumulative IPC: 0.6677 (Simulation time: 00 hr 38 min 19 sec)
Heartbeat CPU 0 instructions: 199501069 cycles: 237130455 heartbeat IPC: 0.527 cumulative IPC: 0.6671 (Simulation time: 00 hr 38 min 29 sec)
Heartbeat CPU 0 instructions: 200001073 cycles: 238725247 heartbeat IPC: 0.3135 cumulative IPC: 0.6646 (Simulation time: 00 hr 38 min 41 sec)
Heartbeat CPU 0 instructions: 200501073 cycles: 239411526 heartbeat IPC: 0.7286 cumulative IPC: 0.6648 (Simulation time: 00 hr 38 min 48 sec)
Heartbeat CPU 0 instructions: 201001074 cycles: 240796869 heartbeat IPC: 0.3609 cumulative IPC: 0.6629 (Simulation time: 00 hr 39 min 04 sec)
Heartbeat CPU 0 instructions: 201501079 cycles: 242082039 heartbeat IPC: 0.3891 cumulative IPC: 0.6614 (Simulation time: 00 hr 39 min 19 sec)
Heartbeat CPU 0 instructions: 202001085 cycles: 243784846 heartbeat IPC: 0.2936 cumulative IPC: 0.6587 (Simulation time: 00 hr 39 min 31 sec)
Heartbeat CPU 0 instructions: 202501086 cycles: 244923306 heartbeat IPC: 0.4392 cumulative IPC: 0.6576 (Simulation time: 00 hr 39 min 40 sec)
Heartbeat CPU 0 instructions: 203001089 cycles: 245411441 heartbeat IPC: 1.024 cumulative IPC: 0.6584 (Simulation time: 00 hr 39 min 44 sec)
Heartbeat CPU 0 instructions: 203501095 cycles: 245772160 heartbeat IPC: 1.386 cumulative IPC: 0.6595 (Simulation time: 00 hr 39 min 48 sec)
Heartbeat CPU 0 instructions: 204001098 cycles: 246161717 heartbeat IPC: 1.284 cumulative IPC: 0.6605 (Simulation time: 00 hr 39 min 52 sec)
Heartbeat CPU 0 instructions: 204501100 cycles: 247627377 heartbeat IPC: 0.3411 cumulative IPC: 0.6585 (Simulation time: 00 hr 40 min 02 sec)
Heartbeat CPU 0 instructions: 205001100 cycles: 248079092 heartbeat IPC: 1.107 cumulative IPC: 0.6594 (Simulation time: 00 hr 40 min 07 sec)
Heartbeat CPU 0 instructions: 205501102 cycles: 248741207 heartbeat IPC: 0.7552 cumulative IPC: 0.6597 (Simulation time: 00 hr 40 min 12 sec)
Heartbeat CPU 0 instructions: 206001104 cycles: 249104065 heartbeat IPC: 1.378 cumulative IPC: 0.6608 (Simulation time: 00 hr 40 min 16 sec)
Heartbeat CPU 0 instructions: 206501104 cycles: 249950232 heartbeat IPC: 0.5909 cumulative IPC: 0.6605 (Simulation time: 00 hr 40 min 23 sec)
Heartbeat CPU 0 instructions: 207001104 cycles: 250308103 heartbeat IPC: 1.397 cumulative IPC: 0.6616 (Simulation time: 00 hr 40 min 26 sec)
Heartbeat CPU 0 instructions: 207501104 cycles: 250827465 heartbeat IPC: 0.9627 cumulative IPC: 0.6623 (Simulation time: 00 hr 40 min 30 sec)
Heartbeat CPU 0 instructions: 208001109 cycles: 251247708 heartbeat IPC: 1.19 cumulative IPC: 0.6632 (Simulation time: 00 hr 40 min 34 sec)
Heartbeat CPU 0 instructions: 208501115 cycles: 251649672 heartbeat IPC: 1.244 cumulative IPC: 0.6642 (Simulation time: 00 hr 40 min 38 sec)
Heartbeat CPU 0 instructions: 209001117 cycles: 252107656 heartbeat IPC: 1.092 cumulative IPC: 0.665 (Simulation time: 00 hr 40 min 43 sec)
Heartbeat CPU 0 instructions: 209501121 cycles: 252534749 heartbeat IPC: 1.171 cumulative IPC: 0.6659 (Simulation time: 00 hr 40 min 47 sec)
Heartbeat CPU 0 instructions: 210001125 cycles: 252949176 heartbeat IPC: 1.206 cumulative IPC: 0.6668 (Simulation time: 00 hr 40 min 51 sec)
Heartbeat CPU 0 instructions: 210501128 cycles: 253371289 heartbeat IPC: 1.185 cumulative IPC: 0.6678 (Simulation time: 00 hr 40 min 55 sec)
Heartbeat CPU 0 instructions: 211001128 cycles: 253784299 heartbeat IPC: 1.211 cumulative IPC: 0.6687 (Simulation time: 00 hr 40 min 59 sec)
Heartbeat CPU 0 instructions: 211501134 cycles: 254154630 heartbeat IPC: 1.35 cumulative IPC: 0.6697 (Simulation time: 00 hr 41 min 03 sec)
Heartbeat CPU 0 instructions: 212001140 cycles: 254498697 heartbeat IPC: 1.453 cumulative IPC: 0.6708 (Simulation time: 00 hr 41 min 06 sec)
Heartbeat CPU 0 instructions: 212501143 cycles: 254902454 heartbeat IPC: 1.238 cumulative IPC: 0.6718 (Simulation time: 00 hr 41 min 10 sec)
Heartbeat CPU 0 instructions: 213001150 cycles: 255282063 heartbeat IPC: 1.317 cumulative IPC: 0.6728 (Simulation time: 00 hr 41 min 14 sec)
Heartbeat CPU 0 instructions: 213501151 cycles: 255640140 heartbeat IPC: 1.396 cumulative IPC: 0.6739 (Simulation time: 00 hr 41 min 18 sec)
Heartbeat CPU 0 instructions: 214001152 cycles: 256000050 heartbeat IPC: 1.389 cumulative IPC: 0.6749 (Simulation time: 00 hr 41 min 22 sec)
Heartbeat CPU 0 instructions: 214501152 cycles: 256690111 heartbeat IPC: 0.7246 cumulative IPC: 0.6751 (Simulation time: 00 hr 41 min 28 sec)
Heartbeat CPU 0 instructions: 215001153 cycles: 257151851 heartbeat IPC: 1.083 cumulative IPC: 0.6758 (Simulation time: 00 hr 41 min 33 sec)
Heartbeat CPU 0 instructions: 215501155 cycles: 257481068 heartbeat IPC: 1.519 cumulative IPC: 0.677 (Simulation time: 00 hr 41 min 36 sec)
Heartbeat CPU 0 instructions: 216001159 cycles: 257764098 heartbeat IPC: 1.767 cumulative IPC: 0.6782 (Simulation time: 00 hr 41 min 39 sec)
Heartbeat CPU 0 instructions: 216501160 cycles: 258081934 heartbeat IPC: 1.573 cumulative IPC: 0.6794 (Simulation time: 00 hr 41 min 43 sec)
Heartbeat CPU 0 instructions: 217001162 cycles: 258439252 heartbeat IPC: 1.399 cumulative IPC: 0.6804 (Simulation time: 00 hr 41 min 46 sec)
Heartbeat CPU 0 instructions: 217501164 cycles: 258910195 heartbeat IPC: 1.062 cumulative IPC: 0.6812 (Simulation time: 00 hr 41 min 51 sec)
Heartbeat CPU 0 instructions: 218001166 cycles: 259182085 heartbeat IPC: 1.839 cumulative IPC: 0.6825 (Simulation time: 00 hr 41 min 54 sec)
Heartbeat CPU 0 instructions: 218501169 cycles: 259642782 heartbeat IPC: 1.085 cumulative IPC: 0.6832 (Simulation time: 00 hr 41 min 59 sec)
Heartbeat CPU 0 instructions: 219001173 cycles: 260058545 heartbeat IPC: 1.203 cumulative IPC: 0.6841 (Simulation time: 00 hr 42 min 02 sec)
Heartbeat CPU 0 instructions: 219501175 cycles: 260496627 heartbeat IPC: 1.141 cumulative IPC: 0.6849 (Simulation time: 00 hr 42 min 07 sec)
Heartbeat CPU 0 instructions: 220001181 cycles: 260944162 heartbeat IPC: 1.117 cumulative IPC: 0.6857 (Simulation time: 00 hr 42 min 11 sec)
Heartbeat CPU 0 instructions: 220501182 cycles: 262107947 heartbeat IPC: 0.4296 cumulative IPC: 0.6845 (Simulation time: 00 hr 42 min 20 sec)
Heartbeat CPU 0 instructions: 221001182 cycles: 262520814 heartbeat IPC: 1.211 cumulative IPC: 0.6853 (Simulation time: 00 hr 42 min 24 sec)
Heartbeat CPU 0 instructions: 221501187 cycles: 262908102 heartbeat IPC: 1.291 cumulative IPC: 0.6863 (Simulation time: 00 hr 42 min 28 sec)
Heartbeat CPU 0 instructions: 222001193 cycles: 263310926 heartbeat IPC: 1.241 cumulative IPC: 0.6872 (Simulation time: 00 hr 42 min 32 sec)
Heartbeat CPU 0 instructions: 222501197 cycles: 263680419 heartbeat IPC: 1.353 cumulative IPC: 0.6882 (Simulation time: 00 hr 42 min 36 sec)
Heartbeat CPU 0 instructions: 223001202 cycles: 264225166 heartbeat IPC: 0.9179 cumulative IPC: 0.6887 (Simulation time: 00 hr 42 min 41 sec)
Heartbeat CPU 0 instructions: 223501208 cycles: 264591444 heartbeat IPC: 1.365 cumulative IPC: 0.6896 (Simulation time: 00 hr 42 min 45 sec)
Heartbeat CPU 0 instructions: 224001208 cycles: 264978393 heartbeat IPC: 1.292 cumulative IPC: 0.6906 (Simulation time: 00 hr 42 min 49 sec)
Heartbeat CPU 0 instructions: 224501209 cycles: 265357442 heartbeat IPC: 1.319 cumulative IPC: 0.6915 (Simulation time: 00 hr 42 min 52 sec)
Heartbeat CPU 0 instructions: 225001215 cycles: 265782210 heartbeat IPC: 1.177 cumulative IPC: 0.6923 (Simulation time: 00 hr 42 min 57 sec)
Heartbeat CPU 0 instructions: 225501215 cycles: 266225092 heartbeat IPC: 1.129 cumulative IPC: 0.6931 (Simulation time: 00 hr 43 min 01 sec)
Heartbeat CPU 0 instructions: 226001221 cycles: 266624569 heartbeat IPC: 1.252 cumulative IPC: 0.694 (Simulation time: 00 hr 43 min 05 sec)
Heartbeat CPU 0 instructions: 226501222 cycles: 266998537 heartbeat IPC: 1.337 cumulative IPC: 0.6949 (Simulation time: 00 hr 43 min 08 sec)
Heartbeat CPU 0 instructions: 227001222 cycles: 267369003 heartbeat IPC: 1.35 cumulative IPC: 0.6959 (Simulation time: 00 hr 43 min 12 sec)
Heartbeat CPU 0 instructions: 227501229 cycles: 267756352 heartbeat IPC: 1.291 cumulative IPC: 0.6968 (Simulation time: 00 hr 43 min 16 sec)
Heartbeat CPU 0 instructions: 228001231 cycles: 268094763 heartbeat IPC: 1.477 cumulative IPC: 0.6978 (Simulation time: 00 hr 43 min 20 sec)
Heartbeat CPU 0 instructions: 228501238 cycles: 268460403 heartbeat IPC: 1.367 cumulative IPC: 0.6988 (Simulation time: 00 hr 43 min 23 sec)
Heartbeat CPU 0 instructions: 229001242 cycles: 268822374 heartbeat IPC: 1.381 cumulative IPC: 0.6997 (Simulation time: 00 hr 43 min 27 sec)
Heartbeat CPU 0 instructions: 229501247 cycles: 269199331 heartbeat IPC: 1.326 cumulative IPC: 0.7007 (Simulation time: 00 hr 43 min 31 sec)
Heartbeat CPU 0 instructions: 230001254 cycles: 269536749 heartbeat IPC: 1.482 cumulative IPC: 0.7017 (Simulation time: 00 hr 43 min 35 sec)
Heartbeat CPU 0 instructions: 230501255 cycles: 270197776 heartbeat IPC: 0.7564 cumulative IPC: 0.7018 (Simulation time: 00 hr 43 min 41 sec)
Heartbeat CPU 0 instructions: 231001257 cycles: 270670588 heartbeat IPC: 1.058 cumulative IPC: 0.7025 (Simulation time: 00 hr 43 min 45 sec)
Heartbeat CPU 0 instructions: 231501259 cycles: 271121762 heartbeat IPC: 1.108 cumulative IPC: 0.7032 (Simulation time: 00 hr 43 min 49 sec)
Heartbeat CPU 0 instructions: 232001259 cycles: 271575817 heartbeat IPC: 1.101 cumulative IPC: 0.7039 (Simulation time: 00 hr 43 min 54 sec)
Heartbeat CPU 0 instructions: 232501262 cycles: 271945900 heartbeat IPC: 1.351 cumulative IPC: 0.7048 (Simulation time: 00 hr 43 min 57 sec)
Heartbeat CPU 0 instructions: 233001262 cycles: 272336029 heartbeat IPC: 1.282 cumulative IPC: 0.7057 (Simulation time: 00 hr 44 min 01 sec)
Heartbeat CPU 0 instructions: 233501263 cycles: 272806479 heartbeat IPC: 1.063 cumulative IPC: 0.7063 (Simulation time: 00 hr 44 min 06 sec)
Heartbeat CPU 0 instructions: 234001264 cycles: 273238928 heartbeat IPC: 1.156 cumulative IPC: 0.7071 (Simulation time: 00 hr 44 min 10 sec)
Heartbeat CPU 0 instructions: 234501269 cycles: 273604389 heartbeat IPC: 1.368 cumulative IPC: 0.708 (Simulation time: 00 hr 44 min 13 sec)
Heartbeat CPU 0 instructions: 235001271 cycles: 273989402 heartbeat IPC: 1.299 cumulative IPC: 0.7089 (Simulation time: 00 hr 44 min 18 sec)
Heartbeat CPU 0 instructions: 235501271 cycles: 274671949 heartbeat IPC: 0.7326 cumulative IPC: 0.7089 (Simulation time: 00 hr 44 min 24 sec)
Heartbeat CPU 0 instructions: 236001271 cycles: 275136548 heartbeat IPC: 1.076 cumulative IPC: 0.7096 (Simulation time: 00 hr 44 min 28 sec)
Heartbeat CPU 0 instructions: 236501277 cycles: 275570574 heartbeat IPC: 1.152 cumulative IPC: 0.7103 (Simulation time: 00 hr 44 min 32 sec)
Heartbeat CPU 0 instructions: 237001279 cycles: 275992339 heartbeat IPC: 1.185 cumulative IPC: 0.7111 (Simulation time: 00 hr 44 min 36 sec)
Heartbeat CPU 0 instructions: 237501279 cycles: 276412802 heartbeat IPC: 1.189 cumulative IPC: 0.7118 (Simulation time: 00 hr 44 min 40 sec)
Heartbeat CPU 0 instructions: 238001280 cycles: 276875816 heartbeat IPC: 1.08 cumulative IPC: 0.7125 (Simulation time: 00 hr 44 min 45 sec)
Heartbeat CPU 0 instructions: 238501281 cycles: 277234878 heartbeat IPC: 1.393 cumulative IPC: 0.7134 (Simulation time: 00 hr 44 min 49 sec)
Heartbeat CPU 0 instructions: 239001281 cycles: 277644239 heartbeat IPC: 1.221 cumulative IPC: 0.7142 (Simulation time: 00 hr 44 min 53 sec)
Heartbeat CPU 0 instructions: 239501283 cycles: 278046999 heartbeat IPC: 1.241 cumulative IPC: 0.715 (Simulation time: 00 hr 44 min 57 sec)
Heartbeat CPU 0 instructions: 240001285 cycles: 278475183 heartbeat IPC: 1.168 cumulative IPC: 0.7157 (Simulation time: 00 hr 45 min 01 sec)
Heartbeat CPU 0 instructions: 240501287 cycles: 278809662 heartbeat IPC: 1.495 cumulative IPC: 0.7167 (Simulation time: 00 hr 45 min 06 sec)
Heartbeat CPU 0 instructions: 241001293 cycles: 279195676 heartbeat IPC: 1.295 cumulative IPC: 0.7176 (Simulation time: 00 hr 45 min 10 sec)
Heartbeat CPU 0 instructions: 241501294 cycles: 279647876 heartbeat IPC: 1.106 cumulative IPC: 0.7182 (Simulation time: 00 hr 45 min 14 sec)
Heartbeat CPU 0 instructions: 242001297 cycles: 280080817 heartbeat IPC: 1.155 cumulative IPC: 0.7189 (Simulation time: 00 hr 45 min 19 sec)
Heartbeat CPU 0 instructions: 242501298 cycles: 280519215 heartbeat IPC: 1.141 cumulative IPC: 0.7196 (Simulation time: 00 hr 45 min 23 sec)
Heartbeat CPU 0 instructions: 243001299 cycles: 281121246 heartbeat IPC: 0.8305 cumulative IPC: 0.7199 (Simulation time: 00 hr 45 min 28 sec)
Heartbeat CPU 0 instructions: 243501303 cycles: 281517578 heartbeat IPC: 1.262 cumulative IPC: 0.7207 (Simulation time: 00 hr 45 min 32 sec)
Heartbeat CPU 0 instructions: 244001306 cycles: 281891535 heartbeat IPC: 1.337 cumulative IPC: 0.7215 (Simulation time: 00 hr 45 min 35 sec)
Heartbeat CPU 0 instructions: 244501306 cycles: 282936396 heartbeat IPC: 0.4785 cumulative IPC: 0.7206 (Simulation time: 00 hr 45 min 44 sec)
Heartbeat CPU 0 instructions: 245001306 cycles: 283810684 heartbeat IPC: 0.5719 cumulative IPC: 0.7201 (Simulation time: 00 hr 45 min 52 sec)
Heartbeat CPU 0 instructions: 245501306 cycles: 284573184 heartbeat IPC: 0.6557 cumulative IPC: 0.7199 (Simulation time: 00 hr 45 min 59 sec)
Heartbeat CPU 0 instructions: 246001311 cycles: 285346699 heartbeat IPC: 0.6464 cumulative IPC: 0.7197 (Simulation time: 00 hr 46 min 06 sec)
Heartbeat CPU 0 instructions: 246501311 cycles: 286090928 heartbeat IPC: 0.6718 cumulative IPC: 0.7196 (Simulation time: 00 hr 46 min 13 sec)
Heartbeat CPU 0 instructions: 247001313 cycles: 286885242 heartbeat IPC: 0.6295 cumulative IPC: 0.7193 (Simulation time: 00 hr 46 min 20 sec)
Heartbeat CPU 0 instructions: 247501317 cycles: 287614110 heartbeat IPC: 0.686 cumulative IPC: 0.7192 (Simulation time: 00 hr 46 min 27 sec)
Heartbeat CPU 0 instructions: 248001317 cycles: 288460642 heartbeat IPC: 0.5906 cumulative IPC: 0.7188 (Simulation time: 00 hr 46 min 35 sec)
Heartbeat CPU 0 instructions: 248501321 cycles: 289306353 heartbeat IPC: 0.5912 cumulative IPC: 0.7184 (Simulation time: 00 hr 46 min 43 sec)
Heartbeat CPU 0 instructions: 249001321 cycles: 290079010 heartbeat IPC: 0.6471 cumulative IPC: 0.7182 (Simulation time: 00 hr 46 min 51 sec)
Heartbeat CPU 0 instructions: 249501324 cycles: 290726668 heartbeat IPC: 0.772 cumulative IPC: 0.7184 (Simulation time: 00 hr 46 min 58 sec)
Simulation finished CPU 0 instructions: 200000003 cycles: 278383555 cumulative IPC: 0.7184 (Simulation time: 00 hr 47 min 06 sec)
Simulation complete CPU 0 instructions: 200000003 cycles: 278383555 cumulative IPC: 0.7184 (Simulation time: 00 hr 47 min 06 sec)

ChampSim completed all CPUs

=== Simulation ===
CPU 0 runs /local-ssd/ben/dpc4-traces/gtraces_v2/charlie_0002.champsim.gz

Region of Interest Statistics

CPU 0 cumulative IPC: 0.7184 instructions: 200000003 cycles: 278383555
CPU 0 Branch Prediction Accuracy: 93.59% MPKI: 11.85 Average ROB Occupancy at Mispredict: 47.62
Branch type MPKI
BRANCH_DIRECT_JUMP: 0.2716
BRANCH_INDIRECT: 0.4003
BRANCH_CONDITIONAL: 10.34
BRANCH_DIRECT_CALL: 0.2414
BRANCH_INDIRECT_CALL: 0.3428
BRANCH_RETURN: 0.2576

cpu0->cpu0_STLB TOTAL        ACCESS:     894471 HIT:     613129 MISS:     281342 MSHR_MERGE:          0
cpu0->cpu0_STLB LOAD         ACCESS:     894471 HIT:     613129 MISS:     281342 MSHR_MERGE:          0
cpu0->cpu0_STLB RFO          ACCESS:          0 HIT:          0 MISS:          0 MSHR_MERGE:          0
cpu0->cpu0_STLB PREFETCH     ACCESS:          0 HIT:          0 MISS:          0 MSHR_MERGE:          0
cpu0->cpu0_STLB WRITE        ACCESS:          0 HIT:          0 MISS:          0 MSHR_MERGE:          0
cpu0->cpu0_STLB TRANSLATION  ACCESS:          0 HIT:          0 MISS:          0 MSHR_MERGE:          0
cpu0->cpu0_STLB PREFETCH REQUESTED:          0 ISSUED:          0 USEFUL:          0 USELESS:          0
cpu0->cpu0_STLB AVERAGE MISS LATENCY: 220.7 cycles
cpu0->cpu0_L2C TOTAL        ACCESS:    8365525 HIT:    5573515 MISS:    2792010 MSHR_MERGE:     283247
cpu0->cpu0_L2C LOAD         ACCESS:    2639805 HIT:    1866193 MISS:     773612 MSHR_MERGE:      36696
cpu0->cpu0_L2C RFO          ACCESS:    1025087 HIT:     161665 MISS:     863422 MSHR_MERGE:       8685
cpu0->cpu0_L2C PREFETCH     ACCESS:    2994851 HIT:    1979786 MISS:    1015065 MSHR_MERGE:     237866
cpu0->cpu0_L2C WRITE        ACCESS:    1394745 HIT:    1394660 MISS:         85 MSHR_MERGE:          0
cpu0->cpu0_L2C TRANSLATION  ACCESS:     311037 HIT:     171211 MISS:     139826 MSHR_MERGE:          0
cpu0->cpu0_L2C PREFETCH REQUESTED:    3093061 ISSUED:    2994851 USEFUL:     376632 USELESS:     402689
cpu0->cpu0_L2C AVERAGE MISS LATENCY: 239.6 cycles
cpu0->cpu0_L1I TOTAL        ACCESS:   14950122 HIT:   13529690 MISS:    1420432 MSHR_MERGE:     366097
cpu0->cpu0_L1I LOAD         ACCESS:   14950122 HIT:   13529690 MISS:    1420432 MSHR_MERGE:     366097
cpu0->cpu0_L1I RFO          ACCESS:          0 HIT:          0 MISS:          0 MSHR_MERGE:          0
cpu0->cpu0_L1I PREFETCH     ACCESS:          0 HIT:          0 MISS:          0 MSHR_MERGE:          0
cpu0->cpu0_L1I WRITE        ACCESS:          0 HIT:          0 MISS:          0 MSHR_MERGE:          0
cpu0->cpu0_L1I TRANSLATION  ACCESS:          0 HIT:          0 MISS:          0 MSHR_MERGE:          0
cpu0->cpu0_L1I PREFETCH REQUESTED:          0 ISSUED:          0 USEFUL:          0 USELESS:          0
cpu0->cpu0_L1I AVERAGE MISS LATENCY: 62.04 cycles
cpu0->cpu0_L1D TOTAL        ACCESS:   57712484 HIT:   49993595 MISS:    7718889 MSHR_MERGE:    4797261
cpu0->cpu0_L1D LOAD         ACCESS:   32164054 HIT:   29511024 MISS:    2653030 MSHR_MERGE:    1067552
cpu0->cpu0_L1D RFO          ACCESS:          0 HIT:          0 MISS:          0 MSHR_MERGE:          0
cpu0->cpu0_L1D PREFETCH     ACCESS:          0 HIT:          0 MISS:          0 MSHR_MERGE:          0
cpu0->cpu0_L1D WRITE        ACCESS:   24759316 HIT:   20008984 MISS:    4750332 MSHR_MERGE:    3725219
cpu0->cpu0_L1D TRANSLATION  ACCESS:     789114 HIT:     473587 MISS:     315527 MSHR_MERGE:       4490
cpu0->cpu0_L1D PREFETCH REQUESTED:          0 ISSUED:          0 USEFUL:          0 USELESS:          0
cpu0->cpu0_L1D AVERAGE MISS LATENCY: 134.7 cycles
cpu0->cpu0_ITLB TOTAL        ACCESS:   11980121 HIT:   11861122 MISS:     118999 MSHR_MERGE:      56002
cpu0->cpu0_ITLB LOAD         ACCESS:   11980121 HIT:   11861122 MISS:     118999 MSHR_MERGE:      56002
cpu0->cpu0_ITLB RFO          ACCESS:          0 HIT:          0 MISS:          0 MSHR_MERGE:          0
cpu0->cpu0_ITLB PREFETCH     ACCESS:          0 HIT:          0 MISS:          0 MSHR_MERGE:          0
cpu0->cpu0_ITLB WRITE        ACCESS:          0 HIT:          0 MISS:          0 MSHR_MERGE:          0
cpu0->cpu0_ITLB TRANSLATION  ACCESS:          0 HIT:          0 MISS:          0 MSHR_MERGE:          0
cpu0->cpu0_ITLB PREFETCH REQUESTED:          0 ISSUED:          0 USEFUL:          0 USELESS:          0
cpu0->cpu0_ITLB AVERAGE MISS LATENCY: 46.25 cycles
cpu0->cpu0_DTLB TOTAL        ACCESS:   53889709 HIT:   52325951 MISS:    1563758 MSHR_MERGE:     732284
cpu0->cpu0_DTLB LOAD         ACCESS:   53889709 HIT:   52325951 MISS:    1563758 MSHR_MERGE:     732284
cpu0->cpu0_DTLB RFO          ACCESS:          0 HIT:          0 MISS:          0 MSHR_MERGE:          0
cpu0->cpu0_DTLB PREFETCH     ACCESS:          0 HIT:          0 MISS:          0 MSHR_MERGE:          0
cpu0->cpu0_DTLB WRITE        ACCESS:          0 HIT:          0 MISS:          0 MSHR_MERGE:          0
cpu0->cpu0_DTLB TRANSLATION  ACCESS:          0 HIT:          0 MISS:          0 MSHR_MERGE:          0
cpu0->cpu0_DTLB PREFETCH REQUESTED:          0 ISSUED:          0 USEFUL:          0 USELESS:          0
cpu0->cpu0_DTLB AVERAGE MISS LATENCY: 76.89 cycles
cpu0->LLC TOTAL        ACCESS:    4332018 HIT:     666736 MISS:    3665282 MSHR_MERGE:     127503
cpu0->LLC LOAD         ACCESS:     736916 HIT:     105890 MISS:     631026 MSHR_MERGE:       2814
cpu0->LLC RFO          ACCESS:     854737 HIT:      43616 MISS:     811121 MSHR_MERGE:        716
cpu0->LLC PREFETCH     ACCESS:    1410282 HIT:     212178 MISS:    1198104 MSHR_MERGE:     123973
cpu0->LLC WRITE        ACCESS:    1190257 HIT:     300709 MISS:     889548 MSHR_MERGE:          0
cpu0->LLC TRANSLATION  ACCESS:     139826 HIT:       4343 MISS:     135483 MSHR_MERGE:          0
cpu0->LLC PREFETCH REQUESTED:     647908 ISSUED:     633083 USEFUL:     205045 USELESS:     263432
cpu0->LLC AVERAGE MISS LATENCY: 159.2 cycles

DRAM Statistics

Channel 0 RQ ROW_BUFFER_HIT:      90316
  ROW_BUFFER_MISS:    2557835
  AVG DBUS CONGESTED CYCLE: 21.43
Channel 0 WQ ROW_BUFFER_HIT:     253797
  ROW_BUFFER_MISS:     885568
  FULL:       4030
Channel 0 REFRESHES ISSUED:      23197
BERTI Stats...
