[VMEM] WARNING: physical memory size is smaller than virtual memory size.
Berti Gaze Initialized with Sets: 64 Ways: 12

*** ChampSim Multicore Out-of-Order Simulator ***
Warmup Instructions: 50000000
Simulation Instructions: 200000000
Number of CPUs: 1
Page size: 4096
Core 0: /local-ssd/ben/dpc4-traces/gtraces_v2/yankee_0000.champsim.gz
Off-chip DRAM Size: 64 GiB Channels: 1 Width: 64-bit Data Rate: 4807 MT/s
[BTB] WARNING: target of return is a lower address than the corresponding call. This is usually a problem with your trace.
[BTB] WARNING: target of return is a lower address than the corresponding call. This is usually a problem with your trace.
Heartbeat CPU 0 instructions: 500007 cycles: 267888 heartbeat IPC: 1.866 cumulative IPC: 1.866 (Simulation time: 00 hr 00 min 05 sec)
[BTB] WARNING: target of return is a lower address than the corresponding call. This is usually a problem with your trace.
[BTB] WARNING: target of return is a lower address than the corresponding call. This is usually a problem with your trace.
[BTB] WARNING: target of return is a lower address than the corresponding call. This is usually a problem with your trace.
[BTB] WARNING: target of return is a lower address than the corresponding call. This is usually a problem with your trace.
[BTB] WARNING: target of return is a lower address than the corresponding call. This is usually a problem with your trace.
[BTB] WARNING: target of return is a lower address than the corresponding call. This is usually a problem with your trace.
[BTB] WARNING: target of return is a lower address than the corresponding call. This is usually a problem with your trace.
Heartbeat CPU 0 instructions: 1000013 cycles: 497892 heartbeat IPC: 2.174 cumulative IPC: 2.008 (Simulation time: 00 hr 00 min 09 sec)
[BTB] WARNING: target of return is a lower address than the corresponding call. This is usually a problem with your trace.
Heartbeat CPU 0 instructions: 1500013 cycles: 915849 heartbeat IPC: 1.196 cumulative IPC: 1.638 (Simulation time: 00 hr 00 min 16 sec)
Heartbeat CPU 0 instructions: 2000018 cycles: 1114987 heartbeat IPC: 2.511 cumulative IPC: 1.794 (Simulation time: 00 hr 00 min 20 sec)
Heartbeat CPU 0 instructions: 2500023 cycles: 1290469 heartbeat IPC: 2.849 cumulative IPC: 1.937 (Simulation time: 00 hr 00 min 23 sec)
Heartbeat CPU 0 instructions: 3000028 cycles: 1509373 heartbeat IPC: 2.284 cumulative IPC: 1.988 (Simulation time: 00 hr 00 min 27 sec)
Heartbeat CPU 0 instructions: 3500029 cycles: 1673167 heartbeat IPC: 3.053 cumulative IPC: 2.092 (Simulation time: 00 hr 00 min 30 sec)
Heartbeat CPU 0 instructions: 4000030 cycles: 1811393 heartbeat IPC: 3.617 cumulative IPC: 2.208 (Simulation time: 00 hr 00 min 32 sec)
Heartbeat CPU 0 instructions: 4500033 cycles: 1945135 heartbeat IPC: 3.739 cumulative IPC: 2.313 (Simulation time: 00 hr 00 min 34 sec)
Heartbeat CPU 0 instructions: 5000039 cycles: 2061947 heartbeat IPC: 4.28 cumulative IPC: 2.425 (Simulation time: 00 hr 00 min 36 sec)
Heartbeat CPU 0 instructions: 5500041 cycles: 2198732 heartbeat IPC: 3.655 cumulative IPC: 2.501 (Simulation time: 00 hr 00 min 39 sec)
Heartbeat CPU 0 instructions: 6000041 cycles: 2379270 heartbeat IPC: 2.77 cumulative IPC: 2.522 (Simulation time: 00 hr 00 min 42 sec)
Heartbeat CPU 0 instructions: 6500044 cycles: 2515929 heartbeat IPC: 3.659 cumulative IPC: 2.584 (Simulation time: 00 hr 00 min 44 sec)
Heartbeat CPU 0 instructions: 7000048 cycles: 2636374 heartbeat IPC: 4.151 cumulative IPC: 2.655 (Simulation time: 00 hr 00 min 47 sec)
Heartbeat CPU 0 instructions: 7500051 cycles: 2756708 heartbeat IPC: 4.155 cumulative IPC: 2.721 (Simulation time: 00 hr 00 min 49 sec)
Heartbeat CPU 0 instructions: 8000055 cycles: 2871212 heartbeat IPC: 4.367 cumulative IPC: 2.786 (Simulation time: 00 hr 00 min 51 sec)
Heartbeat CPU 0 instructions: 8500061 cycles: 3016813 heartbeat IPC: 3.434 cumulative IPC: 2.818 (Simulation time: 00 hr 00 min 53 sec)
Heartbeat CPU 0 instructions: 9000068 cycles: 3152898 heartbeat IPC: 3.674 cumulative IPC: 2.855 (Simulation time: 00 hr 00 min 56 sec)
Heartbeat CPU 0 instructions: 9500073 cycles: 3269748 heartbeat IPC: 4.279 cumulative IPC: 2.905 (Simulation time: 00 hr 00 min 58 sec)
Heartbeat CPU 0 instructions: 10000076 cycles: 3428012 heartbeat IPC: 3.159 cumulative IPC: 2.917 (Simulation time: 00 hr 01 min 01 sec)
Heartbeat CPU 0 instructions: 10500076 cycles: 3578621 heartbeat IPC: 3.32 cumulative IPC: 2.934 (Simulation time: 00 hr 01 min 04 sec)
Heartbeat CPU 0 instructions: 11000082 cycles: 3720615 heartbeat IPC: 3.521 cumulative IPC: 2.957 (Simulation time: 00 hr 01 min 06 sec)
Heartbeat CPU 0 instructions: 11500082 cycles: 3849143 heartbeat IPC: 3.89 cumulative IPC: 2.988 (Simulation time: 00 hr 01 min 09 sec)
Heartbeat CPU 0 instructions: 12000089 cycles: 3973473 heartbeat IPC: 4.022 cumulative IPC: 3.02 (Simulation time: 00 hr 01 min 11 sec)
Heartbeat CPU 0 instructions: 12500089 cycles: 4092275 heartbeat IPC: 4.209 cumulative IPC: 3.055 (Simulation time: 00 hr 01 min 13 sec)
Heartbeat CPU 0 instructions: 13000096 cycles: 4234482 heartbeat IPC: 3.516 cumulative IPC: 3.07 (Simulation time: 00 hr 01 min 16 sec)
Heartbeat CPU 0 instructions: 13500099 cycles: 4366264 heartbeat IPC: 3.794 cumulative IPC: 3.092 (Simulation time: 00 hr 01 min 18 sec)
Heartbeat CPU 0 instructions: 14000102 cycles: 4512846 heartbeat IPC: 3.411 cumulative IPC: 3.102 (Simulation time: 00 hr 01 min 21 sec)
Heartbeat CPU 0 instructions: 14500107 cycles: 4625190 heartbeat IPC: 4.451 cumulative IPC: 3.135 (Simulation time: 00 hr 01 min 23 sec)
Heartbeat CPU 0 instructions: 15000113 cycles: 4729358 heartbeat IPC: 4.8 cumulative IPC: 3.172 (Simulation time: 00 hr 01 min 25 sec)
Heartbeat CPU 0 instructions: 15500114 cycles: 4839608 heartbeat IPC: 4.535 cumulative IPC: 3.203 (Simulation time: 00 hr 01 min 28 sec)
Heartbeat CPU 0 instructions: 16000117 cycles: 4981358 heartbeat IPC: 3.527 cumulative IPC: 3.212 (Simulation time: 00 hr 01 min 31 sec)
Heartbeat CPU 0 instructions: 16500117 cycles: 5115756 heartbeat IPC: 3.72 cumulative IPC: 3.225 (Simulation time: 00 hr 01 min 33 sec)
Heartbeat CPU 0 instructions: 17000119 cycles: 5225948 heartbeat IPC: 4.538 cumulative IPC: 3.253 (Simulation time: 00 hr 01 min 35 sec)
Heartbeat CPU 0 instructions: 17500120 cycles: 5339776 heartbeat IPC: 4.393 cumulative IPC: 3.277 (Simulation time: 00 hr 01 min 37 sec)
Heartbeat CPU 0 instructions: 18000123 cycles: 5442215 heartbeat IPC: 4.881 cumulative IPC: 3.307 (Simulation time: 00 hr 01 min 38 sec)
Heartbeat CPU 0 instructions: 18500125 cycles: 5545622 heartbeat IPC: 4.835 cumulative IPC: 3.336 (Simulation time: 00 hr 01 min 40 sec)
Heartbeat CPU 0 instructions: 19000132 cycles: 5648112 heartbeat IPC: 4.879 cumulative IPC: 3.364 (Simulation time: 00 hr 01 min 42 sec)
Heartbeat CPU 0 instructions: 19500138 cycles: 5755575 heartbeat IPC: 4.653 cumulative IPC: 3.388 (Simulation time: 00 hr 01 min 43 sec)
Heartbeat CPU 0 instructions: 20000145 cycles: 5897882 heartbeat IPC: 3.514 cumulative IPC: 3.391 (Simulation time: 00 hr 01 min 46 sec)
Heartbeat CPU 0 instructions: 20500152 cycles: 6030803 heartbeat IPC: 3.762 cumulative IPC: 3.399 (Simulation time: 00 hr 01 min 48 sec)
Heartbeat CPU 0 instructions: 21000155 cycles: 6182818 heartbeat IPC: 3.289 cumulative IPC: 3.397 (Simulation time: 00 hr 01 min 51 sec)
Heartbeat CPU 0 instructions: 21500156 cycles: 6348305 heartbeat IPC: 3.021 cumulative IPC: 3.387 (Simulation time: 00 hr 01 min 55 sec)
Heartbeat CPU 0 instructions: 22000160 cycles: 6491319 heartbeat IPC: 3.496 cumulative IPC: 3.389 (Simulation time: 00 hr 01 min 57 sec)
Heartbeat CPU 0 instructions: 22500167 cycles: 6620567 heartbeat IPC: 3.869 cumulative IPC: 3.399 (Simulation time: 00 hr 01 min 59 sec)
Heartbeat CPU 0 instructions: 23000167 cycles: 6736235 heartbeat IPC: 4.323 cumulative IPC: 3.414 (Simulation time: 00 hr 02 min 01 sec)
Heartbeat CPU 0 instructions: 23500174 cycles: 6854847 heartbeat IPC: 4.215 cumulative IPC: 3.428 (Simulation time: 00 hr 02 min 03 sec)
Heartbeat CPU 0 instructions: 24000177 cycles: 6973722 heartbeat IPC: 4.206 cumulative IPC: 3.442 (Simulation time: 00 hr 02 min 06 sec)
Heartbeat CPU 0 instructions: 24500178 cycles: 7093688 heartbeat IPC: 4.168 cumulative IPC: 3.454 (Simulation time: 00 hr 02 min 08 sec)
Heartbeat CPU 0 instructions: 25000181 cycles: 7231577 heartbeat IPC: 3.626 cumulative IPC: 3.457 (Simulation time: 00 hr 02 min 10 sec)
Heartbeat CPU 0 instructions: 25500184 cycles: 7349781 heartbeat IPC: 4.23 cumulative IPC: 3.47 (Simulation time: 00 hr 02 min 12 sec)
Heartbeat CPU 0 instructions: 26000189 cycles: 7456791 heartbeat IPC: 4.673 cumulative IPC: 3.487 (Simulation time: 00 hr 02 min 14 sec)
Heartbeat CPU 0 instructions: 26500194 cycles: 7557946 heartbeat IPC: 4.943 cumulative IPC: 3.506 (Simulation time: 00 hr 02 min 16 sec)
Heartbeat CPU 0 instructions: 27000197 cycles: 7667467 heartbeat IPC: 4.565 cumulative IPC: 3.521 (Simulation time: 00 hr 02 min 18 sec)
Heartbeat CPU 0 instructions: 27500200 cycles: 7781673 heartbeat IPC: 4.378 cumulative IPC: 3.534 (Simulation time: 00 hr 02 min 20 sec)
Heartbeat CPU 0 instructions: 28000205 cycles: 7890418 heartbeat IPC: 4.598 cumulative IPC: 3.549 (Simulation time: 00 hr 02 min 22 sec)
Heartbeat CPU 0 instructions: 28500206 cycles: 8007860 heartbeat IPC: 4.257 cumulative IPC: 3.559 (Simulation time: 00 hr 02 min 24 sec)
Heartbeat CPU 0 instructions: 29000212 cycles: 8121849 heartbeat IPC: 4.386 cumulative IPC: 3.571 (Simulation time: 00 hr 02 min 26 sec)
Heartbeat CPU 0 instructions: 29500217 cycles: 8240103 heartbeat IPC: 4.228 cumulative IPC: 3.58 (Simulation time: 00 hr 02 min 28 sec)
Heartbeat CPU 0 instructions: 30000217 cycles: 8351343 heartbeat IPC: 4.495 cumulative IPC: 3.592 (Simulation time: 00 hr 02 min 30 sec)
Heartbeat CPU 0 instructions: 30500221 cycles: 8461879 heartbeat IPC: 4.523 cumulative IPC: 3.604 (Simulation time: 00 hr 02 min 32 sec)
Heartbeat CPU 0 instructions: 31000226 cycles: 8584291 heartbeat IPC: 4.085 cumulative IPC: 3.611 (Simulation time: 00 hr 02 min 34 sec)
Heartbeat CPU 0 instructions: 31500232 cycles: 8722011 heartbeat IPC: 3.631 cumulative IPC: 3.612 (Simulation time: 00 hr 02 min 37 sec)
Heartbeat CPU 0 instructions: 32000235 cycles: 8856487 heartbeat IPC: 3.718 cumulative IPC: 3.613 (Simulation time: 00 hr 02 min 39 sec)
Heartbeat CPU 0 instructions: 32500241 cycles: 8977936 heartbeat IPC: 4.117 cumulative IPC: 3.62 (Simulation time: 00 hr 02 min 41 sec)
Heartbeat CPU 0 instructions: 33000247 cycles: 9091482 heartbeat IPC: 4.404 cumulative IPC: 3.63 (Simulation time: 00 hr 02 min 43 sec)
Heartbeat CPU 0 instructions: 33500253 cycles: 9219849 heartbeat IPC: 3.895 cumulative IPC: 3.633 (Simulation time: 00 hr 02 min 46 sec)
Heartbeat CPU 0 instructions: 34000259 cycles: 9370029 heartbeat IPC: 3.329 cumulative IPC: 3.629 (Simulation time: 00 hr 02 min 49 sec)
Heartbeat CPU 0 instructions: 34500264 cycles: 9535495 heartbeat IPC: 3.022 cumulative IPC: 3.618 (Simulation time: 00 hr 02 min 52 sec)
Heartbeat CPU 0 instructions: 35000266 cycles: 9663500 heartbeat IPC: 3.906 cumulative IPC: 3.622 (Simulation time: 00 hr 02 min 54 sec)
Heartbeat CPU 0 instructions: 35500267 cycles: 9779417 heartbeat IPC: 4.313 cumulative IPC: 3.63 (Simulation time: 00 hr 02 min 56 sec)
Heartbeat CPU 0 instructions: 36000270 cycles: 9897731 heartbeat IPC: 4.226 cumulative IPC: 3.637 (Simulation time: 00 hr 02 min 58 sec)
Heartbeat CPU 0 instructions: 36500270 cycles: 10056650 heartbeat IPC: 3.146 cumulative IPC: 3.629 (Simulation time: 00 hr 03 min 01 sec)
Heartbeat CPU 0 instructions: 37000273 cycles: 10187918 heartbeat IPC: 3.809 cumulative IPC: 3.632 (Simulation time: 00 hr 03 min 04 sec)
Heartbeat CPU 0 instructions: 37500280 cycles: 10312498 heartbeat IPC: 4.014 cumulative IPC: 3.636 (Simulation time: 00 hr 03 min 06 sec)
Heartbeat CPU 0 instructions: 38000281 cycles: 10437810 heartbeat IPC: 3.99 cumulative IPC: 3.641 (Simulation time: 00 hr 03 min 08 sec)
Heartbeat CPU 0 instructions: 38500285 cycles: 10543105 heartbeat IPC: 4.749 cumulative IPC: 3.652 (Simulation time: 00 hr 03 min 10 sec)
Heartbeat CPU 0 instructions: 39000290 cycles: 10645941 heartbeat IPC: 4.862 cumulative IPC: 3.663 (Simulation time: 00 hr 03 min 12 sec)
Heartbeat CPU 0 instructions: 39500294 cycles: 10745936 heartbeat IPC: 5 cumulative IPC: 3.676 (Simulation time: 00 hr 03 min 14 sec)
Heartbeat CPU 0 instructions: 40000294 cycles: 10845926 heartbeat IPC: 5.001 cumulative IPC: 3.688 (Simulation time: 00 hr 03 min 15 sec)
Heartbeat CPU 0 instructions: 40500297 cycles: 10945926 heartbeat IPC: 5 cumulative IPC: 3.7 (Simulation time: 00 hr 03 min 17 sec)
Heartbeat CPU 0 instructions: 41000301 cycles: 11049765 heartbeat IPC: 4.815 cumulative IPC: 3.711 (Simulation time: 00 hr 03 min 19 sec)
Heartbeat CPU 0 instructions: 41500301 cycles: 11150660 heartbeat IPC: 4.956 cumulative IPC: 3.722 (Simulation time: 00 hr 03 min 20 sec)
Heartbeat CPU 0 instructions: 42000304 cycles: 11285443 heartbeat IPC: 3.71 cumulative IPC: 3.722 (Simulation time: 00 hr 03 min 23 sec)
Heartbeat CPU 0 instructions: 42500307 cycles: 11412892 heartbeat IPC: 3.923 cumulative IPC: 3.724 (Simulation time: 00 hr 03 min 25 sec)
Heartbeat CPU 0 instructions: 43000311 cycles: 11540849 heartbeat IPC: 3.908 cumulative IPC: 3.726 (Simulation time: 00 hr 03 min 28 sec)
Heartbeat CPU 0 instructions: 43500318 cycles: 11655026 heartbeat IPC: 4.379 cumulative IPC: 3.732 (Simulation time: 00 hr 03 min 30 sec)
Heartbeat CPU 0 instructions: 44000324 cycles: 11761958 heartbeat IPC: 4.676 cumulative IPC: 3.741 (Simulation time: 00 hr 03 min 31 sec)
Heartbeat CPU 0 instructions: 44500331 cycles: 11879751 heartbeat IPC: 4.245 cumulative IPC: 3.746 (Simulation time: 00 hr 03 min 34 sec)
Heartbeat CPU 0 instructions: 45000335 cycles: 12014409 heartbeat IPC: 3.713 cumulative IPC: 3.746 (Simulation time: 00 hr 03 min 36 sec)
Heartbeat CPU 0 instructions: 45500336 cycles: 12133055 heartbeat IPC: 4.214 cumulative IPC: 3.75 (Simulation time: 00 hr 03 min 38 sec)
Heartbeat CPU 0 instructions: 46000336 cycles: 12244130 heartbeat IPC: 4.501 cumulative IPC: 3.757 (Simulation time: 00 hr 03 min 40 sec)
Heartbeat CPU 0 instructions: 46500340 cycles: 12354952 heartbeat IPC: 4.512 cumulative IPC: 3.764 (Simulation time: 00 hr 03 min 42 sec)
Heartbeat CPU 0 instructions: 47000343 cycles: 12471939 heartbeat IPC: 4.274 cumulative IPC: 3.768 (Simulation time: 00 hr 03 min 44 sec)
Heartbeat CPU 0 instructions: 47500345 cycles: 12603220 heartbeat IPC: 3.809 cumulative IPC: 3.769 (Simulation time: 00 hr 03 min 47 sec)
Heartbeat CPU 0 instructions: 48000345 cycles: 12713573 heartbeat IPC: 4.531 cumulative IPC: 3.776 (Simulation time: 00 hr 03 min 49 sec)
Heartbeat CPU 0 instructions: 48500345 cycles: 12840666 heartbeat IPC: 3.934 cumulative IPC: 3.777 (Simulation time: 00 hr 03 min 51 sec)
Heartbeat CPU 0 instructions: 49000349 cycles: 12959175 heartbeat IPC: 4.219 cumulative IPC: 3.781 (Simulation time: 00 hr 03 min 54 sec)
Heartbeat CPU 0 instructions: 49500352 cycles: 13069384 heartbeat IPC: 4.537 cumulative IPC: 3.788 (Simulation time: 00 hr 03 min 56 sec)
Warmup halting CPU 0 at instruction 50000003 cycle 13185183 for remainder of phase
Warmup finished CPU 0 instructions: 50000003 cycles: 13185183 cumulative IPC: 3.792 (Simulation time: 00 hr 03 min 58 sec)
Warmup complete CPU 0 instructions: 50000003 cycles: 13185183 cumulative IPC: 3.792 (Simulation time: 00 hr 03 min 58 sec)
Heartbeat CPU 0 instructions: 50000355 cycles: 13185645 heartbeat IPC: 4.301 cumulative IPC: 0.7619 (Simulation time: 00 hr 03 min 58 sec)
Heartbeat CPU 0 instructions: 50500356 cycles: 14980583 heartbeat IPC: 0.2786 cumulative IPC: 0.2787 (Simulation time: 00 hr 04 min 11 sec)
Heartbeat CPU 0 instructions: 51000356 cycles: 15608467 heartbeat IPC: 0.7963 cumulative IPC: 0.4128 (Simulation time: 00 hr 04 min 17 sec)
Heartbeat CPU 0 instructions: 51500356 cycles: 17634097 heartbeat IPC: 0.2468 cumulative IPC: 0.3372 (Simulation time: 00 hr 04 min 31 sec)
Heartbeat CPU 0 instructions: 52000359 cycles: 19047185 heartbeat IPC: 0.3538 cumulative IPC: 0.3412 (Simulation time: 00 hr 04 min 41 sec)
Heartbeat CPU 0 instructions: 52500361 cycles: 19650268 heartbeat IPC: 0.8291 cumulative IPC: 0.3867 (Simulation time: 00 hr 04 min 46 sec)
Heartbeat CPU 0 instructions: 53000361 cycles: 20252137 heartbeat IPC: 0.8307 cumulative IPC: 0.4246 (Simulation time: 00 hr 04 min 51 sec)
Heartbeat CPU 0 instructions: 53500362 cycles: 20529385 heartbeat IPC: 1.803 cumulative IPC: 0.4766 (Simulation time: 00 hr 04 min 54 sec)
Heartbeat CPU 0 instructions: 54000366 cycles: 20779625 heartbeat IPC: 1.998 cumulative IPC: 0.5267 (Simulation time: 00 hr 04 min 57 sec)
Heartbeat CPU 0 instructions: 54500370 cycles: 21030201 heartbeat IPC: 1.995 cumulative IPC: 0.5737 (Simulation time: 00 hr 04 min 59 sec)
Heartbeat CPU 0 instructions: 55000377 cycles: 21304260 heartbeat IPC: 1.824 cumulative IPC: 0.6159 (Simulation time: 00 hr 05 min 02 sec)
Heartbeat CPU 0 instructions: 55500379 cycles: 21547969 heartbeat IPC: 2.052 cumulative IPC: 0.6577 (Simulation time: 00 hr 05 min 05 sec)
Heartbeat CPU 0 instructions: 56000384 cycles: 21788357 heartbeat IPC: 2.08 cumulative IPC: 0.6975 (Simulation time: 00 hr 05 min 08 sec)
Heartbeat CPU 0 instructions: 56500385 cycles: 22015325 heartbeat IPC: 2.203 cumulative IPC: 0.7362 (Simulation time: 00 hr 05 min 10 sec)
Heartbeat CPU 0 instructions: 57000386 cycles: 22255719 heartbeat IPC: 2.08 cumulative IPC: 0.7718 (Simulation time: 00 hr 05 min 13 sec)
Heartbeat CPU 0 instructions: 57500391 cycles: 22505051 heartbeat IPC: 2.005 cumulative IPC: 0.8048 (Simulation time: 00 hr 05 min 16 sec)
Heartbeat CPU 0 instructions: 58000392 cycles: 22750065 heartbeat IPC: 2.041 cumulative IPC: 0.8364 (Simulation time: 00 hr 05 min 18 sec)
Heartbeat CPU 0 instructions: 58500399 cycles: 23039970 heartbeat IPC: 1.725 cumulative IPC: 0.8626 (Simulation time: 00 hr 05 min 22 sec)
Heartbeat CPU 0 instructions: 59000400 cycles: 24466963 heartbeat IPC: 0.3504 cumulative IPC: 0.7978 (Simulation time: 00 hr 05 min 32 sec)
Heartbeat CPU 0 instructions: 59500402 cycles: 26838229 heartbeat IPC: 0.2109 cumulative IPC: 0.6958 (Simulation time: 00 hr 05 min 48 sec)
Heartbeat CPU 0 instructions: 60000404 cycles: 28294729 heartbeat IPC: 0.3433 cumulative IPC: 0.6619 (Simulation time: 00 hr 05 min 58 sec)
Heartbeat CPU 0 instructions: 60500411 cycles: 29796862 heartbeat IPC: 0.3329 cumulative IPC: 0.6321 (Simulation time: 00 hr 06 min 08 sec)
Heartbeat CPU 0 instructions: 61000411 cycles: 31819475 heartbeat IPC: 0.2472 cumulative IPC: 0.5903 (Simulation time: 00 hr 06 min 22 sec)
Heartbeat CPU 0 instructions: 61500412 cycles: 32967495 heartbeat IPC: 0.4355 cumulative IPC: 0.5813 (Simulation time: 00 hr 06 min 30 sec)
Heartbeat CPU 0 instructions: 62000416 cycles: 33712776 heartbeat IPC: 0.6709 cumulative IPC: 0.5846 (Simulation time: 00 hr 06 min 36 sec)
Heartbeat CPU 0 instructions: 62500416 cycles: 34292814 heartbeat IPC: 0.862 cumulative IPC: 0.5922 (Simulation time: 00 hr 06 min 41 sec)
Heartbeat CPU 0 instructions: 63000419 cycles: 35015876 heartbeat IPC: 0.6915 cumulative IPC: 0.5955 (Simulation time: 00 hr 06 min 46 sec)
Heartbeat CPU 0 instructions: 63500419 cycles: 36550406 heartbeat IPC: 0.3258 cumulative IPC: 0.5778 (Simulation time: 00 hr 06 min 58 sec)
Heartbeat CPU 0 instructions: 64000421 cycles: 38595828 heartbeat IPC: 0.2444 cumulative IPC: 0.551 (Simulation time: 00 hr 07 min 13 sec)
Heartbeat CPU 0 instructions: 64500428 cycles: 39950800 heartbeat IPC: 0.369 cumulative IPC: 0.5418 (Simulation time: 00 hr 07 min 23 sec)
Heartbeat CPU 0 instructions: 65000428 cycles: 41389126 heartbeat IPC: 0.3476 cumulative IPC: 0.5319 (Simulation time: 00 hr 07 min 34 sec)
Heartbeat CPU 0 instructions: 65500432 cycles: 43549826 heartbeat IPC: 0.2314 cumulative IPC: 0.5105 (Simulation time: 00 hr 07 min 48 sec)
Heartbeat CPU 0 instructions: 66000433 cycles: 45238866 heartbeat IPC: 0.296 cumulative IPC: 0.4992 (Simulation time: 00 hr 08 min 00 sec)
Heartbeat CPU 0 instructions: 66500437 cycles: 46646717 heartbeat IPC: 0.3552 cumulative IPC: 0.4931 (Simulation time: 00 hr 08 min 10 sec)
Heartbeat CPU 0 instructions: 67000438 cycles: 48215131 heartbeat IPC: 0.3188 cumulative IPC: 0.4853 (Simulation time: 00 hr 08 min 22 sec)
Heartbeat CPU 0 instructions: 67500445 cycles: 49077242 heartbeat IPC: 0.58 cumulative IPC: 0.4876 (Simulation time: 00 hr 08 min 28 sec)
Heartbeat CPU 0 instructions: 68000445 cycles: 49721630 heartbeat IPC: 0.7759 cumulative IPC: 0.4927 (Simulation time: 00 hr 08 min 34 sec)
Heartbeat CPU 0 instructions: 68500445 cycles: 50218642 heartbeat IPC: 1.006 cumulative IPC: 0.4996 (Simulation time: 00 hr 08 min 38 sec)
Heartbeat CPU 0 instructions: 69000447 cycles: 50634048 heartbeat IPC: 1.204 cumulative IPC: 0.5074 (Simulation time: 00 hr 08 min 42 sec)
Heartbeat CPU 0 instructions: 69500447 cycles: 51626362 heartbeat IPC: 0.5039 cumulative IPC: 0.5073 (Simulation time: 00 hr 08 min 50 sec)
Heartbeat CPU 0 instructions: 70000447 cycles: 53778338 heartbeat IPC: 0.2323 cumulative IPC: 0.4927 (Simulation time: 00 hr 09 min 05 sec)
Heartbeat CPU 0 instructions: 70500450 cycles: 55202147 heartbeat IPC: 0.3512 cumulative IPC: 0.4879 (Simulation time: 00 hr 09 min 15 sec)
Heartbeat CPU 0 instructions: 71000455 cycles: 56512794 heartbeat IPC: 0.3815 cumulative IPC: 0.4847 (Simulation time: 00 hr 09 min 24 sec)
Heartbeat CPU 0 instructions: 71500459 cycles: 58673784 heartbeat IPC: 0.2314 cumulative IPC: 0.4727 (Simulation time: 00 hr 09 min 40 sec)
Heartbeat CPU 0 instructions: 72000464 cycles: 59930832 heartbeat IPC: 0.3978 cumulative IPC: 0.4706 (Simulation time: 00 hr 09 min 49 sec)
Heartbeat CPU 0 instructions: 72500471 cycles: 60805707 heartbeat IPC: 0.5715 cumulative IPC: 0.4725 (Simulation time: 00 hr 09 min 55 sec)
Heartbeat CPU 0 instructions: 73000475 cycles: 62576954 heartbeat IPC: 0.2823 cumulative IPC: 0.4657 (Simulation time: 00 hr 10 min 07 sec)
Heartbeat CPU 0 instructions: 73500480 cycles: 64911312 heartbeat IPC: 0.2142 cumulative IPC: 0.4543 (Simulation time: 00 hr 10 min 24 sec)
Heartbeat CPU 0 instructions: 74000485 cycles: 66331103 heartbeat IPC: 0.3522 cumulative IPC: 0.4516 (Simulation time: 00 hr 10 min 34 sec)
Heartbeat CPU 0 instructions: 74500490 cycles: 67278452 heartbeat IPC: 0.5278 cumulative IPC: 0.4529 (Simulation time: 00 hr 10 min 41 sec)
Heartbeat CPU 0 instructions: 75000490 cycles: 68758393 heartbeat IPC: 0.3379 cumulative IPC: 0.4499 (Simulation time: 00 hr 10 min 51 sec)
Heartbeat CPU 0 instructions: 75500495 cycles: 69890662 heartbeat IPC: 0.4416 cumulative IPC: 0.4497 (Simulation time: 00 hr 11 min 00 sec)
Heartbeat CPU 0 instructions: 76000495 cycles: 70682005 heartbeat IPC: 0.6318 cumulative IPC: 0.4522 (Simulation time: 00 hr 11 min 06 sec)
Heartbeat CPU 0 instructions: 76500495 cycles: 72150191 heartbeat IPC: 0.3406 cumulative IPC: 0.4494 (Simulation time: 00 hr 11 min 16 sec)
Heartbeat CPU 0 instructions: 77000495 cycles: 73405348 heartbeat IPC: 0.3984 cumulative IPC: 0.4484 (Simulation time: 00 hr 11 min 26 sec)
Heartbeat CPU 0 instructions: 77500495 cycles: 74166562 heartbeat IPC: 0.6568 cumulative IPC: 0.451 (Simulation time: 00 hr 11 min 31 sec)
Heartbeat CPU 0 instructions: 78000495 cycles: 74534985 heartbeat IPC: 1.357 cumulative IPC: 0.4564 (Simulation time: 00 hr 11 min 35 sec)
Heartbeat CPU 0 instructions: 78500499 cycles: 75819798 heartbeat IPC: 0.3892 cumulative IPC: 0.455 (Simulation time: 00 hr 11 min 44 sec)
Heartbeat CPU 0 instructions: 79000504 cycles: 77173676 heartbeat IPC: 0.3693 cumulative IPC: 0.4532 (Simulation time: 00 hr 11 min 54 sec)
Heartbeat CPU 0 instructions: 79500505 cycles: 78411220 heartbeat IPC: 0.404 cumulative IPC: 0.4523 (Simulation time: 00 hr 12 min 04 sec)
Heartbeat CPU 0 instructions: 80000511 cycles: 80162197 heartbeat IPC: 0.2856 cumulative IPC: 0.4479 (Simulation time: 00 hr 12 min 16 sec)
Heartbeat CPU 0 instructions: 80500511 cycles: 81601531 heartbeat IPC: 0.3474 cumulative IPC: 0.4458 (Simulation time: 00 hr 12 min 27 sec)
Heartbeat CPU 0 instructions: 81000511 cycles: 82720950 heartbeat IPC: 0.4467 cumulative IPC: 0.4458 (Simulation time: 00 hr 12 min 36 sec)
Heartbeat CPU 0 instructions: 81500512 cycles: 84417670 heartbeat IPC: 0.2947 cumulative IPC: 0.4422 (Simulation time: 00 hr 12 min 47 sec)
Heartbeat CPU 0 instructions: 82000514 cycles: 86566132 heartbeat IPC: 0.2327 cumulative IPC: 0.4361 (Simulation time: 00 hr 13 min 02 sec)
Heartbeat CPU 0 instructions: 82500521 cycles: 88365149 heartbeat IPC: 0.2779 cumulative IPC: 0.4323 (Simulation time: 00 hr 13 min 15 sec)
Heartbeat CPU 0 instructions: 83000523 cycles: 89117003 heartbeat IPC: 0.665 cumulative IPC: 0.4346 (Simulation time: 00 hr 13 min 21 sec)
Heartbeat CPU 0 instructions: 83500525 cycles: 89588184 heartbeat IPC: 1.061 cumulative IPC: 0.4385 (Simulation time: 00 hr 13 min 25 sec)
Heartbeat CPU 0 instructions: 84000525 cycles: 91084512 heartbeat IPC: 0.3342 cumulative IPC: 0.4365 (Simulation time: 00 hr 13 min 35 sec)
Heartbeat CPU 0 instructions: 84500528 cycles: 92575492 heartbeat IPC: 0.3354 cumulative IPC: 0.4346 (Simulation time: 00 hr 13 min 46 sec)
Heartbeat CPU 0 instructions: 85000531 cycles: 93744746 heartbeat IPC: 0.4276 cumulative IPC: 0.4345 (Simulation time: 00 hr 13 min 55 sec)
Heartbeat CPU 0 instructions: 85500531 cycles: 94594765 heartbeat IPC: 0.5882 cumulative IPC: 0.4361 (Simulation time: 00 hr 14 min 01 sec)
Heartbeat CPU 0 instructions: 86000532 cycles: 95334474 heartbeat IPC: 0.6759 cumulative IPC: 0.4382 (Simulation time: 00 hr 14 min 07 sec)
Heartbeat CPU 0 instructions: 86500539 cycles: 95980173 heartbeat IPC: 0.7744 cumulative IPC: 0.4409 (Simulation time: 00 hr 14 min 12 sec)
Heartbeat CPU 0 instructions: 87000539 cycles: 96344117 heartbeat IPC: 1.374 cumulative IPC: 0.4449 (Simulation time: 00 hr 14 min 16 sec)
Heartbeat CPU 0 instructions: 87500540 cycles: 96943711 heartbeat IPC: 0.8339 cumulative IPC: 0.4477 (Simulation time: 00 hr 14 min 21 sec)
Heartbeat CPU 0 instructions: 88000540 cycles: 98710348 heartbeat IPC: 0.283 cumulative IPC: 0.4443 (Simulation time: 00 hr 14 min 34 sec)
Heartbeat CPU 0 instructions: 88500545 cycles: 100077326 heartbeat IPC: 0.3658 cumulative IPC: 0.4431 (Simulation time: 00 hr 14 min 44 sec)
Heartbeat CPU 0 instructions: 89000546 cycles: 100887902 heartbeat IPC: 0.6168 cumulative IPC: 0.4447 (Simulation time: 00 hr 14 min 50 sec)
Heartbeat CPU 0 instructions: 89500550 cycles: 101436328 heartbeat IPC: 0.9117 cumulative IPC: 0.4476 (Simulation time: 00 hr 14 min 54 sec)
Heartbeat CPU 0 instructions: 90000552 cycles: 102084506 heartbeat IPC: 0.7714 cumulative IPC: 0.45 (Simulation time: 00 hr 15 min 00 sec)
Heartbeat CPU 0 instructions: 90500554 cycles: 103590605 heartbeat IPC: 0.332 cumulative IPC: 0.448 (Simulation time: 00 hr 15 min 11 sec)
Heartbeat CPU 0 instructions: 91000556 cycles: 105749859 heartbeat IPC: 0.2316 cumulative IPC: 0.4429 (Simulation time: 00 hr 15 min 26 sec)
Heartbeat CPU 0 instructions: 91500558 cycles: 106685542 heartbeat IPC: 0.5344 cumulative IPC: 0.4439 (Simulation time: 00 hr 15 min 34 sec)
Heartbeat CPU 0 instructions: 92000558 cycles: 108158039 heartbeat IPC: 0.3396 cumulative IPC: 0.4422 (Simulation time: 00 hr 15 min 44 sec)
Heartbeat CPU 0 instructions: 92500558 cycles: 109867157 heartbeat IPC: 0.2925 cumulative IPC: 0.4396 (Simulation time: 00 hr 15 min 57 sec)
Heartbeat CPU 0 instructions: 93000560 cycles: 110663927 heartbeat IPC: 0.6275 cumulative IPC: 0.4411 (Simulation time: 00 hr 16 min 03 sec)
Heartbeat CPU 0 instructions: 93500562 cycles: 111697335 heartbeat IPC: 0.4838 cumulative IPC: 0.4416 (Simulation time: 00 hr 16 min 11 sec)
Heartbeat CPU 0 instructions: 94000563 cycles: 113370937 heartbeat IPC: 0.2988 cumulative IPC: 0.4392 (Simulation time: 00 hr 16 min 22 sec)
Heartbeat CPU 0 instructions: 94500564 cycles: 115317841 heartbeat IPC: 0.2568 cumulative IPC: 0.4357 (Simulation time: 00 hr 16 min 36 sec)
Heartbeat CPU 0 instructions: 95000564 cycles: 117634217 heartbeat IPC: 0.2159 cumulative IPC: 0.4308 (Simulation time: 00 hr 16 min 51 sec)
Heartbeat CPU 0 instructions: 95500564 cycles: 118950751 heartbeat IPC: 0.3798 cumulative IPC: 0.4302 (Simulation time: 00 hr 17 min 01 sec)
Heartbeat CPU 0 instructions: 96000566 cycles: 120389305 heartbeat IPC: 0.3476 cumulative IPC: 0.4291 (Simulation time: 00 hr 17 min 12 sec)
Heartbeat CPU 0 instructions: 96500572 cycles: 121953553 heartbeat IPC: 0.3196 cumulative IPC: 0.4275 (Simulation time: 00 hr 17 min 23 sec)
Heartbeat CPU 0 instructions: 97000574 cycles: 122940375 heartbeat IPC: 0.5067 cumulative IPC: 0.4282 (Simulation time: 00 hr 17 min 30 sec)
Heartbeat CPU 0 instructions: 97500581 cycles: 123554328 heartbeat IPC: 0.8144 cumulative IPC: 0.4304 (Simulation time: 00 hr 17 min 35 sec)
Heartbeat CPU 0 instructions: 98000583 cycles: 124603246 heartbeat IPC: 0.4767 cumulative IPC: 0.4308 (Simulation time: 00 hr 17 min 43 sec)
Heartbeat CPU 0 instructions: 98500584 cycles: 125862475 heartbeat IPC: 0.3971 cumulative IPC: 0.4304 (Simulation time: 00 hr 17 min 53 sec)
Heartbeat CPU 0 instructions: 99000584 cycles: 126706805 heartbeat IPC: 0.5922 cumulative IPC: 0.4316 (Simulation time: 00 hr 17 min 59 sec)
Heartbeat CPU 0 instructions: 99500585 cycles: 127403711 heartbeat IPC: 0.7175 cumulative IPC: 0.4334 (Simulation time: 00 hr 18 min 05 sec)
Heartbeat CPU 0 instructions: 100000586 cycles: 129165511 heartbeat IPC: 0.2838 cumulative IPC: 0.4311 (Simulation time: 00 hr 18 min 17 sec)
Heartbeat CPU 0 instructions: 100500586 cycles: 130200458 heartbeat IPC: 0.4831 cumulative IPC: 0.4316 (Simulation time: 00 hr 18 min 25 sec)
Heartbeat CPU 0 instructions: 101000586 cycles: 130719680 heartbeat IPC: 0.963 cumulative IPC: 0.4339 (Simulation time: 00 hr 18 min 30 sec)
Heartbeat CPU 0 instructions: 101500587 cycles: 131102984 heartbeat IPC: 1.304 cumulative IPC: 0.4367 (Simulation time: 00 hr 18 min 34 sec)
Heartbeat CPU 0 instructions: 102000587 cycles: 131423811 heartbeat IPC: 1.558 cumulative IPC: 0.4398 (Simulation time: 00 hr 18 min 37 sec)
Heartbeat CPU 0 instructions: 102500593 cycles: 131741681 heartbeat IPC: 1.573 cumulative IPC: 0.4428 (Simulation time: 00 hr 18 min 40 sec)
Heartbeat CPU 0 instructions: 103000600 cycles: 133883627 heartbeat IPC: 0.2334 cumulative IPC: 0.4391 (Simulation time: 00 hr 18 min 56 sec)
Heartbeat CPU 0 instructions: 103500603 cycles: 135992437 heartbeat IPC: 0.2371 cumulative IPC: 0.4356 (Simulation time: 00 hr 19 min 11 sec)
Heartbeat CPU 0 instructions: 104000605 cycles: 136861664 heartbeat IPC: 0.5752 cumulative IPC: 0.4366 (Simulation time: 00 hr 19 min 18 sec)
Heartbeat CPU 0 instructions: 104500605 cycles: 138471558 heartbeat IPC: 0.3106 cumulative IPC: 0.435 (Simulation time: 00 hr 19 min 29 sec)
Heartbeat CPU 0 instructions: 105000608 cycles: 139661600 heartbeat IPC: 0.4202 cumulative IPC: 0.4349 (Simulation time: 00 hr 19 min 38 sec)
Heartbeat CPU 0 instructions: 105500614 cycles: 141527297 heartbeat IPC: 0.268 cumulative IPC: 0.4324 (Simulation time: 00 hr 19 min 51 sec)
Heartbeat CPU 0 instructions: 106000618 cycles: 142427971 heartbeat IPC: 0.5551 cumulative IPC: 0.4333 (Simulation time: 00 hr 19 min 58 sec)
Heartbeat CPU 0 instructions: 106500621 cycles: 143144867 heartbeat IPC: 0.6975 cumulative IPC: 0.4348 (Simulation time: 00 hr 20 min 03 sec)
Heartbeat CPU 0 instructions: 107000621 cycles: 144176413 heartbeat IPC: 0.4847 cumulative IPC: 0.4351 (Simulation time: 00 hr 20 min 11 sec)
Heartbeat CPU 0 instructions: 107500621 cycles: 145975990 heartbeat IPC: 0.2778 cumulative IPC: 0.433 (Simulation time: 00 hr 20 min 24 sec)
Heartbeat CPU 0 instructions: 108000621 cycles: 147566966 heartbeat IPC: 0.3143 cumulative IPC: 0.4316 (Simulation time: 00 hr 20 min 36 sec)
Heartbeat CPU 0 instructions: 108500623 cycles: 148525909 heartbeat IPC: 0.5214 cumulative IPC: 0.4322 (Simulation time: 00 hr 20 min 43 sec)
Heartbeat CPU 0 instructions: 109000623 cycles: 149180608 heartbeat IPC: 0.7637 cumulative IPC: 0.4338 (Simulation time: 00 hr 20 min 48 sec)
Heartbeat CPU 0 instructions: 109500623 cycles: 149751230 heartbeat IPC: 0.8762 cumulative IPC: 0.4357 (Simulation time: 00 hr 20 min 53 sec)
Heartbeat CPU 0 instructions: 110000624 cycles: 150406394 heartbeat IPC: 0.7632 cumulative IPC: 0.4373 (Simulation time: 00 hr 20 min 58 sec)
Heartbeat CPU 0 instructions: 110500624 cycles: 150897008 heartbeat IPC: 1.019 cumulative IPC: 0.4393 (Simulation time: 00 hr 21 min 02 sec)
Heartbeat CPU 0 instructions: 111000625 cycles: 151641669 heartbeat IPC: 0.6714 cumulative IPC: 0.4406 (Simulation time: 00 hr 21 min 08 sec)
Heartbeat CPU 0 instructions: 111500627 cycles: 153648033 heartbeat IPC: 0.2492 cumulative IPC: 0.4378 (Simulation time: 00 hr 21 min 22 sec)
Heartbeat CPU 0 instructions: 112000631 cycles: 154803988 heartbeat IPC: 0.4325 cumulative IPC: 0.4378 (Simulation time: 00 hr 21 min 31 sec)
Heartbeat CPU 0 instructions: 112500631 cycles: 155550497 heartbeat IPC: 0.6698 cumulative IPC: 0.439 (Simulation time: 00 hr 21 min 37 sec)
Heartbeat CPU 0 instructions: 113000631 cycles: 156111290 heartbeat IPC: 0.8916 cumulative IPC: 0.4408 (Simulation time: 00 hr 21 min 41 sec)
Heartbeat CPU 0 instructions: 113500633 cycles: 156702472 heartbeat IPC: 0.8458 cumulative IPC: 0.4425 (Simulation time: 00 hr 21 min 46 sec)
Heartbeat CPU 0 instructions: 114000638 cycles: 157736264 heartbeat IPC: 0.4837 cumulative IPC: 0.4428 (Simulation time: 00 hr 21 min 54 sec)
Heartbeat CPU 0 instructions: 114500639 cycles: 159922729 heartbeat IPC: 0.2287 cumulative IPC: 0.4396 (Simulation time: 00 hr 22 min 09 sec)
Heartbeat CPU 0 instructions: 115000639 cycles: 160783808 heartbeat IPC: 0.5807 cumulative IPC: 0.4404 (Simulation time: 00 hr 22 min 17 sec)
Heartbeat CPU 0 instructions: 115500641 cycles: 163002865 heartbeat IPC: 0.2253 cumulative IPC: 0.4372 (Simulation time: 00 hr 22 min 32 sec)
Heartbeat CPU 0 instructions: 116000641 cycles: 164214049 heartbeat IPC: 0.4128 cumulative IPC: 0.437 (Simulation time: 00 hr 22 min 41 sec)
Heartbeat CPU 0 instructions: 116500642 cycles: 165370511 heartbeat IPC: 0.4324 cumulative IPC: 0.437 (Simulation time: 00 hr 22 min 50 sec)
Heartbeat CPU 0 instructions: 117000648 cycles: 166150447 heartbeat IPC: 0.6411 cumulative IPC: 0.438 (Simulation time: 00 hr 22 min 56 sec)
Heartbeat CPU 0 instructions: 117500650 cycles: 167235923 heartbeat IPC: 0.4606 cumulative IPC: 0.4382 (Simulation time: 00 hr 23 min 04 sec)
Heartbeat CPU 0 instructions: 118000654 cycles: 169701829 heartbeat IPC: 0.2028 cumulative IPC: 0.4345 (Simulation time: 00 hr 23 min 21 sec)
Heartbeat CPU 0 instructions: 118500654 cycles: 171039256 heartbeat IPC: 0.3739 cumulative IPC: 0.4339 (Simulation time: 00 hr 23 min 31 sec)
Heartbeat CPU 0 instructions: 119000658 cycles: 172039306 heartbeat IPC: 0.5 cumulative IPC: 0.4344 (Simulation time: 00 hr 23 min 38 sec)
Heartbeat CPU 0 instructions: 119500660 cycles: 173575465 heartbeat IPC: 0.3255 cumulative IPC: 0.4333 (Simulation time: 00 hr 23 min 49 sec)
Heartbeat CPU 0 instructions: 120000660 cycles: 174601998 heartbeat IPC: 0.4871 cumulative IPC: 0.4337 (Simulation time: 00 hr 23 min 56 sec)
Heartbeat CPU 0 instructions: 120500660 cycles: 175457911 heartbeat IPC: 0.5842 cumulative IPC: 0.4345 (Simulation time: 00 hr 24 min 03 sec)
Heartbeat CPU 0 instructions: 121000661 cycles: 176379389 heartbeat IPC: 0.5426 cumulative IPC: 0.4351 (Simulation time: 00 hr 24 min 10 sec)
Heartbeat CPU 0 instructions: 121500662 cycles: 177801814 heartbeat IPC: 0.3515 cumulative IPC: 0.4343 (Simulation time: 00 hr 24 min 20 sec)
Heartbeat CPU 0 instructions: 122000666 cycles: 178580547 heartbeat IPC: 0.6421 cumulative IPC: 0.4353 (Simulation time: 00 hr 24 min 26 sec)
Heartbeat CPU 0 instructions: 122500667 cycles: 179384129 heartbeat IPC: 0.6222 cumulative IPC: 0.4362 (Simulation time: 00 hr 24 min 32 sec)
Heartbeat CPU 0 instructions: 123000667 cycles: 180553163 heartbeat IPC: 0.4277 cumulative IPC: 0.4362 (Simulation time: 00 hr 24 min 40 sec)
Heartbeat CPU 0 instructions: 123500669 cycles: 181298901 heartbeat IPC: 0.6705 cumulative IPC: 0.4372 (Simulation time: 00 hr 24 min 46 sec)
Heartbeat CPU 0 instructions: 124000670 cycles: 182609871 heartbeat IPC: 0.3814 cumulative IPC: 0.4368 (Simulation time: 00 hr 24 min 56 sec)
Heartbeat CPU 0 instructions: 124500672 cycles: 184372402 heartbeat IPC: 0.2837 cumulative IPC: 0.4352 (Simulation time: 00 hr 25 min 09 sec)
Heartbeat CPU 0 instructions: 125000679 cycles: 185191549 heartbeat IPC: 0.6104 cumulative IPC: 0.436 (Simulation time: 00 hr 25 min 15 sec)
Heartbeat CPU 0 instructions: 125500681 cycles: 185849544 heartbeat IPC: 0.7599 cumulative IPC: 0.4373 (Simulation time: 00 hr 25 min 21 sec)
Heartbeat CPU 0 instructions: 126000688 cycles: 186275062 heartbeat IPC: 1.175 cumulative IPC: 0.4391 (Simulation time: 00 hr 25 min 25 sec)
Heartbeat CPU 0 instructions: 126500691 cycles: 187108827 heartbeat IPC: 0.5997 cumulative IPC: 0.4399 (Simulation time: 00 hr 25 min 31 sec)
Heartbeat CPU 0 instructions: 127000691 cycles: 188421344 heartbeat IPC: 0.3809 cumulative IPC: 0.4394 (Simulation time: 00 hr 25 min 41 sec)
Heartbeat CPU 0 instructions: 127500693 cycles: 190212411 heartbeat IPC: 0.2792 cumulative IPC: 0.4378 (Simulation time: 00 hr 25 min 54 sec)
Heartbeat CPU 0 instructions: 128000693 cycles: 191507116 heartbeat IPC: 0.3862 cumulative IPC: 0.4374 (Simulation time: 00 hr 26 min 03 sec)
Heartbeat CPU 0 instructions: 128500696 cycles: 192198225 heartbeat IPC: 0.7235 cumulative IPC: 0.4385 (Simulation time: 00 hr 26 min 09 sec)
Heartbeat CPU 0 instructions: 129000699 cycles: 192672303 heartbeat IPC: 1.055 cumulative IPC: 0.4401 (Simulation time: 00 hr 26 min 13 sec)
Heartbeat CPU 0 instructions: 129500700 cycles: 193072244 heartbeat IPC: 1.25 cumulative IPC: 0.4419 (Simulation time: 00 hr 26 min 17 sec)
Heartbeat CPU 0 instructions: 130000701 cycles: 193721256 heartbeat IPC: 0.7704 cumulative IPC: 0.4431 (Simulation time: 00 hr 26 min 22 sec)
Heartbeat CPU 0 instructions: 130500703 cycles: 193976355 heartbeat IPC: 1.96 cumulative IPC: 0.4453 (Simulation time: 00 hr 26 min 25 sec)
Heartbeat CPU 0 instructions: 131000707 cycles: 194190961 heartbeat IPC: 2.33 cumulative IPC: 0.4475 (Simulation time: 00 hr 26 min 27 sec)
Heartbeat CPU 0 instructions: 131500708 cycles: 194443633 heartbeat IPC: 1.979 cumulative IPC: 0.4496 (Simulation time: 00 hr 26 min 30 sec)
Heartbeat CPU 0 instructions: 132000708 cycles: 194704220 heartbeat IPC: 1.919 cumulative IPC: 0.4517 (Simulation time: 00 hr 26 min 32 sec)
Heartbeat CPU 0 instructions: 132500708 cycles: 194918900 heartbeat IPC: 2.329 cumulative IPC: 0.454 (Simulation time: 00 hr 26 min 35 sec)
Heartbeat CPU 0 instructions: 133000713 cycles: 195869510 heartbeat IPC: 0.526 cumulative IPC: 0.4543 (Simulation time: 00 hr 26 min 42 sec)
Heartbeat CPU 0 instructions: 133500715 cycles: 196456385 heartbeat IPC: 0.852 cumulative IPC: 0.4556 (Simulation time: 00 hr 26 min 47 sec)
Heartbeat CPU 0 instructions: 134000715 cycles: 196819864 heartbeat IPC: 1.376 cumulative IPC: 0.4574 (Simulation time: 00 hr 26 min 51 sec)
Heartbeat CPU 0 instructions: 134500717 cycles: 197197142 heartbeat IPC: 1.325 cumulative IPC: 0.4592 (Simulation time: 00 hr 26 min 54 sec)
Heartbeat CPU 0 instructions: 135000717 cycles: 197659590 heartbeat IPC: 1.081 cumulative IPC: 0.4608 (Simulation time: 00 hr 26 min 58 sec)
Heartbeat CPU 0 instructions: 135500717 cycles: 197955191 heartbeat IPC: 1.691 cumulative IPC: 0.4627 (Simulation time: 00 hr 27 min 01 sec)
Heartbeat CPU 0 instructions: 136000720 cycles: 198277134 heartbeat IPC: 1.553 cumulative IPC: 0.4646 (Simulation time: 00 hr 27 min 04 sec)
Heartbeat CPU 0 instructions: 136500723 cycles: 199556683 heartbeat IPC: 0.3908 cumulative IPC: 0.4641 (Simulation time: 00 hr 27 min 14 sec)
Heartbeat CPU 0 instructions: 137000723 cycles: 200911931 heartbeat IPC: 0.3689 cumulative IPC: 0.4634 (Simulation time: 00 hr 27 min 24 sec)
Heartbeat CPU 0 instructions: 137500725 cycles: 201371055 heartbeat IPC: 1.089 cumulative IPC: 0.465 (Simulation time: 00 hr 27 min 28 sec)
Heartbeat CPU 0 instructions: 138000725 cycles: 201687203 heartbeat IPC: 1.582 cumulative IPC: 0.4668 (Simulation time: 00 hr 27 min 32 sec)
Heartbeat CPU 0 instructions: 138500725 cycles: 202109141 heartbeat IPC: 1.185 cumulative IPC: 0.4684 (Simulation time: 00 hr 27 min 37 sec)
Heartbeat CPU 0 instructions: 139000725 cycles: 203045490 heartbeat IPC: 0.534 cumulative IPC: 0.4688 (Simulation time: 00 hr 27 min 47 sec)
Heartbeat CPU 0 instructions: 139500725 cycles: 204070334 heartbeat IPC: 0.4879 cumulative IPC: 0.4689 (Simulation time: 00 hr 27 min 55 sec)
Heartbeat CPU 0 instructions: 140000725 cycles: 206200644 heartbeat IPC: 0.2347 cumulative IPC: 0.4663 (Simulation time: 00 hr 28 min 10 sec)
Heartbeat CPU 0 instructions: 140500727 cycles: 208556914 heartbeat IPC: 0.2122 cumulative IPC: 0.4632 (Simulation time: 00 hr 28 min 26 sec)
Heartbeat CPU 0 instructions: 141000729 cycles: 210128831 heartbeat IPC: 0.3181 cumulative IPC: 0.4621 (Simulation time: 00 hr 28 min 38 sec)
Heartbeat CPU 0 instructions: 141500729 cycles: 211247880 heartbeat IPC: 0.4468 cumulative IPC: 0.462 (Simulation time: 00 hr 28 min 46 sec)
Heartbeat CPU 0 instructions: 142000732 cycles: 212474152 heartbeat IPC: 0.4077 cumulative IPC: 0.4616 (Simulation time: 00 hr 28 min 55 sec)
Heartbeat CPU 0 instructions: 142500732 cycles: 213574770 heartbeat IPC: 0.4543 cumulative IPC: 0.4616 (Simulation time: 00 hr 29 min 03 sec)
Heartbeat CPU 0 instructions: 143000732 cycles: 216093476 heartbeat IPC: 0.1985 cumulative IPC: 0.4583 (Simulation time: 00 hr 29 min 20 sec)
Heartbeat CPU 0 instructions: 143500737 cycles: 217638846 heartbeat IPC: 0.3236 cumulative IPC: 0.4573 (Simulation time: 00 hr 29 min 31 sec)
Heartbeat CPU 0 instructions: 144000737 cycles: 219176610 heartbeat IPC: 0.3251 cumulative IPC: 0.4563 (Simulation time: 00 hr 29 min 42 sec)
Heartbeat CPU 0 instructions: 144500738 cycles: 220112676 heartbeat IPC: 0.5342 cumulative IPC: 0.4567 (Simulation time: 00 hr 29 min 49 sec)
Heartbeat CPU 0 instructions: 145000742 cycles: 221653565 heartbeat IPC: 0.3245 cumulative IPC: 0.4557 (Simulation time: 00 hr 30 min 00 sec)
Heartbeat CPU 0 instructions: 145500749 cycles: 222584306 heartbeat IPC: 0.5372 cumulative IPC: 0.4561 (Simulation time: 00 hr 30 min 07 sec)
Heartbeat CPU 0 instructions: 146000753 cycles: 224615406 heartbeat IPC: 0.2462 cumulative IPC: 0.4541 (Simulation time: 00 hr 30 min 21 sec)
Heartbeat CPU 0 instructions: 146500760 cycles: 226280337 heartbeat IPC: 0.3003 cumulative IPC: 0.4529 (Simulation time: 00 hr 30 min 33 sec)
Heartbeat CPU 0 instructions: 147000761 cycles: 227395050 heartbeat IPC: 0.4485 cumulative IPC: 0.4528 (Simulation time: 00 hr 30 min 41 sec)
Heartbeat CPU 0 instructions: 147500763 cycles: 228602498 heartbeat IPC: 0.4141 cumulative IPC: 0.4526 (Simulation time: 00 hr 30 min 50 sec)
Heartbeat CPU 0 instructions: 148000763 cycles: 231012862 heartbeat IPC: 0.2074 cumulative IPC: 0.4499 (Simulation time: 00 hr 31 min 07 sec)
Heartbeat CPU 0 instructions: 148500765 cycles: 232112872 heartbeat IPC: 0.4545 cumulative IPC: 0.4499 (Simulation time: 00 hr 31 min 15 sec)
Heartbeat CPU 0 instructions: 149000772 cycles: 233912410 heartbeat IPC: 0.2779 cumulative IPC: 0.4485 (Simulation time: 00 hr 31 min 27 sec)
Heartbeat CPU 0 instructions: 149500772 cycles: 235938478 heartbeat IPC: 0.2468 cumulative IPC: 0.4467 (Simulation time: 00 hr 31 min 41 sec)
Heartbeat CPU 0 instructions: 150000776 cycles: 237313468 heartbeat IPC: 0.3636 cumulative IPC: 0.4462 (Simulation time: 00 hr 31 min 51 sec)
Heartbeat CPU 0 instructions: 150500779 cycles: 238438068 heartbeat IPC: 0.4446 cumulative IPC: 0.4462 (Simulation time: 00 hr 31 min 59 sec)
Heartbeat CPU 0 instructions: 151000779 cycles: 239259317 heartbeat IPC: 0.6088 cumulative IPC: 0.4468 (Simulation time: 00 hr 32 min 06 sec)
Heartbeat CPU 0 instructions: 151500783 cycles: 239749915 heartbeat IPC: 1.019 cumulative IPC: 0.448 (Simulation time: 00 hr 32 min 10 sec)
Heartbeat CPU 0 instructions: 152000785 cycles: 240364326 heartbeat IPC: 0.8138 cumulative IPC: 0.449 (Simulation time: 00 hr 32 min 15 sec)
Heartbeat CPU 0 instructions: 152500789 cycles: 240747330 heartbeat IPC: 1.305 cumulative IPC: 0.4504 (Simulation time: 00 hr 32 min 19 sec)
Heartbeat CPU 0 instructions: 153000792 cycles: 241054425 heartbeat IPC: 1.628 cumulative IPC: 0.452 (Simulation time: 00 hr 32 min 23 sec)
Heartbeat CPU 0 instructions: 153500795 cycles: 241569012 heartbeat IPC: 0.9717 cumulative IPC: 0.4532 (Simulation time: 00 hr 32 min 27 sec)
Heartbeat CPU 0 instructions: 154000797 cycles: 242688363 heartbeat IPC: 0.4467 cumulative IPC: 0.4532 (Simulation time: 00 hr 32 min 35 sec)
Heartbeat CPU 0 instructions: 154500798 cycles: 245304113 heartbeat IPC: 0.1912 cumulative IPC: 0.4502 (Simulation time: 00 hr 32 min 53 sec)
Heartbeat CPU 0 instructions: 155000798 cycles: 246764747 heartbeat IPC: 0.3423 cumulative IPC: 0.4495 (Simulation time: 00 hr 33 min 04 sec)
Heartbeat CPU 0 instructions: 155500801 cycles: 247533518 heartbeat IPC: 0.6504 cumulative IPC: 0.4502 (Simulation time: 00 hr 33 min 10 sec)
Heartbeat CPU 0 instructions: 156000805 cycles: 248436944 heartbeat IPC: 0.5535 cumulative IPC: 0.4506 (Simulation time: 00 hr 33 min 17 sec)
Heartbeat CPU 0 instructions: 156500806 cycles: 249206781 heartbeat IPC: 0.6495 cumulative IPC: 0.4512 (Simulation time: 00 hr 33 min 23 sec)
Heartbeat CPU 0 instructions: 157000808 cycles: 251013691 heartbeat IPC: 0.2767 cumulative IPC: 0.4499 (Simulation time: 00 hr 33 min 36 sec)
Heartbeat CPU 0 instructions: 157500808 cycles: 252007822 heartbeat IPC: 0.503 cumulative IPC: 0.4501 (Simulation time: 00 hr 33 min 43 sec)
Heartbeat CPU 0 instructions: 158000812 cycles: 253488217 heartbeat IPC: 0.3378 cumulative IPC: 0.4494 (Simulation time: 00 hr 33 min 54 sec)
Heartbeat CPU 0 instructions: 158500812 cycles: 254378913 heartbeat IPC: 0.5614 cumulative IPC: 0.4498 (Simulation time: 00 hr 34 min 01 sec)
Heartbeat CPU 0 instructions: 159000812 cycles: 255189121 heartbeat IPC: 0.6171 cumulative IPC: 0.4504 (Simulation time: 00 hr 34 min 07 sec)
Heartbeat CPU 0 instructions: 159500813 cycles: 255772776 heartbeat IPC: 0.8567 cumulative IPC: 0.4514 (Simulation time: 00 hr 34 min 12 sec)
Heartbeat CPU 0 instructions: 160000813 cycles: 257226820 heartbeat IPC: 0.3439 cumulative IPC: 0.4507 (Simulation time: 00 hr 34 min 22 sec)
Heartbeat CPU 0 instructions: 160500819 cycles: 258253738 heartbeat IPC: 0.4869 cumulative IPC: 0.4509 (Simulation time: 00 hr 34 min 30 sec)
Heartbeat CPU 0 instructions: 161000819 cycles: 258945861 heartbeat IPC: 0.7224 cumulative IPC: 0.4517 (Simulation time: 00 hr 34 min 36 sec)
Heartbeat CPU 0 instructions: 161500820 cycles: 259339524 heartbeat IPC: 1.27 cumulative IPC: 0.453 (Simulation time: 00 hr 34 min 39 sec)
Heartbeat CPU 0 instructions: 162000827 cycles: 260009267 heartbeat IPC: 0.7466 cumulative IPC: 0.4538 (Simulation time: 00 hr 34 min 45 sec)
Heartbeat CPU 0 instructions: 162500831 cycles: 260296978 heartbeat IPC: 1.738 cumulative IPC: 0.4553 (Simulation time: 00 hr 34 min 47 sec)
Heartbeat CPU 0 instructions: 163000834 cycles: 260962503 heartbeat IPC: 0.7513 cumulative IPC: 0.4561 (Simulation time: 00 hr 34 min 53 sec)
Heartbeat CPU 0 instructions: 163500835 cycles: 262232670 heartbeat IPC: 0.3936 cumulative IPC: 0.4557 (Simulation time: 00 hr 35 min 02 sec)
Heartbeat CPU 0 instructions: 164000835 cycles: 264350016 heartbeat IPC: 0.2361 cumulative IPC: 0.4539 (Simulation time: 00 hr 35 min 17 sec)
Heartbeat CPU 0 instructions: 164500835 cycles: 265846430 heartbeat IPC: 0.3341 cumulative IPC: 0.4532 (Simulation time: 00 hr 35 min 28 sec)
Heartbeat CPU 0 instructions: 165000835 cycles: 267969151 heartbeat IPC: 0.2355 cumulative IPC: 0.4514 (Simulation time: 00 hr 35 min 43 sec)
Heartbeat CPU 0 instructions: 165500838 cycles: 269996644 heartbeat IPC: 0.2466 cumulative IPC: 0.4497 (Simulation time: 00 hr 35 min 57 sec)
Heartbeat CPU 0 instructions: 166000839 cycles: 271369532 heartbeat IPC: 0.3642 cumulative IPC: 0.4493 (Simulation time: 00 hr 36 min 06 sec)
Heartbeat CPU 0 instructions: 166500840 cycles: 272065498 heartbeat IPC: 0.7184 cumulative IPC: 0.45 (Simulation time: 00 hr 36 min 12 sec)
Heartbeat CPU 0 instructions: 167000840 cycles: 273031671 heartbeat IPC: 0.5175 cumulative IPC: 0.4503 (Simulation time: 00 hr 36 min 19 sec)
Heartbeat CPU 0 instructions: 167500841 cycles: 274833542 heartbeat IPC: 0.2775 cumulative IPC: 0.4491 (Simulation time: 00 hr 36 min 32 sec)
Heartbeat CPU 0 instructions: 168000842 cycles: 275607614 heartbeat IPC: 0.6459 cumulative IPC: 0.4497 (Simulation time: 00 hr 36 min 38 sec)
Heartbeat CPU 0 instructions: 168500844 cycles: 277138175 heartbeat IPC: 0.3267 cumulative IPC: 0.4489 (Simulation time: 00 hr 36 min 48 sec)
Heartbeat CPU 0 instructions: 169000844 cycles: 278028358 heartbeat IPC: 0.5617 cumulative IPC: 0.4493 (Simulation time: 00 hr 36 min 55 sec)
Heartbeat CPU 0 instructions: 169500846 cycles: 279137518 heartbeat IPC: 0.4508 cumulative IPC: 0.4493 (Simulation time: 00 hr 37 min 03 sec)
Heartbeat CPU 0 instructions: 170000851 cycles: 280621898 heartbeat IPC: 0.3368 cumulative IPC: 0.4487 (Simulation time: 00 hr 37 min 13 sec)
Heartbeat CPU 0 instructions: 170500853 cycles: 282344442 heartbeat IPC: 0.2903 cumulative IPC: 0.4477 (Simulation time: 00 hr 37 min 25 sec)
Heartbeat CPU 0 instructions: 171000857 cycles: 283071036 heartbeat IPC: 0.6881 cumulative IPC: 0.4483 (Simulation time: 00 hr 37 min 31 sec)
Heartbeat CPU 0 instructions: 171500862 cycles: 284822162 heartbeat IPC: 0.2855 cumulative IPC: 0.4473 (Simulation time: 00 hr 37 min 43 sec)
Heartbeat CPU 0 instructions: 172000862 cycles: 286607560 heartbeat IPC: 0.28 cumulative IPC: 0.4462 (Simulation time: 00 hr 37 min 56 sec)
Heartbeat CPU 0 instructions: 172500865 cycles: 288993737 heartbeat IPC: 0.2095 cumulative IPC: 0.4442 (Simulation time: 00 hr 38 min 12 sec)
Heartbeat CPU 0 instructions: 173000866 cycles: 289696517 heartbeat IPC: 0.7115 cumulative IPC: 0.4448 (Simulation time: 00 hr 38 min 18 sec)
Heartbeat CPU 0 instructions: 173500869 cycles: 291506240 heartbeat IPC: 0.2763 cumulative IPC: 0.4437 (Simulation time: 00 hr 38 min 30 sec)
Heartbeat CPU 0 instructions: 174000869 cycles: 292504753 heartbeat IPC: 0.5007 cumulative IPC: 0.4439 (Simulation time: 00 hr 38 min 37 sec)
Heartbeat CPU 0 instructions: 174500876 cycles: 292851709 heartbeat IPC: 1.441 cumulative IPC: 0.4452 (Simulation time: 00 hr 38 min 41 sec)
Heartbeat CPU 0 instructions: 175000876 cycles: 293275109 heartbeat IPC: 1.181 cumulative IPC: 0.4463 (Simulation time: 00 hr 38 min 44 sec)
Heartbeat CPU 0 instructions: 175500880 cycles: 294341789 heartbeat IPC: 0.4687 cumulative IPC: 0.4464 (Simulation time: 00 hr 38 min 52 sec)
Heartbeat CPU 0 instructions: 176000881 cycles: 296235193 heartbeat IPC: 0.2641 cumulative IPC: 0.4452 (Simulation time: 00 hr 39 min 04 sec)
Heartbeat CPU 0 instructions: 176500882 cycles: 297402756 heartbeat IPC: 0.4282 cumulative IPC: 0.4451 (Simulation time: 00 hr 39 min 13 sec)
Heartbeat CPU 0 instructions: 177000884 cycles: 298896095 heartbeat IPC: 0.3348 cumulative IPC: 0.4445 (Simulation time: 00 hr 39 min 23 sec)
Heartbeat CPU 0 instructions: 177500890 cycles: 300137795 heartbeat IPC: 0.4027 cumulative IPC: 0.4443 (Simulation time: 00 hr 39 min 32 sec)
Heartbeat CPU 0 instructions: 178000893 cycles: 302117187 heartbeat IPC: 0.2526 cumulative IPC: 0.443 (Simulation time: 00 hr 39 min 45 sec)
Heartbeat CPU 0 instructions: 178500893 cycles: 303199909 heartbeat IPC: 0.4618 cumulative IPC: 0.4431 (Simulation time: 00 hr 39 min 53 sec)
Heartbeat CPU 0 instructions: 179000893 cycles: 305257339 heartbeat IPC: 0.243 cumulative IPC: 0.4417 (Simulation time: 00 hr 40 min 07 sec)
Heartbeat CPU 0 instructions: 179500896 cycles: 306452912 heartbeat IPC: 0.4182 cumulative IPC: 0.4416 (Simulation time: 00 hr 40 min 16 sec)
Heartbeat CPU 0 instructions: 180000901 cycles: 307671443 heartbeat IPC: 0.4103 cumulative IPC: 0.4414 (Simulation time: 00 hr 40 min 25 sec)
Heartbeat CPU 0 instructions: 180500901 cycles: 308567415 heartbeat IPC: 0.5581 cumulative IPC: 0.4418 (Simulation time: 00 hr 40 min 31 sec)
Heartbeat CPU 0 instructions: 181000902 cycles: 309490980 heartbeat IPC: 0.5414 cumulative IPC: 0.4421 (Simulation time: 00 hr 40 min 38 sec)
Heartbeat CPU 0 instructions: 181500906 cycles: 309959454 heartbeat IPC: 1.067 cumulative IPC: 0.4431 (Simulation time: 00 hr 40 min 42 sec)
Heartbeat CPU 0 instructions: 182000906 cycles: 312004372 heartbeat IPC: 0.2445 cumulative IPC: 0.4417 (Simulation time: 00 hr 40 min 56 sec)
Heartbeat CPU 0 instructions: 182500906 cycles: 314325738 heartbeat IPC: 0.2154 cumulative IPC: 0.44 (Simulation time: 00 hr 41 min 11 sec)
Heartbeat CPU 0 instructions: 183000910 cycles: 316409126 heartbeat IPC: 0.24 cumulative IPC: 0.4386 (Simulation time: 00 hr 41 min 25 sec)
Heartbeat CPU 0 instructions: 183500913 cycles: 317244666 heartbeat IPC: 0.5984 cumulative IPC: 0.4391 (Simulation time: 00 hr 41 min 31 sec)
Heartbeat CPU 0 instructions: 184000914 cycles: 318018236 heartbeat IPC: 0.6464 cumulative IPC: 0.4396 (Simulation time: 00 hr 41 min 36 sec)
Heartbeat CPU 0 instructions: 184500918 cycles: 318314352 heartbeat IPC: 1.689 cumulative IPC: 0.4408 (Simulation time: 00 hr 41 min 40 sec)
Heartbeat CPU 0 instructions: 185000919 cycles: 318855654 heartbeat IPC: 0.9237 cumulative IPC: 0.4417 (Simulation time: 00 hr 41 min 45 sec)
Heartbeat CPU 0 instructions: 185500919 cycles: 320417660 heartbeat IPC: 0.3201 cumulative IPC: 0.441 (Simulation time: 00 hr 41 min 55 sec)
Heartbeat CPU 0 instructions: 186000921 cycles: 322306190 heartbeat IPC: 0.2648 cumulative IPC: 0.44 (Simulation time: 00 hr 42 min 08 sec)
Heartbeat CPU 0 instructions: 186500921 cycles: 323490457 heartbeat IPC: 0.4222 cumulative IPC: 0.4399 (Simulation time: 00 hr 42 min 15 sec)
Heartbeat CPU 0 instructions: 187000921 cycles: 324990801 heartbeat IPC: 0.3333 cumulative IPC: 0.4394 (Simulation time: 00 hr 42 min 26 sec)
Heartbeat CPU 0 instructions: 187500921 cycles: 325884434 heartbeat IPC: 0.5595 cumulative IPC: 0.4397 (Simulation time: 00 hr 42 min 32 sec)
Heartbeat CPU 0 instructions: 188000927 cycles: 326741669 heartbeat IPC: 0.5833 cumulative IPC: 0.4401 (Simulation time: 00 hr 42 min 38 sec)
Heartbeat CPU 0 instructions: 188500932 cycles: 328001005 heartbeat IPC: 0.397 cumulative IPC: 0.4399 (Simulation time: 00 hr 42 min 47 sec)
Heartbeat CPU 0 instructions: 189000935 cycles: 329639125 heartbeat IPC: 0.3052 cumulative IPC: 0.4392 (Simulation time: 00 hr 42 min 58 sec)
Heartbeat CPU 0 instructions: 189500937 cycles: 330442712 heartbeat IPC: 0.6222 cumulative IPC: 0.4397 (Simulation time: 00 hr 43 min 04 sec)
Heartbeat CPU 0 instructions: 190000944 cycles: 331545277 heartbeat IPC: 0.4535 cumulative IPC: 0.4398 (Simulation time: 00 hr 43 min 11 sec)
Heartbeat CPU 0 instructions: 190500946 cycles: 332665869 heartbeat IPC: 0.4462 cumulative IPC: 0.4398 (Simulation time: 00 hr 43 min 19 sec)
Heartbeat CPU 0 instructions: 191000948 cycles: 333261001 heartbeat IPC: 0.8402 cumulative IPC: 0.4405 (Simulation time: 00 hr 43 min 24 sec)
Heartbeat CPU 0 instructions: 191500949 cycles: 333685158 heartbeat IPC: 1.179 cumulative IPC: 0.4415 (Simulation time: 00 hr 43 min 27 sec)
Heartbeat CPU 0 instructions: 192000955 cycles: 334286370 heartbeat IPC: 0.8317 cumulative IPC: 0.4422 (Simulation time: 00 hr 43 min 32 sec)
Heartbeat CPU 0 instructions: 192500959 cycles: 335777861 heartbeat IPC: 0.3352 cumulative IPC: 0.4417 (Simulation time: 00 hr 43 min 42 sec)
Heartbeat CPU 0 instructions: 193000959 cycles: 336833500 heartbeat IPC: 0.4736 cumulative IPC: 0.4418 (Simulation time: 00 hr 43 min 49 sec)
Heartbeat CPU 0 instructions: 193500959 cycles: 337692748 heartbeat IPC: 0.5819 cumulative IPC: 0.4422 (Simulation time: 00 hr 43 min 55 sec)
Heartbeat CPU 0 instructions: 194000960 cycles: 338069162 heartbeat IPC: 1.328 cumulative IPC: 0.4432 (Simulation time: 00 hr 43 min 58 sec)
Heartbeat CPU 0 instructions: 194500961 cycles: 338580269 heartbeat IPC: 0.9783 cumulative IPC: 0.4441 (Simulation time: 00 hr 44 min 03 sec)
Heartbeat CPU 0 instructions: 195000961 cycles: 339638549 heartbeat IPC: 0.4725 cumulative IPC: 0.4442 (Simulation time: 00 hr 44 min 10 sec)
Heartbeat CPU 0 instructions: 195500961 cycles: 341118427 heartbeat IPC: 0.3379 cumulative IPC: 0.4437 (Simulation time: 00 hr 44 min 20 sec)
Heartbeat CPU 0 instructions: 196000962 cycles: 341948943 heartbeat IPC: 0.602 cumulative IPC: 0.4441 (Simulation time: 00 hr 44 min 25 sec)
Heartbeat CPU 0 instructions: 196500962 cycles: 342633529 heartbeat IPC: 0.7304 cumulative IPC: 0.4447 (Simulation time: 00 hr 44 min 31 sec)
Heartbeat CPU 0 instructions: 197000963 cycles: 343828150 heartbeat IPC: 0.4185 cumulative IPC: 0.4446 (Simulation time: 00 hr 44 min 38 sec)
Heartbeat CPU 0 instructions: 197500964 cycles: 346238942 heartbeat IPC: 0.2074 cumulative IPC: 0.4429 (Simulation time: 00 hr 44 min 54 sec)
Heartbeat CPU 0 instructions: 198000964 cycles: 347413160 heartbeat IPC: 0.4258 cumulative IPC: 0.4428 (Simulation time: 00 hr 45 min 02 sec)
Heartbeat CPU 0 instructions: 198500964 cycles: 349304884 heartbeat IPC: 0.2643 cumulative IPC: 0.4418 (Simulation time: 00 hr 45 min 14 sec)
Heartbeat CPU 0 instructions: 199000966 cycles: 350577466 heartbeat IPC: 0.3929 cumulative IPC: 0.4416 (Simulation time: 00 hr 45 min 23 sec)
Heartbeat CPU 0 instructions: 199500969 cycles: 351669777 heartbeat IPC: 0.4577 cumulative IPC: 0.4417 (Simulation time: 00 hr 45 min 31 sec)
Heartbeat CPU 0 instructions: 200000970 cycles: 353038386 heartbeat IPC: 0.3653 cumulative IPC: 0.4414 (Simulation time: 00 hr 45 min 40 sec)
Heartbeat CPU 0 instructions: 200500970 cycles: 353956251 heartbeat IPC: 0.5447 cumulative IPC: 0.4416 (Simulation time: 00 hr 45 min 46 sec)
Heartbeat CPU 0 instructions: 201000970 cycles: 355405202 heartbeat IPC: 0.3451 cumulative IPC: 0.4412 (Simulation time: 00 hr 45 min 55 sec)
Heartbeat CPU 0 instructions: 201500973 cycles: 357244572 heartbeat IPC: 0.2718 cumulative IPC: 0.4403 (Simulation time: 00 hr 46 min 07 sec)
Heartbeat CPU 0 instructions: 202000974 cycles: 358464141 heartbeat IPC: 0.41 cumulative IPC: 0.4402 (Simulation time: 00 hr 46 min 15 sec)
Heartbeat CPU 0 instructions: 202500974 cycles: 358756408 heartbeat IPC: 1.711 cumulative IPC: 0.4413 (Simulation time: 00 hr 46 min 18 sec)
Heartbeat CPU 0 instructions: 203000975 cycles: 359417597 heartbeat IPC: 0.7562 cumulative IPC: 0.4419 (Simulation time: 00 hr 46 min 23 sec)
Heartbeat CPU 0 instructions: 203500982 cycles: 359784901 heartbeat IPC: 1.361 cumulative IPC: 0.4429 (Simulation time: 00 hr 46 min 26 sec)
Heartbeat CPU 0 instructions: 204000987 cycles: 360648471 heartbeat IPC: 0.579 cumulative IPC: 0.4432 (Simulation time: 00 hr 46 min 32 sec)
Heartbeat CPU 0 instructions: 204500992 cycles: 361971156 heartbeat IPC: 0.378 cumulative IPC: 0.443 (Simulation time: 00 hr 46 min 40 sec)
Heartbeat CPU 0 instructions: 205000995 cycles: 363093283 heartbeat IPC: 0.4456 cumulative IPC: 0.443 (Simulation time: 00 hr 46 min 48 sec)
Heartbeat CPU 0 instructions: 205500996 cycles: 365153684 heartbeat IPC: 0.2427 cumulative IPC: 0.4418 (Simulation time: 00 hr 47 min 01 sec)
Heartbeat CPU 0 instructions: 206000997 cycles: 366210071 heartbeat IPC: 0.4733 cumulative IPC: 0.4419 (Simulation time: 00 hr 47 min 08 sec)
Heartbeat CPU 0 instructions: 206501000 cycles: 367375345 heartbeat IPC: 0.4291 cumulative IPC: 0.4419 (Simulation time: 00 hr 47 min 16 sec)
Heartbeat CPU 0 instructions: 207001007 cycles: 369083516 heartbeat IPC: 0.2927 cumulative IPC: 0.4411 (Simulation time: 00 hr 47 min 26 sec)
Heartbeat CPU 0 instructions: 207501008 cycles: 370066820 heartbeat IPC: 0.5085 cumulative IPC: 0.4413 (Simulation time: 00 hr 47 min 33 sec)
Heartbeat CPU 0 instructions: 208001009 cycles: 370546323 heartbeat IPC: 1.043 cumulative IPC: 0.4421 (Simulation time: 00 hr 47 min 37 sec)
Heartbeat CPU 0 instructions: 208501011 cycles: 371101047 heartbeat IPC: 0.9014 cumulative IPC: 0.4428 (Simulation time: 00 hr 47 min 41 sec)
Heartbeat CPU 0 instructions: 209001014 cycles: 371728530 heartbeat IPC: 0.7968 cumulative IPC: 0.4435 (Simulation time: 00 hr 47 min 45 sec)
Heartbeat CPU 0 instructions: 209501016 cycles: 372383016 heartbeat IPC: 0.764 cumulative IPC: 0.444 (Simulation time: 00 hr 47 min 50 sec)
Heartbeat CPU 0 instructions: 210001023 cycles: 373321138 heartbeat IPC: 0.533 cumulative IPC: 0.4443 (Simulation time: 00 hr 47 min 57 sec)
Heartbeat CPU 0 instructions: 210501025 cycles: 374057609 heartbeat IPC: 0.6789 cumulative IPC: 0.4448 (Simulation time: 00 hr 48 min 03 sec)
Heartbeat CPU 0 instructions: 211001027 cycles: 374812642 heartbeat IPC: 0.6622 cumulative IPC: 0.4452 (Simulation time: 00 hr 48 min 08 sec)
Heartbeat CPU 0 instructions: 211501029 cycles: 375396248 heartbeat IPC: 0.8567 cumulative IPC: 0.4459 (Simulation time: 00 hr 48 min 12 sec)
Heartbeat CPU 0 instructions: 212001033 cycles: 375990736 heartbeat IPC: 0.8411 cumulative IPC: 0.4465 (Simulation time: 00 hr 48 min 17 sec)
Heartbeat CPU 0 instructions: 212501033 cycles: 376498558 heartbeat IPC: 0.9846 cumulative IPC: 0.4473 (Simulation time: 00 hr 48 min 21 sec)
Heartbeat CPU 0 instructions: 213001037 cycles: 378326971 heartbeat IPC: 0.2735 cumulative IPC: 0.4464 (Simulation time: 00 hr 48 min 32 sec)
Heartbeat CPU 0 instructions: 213501041 cycles: 379294957 heartbeat IPC: 0.5165 cumulative IPC: 0.4466 (Simulation time: 00 hr 48 min 39 sec)
Heartbeat CPU 0 instructions: 214001043 cycles: 380410041 heartbeat IPC: 0.4484 cumulative IPC: 0.4466 (Simulation time: 00 hr 48 min 46 sec)
Heartbeat CPU 0 instructions: 214501045 cycles: 382234564 heartbeat IPC: 0.274 cumulative IPC: 0.4457 (Simulation time: 00 hr 48 min 58 sec)
Heartbeat CPU 0 instructions: 215001052 cycles: 383449177 heartbeat IPC: 0.4117 cumulative IPC: 0.4456 (Simulation time: 00 hr 49 min 06 sec)
Heartbeat CPU 0 instructions: 215501052 cycles: 384721867 heartbeat IPC: 0.3929 cumulative IPC: 0.4455 (Simulation time: 00 hr 49 min 14 sec)
Heartbeat CPU 0 instructions: 216001053 cycles: 386959686 heartbeat IPC: 0.2234 cumulative IPC: 0.4441 (Simulation time: 00 hr 49 min 28 sec)
Heartbeat CPU 0 instructions: 216501055 cycles: 388460440 heartbeat IPC: 0.3332 cumulative IPC: 0.4437 (Simulation time: 00 hr 49 min 38 sec)
Heartbeat CPU 0 instructions: 217001055 cycles: 389531765 heartbeat IPC: 0.4667 cumulative IPC: 0.4437 (Simulation time: 00 hr 49 min 45 sec)
Heartbeat CPU 0 instructions: 217501059 cycles: 390801843 heartbeat IPC: 0.3937 cumulative IPC: 0.4436 (Simulation time: 00 hr 49 min 53 sec)
Heartbeat CPU 0 instructions: 218001059 cycles: 392168654 heartbeat IPC: 0.3658 cumulative IPC: 0.4433 (Simulation time: 00 hr 50 min 02 sec)
Heartbeat CPU 0 instructions: 218501060 cycles: 392890278 heartbeat IPC: 0.6929 cumulative IPC: 0.4438 (Simulation time: 00 hr 50 min 07 sec)
Heartbeat CPU 0 instructions: 219001061 cycles: 394019126 heartbeat IPC: 0.4429 cumulative IPC: 0.4438 (Simulation time: 00 hr 50 min 14 sec)
Heartbeat CPU 0 instructions: 219501067 cycles: 394914258 heartbeat IPC: 0.5586 cumulative IPC: 0.444 (Simulation time: 00 hr 50 min 20 sec)
Heartbeat CPU 0 instructions: 220001073 cycles: 396022747 heartbeat IPC: 0.4511 cumulative IPC: 0.4441 (Simulation time: 00 hr 50 min 27 sec)
Heartbeat CPU 0 instructions: 220501076 cycles: 396893735 heartbeat IPC: 0.5741 cumulative IPC: 0.4444 (Simulation time: 00 hr 50 min 33 sec)
Heartbeat CPU 0 instructions: 221001079 cycles: 397594133 heartbeat IPC: 0.7139 cumulative IPC: 0.4448 (Simulation time: 00 hr 50 min 38 sec)
Heartbeat CPU 0 instructions: 221501084 cycles: 398254794 heartbeat IPC: 0.7568 cumulative IPC: 0.4454 (Simulation time: 00 hr 50 min 43 sec)
Heartbeat CPU 0 instructions: 222001086 cycles: 399044102 heartbeat IPC: 0.6335 cumulative IPC: 0.4458 (Simulation time: 00 hr 50 min 48 sec)
Heartbeat CPU 0 instructions: 222501090 cycles: 401081505 heartbeat IPC: 0.2454 cumulative IPC: 0.4447 (Simulation time: 00 hr 51 min 01 sec)
Heartbeat CPU 0 instructions: 223001094 cycles: 403247385 heartbeat IPC: 0.2309 cumulative IPC: 0.4435 (Simulation time: 00 hr 51 min 15 sec)
Heartbeat CPU 0 instructions: 223501095 cycles: 403921461 heartbeat IPC: 0.7418 cumulative IPC: 0.444 (Simulation time: 00 hr 51 min 20 sec)
Heartbeat CPU 0 instructions: 224001097 cycles: 404561111 heartbeat IPC: 0.7817 cumulative IPC: 0.4446 (Simulation time: 00 hr 51 min 25 sec)
Heartbeat CPU 0 instructions: 224501098 cycles: 405925562 heartbeat IPC: 0.3664 cumulative IPC: 0.4443 (Simulation time: 00 hr 51 min 34 sec)
Heartbeat CPU 0 instructions: 225001101 cycles: 407582184 heartbeat IPC: 0.3018 cumulative IPC: 0.4437 (Simulation time: 00 hr 51 min 45 sec)
Heartbeat CPU 0 instructions: 225501108 cycles: 408710133 heartbeat IPC: 0.4433 cumulative IPC: 0.4437 (Simulation time: 00 hr 51 min 52 sec)
Heartbeat CPU 0 instructions: 226001110 cycles: 409684273 heartbeat IPC: 0.5133 cumulative IPC: 0.4439 (Simulation time: 00 hr 51 min 59 sec)
Heartbeat CPU 0 instructions: 226501116 cycles: 411254071 heartbeat IPC: 0.3185 cumulative IPC: 0.4434 (Simulation time: 00 hr 52 min 09 sec)
Heartbeat CPU 0 instructions: 227001116 cycles: 412378532 heartbeat IPC: 0.4447 cumulative IPC: 0.4434 (Simulation time: 00 hr 52 min 16 sec)
Heartbeat CPU 0 instructions: 227501121 cycles: 413281066 heartbeat IPC: 0.554 cumulative IPC: 0.4436 (Simulation time: 00 hr 52 min 22 sec)
Heartbeat CPU 0 instructions: 228001121 cycles: 413985699 heartbeat IPC: 0.7096 cumulative IPC: 0.4441 (Simulation time: 00 hr 52 min 27 sec)
Heartbeat CPU 0 instructions: 228501127 cycles: 415965182 heartbeat IPC: 0.2526 cumulative IPC: 0.4432 (Simulation time: 00 hr 52 min 40 sec)
Heartbeat CPU 0 instructions: 229001131 cycles: 417438962 heartbeat IPC: 0.3393 cumulative IPC: 0.4428 (Simulation time: 00 hr 52 min 49 sec)
Heartbeat CPU 0 instructions: 229501137 cycles: 418280266 heartbeat IPC: 0.5943 cumulative IPC: 0.4431 (Simulation time: 00 hr 52 min 55 sec)
Heartbeat CPU 0 instructions: 230001139 cycles: 419334218 heartbeat IPC: 0.4744 cumulative IPC: 0.4432 (Simulation time: 00 hr 53 min 02 sec)
Heartbeat CPU 0 instructions: 230501141 cycles: 421089038 heartbeat IPC: 0.2849 cumulative IPC: 0.4425 (Simulation time: 00 hr 53 min 13 sec)
Heartbeat CPU 0 instructions: 231001141 cycles: 422008610 heartbeat IPC: 0.5437 cumulative IPC: 0.4427 (Simulation time: 00 hr 53 min 19 sec)
Heartbeat CPU 0 instructions: 231501142 cycles: 422829187 heartbeat IPC: 0.6093 cumulative IPC: 0.4431 (Simulation time: 00 hr 53 min 24 sec)
Heartbeat CPU 0 instructions: 232001143 cycles: 423684885 heartbeat IPC: 0.5843 cumulative IPC: 0.4434 (Simulation time: 00 hr 53 min 30 sec)
Heartbeat CPU 0 instructions: 232501147 cycles: 424265404 heartbeat IPC: 0.8613 cumulative IPC: 0.444 (Simulation time: 00 hr 53 min 34 sec)
Heartbeat CPU 0 instructions: 233001149 cycles: 424820477 heartbeat IPC: 0.9008 cumulative IPC: 0.4446 (Simulation time: 00 hr 53 min 38 sec)
Heartbeat CPU 0 instructions: 233501150 cycles: 426270703 heartbeat IPC: 0.3448 cumulative IPC: 0.4442 (Simulation time: 00 hr 53 min 47 sec)
Heartbeat CPU 0 instructions: 234001150 cycles: 428822614 heartbeat IPC: 0.1959 cumulative IPC: 0.4427 (Simulation time: 00 hr 54 min 03 sec)
Heartbeat CPU 0 instructions: 234501151 cycles: 430047848 heartbeat IPC: 0.4081 cumulative IPC: 0.4426 (Simulation time: 00 hr 54 min 11 sec)
Heartbeat CPU 0 instructions: 235001153 cycles: 431577226 heartbeat IPC: 0.3269 cumulative IPC: 0.4422 (Simulation time: 00 hr 54 min 20 sec)
Heartbeat CPU 0 instructions: 235501154 cycles: 432609639 heartbeat IPC: 0.4843 cumulative IPC: 0.4423 (Simulation time: 00 hr 54 min 27 sec)
Heartbeat CPU 0 instructions: 236001156 cycles: 432982282 heartbeat IPC: 1.342 cumulative IPC: 0.4431 (Simulation time: 00 hr 54 min 30 sec)
Heartbeat CPU 0 instructions: 236501157 cycles: 433882173 heartbeat IPC: 0.5556 cumulative IPC: 0.4433 (Simulation time: 00 hr 54 min 36 sec)
Heartbeat CPU 0 instructions: 237001160 cycles: 436126346 heartbeat IPC: 0.2228 cumulative IPC: 0.4421 (Simulation time: 00 hr 54 min 49 sec)
Heartbeat CPU 0 instructions: 237501163 cycles: 437179101 heartbeat IPC: 0.4749 cumulative IPC: 0.4422 (Simulation time: 00 hr 54 min 56 sec)
Heartbeat CPU 0 instructions: 238001163 cycles: 438538711 heartbeat IPC: 0.3678 cumulative IPC: 0.442 (Simulation time: 00 hr 55 min 04 sec)
Heartbeat CPU 0 instructions: 238501165 cycles: 439408564 heartbeat IPC: 0.5748 cumulative IPC: 0.4423 (Simulation time: 00 hr 55 min 10 sec)
Heartbeat CPU 0 instructions: 239001170 cycles: 440073661 heartbeat IPC: 0.7518 cumulative IPC: 0.4427 (Simulation time: 00 hr 55 min 14 sec)
Heartbeat CPU 0 instructions: 239501175 cycles: 440567898 heartbeat IPC: 1.012 cumulative IPC: 0.4434 (Simulation time: 00 hr 55 min 18 sec)
Heartbeat CPU 0 instructions: 240001181 cycles: 441955644 heartbeat IPC: 0.3603 cumulative IPC: 0.4431 (Simulation time: 00 hr 55 min 26 sec)
Heartbeat CPU 0 instructions: 240501188 cycles: 443018224 heartbeat IPC: 0.4706 cumulative IPC: 0.4432 (Simulation time: 00 hr 55 min 33 sec)
Heartbeat CPU 0 instructions: 241001189 cycles: 443879899 heartbeat IPC: 0.5803 cumulative IPC: 0.4435 (Simulation time: 00 hr 55 min 38 sec)
Heartbeat CPU 0 instructions: 241501191 cycles: 444530470 heartbeat IPC: 0.7686 cumulative IPC: 0.444 (Simulation time: 00 hr 55 min 43 sec)
Heartbeat CPU 0 instructions: 242001193 cycles: 445400193 heartbeat IPC: 0.5749 cumulative IPC: 0.4442 (Simulation time: 00 hr 55 min 48 sec)
Heartbeat CPU 0 instructions: 242501196 cycles: 446730196 heartbeat IPC: 0.3759 cumulative IPC: 0.444 (Simulation time: 00 hr 55 min 57 sec)
Heartbeat CPU 0 instructions: 243001196 cycles: 447559688 heartbeat IPC: 0.6028 cumulative IPC: 0.4443 (Simulation time: 00 hr 56 min 02 sec)
Heartbeat CPU 0 instructions: 243501197 cycles: 448262057 heartbeat IPC: 0.7119 cumulative IPC: 0.4448 (Simulation time: 00 hr 56 min 07 sec)
Heartbeat CPU 0 instructions: 244001198 cycles: 449641694 heartbeat IPC: 0.3624 cumulative IPC: 0.4445 (Simulation time: 00 hr 56 min 15 sec)
Heartbeat CPU 0 instructions: 244501198 cycles: 450637814 heartbeat IPC: 0.5019 cumulative IPC: 0.4446 (Simulation time: 00 hr 56 min 22 sec)
Heartbeat CPU 0 instructions: 245001198 cycles: 451403452 heartbeat IPC: 0.6531 cumulative IPC: 0.445 (Simulation time: 00 hr 56 min 27 sec)
Heartbeat CPU 0 instructions: 245501204 cycles: 451893530 heartbeat IPC: 1.02 cumulative IPC: 0.4456 (Simulation time: 00 hr 56 min 30 sec)
Heartbeat CPU 0 instructions: 246001205 cycles: 452501881 heartbeat IPC: 0.8219 cumulative IPC: 0.4462 (Simulation time: 00 hr 56 min 35 sec)
Heartbeat CPU 0 instructions: 246501208 cycles: 454192525 heartbeat IPC: 0.2957 cumulative IPC: 0.4456 (Simulation time: 00 hr 56 min 44 sec)
Heartbeat CPU 0 instructions: 247001211 cycles: 455396752 heartbeat IPC: 0.4152 cumulative IPC: 0.4455 (Simulation time: 00 hr 56 min 52 sec)
Heartbeat CPU 0 instructions: 247501212 cycles: 456147402 heartbeat IPC: 0.6661 cumulative IPC: 0.4459 (Simulation time: 00 hr 56 min 56 sec)
Heartbeat CPU 0 instructions: 248001214 cycles: 456501578 heartbeat IPC: 1.412 cumulative IPC: 0.4466 (Simulation time: 00 hr 56 min 59 sec)
Heartbeat CPU 0 instructions: 248501216 cycles: 456938363 heartbeat IPC: 1.145 cumulative IPC: 0.4473 (Simulation time: 00 hr 57 min 02 sec)
Heartbeat CPU 0 instructions: 249001217 cycles: 457578837 heartbeat IPC: 0.7807 cumulative IPC: 0.4478 (Simulation time: 00 hr 57 min 07 sec)
Heartbeat CPU 0 instructions: 249501222 cycles: 458097974 heartbeat IPC: 0.9631 cumulative IPC: 0.4484 (Simulation time: 00 hr 57 min 10 sec)
Simulation finished CPU 0 instructions: 200000001 cycles: 445956001 cumulative IPC: 0.4485 (Simulation time: 00 hr 57 min 17 sec)
Simulation complete CPU 0 instructions: 200000001 cycles: 445956001 cumulative IPC: 0.4485 (Simulation time: 00 hr 57 min 17 sec)

ChampSim completed all CPUs

=== Simulation ===
CPU 0 runs /local-ssd/ben/dpc4-traces/gtraces_v2/yankee_0000.champsim.gz

Region of Interest Statistics

CPU 0 cumulative IPC: 0.4485 instructions: 200000001 cycles: 445956001
CPU 0 Branch Prediction Accuracy: 88.52% MPKI: 21.11 Average ROB Occupancy at Mispredict: 23.19
Branch type MPKI
BRANCH_DIRECT_JUMP: 0.8628
BRANCH_INDIRECT: 0.5346
BRANCH_CONDITIONAL: 16.78
BRANCH_DIRECT_CALL: 1.572
BRANCH_INDIRECT_CALL: 0.48
BRANCH_RETURN: 0.8826

cpu0->cpu0_STLB TOTAL        ACCESS:    1640669 HIT:    1127865 MISS:     512804 MSHR_MERGE:          0
cpu0->cpu0_STLB LOAD         ACCESS:    1640669 HIT:    1127865 MISS:     512804 MSHR_MERGE:          0
cpu0->cpu0_STLB RFO          ACCESS:          0 HIT:          0 MISS:          0 MSHR_MERGE:          0
cpu0->cpu0_STLB PREFETCH     ACCESS:          0 HIT:          0 MISS:          0 MSHR_MERGE:          0
cpu0->cpu0_STLB WRITE        ACCESS:          0 HIT:          0 MISS:          0 MSHR_MERGE:          0
cpu0->cpu0_STLB TRANSLATION  ACCESS:          0 HIT:          0 MISS:          0 MSHR_MERGE:          0
cpu0->cpu0_STLB PREFETCH REQUESTED:          0 ISSUED:          0 USEFUL:          0 USELESS:          0
cpu0->cpu0_STLB AVERAGE MISS LATENCY: 165.9 cycles
cpu0->cpu0_L2C TOTAL        ACCESS:   10329745 HIT:    6290492 MISS:    4039253 MSHR_MERGE:     259039
cpu0->cpu0_L2C LOAD         ACCESS:    4413459 HIT:    2382426 MISS:    2031033 MSHR_MERGE:      44517
cpu0->cpu0_L2C RFO          ACCESS:     828247 HIT:     227268 MISS:     600979 MSHR_MERGE:      12883
cpu0->cpu0_L2C PREFETCH     ACCESS:    3290378 HIT:    2148504 MISS:    1141874 MSHR_MERGE:     201639
cpu0->cpu0_L2C WRITE        ACCESS:    1212100 HIT:    1212092 MISS:          8 MSHR_MERGE:          0
cpu0->cpu0_L2C TRANSLATION  ACCESS:     585561 HIT:     320202 MISS:     265359 MSHR_MERGE:          0
cpu0->cpu0_L2C PREFETCH REQUESTED:    3326733 ISSUED:    3290364 USEFUL:     362308 USELESS:     578191
cpu0->cpu0_L2C AVERAGE MISS LATENCY: 204.2 cycles
cpu0->cpu0_L1I TOTAL        ACCESS:   13404037 HIT:   10460768 MISS:    2943269 MSHR_MERGE:     668712
cpu0->cpu0_L1I LOAD         ACCESS:   13404037 HIT:   10460768 MISS:    2943269 MSHR_MERGE:     668712
cpu0->cpu0_L1I RFO          ACCESS:          0 HIT:          0 MISS:          0 MSHR_MERGE:          0
cpu0->cpu0_L1I PREFETCH     ACCESS:          0 HIT:          0 MISS:          0 MSHR_MERGE:          0
cpu0->cpu0_L1I WRITE        ACCESS:          0 HIT:          0 MISS:          0 MSHR_MERGE:          0
cpu0->cpu0_L1I TRANSLATION  ACCESS:          0 HIT:          0 MISS:          0 MSHR_MERGE:          0
cpu0->cpu0_L1I PREFETCH REQUESTED:          0 ISSUED:          0 USEFUL:          0 USELESS:          0
cpu0->cpu0_L1I AVERAGE MISS LATENCY: 124.3 cycles
cpu0->cpu0_L1D TOTAL        ACCESS:   58990288 HIT:   52255698 MISS:    6734590 MSHR_MERGE:    3181862
cpu0->cpu0_L1D LOAD         ACCESS:   34514301 HIT:   31634124 MISS:    2880177 MSHR_MERGE:     741267
cpu0->cpu0_L1D RFO          ACCESS:          0 HIT:          0 MISS:          0 MSHR_MERGE:          0
cpu0->cpu0_L1D PREFETCH     ACCESS:          0 HIT:          0 MISS:          0 MSHR_MERGE:          0
cpu0->cpu0_L1D WRITE        ACCESS:   23136904 HIT:   19871468 MISS:    3265436 MSHR_MERGE:    2437178
cpu0->cpu0_L1D TRANSLATION  ACCESS:    1339083 HIT:     750106 MISS:     588977 MSHR_MERGE:       3417
cpu0->cpu0_L1D PREFETCH REQUESTED:          0 ISSUED:          0 USEFUL:          0 USELESS:          0
cpu0->cpu0_L1D AVERAGE MISS LATENCY: 100.5 cycles
cpu0->cpu0_ITLB TOTAL        ACCESS:   10811526 HIT:   10556041 MISS:     255485 MSHR_MERGE:     125360
cpu0->cpu0_ITLB LOAD         ACCESS:   10811526 HIT:   10556041 MISS:     255485 MSHR_MERGE:     125360
cpu0->cpu0_ITLB RFO          ACCESS:          0 HIT:          0 MISS:          0 MSHR_MERGE:          0
cpu0->cpu0_ITLB PREFETCH     ACCESS:          0 HIT:          0 MISS:          0 MSHR_MERGE:          0
cpu0->cpu0_ITLB WRITE        ACCESS:          0 HIT:          0 MISS:          0 MSHR_MERGE:          0
cpu0->cpu0_ITLB TRANSLATION  ACCESS:          0 HIT:          0 MISS:          0 MSHR_MERGE:          0
cpu0->cpu0_ITLB PREFETCH REQUESTED:          0 ISSUED:          0 USEFUL:          0 USELESS:          0
cpu0->cpu0_ITLB AVERAGE MISS LATENCY: 37.62 cycles
cpu0->cpu0_DTLB TOTAL        ACCESS:   55395359 HIT:   52739746 MISS:    2655613 MSHR_MERGE:    1145070
cpu0->cpu0_DTLB LOAD         ACCESS:   55395359 HIT:   52739746 MISS:    2655613 MSHR_MERGE:    1145070
cpu0->cpu0_DTLB RFO          ACCESS:          0 HIT:          0 MISS:          0 MSHR_MERGE:          0
cpu0->cpu0_DTLB PREFETCH     ACCESS:          0 HIT:          0 MISS:          0 MSHR_MERGE:          0
cpu0->cpu0_DTLB WRITE        ACCESS:          0 HIT:          0 MISS:          0 MSHR_MERGE:          0
cpu0->cpu0_DTLB TRANSLATION  ACCESS:          0 HIT:          0 MISS:          0 MSHR_MERGE:          0
cpu0->cpu0_DTLB PREFETCH REQUESTED:          0 ISSUED:          0 USEFUL:          0 USELESS:          0
cpu0->cpu0_DTLB AVERAGE MISS LATENCY: 58.85 cycles
cpu0->LLC TOTAL        ACCESS:    5325306 HIT:    1259157 MISS:    4066149 MSHR_MERGE:      69403
cpu0->LLC LOAD         ACCESS:    1986517 HIT:     417417 MISS:    1569100 MSHR_MERGE:       1340
cpu0->LLC RFO          ACCESS:     588096 HIT:      19023 MISS:     569073 MSHR_MERGE:        381
cpu0->LLC PREFETCH     ACCESS:    1617155 HIT:     364134 MISS:    1253021 MSHR_MERGE:      67682
cpu0->LLC WRITE        ACCESS:     868179 HIT:     424207 MISS:     443972 MSHR_MERGE:          0
cpu0->LLC TRANSLATION  ACCESS:     265359 HIT:      34376 MISS:     230983 MSHR_MERGE:          0
cpu0->LLC PREFETCH REQUESTED:     705861 ISSUED:     676916 USEFUL:      76311 USELESS:     388624
cpu0->LLC AVERAGE MISS LATENCY: 186.7 cycles

DRAM Statistics

Channel 0 RQ ROW_BUFFER_HIT:      94927
  ROW_BUFFER_MISS:    3457776
  AVG DBUS CONGESTED CYCLE: 25.46
Channel 0 WQ ROW_BUFFER_HIT:     225373
  ROW_BUFFER_MISS:     601751
  FULL:          0
Channel 0 REFRESHES ISSUED:      37161
BERTI Stats...
