[VMEM] WARNING: physical memory size is smaller than virtual memory size.
Berti Gaze Initialized with Sets: 64 Ways: 12

*** ChampSim Multicore Out-of-Order Simulator ***
Warmup Instructions: 50000000
Simulation Instructions: 200000000
Number of CPUs: 1
Page size: 4096
Core 0: /local-ssd/ben/dpc4-traces/gtraces_v2/charlie_0004.champsim.gz
Off-chip DRAM Size: 64 GiB Channels: 1 Width: 64-bit Data Rate: 4807 MT/s
[BTB] WARNING: target of return is a lower address than the corresponding call. This is usually a problem with your trace.
[BTB] WARNING: target of return is a lower address than the corresponding call. This is usually a problem with your trace.
[BTB] WARNING: target of return is a lower address than the corresponding call. This is usually a problem with your trace.
[BTB] WARNING: target of return is a lower address than the corresponding call. This is usually a problem with your trace.
[BTB] WARNING: target of return is a lower address than the corresponding call. This is usually a problem with your trace.
[BTB] WARNING: target of return is a lower address than the corresponding call. This is usually a problem with your trace.
[BTB] WARNING: target of return is a lower address than the corresponding call. This is usually a problem with your trace.
[BTB] WARNING: target of return is a lower address than the corresponding call. This is usually a problem with your trace.
[BTB] WARNING: target of return is a lower address than the corresponding call. This is usually a problem with your trace.
[BTB] WARNING: target of return is a lower address than the corresponding call. This is usually a problem with your trace.
Heartbeat CPU 0 instructions: 500006 cycles: 217423 heartbeat IPC: 2.3 cumulative IPC: 2.3 (Simulation time: 00 hr 00 min 04 sec)
Heartbeat CPU 0 instructions: 1000011 cycles: 329129 heartbeat IPC: 4.476 cumulative IPC: 3.038 (Simulation time: 00 hr 00 min 06 sec)
Heartbeat CPU 0 instructions: 1500015 cycles: 501441 heartbeat IPC: 2.902 cumulative IPC: 2.991 (Simulation time: 00 hr 00 min 08 sec)
Heartbeat CPU 0 instructions: 2000021 cycles: 620765 heartbeat IPC: 4.19 cumulative IPC: 3.222 (Simulation time: 00 hr 00 min 10 sec)
Heartbeat CPU 0 instructions: 2500024 cycles: 727605 heartbeat IPC: 4.68 cumulative IPC: 3.436 (Simulation time: 00 hr 00 min 12 sec)
Heartbeat CPU 0 instructions: 3000031 cycles: 837604 heartbeat IPC: 4.546 cumulative IPC: 3.582 (Simulation time: 00 hr 00 min 14 sec)
Heartbeat CPU 0 instructions: 3500033 cycles: 944601 heartbeat IPC: 4.673 cumulative IPC: 3.705 (Simulation time: 00 hr 00 min 16 sec)
Heartbeat CPU 0 instructions: 4000040 cycles: 1054277 heartbeat IPC: 4.559 cumulative IPC: 3.794 (Simulation time: 00 hr 00 min 18 sec)
Heartbeat CPU 0 instructions: 4500041 cycles: 1158891 heartbeat IPC: 4.779 cumulative IPC: 3.883 (Simulation time: 00 hr 00 min 20 sec)
Heartbeat CPU 0 instructions: 5000047 cycles: 1264279 heartbeat IPC: 4.744 cumulative IPC: 3.955 (Simulation time: 00 hr 00 min 21 sec)
Heartbeat CPU 0 instructions: 5500048 cycles: 1370551 heartbeat IPC: 4.705 cumulative IPC: 4.013 (Simulation time: 00 hr 00 min 23 sec)
Heartbeat CPU 0 instructions: 6000053 cycles: 1476554 heartbeat IPC: 4.717 cumulative IPC: 4.064 (Simulation time: 00 hr 00 min 25 sec)
Heartbeat CPU 0 instructions: 6500059 cycles: 1580037 heartbeat IPC: 4.832 cumulative IPC: 4.114 (Simulation time: 00 hr 00 min 27 sec)
Heartbeat CPU 0 instructions: 7000066 cycles: 1686399 heartbeat IPC: 4.701 cumulative IPC: 4.151 (Simulation time: 00 hr 00 min 29 sec)
Heartbeat CPU 0 instructions: 7500071 cycles: 1840897 heartbeat IPC: 3.236 cumulative IPC: 4.074 (Simulation time: 00 hr 00 min 31 sec)
Heartbeat CPU 0 instructions: 8000071 cycles: 1958851 heartbeat IPC: 4.239 cumulative IPC: 4.084 (Simulation time: 00 hr 00 min 33 sec)
Heartbeat CPU 0 instructions: 8500073 cycles: 2069701 heartbeat IPC: 4.511 cumulative IPC: 4.107 (Simulation time: 00 hr 00 min 35 sec)
Heartbeat CPU 0 instructions: 9000077 cycles: 2184032 heartbeat IPC: 4.373 cumulative IPC: 4.121 (Simulation time: 00 hr 00 min 37 sec)
Heartbeat CPU 0 instructions: 9500078 cycles: 2375352 heartbeat IPC: 2.613 cumulative IPC: 3.999 (Simulation time: 00 hr 00 min 41 sec)
Heartbeat CPU 0 instructions: 10000085 cycles: 2490110 heartbeat IPC: 4.357 cumulative IPC: 4.016 (Simulation time: 00 hr 00 min 43 sec)
Heartbeat CPU 0 instructions: 10500088 cycles: 2603726 heartbeat IPC: 4.401 cumulative IPC: 4.033 (Simulation time: 00 hr 00 min 45 sec)
Heartbeat CPU 0 instructions: 11000090 cycles: 2720754 heartbeat IPC: 4.272 cumulative IPC: 4.043 (Simulation time: 00 hr 00 min 47 sec)
Heartbeat CPU 0 instructions: 11500090 cycles: 2830683 heartbeat IPC: 4.548 cumulative IPC: 4.063 (Simulation time: 00 hr 00 min 48 sec)
Heartbeat CPU 0 instructions: 12000094 cycles: 2950642 heartbeat IPC: 4.168 cumulative IPC: 4.067 (Simulation time: 00 hr 00 min 51 sec)
Heartbeat CPU 0 instructions: 12500100 cycles: 3062939 heartbeat IPC: 4.453 cumulative IPC: 4.081 (Simulation time: 00 hr 00 min 53 sec)
Heartbeat CPU 0 instructions: 13000107 cycles: 3176379 heartbeat IPC: 4.408 cumulative IPC: 4.093 (Simulation time: 00 hr 00 min 54 sec)
Heartbeat CPU 0 instructions: 13500109 cycles: 3287809 heartbeat IPC: 4.487 cumulative IPC: 4.106 (Simulation time: 00 hr 00 min 56 sec)
Heartbeat CPU 0 instructions: 14000116 cycles: 3398091 heartbeat IPC: 4.534 cumulative IPC: 4.12 (Simulation time: 00 hr 00 min 58 sec)
Heartbeat CPU 0 instructions: 14500116 cycles: 3505634 heartbeat IPC: 4.649 cumulative IPC: 4.136 (Simulation time: 00 hr 01 min 00 sec)
Heartbeat CPU 0 instructions: 15000116 cycles: 3625069 heartbeat IPC: 4.186 cumulative IPC: 4.138 (Simulation time: 00 hr 01 min 02 sec)
Heartbeat CPU 0 instructions: 15500119 cycles: 3734787 heartbeat IPC: 4.557 cumulative IPC: 4.15 (Simulation time: 00 hr 01 min 04 sec)
Heartbeat CPU 0 instructions: 16000124 cycles: 3845660 heartbeat IPC: 4.51 cumulative IPC: 4.161 (Simulation time: 00 hr 01 min 06 sec)
Heartbeat CPU 0 instructions: 16500128 cycles: 3956289 heartbeat IPC: 4.52 cumulative IPC: 4.171 (Simulation time: 00 hr 01 min 08 sec)
Heartbeat CPU 0 instructions: 17000131 cycles: 4096029 heartbeat IPC: 3.578 cumulative IPC: 4.15 (Simulation time: 00 hr 01 min 11 sec)
Heartbeat CPU 0 instructions: 17500132 cycles: 4290387 heartbeat IPC: 2.573 cumulative IPC: 4.079 (Simulation time: 00 hr 01 min 14 sec)
Heartbeat CPU 0 instructions: 18000138 cycles: 4502863 heartbeat IPC: 2.353 cumulative IPC: 3.997 (Simulation time: 00 hr 01 min 17 sec)
Heartbeat CPU 0 instructions: 18500142 cycles: 4610545 heartbeat IPC: 4.643 cumulative IPC: 4.013 (Simulation time: 00 hr 01 min 19 sec)
Heartbeat CPU 0 instructions: 19000148 cycles: 4721337 heartbeat IPC: 4.513 cumulative IPC: 4.024 (Simulation time: 00 hr 01 min 21 sec)
Heartbeat CPU 0 instructions: 19500153 cycles: 4823807 heartbeat IPC: 4.88 cumulative IPC: 4.042 (Simulation time: 00 hr 01 min 23 sec)
Heartbeat CPU 0 instructions: 20000158 cycles: 4929066 heartbeat IPC: 4.75 cumulative IPC: 4.058 (Simulation time: 00 hr 01 min 25 sec)
Heartbeat CPU 0 instructions: 20500160 cycles: 5038491 heartbeat IPC: 4.569 cumulative IPC: 4.069 (Simulation time: 00 hr 01 min 27 sec)
Heartbeat CPU 0 instructions: 21000160 cycles: 5144623 heartbeat IPC: 4.711 cumulative IPC: 4.082 (Simulation time: 00 hr 01 min 29 sec)
Heartbeat CPU 0 instructions: 21500163 cycles: 5255690 heartbeat IPC: 4.502 cumulative IPC: 4.091 (Simulation time: 00 hr 01 min 31 sec)
Heartbeat CPU 0 instructions: 22000170 cycles: 5359557 heartbeat IPC: 4.814 cumulative IPC: 4.105 (Simulation time: 00 hr 01 min 33 sec)
Heartbeat CPU 0 instructions: 22500176 cycles: 5463514 heartbeat IPC: 4.81 cumulative IPC: 4.118 (Simulation time: 00 hr 01 min 34 sec)
Heartbeat CPU 0 instructions: 23000178 cycles: 5569524 heartbeat IPC: 4.717 cumulative IPC: 4.13 (Simulation time: 00 hr 01 min 36 sec)
Heartbeat CPU 0 instructions: 23500185 cycles: 5672576 heartbeat IPC: 4.852 cumulative IPC: 4.143 (Simulation time: 00 hr 01 min 38 sec)
Heartbeat CPU 0 instructions: 24000192 cycles: 5776801 heartbeat IPC: 4.797 cumulative IPC: 4.155 (Simulation time: 00 hr 01 min 40 sec)
Heartbeat CPU 0 instructions: 24500197 cycles: 5881113 heartbeat IPC: 4.793 cumulative IPC: 4.166 (Simulation time: 00 hr 01 min 42 sec)
Heartbeat CPU 0 instructions: 25000202 cycles: 5983594 heartbeat IPC: 4.879 cumulative IPC: 4.178 (Simulation time: 00 hr 01 min 44 sec)
Heartbeat CPU 0 instructions: 25500207 cycles: 6087462 heartbeat IPC: 4.814 cumulative IPC: 4.189 (Simulation time: 00 hr 01 min 45 sec)
Heartbeat CPU 0 instructions: 26000214 cycles: 6194419 heartbeat IPC: 4.675 cumulative IPC: 4.197 (Simulation time: 00 hr 01 min 47 sec)
Heartbeat CPU 0 instructions: 26500218 cycles: 6299057 heartbeat IPC: 4.778 cumulative IPC: 4.207 (Simulation time: 00 hr 01 min 49 sec)
Heartbeat CPU 0 instructions: 27000224 cycles: 6404349 heartbeat IPC: 4.749 cumulative IPC: 4.216 (Simulation time: 00 hr 01 min 51 sec)
Heartbeat CPU 0 instructions: 27500230 cycles: 6507969 heartbeat IPC: 4.825 cumulative IPC: 4.226 (Simulation time: 00 hr 01 min 53 sec)
Heartbeat CPU 0 instructions: 28000230 cycles: 6612345 heartbeat IPC: 4.79 cumulative IPC: 4.235 (Simulation time: 00 hr 01 min 55 sec)
Heartbeat CPU 0 instructions: 28500230 cycles: 6717130 heartbeat IPC: 4.772 cumulative IPC: 4.243 (Simulation time: 00 hr 01 min 56 sec)
Heartbeat CPU 0 instructions: 29000234 cycles: 6820192 heartbeat IPC: 4.851 cumulative IPC: 4.252 (Simulation time: 00 hr 01 min 58 sec)
Heartbeat CPU 0 instructions: 29500241 cycles: 6924306 heartbeat IPC: 4.802 cumulative IPC: 4.26 (Simulation time: 00 hr 02 min 00 sec)
Heartbeat CPU 0 instructions: 30000247 cycles: 7028322 heartbeat IPC: 4.807 cumulative IPC: 4.268 (Simulation time: 00 hr 02 min 02 sec)
Heartbeat CPU 0 instructions: 30500254 cycles: 7131704 heartbeat IPC: 4.836 cumulative IPC: 4.277 (Simulation time: 00 hr 02 min 04 sec)
Heartbeat CPU 0 instructions: 31000261 cycles: 7234024 heartbeat IPC: 4.887 cumulative IPC: 4.285 (Simulation time: 00 hr 02 min 06 sec)
Heartbeat CPU 0 instructions: 31500266 cycles: 7349672 heartbeat IPC: 4.324 cumulative IPC: 4.286 (Simulation time: 00 hr 02 min 08 sec)
Heartbeat CPU 0 instructions: 32000269 cycles: 7453464 heartbeat IPC: 4.817 cumulative IPC: 4.293 (Simulation time: 00 hr 02 min 10 sec)
Heartbeat CPU 0 instructions: 32500270 cycles: 7557671 heartbeat IPC: 4.798 cumulative IPC: 4.3 (Simulation time: 00 hr 02 min 11 sec)
Heartbeat CPU 0 instructions: 33000270 cycles: 7660457 heartbeat IPC: 4.864 cumulative IPC: 4.308 (Simulation time: 00 hr 02 min 13 sec)
Heartbeat CPU 0 instructions: 33500270 cycles: 7764757 heartbeat IPC: 4.794 cumulative IPC: 4.314 (Simulation time: 00 hr 02 min 15 sec)
Heartbeat CPU 0 instructions: 34000271 cycles: 7868264 heartbeat IPC: 4.831 cumulative IPC: 4.321 (Simulation time: 00 hr 02 min 17 sec)
Heartbeat CPU 0 instructions: 34500275 cycles: 7970888 heartbeat IPC: 4.872 cumulative IPC: 4.328 (Simulation time: 00 hr 02 min 19 sec)
Heartbeat CPU 0 instructions: 35000278 cycles: 8074836 heartbeat IPC: 4.81 cumulative IPC: 4.334 (Simulation time: 00 hr 02 min 20 sec)
Heartbeat CPU 0 instructions: 35500279 cycles: 8177828 heartbeat IPC: 4.855 cumulative IPC: 4.341 (Simulation time: 00 hr 02 min 22 sec)
Heartbeat CPU 0 instructions: 36000281 cycles: 8280855 heartbeat IPC: 4.853 cumulative IPC: 4.347 (Simulation time: 00 hr 02 min 24 sec)
Heartbeat CPU 0 instructions: 36500286 cycles: 8385317 heartbeat IPC: 4.786 cumulative IPC: 4.353 (Simulation time: 00 hr 02 min 26 sec)
Heartbeat CPU 0 instructions: 37000290 cycles: 8488906 heartbeat IPC: 4.827 cumulative IPC: 4.359 (Simulation time: 00 hr 02 min 28 sec)
Heartbeat CPU 0 instructions: 37500297 cycles: 8592696 heartbeat IPC: 4.817 cumulative IPC: 4.364 (Simulation time: 00 hr 02 min 29 sec)
Heartbeat CPU 0 instructions: 38000300 cycles: 8698895 heartbeat IPC: 4.708 cumulative IPC: 4.368 (Simulation time: 00 hr 02 min 31 sec)
Heartbeat CPU 0 instructions: 38500306 cycles: 8801792 heartbeat IPC: 4.859 cumulative IPC: 4.374 (Simulation time: 00 hr 02 min 33 sec)
Heartbeat CPU 0 instructions: 39000308 cycles: 8905149 heartbeat IPC: 4.838 cumulative IPC: 4.38 (Simulation time: 00 hr 02 min 35 sec)
Heartbeat CPU 0 instructions: 39500314 cycles: 9009527 heartbeat IPC: 4.79 cumulative IPC: 4.384 (Simulation time: 00 hr 02 min 37 sec)
Heartbeat CPU 0 instructions: 40000317 cycles: 9117974 heartbeat IPC: 4.611 cumulative IPC: 4.387 (Simulation time: 00 hr 02 min 39 sec)
Heartbeat CPU 0 instructions: 40500324 cycles: 9222702 heartbeat IPC: 4.774 cumulative IPC: 4.391 (Simulation time: 00 hr 02 min 41 sec)
Heartbeat CPU 0 instructions: 41000326 cycles: 9326483 heartbeat IPC: 4.818 cumulative IPC: 4.396 (Simulation time: 00 hr 02 min 42 sec)
Heartbeat CPU 0 instructions: 41500329 cycles: 9439241 heartbeat IPC: 4.434 cumulative IPC: 4.397 (Simulation time: 00 hr 02 min 45 sec)
Heartbeat CPU 0 instructions: 42000329 cycles: 9544040 heartbeat IPC: 4.771 cumulative IPC: 4.401 (Simulation time: 00 hr 02 min 46 sec)
Heartbeat CPU 0 instructions: 42500333 cycles: 9647318 heartbeat IPC: 4.841 cumulative IPC: 4.405 (Simulation time: 00 hr 02 min 48 sec)
Heartbeat CPU 0 instructions: 43000338 cycles: 9751462 heartbeat IPC: 4.801 cumulative IPC: 4.41 (Simulation time: 00 hr 02 min 50 sec)
Heartbeat CPU 0 instructions: 43500345 cycles: 9856168 heartbeat IPC: 4.775 cumulative IPC: 4.414 (Simulation time: 00 hr 02 min 52 sec)
Heartbeat CPU 0 instructions: 44000349 cycles: 9960066 heartbeat IPC: 4.812 cumulative IPC: 4.418 (Simulation time: 00 hr 02 min 54 sec)
Heartbeat CPU 0 instructions: 44500354 cycles: 10063599 heartbeat IPC: 4.829 cumulative IPC: 4.422 (Simulation time: 00 hr 02 min 56 sec)
Heartbeat CPU 0 instructions: 45000355 cycles: 10169451 heartbeat IPC: 4.724 cumulative IPC: 4.425 (Simulation time: 00 hr 02 min 57 sec)
Heartbeat CPU 0 instructions: 45500361 cycles: 10272894 heartbeat IPC: 4.834 cumulative IPC: 4.429 (Simulation time: 00 hr 02 min 59 sec)
Heartbeat CPU 0 instructions: 46000363 cycles: 10378604 heartbeat IPC: 4.73 cumulative IPC: 4.432 (Simulation time: 00 hr 03 min 01 sec)
Heartbeat CPU 0 instructions: 46500365 cycles: 10480622 heartbeat IPC: 4.901 cumulative IPC: 4.437 (Simulation time: 00 hr 03 min 03 sec)
Heartbeat CPU 0 instructions: 47000365 cycles: 10584127 heartbeat IPC: 4.831 cumulative IPC: 4.441 (Simulation time: 00 hr 03 min 05 sec)
Heartbeat CPU 0 instructions: 47500370 cycles: 10687193 heartbeat IPC: 4.851 cumulative IPC: 4.445 (Simulation time: 00 hr 03 min 07 sec)
Heartbeat CPU 0 instructions: 48000372 cycles: 10852311 heartbeat IPC: 3.028 cumulative IPC: 4.423 (Simulation time: 00 hr 03 min 09 sec)
Heartbeat CPU 0 instructions: 48500379 cycles: 10991348 heartbeat IPC: 3.596 cumulative IPC: 4.413 (Simulation time: 00 hr 03 min 11 sec)
Heartbeat CPU 0 instructions: 49000384 cycles: 11129615 heartbeat IPC: 3.616 cumulative IPC: 4.403 (Simulation time: 00 hr 03 min 13 sec)
Heartbeat CPU 0 instructions: 49500384 cycles: 11290833 heartbeat IPC: 3.101 cumulative IPC: 4.384 (Simulation time: 00 hr 03 min 16 sec)
Warmup halting CPU 0 at instruction 50000000 cycle 11456214 for remainder of phase
Warmup finished CPU 0 instructions: 50000000 cycles: 11456214 cumulative IPC: 4.364 (Simulation time: 00 hr 03 min 19 sec)
Warmup complete CPU 0 instructions: 50000000 cycles: 11456214 cumulative IPC: 4.364 (Simulation time: 00 hr 03 min 19 sec)
Heartbeat CPU 0 instructions: 50000386 cycles: 11456266 heartbeat IPC: 3.022 cumulative IPC: 7.423 (Simulation time: 00 hr 03 min 19 sec)
Heartbeat CPU 0 instructions: 50500386 cycles: 12395687 heartbeat IPC: 0.5322 cumulative IPC: 0.5326 (Simulation time: 00 hr 03 min 27 sec)
Heartbeat CPU 0 instructions: 51000388 cycles: 13544705 heartbeat IPC: 0.4352 cumulative IPC: 0.479 (Simulation time: 00 hr 03 min 36 sec)
Heartbeat CPU 0 instructions: 51500389 cycles: 15045594 heartbeat IPC: 0.3331 cumulative IPC: 0.418 (Simulation time: 00 hr 03 min 47 sec)
Heartbeat CPU 0 instructions: 52000395 cycles: 15504663 heartbeat IPC: 1.089 cumulative IPC: 0.4941 (Simulation time: 00 hr 03 min 51 sec)
Heartbeat CPU 0 instructions: 52500399 cycles: 20283037 heartbeat IPC: 0.1046 cumulative IPC: 0.2833 (Simulation time: 00 hr 04 min 23 sec)
Heartbeat CPU 0 instructions: 53000399 cycles: 23823456 heartbeat IPC: 0.1412 cumulative IPC: 0.2426 (Simulation time: 00 hr 04 min 47 sec)
Heartbeat CPU 0 instructions: 53500400 cycles: 26606984 heartbeat IPC: 0.1796 cumulative IPC: 0.231 (Simulation time: 00 hr 05 min 07 sec)
Heartbeat CPU 0 instructions: 54000401 cycles: 27822322 heartbeat IPC: 0.4114 cumulative IPC: 0.2444 (Simulation time: 00 hr 05 min 16 sec)
Heartbeat CPU 0 instructions: 54500405 cycles: 29121181 heartbeat IPC: 0.385 cumulative IPC: 0.2548 (Simulation time: 00 hr 05 min 26 sec)
Heartbeat CPU 0 instructions: 55000406 cycles: 30199557 heartbeat IPC: 0.4637 cumulative IPC: 0.2668 (Simulation time: 00 hr 05 min 35 sec)
Heartbeat CPU 0 instructions: 55500409 cycles: 31296393 heartbeat IPC: 0.4559 cumulative IPC: 0.2772 (Simulation time: 00 hr 05 min 44 sec)
Heartbeat CPU 0 instructions: 56000409 cycles: 31977636 heartbeat IPC: 0.734 cumulative IPC: 0.2924 (Simulation time: 00 hr 05 min 50 sec)
Heartbeat CPU 0 instructions: 56500411 cycles: 32997819 heartbeat IPC: 0.4901 cumulative IPC: 0.3018 (Simulation time: 00 hr 05 min 58 sec)
Heartbeat CPU 0 instructions: 57000415 cycles: 34090807 heartbeat IPC: 0.4575 cumulative IPC: 0.3093 (Simulation time: 00 hr 06 min 07 sec)
Heartbeat CPU 0 instructions: 57500415 cycles: 34966342 heartbeat IPC: 0.5711 cumulative IPC: 0.319 (Simulation time: 00 hr 06 min 14 sec)
Heartbeat CPU 0 instructions: 58000415 cycles: 36001162 heartbeat IPC: 0.4832 cumulative IPC: 0.3259 (Simulation time: 00 hr 06 min 22 sec)
Heartbeat CPU 0 instructions: 58500416 cycles: 37274226 heartbeat IPC: 0.3928 cumulative IPC: 0.3292 (Simulation time: 00 hr 06 min 32 sec)
Heartbeat CPU 0 instructions: 59000418 cycles: 37753074 heartbeat IPC: 1.044 cumulative IPC: 0.3423 (Simulation time: 00 hr 06 min 36 sec)
Heartbeat CPU 0 instructions: 59500422 cycles: 38718003 heartbeat IPC: 0.5182 cumulative IPC: 0.3485 (Simulation time: 00 hr 06 min 43 sec)
Heartbeat CPU 0 instructions: 60000422 cycles: 39753480 heartbeat IPC: 0.4829 cumulative IPC: 0.3534 (Simulation time: 00 hr 06 min 51 sec)
Heartbeat CPU 0 instructions: 60500422 cycles: 41281767 heartbeat IPC: 0.3272 cumulative IPC: 0.3521 (Simulation time: 00 hr 07 min 02 sec)
Heartbeat CPU 0 instructions: 61000422 cycles: 41654551 heartbeat IPC: 1.341 cumulative IPC: 0.3643 (Simulation time: 00 hr 07 min 05 sec)
Heartbeat CPU 0 instructions: 61500425 cycles: 43126888 heartbeat IPC: 0.3396 cumulative IPC: 0.3631 (Simulation time: 00 hr 07 min 16 sec)
Heartbeat CPU 0 instructions: 62000429 cycles: 44842026 heartbeat IPC: 0.2915 cumulative IPC: 0.3594 (Simulation time: 00 hr 07 min 29 sec)
Heartbeat CPU 0 instructions: 62500433 cycles: 46525606 heartbeat IPC: 0.297 cumulative IPC: 0.3564 (Simulation time: 00 hr 07 min 41 sec)
Heartbeat CPU 0 instructions: 63000435 cycles: 46847172 heartbeat IPC: 1.555 cumulative IPC: 0.3673 (Simulation time: 00 hr 07 min 44 sec)
Heartbeat CPU 0 instructions: 63500435 cycles: 48026065 heartbeat IPC: 0.4241 cumulative IPC: 0.3692 (Simulation time: 00 hr 07 min 55 sec)
Heartbeat CPU 0 instructions: 64000436 cycles: 49231776 heartbeat IPC: 0.4147 cumulative IPC: 0.3706 (Simulation time: 00 hr 08 min 06 sec)
Heartbeat CPU 0 instructions: 64500436 cycles: 49908902 heartbeat IPC: 0.7384 cumulative IPC: 0.3771 (Simulation time: 00 hr 08 min 13 sec)
Heartbeat CPU 0 instructions: 65000438 cycles: 50612723 heartbeat IPC: 0.7104 cumulative IPC: 0.3831 (Simulation time: 00 hr 08 min 20 sec)
Heartbeat CPU 0 instructions: 65500440 cycles: 51496462 heartbeat IPC: 0.5658 cumulative IPC: 0.3871 (Simulation time: 00 hr 08 min 27 sec)
Heartbeat CPU 0 instructions: 66000443 cycles: 53884358 heartbeat IPC: 0.2094 cumulative IPC: 0.3771 (Simulation time: 00 hr 08 min 43 sec)
Heartbeat CPU 0 instructions: 66500446 cycles: 55106311 heartbeat IPC: 0.4092 cumulative IPC: 0.378 (Simulation time: 00 hr 08 min 52 sec)
Heartbeat CPU 0 instructions: 67000449 cycles: 55502824 heartbeat IPC: 1.261 cumulative IPC: 0.386 (Simulation time: 00 hr 08 min 56 sec)
Heartbeat CPU 0 instructions: 67500451 cycles: 55779254 heartbeat IPC: 1.809 cumulative IPC: 0.3948 (Simulation time: 00 hr 09 min 00 sec)
Heartbeat CPU 0 instructions: 68000453 cycles: 56087386 heartbeat IPC: 1.623 cumulative IPC: 0.4033 (Simulation time: 00 hr 09 min 03 sec)
Heartbeat CPU 0 instructions: 68500453 cycles: 56350981 heartbeat IPC: 1.897 cumulative IPC: 0.4121 (Simulation time: 00 hr 09 min 07 sec)
Heartbeat CPU 0 instructions: 69000453 cycles: 56620010 heartbeat IPC: 1.859 cumulative IPC: 0.4207 (Simulation time: 00 hr 09 min 10 sec)
Heartbeat CPU 0 instructions: 69500453 cycles: 56906414 heartbeat IPC: 1.746 cumulative IPC: 0.4291 (Simulation time: 00 hr 09 min 14 sec)
Heartbeat CPU 0 instructions: 70000458 cycles: 57181454 heartbeat IPC: 1.818 cumulative IPC: 0.4374 (Simulation time: 00 hr 09 min 17 sec)
Heartbeat CPU 0 instructions: 70500463 cycles: 57470247 heartbeat IPC: 1.731 cumulative IPC: 0.4455 (Simulation time: 00 hr 09 min 21 sec)
Heartbeat CPU 0 instructions: 71000467 cycles: 57725901 heartbeat IPC: 1.956 cumulative IPC: 0.4539 (Simulation time: 00 hr 09 min 24 sec)
Heartbeat CPU 0 instructions: 71500470 cycles: 58002209 heartbeat IPC: 1.81 cumulative IPC: 0.4619 (Simulation time: 00 hr 09 min 28 sec)
Heartbeat CPU 0 instructions: 72000475 cycles: 58267764 heartbeat IPC: 1.883 cumulative IPC: 0.47 (Simulation time: 00 hr 09 min 31 sec)
Heartbeat CPU 0 instructions: 72500475 cycles: 58546998 heartbeat IPC: 1.791 cumulative IPC: 0.4778 (Simulation time: 00 hr 09 min 35 sec)
Heartbeat CPU 0 instructions: 73000477 cycles: 58826765 heartbeat IPC: 1.787 cumulative IPC: 0.4855 (Simulation time: 00 hr 09 min 38 sec)
Heartbeat CPU 0 instructions: 73500477 cycles: 59095195 heartbeat IPC: 1.863 cumulative IPC: 0.4933 (Simulation time: 00 hr 09 min 42 sec)
Heartbeat CPU 0 instructions: 74000479 cycles: 59354309 heartbeat IPC: 1.93 cumulative IPC: 0.5011 (Simulation time: 00 hr 09 min 45 sec)
Heartbeat CPU 0 instructions: 74500481 cycles: 59629659 heartbeat IPC: 1.816 cumulative IPC: 0.5086 (Simulation time: 00 hr 09 min 49 sec)
Heartbeat CPU 0 instructions: 75000481 cycles: 59887658 heartbeat IPC: 1.938 cumulative IPC: 0.5162 (Simulation time: 00 hr 09 min 52 sec)
Heartbeat CPU 0 instructions: 75500488 cycles: 60148605 heartbeat IPC: 1.916 cumulative IPC: 0.5237 (Simulation time: 00 hr 09 min 56 sec)
Heartbeat CPU 0 instructions: 76000492 cycles: 60416648 heartbeat IPC: 1.865 cumulative IPC: 0.5311 (Simulation time: 00 hr 09 min 59 sec)
Heartbeat CPU 0 instructions: 76500494 cycles: 60714703 heartbeat IPC: 1.678 cumulative IPC: 0.538 (Simulation time: 00 hr 10 min 03 sec)
Heartbeat CPU 0 instructions: 77000500 cycles: 60896312 heartbeat IPC: 2.753 cumulative IPC: 0.5461 (Simulation time: 00 hr 10 min 05 sec)
Heartbeat CPU 0 instructions: 77500503 cycles: 62010981 heartbeat IPC: 0.4486 cumulative IPC: 0.544 (Simulation time: 00 hr 10 min 14 sec)
Heartbeat CPU 0 instructions: 78000503 cycles: 62296737 heartbeat IPC: 1.75 cumulative IPC: 0.5508 (Simulation time: 00 hr 10 min 18 sec)
Heartbeat CPU 0 instructions: 78500503 cycles: 62542431 heartbeat IPC: 2.035 cumulative IPC: 0.5579 (Simulation time: 00 hr 10 min 21 sec)
Heartbeat CPU 0 instructions: 79000503 cycles: 62782065 heartbeat IPC: 2.087 cumulative IPC: 0.565 (Simulation time: 00 hr 10 min 24 sec)
Heartbeat CPU 0 instructions: 79500508 cycles: 62996297 heartbeat IPC: 2.334 cumulative IPC: 0.5724 (Simulation time: 00 hr 10 min 26 sec)
Heartbeat CPU 0 instructions: 80000510 cycles: 63231826 heartbeat IPC: 2.123 cumulative IPC: 0.5794 (Simulation time: 00 hr 10 min 29 sec)
Heartbeat CPU 0 instructions: 80500511 cycles: 63468167 heartbeat IPC: 2.116 cumulative IPC: 0.5864 (Simulation time: 00 hr 10 min 32 sec)
Heartbeat CPU 0 instructions: 81000517 cycles: 63700243 heartbeat IPC: 2.154 cumulative IPC: 0.5934 (Simulation time: 00 hr 10 min 35 sec)
Heartbeat CPU 0 instructions: 81500522 cycles: 63915812 heartbeat IPC: 2.319 cumulative IPC: 0.6005 (Simulation time: 00 hr 10 min 38 sec)
Heartbeat CPU 0 instructions: 82000522 cycles: 64142367 heartbeat IPC: 2.207 cumulative IPC: 0.6074 (Simulation time: 00 hr 10 min 40 sec)
Heartbeat CPU 0 instructions: 82500522 cycles: 64365738 heartbeat IPC: 2.238 cumulative IPC: 0.6143 (Simulation time: 00 hr 10 min 43 sec)
Heartbeat CPU 0 instructions: 83000523 cycles: 64618420 heartbeat IPC: 1.979 cumulative IPC: 0.6208 (Simulation time: 00 hr 10 min 46 sec)
Heartbeat CPU 0 instructions: 83500525 cycles: 64853441 heartbeat IPC: 2.127 cumulative IPC: 0.6274 (Simulation time: 00 hr 10 min 49 sec)
Heartbeat CPU 0 instructions: 84000528 cycles: 65074848 heartbeat IPC: 2.258 cumulative IPC: 0.6341 (Simulation time: 00 hr 10 min 52 sec)
Heartbeat CPU 0 instructions: 84500533 cycles: 65327202 heartbeat IPC: 1.981 cumulative IPC: 0.6404 (Simulation time: 00 hr 10 min 55 sec)
Heartbeat CPU 0 instructions: 85000534 cycles: 65631822 heartbeat IPC: 1.641 cumulative IPC: 0.6461 (Simulation time: 00 hr 10 min 58 sec)
Heartbeat CPU 0 instructions: 85500534 cycles: 65842800 heartbeat IPC: 2.37 cumulative IPC: 0.6527 (Simulation time: 00 hr 11 min 01 sec)
Heartbeat CPU 0 instructions: 86000534 cycles: 66061113 heartbeat IPC: 2.29 cumulative IPC: 0.6593 (Simulation time: 00 hr 11 min 04 sec)
Heartbeat CPU 0 instructions: 86500534 cycles: 66277829 heartbeat IPC: 2.307 cumulative IPC: 0.6658 (Simulation time: 00 hr 11 min 06 sec)
Heartbeat CPU 0 instructions: 87000534 cycles: 66477380 heartbeat IPC: 2.506 cumulative IPC: 0.6725 (Simulation time: 00 hr 11 min 09 sec)
Heartbeat CPU 0 instructions: 87500539 cycles: 66705442 heartbeat IPC: 2.192 cumulative IPC: 0.6788 (Simulation time: 00 hr 11 min 12 sec)
Heartbeat CPU 0 instructions: 88000539 cycles: 66905206 heartbeat IPC: 2.503 cumulative IPC: 0.6853 (Simulation time: 00 hr 11 min 15 sec)
Heartbeat CPU 0 instructions: 88500542 cycles: 67104735 heartbeat IPC: 2.506 cumulative IPC: 0.6919 (Simulation time: 00 hr 11 min 17 sec)
Heartbeat CPU 0 instructions: 89000547 cycles: 67308120 heartbeat IPC: 2.458 cumulative IPC: 0.6983 (Simulation time: 00 hr 11 min 20 sec)
Heartbeat CPU 0 instructions: 89500553 cycles: 67528264 heartbeat IPC: 2.271 cumulative IPC: 0.7045 (Simulation time: 00 hr 11 min 23 sec)
Heartbeat CPU 0 instructions: 90000554 cycles: 67732953 heartbeat IPC: 2.443 cumulative IPC: 0.7108 (Simulation time: 00 hr 11 min 26 sec)
Heartbeat CPU 0 instructions: 90500560 cycles: 67948805 heartbeat IPC: 2.316 cumulative IPC: 0.7169 (Simulation time: 00 hr 11 min 28 sec)
Heartbeat CPU 0 instructions: 91000562 cycles: 68153761 heartbeat IPC: 2.44 cumulative IPC: 0.7231 (Simulation time: 00 hr 11 min 31 sec)
Heartbeat CPU 0 instructions: 91500563 cycles: 68385244 heartbeat IPC: 2.16 cumulative IPC: 0.729 (Simulation time: 00 hr 11 min 34 sec)
Heartbeat CPU 0 instructions: 92000567 cycles: 68579485 heartbeat IPC: 2.574 cumulative IPC: 0.7353 (Simulation time: 00 hr 11 min 37 sec)
Heartbeat CPU 0 instructions: 92500570 cycles: 68797335 heartbeat IPC: 2.295 cumulative IPC: 0.7412 (Simulation time: 00 hr 11 min 39 sec)
Heartbeat CPU 0 instructions: 93000572 cycles: 69034860 heartbeat IPC: 2.105 cumulative IPC: 0.7468 (Simulation time: 00 hr 11 min 42 sec)
Heartbeat CPU 0 instructions: 93500578 cycles: 69229180 heartbeat IPC: 2.573 cumulative IPC: 0.753 (Simulation time: 00 hr 11 min 45 sec)
Heartbeat CPU 0 instructions: 94000584 cycles: 69430455 heartbeat IPC: 2.484 cumulative IPC: 0.759 (Simulation time: 00 hr 11 min 48 sec)
Heartbeat CPU 0 instructions: 94500585 cycles: 69649796 heartbeat IPC: 2.28 cumulative IPC: 0.7647 (Simulation time: 00 hr 11 min 50 sec)
Heartbeat CPU 0 instructions: 95000586 cycles: 70399990 heartbeat IPC: 0.6665 cumulative IPC: 0.7634 (Simulation time: 00 hr 11 min 56 sec)
Heartbeat CPU 0 instructions: 95500591 cycles: 70626208 heartbeat IPC: 2.21 cumulative IPC: 0.769 (Simulation time: 00 hr 11 min 59 sec)
Heartbeat CPU 0 instructions: 96000596 cycles: 70855843 heartbeat IPC: 2.177 cumulative IPC: 0.7744 (Simulation time: 00 hr 12 min 02 sec)
Heartbeat CPU 0 instructions: 96500596 cycles: 71106400 heartbeat IPC: 1.996 cumulative IPC: 0.7796 (Simulation time: 00 hr 12 min 05 sec)
Heartbeat CPU 0 instructions: 97000603 cycles: 71325707 heartbeat IPC: 2.28 cumulative IPC: 0.7851 (Simulation time: 00 hr 12 min 08 sec)
Heartbeat CPU 0 instructions: 97500609 cycles: 71541408 heartbeat IPC: 2.318 cumulative IPC: 0.7906 (Simulation time: 00 hr 12 min 11 sec)
Heartbeat CPU 0 instructions: 98000613 cycles: 71755714 heartbeat IPC: 2.333 cumulative IPC: 0.796 (Simulation time: 00 hr 12 min 14 sec)
Heartbeat CPU 0 instructions: 98500617 cycles: 71959001 heartbeat IPC: 2.46 cumulative IPC: 0.8016 (Simulation time: 00 hr 12 min 16 sec)
Heartbeat CPU 0 instructions: 99000624 cycles: 72173721 heartbeat IPC: 2.329 cumulative IPC: 0.807 (Simulation time: 00 hr 12 min 19 sec)
Heartbeat CPU 0 instructions: 99500631 cycles: 72397292 heartbeat IPC: 2.236 cumulative IPC: 0.8123 (Simulation time: 00 hr 12 min 22 sec)
Heartbeat CPU 0 instructions: 100000631 cycles: 72605985 heartbeat IPC: 2.396 cumulative IPC: 0.8177 (Simulation time: 00 hr 12 min 25 sec)
Heartbeat CPU 0 instructions: 100500631 cycles: 72819973 heartbeat IPC: 2.337 cumulative IPC: 0.823 (Simulation time: 00 hr 12 min 27 sec)
Heartbeat CPU 0 instructions: 101000632 cycles: 73020347 heartbeat IPC: 2.495 cumulative IPC: 0.8284 (Simulation time: 00 hr 12 min 30 sec)
Heartbeat CPU 0 instructions: 101500632 cycles: 73231453 heartbeat IPC: 2.368 cumulative IPC: 0.8337 (Simulation time: 00 hr 12 min 33 sec)
Heartbeat CPU 0 instructions: 102000639 cycles: 73433274 heartbeat IPC: 2.477 cumulative IPC: 0.839 (Simulation time: 00 hr 12 min 35 sec)
Heartbeat CPU 0 instructions: 102500639 cycles: 73647626 heartbeat IPC: 2.333 cumulative IPC: 0.8442 (Simulation time: 00 hr 12 min 38 sec)
Heartbeat CPU 0 instructions: 103000645 cycles: 73849447 heartbeat IPC: 2.477 cumulative IPC: 0.8495 (Simulation time: 00 hr 12 min 41 sec)
Heartbeat CPU 0 instructions: 103500649 cycles: 74057812 heartbeat IPC: 2.4 cumulative IPC: 0.8546 (Simulation time: 00 hr 12 min 43 sec)
Heartbeat CPU 0 instructions: 104000649 cycles: 74266522 heartbeat IPC: 2.396 cumulative IPC: 0.8597 (Simulation time: 00 hr 12 min 46 sec)
Heartbeat CPU 0 instructions: 104500656 cycles: 75985396 heartbeat IPC: 0.2909 cumulative IPC: 0.8446 (Simulation time: 00 hr 12 min 58 sec)
Heartbeat CPU 0 instructions: 105000658 cycles: 77361113 heartbeat IPC: 0.3634 cumulative IPC: 0.8345 (Simulation time: 00 hr 13 min 08 sec)
Heartbeat CPU 0 instructions: 105500658 cycles: 78249693 heartbeat IPC: 0.5627 cumulative IPC: 0.8309 (Simulation time: 00 hr 13 min 15 sec)
Heartbeat CPU 0 instructions: 106000659 cycles: 78475673 heartbeat IPC: 2.213 cumulative IPC: 0.8356 (Simulation time: 00 hr 13 min 18 sec)
Heartbeat CPU 0 instructions: 106500666 cycles: 78944692 heartbeat IPC: 1.066 cumulative IPC: 0.8372 (Simulation time: 00 hr 13 min 22 sec)
Heartbeat CPU 0 instructions: 107000666 cycles: 80484839 heartbeat IPC: 0.3246 cumulative IPC: 0.8258 (Simulation time: 00 hr 13 min 33 sec)
Heartbeat CPU 0 instructions: 107500670 cycles: 80907369 heartbeat IPC: 1.183 cumulative IPC: 0.8279 (Simulation time: 00 hr 13 min 39 sec)
Heartbeat CPU 0 instructions: 108000670 cycles: 81354757 heartbeat IPC: 1.118 cumulative IPC: 0.8298 (Simulation time: 00 hr 13 min 45 sec)
Heartbeat CPU 0 instructions: 108500677 cycles: 81962609 heartbeat IPC: 0.8226 cumulative IPC: 0.8297 (Simulation time: 00 hr 13 min 52 sec)
Heartbeat CPU 0 instructions: 109000680 cycles: 83499808 heartbeat IPC: 0.3253 cumulative IPC: 0.819 (Simulation time: 00 hr 14 min 04 sec)
Heartbeat CPU 0 instructions: 109500682 cycles: 83852980 heartbeat IPC: 1.416 cumulative IPC: 0.8219 (Simulation time: 00 hr 14 min 08 sec)
Heartbeat CPU 0 instructions: 110000685 cycles: 84340514 heartbeat IPC: 1.026 cumulative IPC: 0.8232 (Simulation time: 00 hr 14 min 13 sec)
Heartbeat CPU 0 instructions: 110500686 cycles: 84564305 heartbeat IPC: 2.234 cumulative IPC: 0.8276 (Simulation time: 00 hr 14 min 16 sec)
Heartbeat CPU 0 instructions: 111000688 cycles: 85149106 heartbeat IPC: 0.855 cumulative IPC: 0.8278 (Simulation time: 00 hr 14 min 21 sec)
Heartbeat CPU 0 instructions: 111500690 cycles: 86095918 heartbeat IPC: 0.5281 cumulative IPC: 0.824 (Simulation time: 00 hr 14 min 29 sec)
Heartbeat CPU 0 instructions: 112000690 cycles: 88024337 heartbeat IPC: 0.2593 cumulative IPC: 0.8097 (Simulation time: 00 hr 14 min 43 sec)
Heartbeat CPU 0 instructions: 112500695 cycles: 89440092 heartbeat IPC: 0.3532 cumulative IPC: 0.8015 (Simulation time: 00 hr 14 min 54 sec)
Heartbeat CPU 0 instructions: 113000696 cycles: 90303533 heartbeat IPC: 0.5791 cumulative IPC: 0.799 (Simulation time: 00 hr 15 min 03 sec)
Heartbeat CPU 0 instructions: 113500696 cycles: 90664329 heartbeat IPC: 1.386 cumulative IPC: 0.8017 (Simulation time: 00 hr 15 min 06 sec)
Heartbeat CPU 0 instructions: 114000697 cycles: 90964205 heartbeat IPC: 1.667 cumulative IPC: 0.805 (Simulation time: 00 hr 15 min 10 sec)
Heartbeat CPU 0 instructions: 114500699 cycles: 91255402 heartbeat IPC: 1.717 cumulative IPC: 0.8083 (Simulation time: 00 hr 15 min 13 sec)
Heartbeat CPU 0 instructions: 115000699 cycles: 91615228 heartbeat IPC: 1.39 cumulative IPC: 0.8109 (Simulation time: 00 hr 15 min 17 sec)
Heartbeat CPU 0 instructions: 115500702 cycles: 91899326 heartbeat IPC: 1.76 cumulative IPC: 0.8142 (Simulation time: 00 hr 15 min 21 sec)
Heartbeat CPU 0 instructions: 116000708 cycles: 92230988 heartbeat IPC: 1.508 cumulative IPC: 0.8171 (Simulation time: 00 hr 15 min 24 sec)
Heartbeat CPU 0 instructions: 116500710 cycles: 92566024 heartbeat IPC: 1.492 cumulative IPC: 0.8199 (Simulation time: 00 hr 15 min 28 sec)
Heartbeat CPU 0 instructions: 117000710 cycles: 92877815 heartbeat IPC: 1.604 cumulative IPC: 0.8229 (Simulation time: 00 hr 15 min 32 sec)
Heartbeat CPU 0 instructions: 117500716 cycles: 93184260 heartbeat IPC: 1.632 cumulative IPC: 0.8259 (Simulation time: 00 hr 15 min 35 sec)
Heartbeat CPU 0 instructions: 118000719 cycles: 93428448 heartbeat IPC: 2.048 cumulative IPC: 0.8296 (Simulation time: 00 hr 15 min 38 sec)
Heartbeat CPU 0 instructions: 118500721 cycles: 93872129 heartbeat IPC: 1.127 cumulative IPC: 0.8312 (Simulation time: 00 hr 15 min 43 sec)
Heartbeat CPU 0 instructions: 119000728 cycles: 95183831 heartbeat IPC: 0.3812 cumulative IPC: 0.8241 (Simulation time: 00 hr 15 min 54 sec)
Heartbeat CPU 0 instructions: 119500730 cycles: 95588709 heartbeat IPC: 1.235 cumulative IPC: 0.8261 (Simulation time: 00 hr 15 min 58 sec)
Heartbeat CPU 0 instructions: 120000730 cycles: 95980855 heartbeat IPC: 1.275 cumulative IPC: 0.8282 (Simulation time: 00 hr 16 min 02 sec)
Heartbeat CPU 0 instructions: 120500734 cycles: 96374317 heartbeat IPC: 1.271 cumulative IPC: 0.8302 (Simulation time: 00 hr 16 min 07 sec)
Heartbeat CPU 0 instructions: 121000738 cycles: 96767052 heartbeat IPC: 1.273 cumulative IPC: 0.8323 (Simulation time: 00 hr 16 min 11 sec)
Heartbeat CPU 0 instructions: 121500741 cycles: 97132988 heartbeat IPC: 1.366 cumulative IPC: 0.8345 (Simulation time: 00 hr 16 min 15 sec)
Heartbeat CPU 0 instructions: 122000741 cycles: 98267174 heartbeat IPC: 0.4408 cumulative IPC: 0.8294 (Simulation time: 00 hr 16 min 24 sec)
Heartbeat CPU 0 instructions: 122500742 cycles: 98917254 heartbeat IPC: 0.7691 cumulative IPC: 0.8289 (Simulation time: 00 hr 16 min 30 sec)
Heartbeat CPU 0 instructions: 123000744 cycles: 99493287 heartbeat IPC: 0.868 cumulative IPC: 0.8292 (Simulation time: 00 hr 16 min 35 sec)
Heartbeat CPU 0 instructions: 123500744 cycles: 100285047 heartbeat IPC: 0.6315 cumulative IPC: 0.8274 (Simulation time: 00 hr 16 min 43 sec)
Heartbeat CPU 0 instructions: 124000747 cycles: 100746746 heartbeat IPC: 1.083 cumulative IPC: 0.8288 (Simulation time: 00 hr 16 min 48 sec)
Heartbeat CPU 0 instructions: 124500754 cycles: 101358023 heartbeat IPC: 0.818 cumulative IPC: 0.8287 (Simulation time: 00 hr 16 min 54 sec)
Heartbeat CPU 0 instructions: 125000754 cycles: 101805313 heartbeat IPC: 1.118 cumulative IPC: 0.8301 (Simulation time: 00 hr 16 min 58 sec)
Heartbeat CPU 0 instructions: 125500760 cycles: 102117387 heartbeat IPC: 1.602 cumulative IPC: 0.8328 (Simulation time: 00 hr 17 min 01 sec)
Heartbeat CPU 0 instructions: 126000760 cycles: 102405116 heartbeat IPC: 1.738 cumulative IPC: 0.8356 (Simulation time: 00 hr 17 min 05 sec)
Heartbeat CPU 0 instructions: 126500761 cycles: 102725052 heartbeat IPC: 1.563 cumulative IPC: 0.8382 (Simulation time: 00 hr 17 min 08 sec)
Heartbeat CPU 0 instructions: 127000765 cycles: 103030247 heartbeat IPC: 1.638 cumulative IPC: 0.8409 (Simulation time: 00 hr 17 min 12 sec)
Heartbeat CPU 0 instructions: 127500766 cycles: 103376025 heartbeat IPC: 1.446 cumulative IPC: 0.8431 (Simulation time: 00 hr 17 min 16 sec)
Heartbeat CPU 0 instructions: 128000769 cycles: 103721223 heartbeat IPC: 1.448 cumulative IPC: 0.8454 (Simulation time: 00 hr 17 min 19 sec)
Heartbeat CPU 0 instructions: 128500771 cycles: 104036216 heartbeat IPC: 1.587 cumulative IPC: 0.8479 (Simulation time: 00 hr 17 min 23 sec)
Heartbeat CPU 0 instructions: 129000776 cycles: 104639905 heartbeat IPC: 0.8282 cumulative IPC: 0.8478 (Simulation time: 00 hr 17 min 28 sec)
Heartbeat CPU 0 instructions: 129500781 cycles: 104896994 heartbeat IPC: 1.945 cumulative IPC: 0.8508 (Simulation time: 00 hr 17 min 31 sec)
Heartbeat CPU 0 instructions: 130000788 cycles: 105310806 heartbeat IPC: 1.208 cumulative IPC: 0.8524 (Simulation time: 00 hr 17 min 36 sec)
Heartbeat CPU 0 instructions: 130500788 cycles: 105746782 heartbeat IPC: 1.147 cumulative IPC: 0.8538 (Simulation time: 00 hr 17 min 41 sec)
Heartbeat CPU 0 instructions: 131000790 cycles: 106126918 heartbeat IPC: 1.315 cumulative IPC: 0.8556 (Simulation time: 00 hr 17 min 45 sec)
Heartbeat CPU 0 instructions: 131500790 cycles: 106497504 heartbeat IPC: 1.349 cumulative IPC: 0.8575 (Simulation time: 00 hr 17 min 49 sec)
Heartbeat CPU 0 instructions: 132000794 cycles: 106890494 heartbeat IPC: 1.272 cumulative IPC: 0.8592 (Simulation time: 00 hr 17 min 53 sec)
Heartbeat CPU 0 instructions: 132500798 cycles: 107278277 heartbeat IPC: 1.289 cumulative IPC: 0.861 (Simulation time: 00 hr 17 min 58 sec)
Heartbeat CPU 0 instructions: 133000798 cycles: 107641628 heartbeat IPC: 1.376 cumulative IPC: 0.8629 (Simulation time: 00 hr 18 min 02 sec)
Heartbeat CPU 0 instructions: 133500803 cycles: 108192194 heartbeat IPC: 0.9082 cumulative IPC: 0.8632 (Simulation time: 00 hr 18 min 07 sec)
Heartbeat CPU 0 instructions: 134000806 cycles: 109040891 heartbeat IPC: 0.5891 cumulative IPC: 0.8608 (Simulation time: 00 hr 18 min 15 sec)
Heartbeat CPU 0 instructions: 134500810 cycles: 109271296 heartbeat IPC: 2.17 cumulative IPC: 0.8639 (Simulation time: 00 hr 18 min 18 sec)
Heartbeat CPU 0 instructions: 135000817 cycles: 109494511 heartbeat IPC: 2.24 cumulative IPC: 0.867 (Simulation time: 00 hr 18 min 22 sec)
Heartbeat CPU 0 instructions: 135500819 cycles: 109821433 heartbeat IPC: 1.529 cumulative IPC: 0.8692 (Simulation time: 00 hr 18 min 26 sec)
Heartbeat CPU 0 instructions: 136000821 cycles: 110226681 heartbeat IPC: 1.234 cumulative IPC: 0.8707 (Simulation time: 00 hr 18 min 31 sec)
Heartbeat CPU 0 instructions: 136500821 cycles: 110567278 heartbeat IPC: 1.468 cumulative IPC: 0.8728 (Simulation time: 00 hr 18 min 36 sec)
Heartbeat CPU 0 instructions: 137000827 cycles: 111815901 heartbeat IPC: 0.4004 cumulative IPC: 0.8669 (Simulation time: 00 hr 18 min 45 sec)
Heartbeat CPU 0 instructions: 137500828 cycles: 113368060 heartbeat IPC: 0.3221 cumulative IPC: 0.8586 (Simulation time: 00 hr 18 min 57 sec)
Heartbeat CPU 0 instructions: 138000828 cycles: 114529292 heartbeat IPC: 0.4306 cumulative IPC: 0.8538 (Simulation time: 00 hr 19 min 06 sec)
Heartbeat CPU 0 instructions: 138500829 cycles: 115833477 heartbeat IPC: 0.3834 cumulative IPC: 0.8479 (Simulation time: 00 hr 19 min 16 sec)
Heartbeat CPU 0 instructions: 139000831 cycles: 116955488 heartbeat IPC: 0.4456 cumulative IPC: 0.8436 (Simulation time: 00 hr 19 min 24 sec)
Heartbeat CPU 0 instructions: 139500831 cycles: 117453035 heartbeat IPC: 1.005 cumulative IPC: 0.8444 (Simulation time: 00 hr 19 min 28 sec)
Heartbeat CPU 0 instructions: 140000831 cycles: 118158768 heartbeat IPC: 0.7085 cumulative IPC: 0.8435 (Simulation time: 00 hr 19 min 34 sec)
Heartbeat CPU 0 instructions: 140500835 cycles: 118717800 heartbeat IPC: 0.8944 cumulative IPC: 0.8437 (Simulation time: 00 hr 19 min 39 sec)
Heartbeat CPU 0 instructions: 141000835 cycles: 119246087 heartbeat IPC: 0.9465 cumulative IPC: 0.8442 (Simulation time: 00 hr 19 min 44 sec)
Heartbeat CPU 0 instructions: 141500836 cycles: 119721864 heartbeat IPC: 1.051 cumulative IPC: 0.8452 (Simulation time: 00 hr 19 min 48 sec)
Heartbeat CPU 0 instructions: 142000840 cycles: 120161483 heartbeat IPC: 1.137 cumulative IPC: 0.8463 (Simulation time: 00 hr 19 min 52 sec)
Heartbeat CPU 0 instructions: 142500841 cycles: 120646440 heartbeat IPC: 1.031 cumulative IPC: 0.8472 (Simulation time: 00 hr 19 min 56 sec)
Heartbeat CPU 0 instructions: 143000846 cycles: 121068249 heartbeat IPC: 1.185 cumulative IPC: 0.8485 (Simulation time: 00 hr 20 min 01 sec)
Heartbeat CPU 0 instructions: 143500846 cycles: 121597775 heartbeat IPC: 0.9442 cumulative IPC: 0.8489 (Simulation time: 00 hr 20 min 05 sec)
Heartbeat CPU 0 instructions: 144000849 cycles: 122157054 heartbeat IPC: 0.894 cumulative IPC: 0.8491 (Simulation time: 00 hr 20 min 10 sec)
Heartbeat CPU 0 instructions: 144500852 cycles: 122680813 heartbeat IPC: 0.9546 cumulative IPC: 0.8496 (Simulation time: 00 hr 20 min 15 sec)
Heartbeat CPU 0 instructions: 145000853 cycles: 123165602 heartbeat IPC: 1.031 cumulative IPC: 0.8504 (Simulation time: 00 hr 20 min 19 sec)
Heartbeat CPU 0 instructions: 145500853 cycles: 123849828 heartbeat IPC: 0.7308 cumulative IPC: 0.8497 (Simulation time: 00 hr 20 min 25 sec)
Heartbeat CPU 0 instructions: 146000853 cycles: 124541000 heartbeat IPC: 0.7234 cumulative IPC: 0.8489 (Simulation time: 00 hr 20 min 31 sec)
Heartbeat CPU 0 instructions: 146500853 cycles: 125003423 heartbeat IPC: 1.081 cumulative IPC: 0.8499 (Simulation time: 00 hr 20 min 35 sec)
Heartbeat CPU 0 instructions: 147000857 cycles: 125514479 heartbeat IPC: 0.9784 cumulative IPC: 0.8505 (Simulation time: 00 hr 20 min 40 sec)
Heartbeat CPU 0 instructions: 147500859 cycles: 126021892 heartbeat IPC: 0.9854 cumulative IPC: 0.851 (Simulation time: 00 hr 20 min 44 sec)
Heartbeat CPU 0 instructions: 148000864 cycles: 126511315 heartbeat IPC: 1.022 cumulative IPC: 0.8518 (Simulation time: 00 hr 20 min 49 sec)
Heartbeat CPU 0 instructions: 148500864 cycles: 127014009 heartbeat IPC: 0.9946 cumulative IPC: 0.8524 (Simulation time: 00 hr 20 min 53 sec)
Heartbeat CPU 0 instructions: 149000866 cycles: 127654656 heartbeat IPC: 0.7805 cumulative IPC: 0.852 (Simulation time: 00 hr 20 min 58 sec)
Heartbeat CPU 0 instructions: 149500872 cycles: 128334690 heartbeat IPC: 0.7353 cumulative IPC: 0.8513 (Simulation time: 00 hr 21 min 04 sec)
Heartbeat CPU 0 instructions: 150000875 cycles: 128862739 heartbeat IPC: 0.9469 cumulative IPC: 0.8517 (Simulation time: 00 hr 21 min 09 sec)
Heartbeat CPU 0 instructions: 150500878 cycles: 129397952 heartbeat IPC: 0.9342 cumulative IPC: 0.8521 (Simulation time: 00 hr 21 min 14 sec)
Heartbeat CPU 0 instructions: 151000885 cycles: 130334174 heartbeat IPC: 0.5341 cumulative IPC: 0.8496 (Simulation time: 00 hr 21 min 21 sec)
Heartbeat CPU 0 instructions: 151500885 cycles: 132082726 heartbeat IPC: 0.286 cumulative IPC: 0.8414 (Simulation time: 00 hr 21 min 34 sec)
Heartbeat CPU 0 instructions: 152000889 cycles: 132683455 heartbeat IPC: 0.8323 cumulative IPC: 0.8414 (Simulation time: 00 hr 21 min 40 sec)
Heartbeat CPU 0 instructions: 152500893 cycles: 133038432 heartbeat IPC: 1.409 cumulative IPC: 0.8431 (Simulation time: 00 hr 21 min 45 sec)
Heartbeat CPU 0 instructions: 153000893 cycles: 133508192 heartbeat IPC: 1.064 cumulative IPC: 0.8439 (Simulation time: 00 hr 21 min 50 sec)
Heartbeat CPU 0 instructions: 153500894 cycles: 134041044 heartbeat IPC: 0.9383 cumulative IPC: 0.8443 (Simulation time: 00 hr 21 min 55 sec)
Heartbeat CPU 0 instructions: 154000894 cycles: 134340102 heartbeat IPC: 1.672 cumulative IPC: 0.8463 (Simulation time: 00 hr 21 min 59 sec)
Heartbeat CPU 0 instructions: 154500900 cycles: 134639280 heartbeat IPC: 1.671 cumulative IPC: 0.8483 (Simulation time: 00 hr 22 min 02 sec)
Heartbeat CPU 0 instructions: 155000902 cycles: 134926304 heartbeat IPC: 1.742 cumulative IPC: 0.8504 (Simulation time: 00 hr 22 min 05 sec)
Heartbeat CPU 0 instructions: 155500905 cycles: 135268345 heartbeat IPC: 1.462 cumulative IPC: 0.8521 (Simulation time: 00 hr 22 min 09 sec)
Heartbeat CPU 0 instructions: 156000907 cycles: 135587114 heartbeat IPC: 1.569 cumulative IPC: 0.8539 (Simulation time: 00 hr 22 min 12 sec)
Heartbeat CPU 0 instructions: 156500913 cycles: 135929770 heartbeat IPC: 1.459 cumulative IPC: 0.8556 (Simulation time: 00 hr 22 min 16 sec)
Heartbeat CPU 0 instructions: 157000914 cycles: 136253424 heartbeat IPC: 1.545 cumulative IPC: 0.8574 (Simulation time: 00 hr 22 min 20 sec)
Heartbeat CPU 0 instructions: 157500915 cycles: 136556379 heartbeat IPC: 1.65 cumulative IPC: 0.8593 (Simulation time: 00 hr 22 min 23 sec)
Heartbeat CPU 0 instructions: 158000922 cycles: 136799737 heartbeat IPC: 2.055 cumulative IPC: 0.8616 (Simulation time: 00 hr 22 min 26 sec)
Heartbeat CPU 0 instructions: 158500922 cycles: 137484764 heartbeat IPC: 0.7299 cumulative IPC: 0.8609 (Simulation time: 00 hr 22 min 32 sec)
Heartbeat CPU 0 instructions: 159000922 cycles: 138168171 heartbeat IPC: 0.7316 cumulative IPC: 0.8602 (Simulation time: 00 hr 22 min 38 sec)
Heartbeat CPU 0 instructions: 159500926 cycles: 139628456 heartbeat IPC: 0.3424 cumulative IPC: 0.8543 (Simulation time: 00 hr 22 min 49 sec)
Heartbeat CPU 0 instructions: 160000927 cycles: 139975263 heartbeat IPC: 1.442 cumulative IPC: 0.8559 (Simulation time: 00 hr 22 min 53 sec)
Heartbeat CPU 0 instructions: 160500928 cycles: 140248816 heartbeat IPC: 1.828 cumulative IPC: 0.858 (Simulation time: 00 hr 22 min 56 sec)
Heartbeat CPU 0 instructions: 161000933 cycles: 140480206 heartbeat IPC: 2.161 cumulative IPC: 0.8603 (Simulation time: 00 hr 22 min 59 sec)
Heartbeat CPU 0 instructions: 161500934 cycles: 140761904 heartbeat IPC: 1.775 cumulative IPC: 0.8623 (Simulation time: 00 hr 23 min 02 sec)
Heartbeat CPU 0 instructions: 162000939 cycles: 140964769 heartbeat IPC: 2.465 cumulative IPC: 0.8648 (Simulation time: 00 hr 23 min 05 sec)
Heartbeat CPU 0 instructions: 162500944 cycles: 141132719 heartbeat IPC: 2.977 cumulative IPC: 0.8676 (Simulation time: 00 hr 23 min 07 sec)
Heartbeat CPU 0 instructions: 163000945 cycles: 141431427 heartbeat IPC: 1.674 cumulative IPC: 0.8694 (Simulation time: 00 hr 23 min 10 sec)
Heartbeat CPU 0 instructions: 163500947 cycles: 142268708 heartbeat IPC: 0.5972 cumulative IPC: 0.8677 (Simulation time: 00 hr 23 min 17 sec)
Heartbeat CPU 0 instructions: 164000947 cycles: 143804451 heartbeat IPC: 0.3256 cumulative IPC: 0.8614 (Simulation time: 00 hr 23 min 28 sec)
Heartbeat CPU 0 instructions: 164500947 cycles: 144942965 heartbeat IPC: 0.4392 cumulative IPC: 0.8578 (Simulation time: 00 hr 23 min 36 sec)
Heartbeat CPU 0 instructions: 165000949 cycles: 146416751 heartbeat IPC: 0.3393 cumulative IPC: 0.8521 (Simulation time: 00 hr 23 min 48 sec)
Heartbeat CPU 0 instructions: 165500949 cycles: 147599620 heartbeat IPC: 0.4227 cumulative IPC: 0.8484 (Simulation time: 00 hr 23 min 56 sec)
Heartbeat CPU 0 instructions: 166000950 cycles: 147980928 heartbeat IPC: 1.311 cumulative IPC: 0.8497 (Simulation time: 00 hr 24 min 00 sec)
Heartbeat CPU 0 instructions: 166500956 cycles: 148349838 heartbeat IPC: 1.355 cumulative IPC: 0.851 (Simulation time: 00 hr 24 min 03 sec)
Heartbeat CPU 0 instructions: 167000962 cycles: 148563974 heartbeat IPC: 2.335 cumulative IPC: 0.8534 (Simulation time: 00 hr 24 min 06 sec)
Heartbeat CPU 0 instructions: 167500968 cycles: 149940449 heartbeat IPC: 0.3633 cumulative IPC: 0.8485 (Simulation time: 00 hr 24 min 17 sec)
Heartbeat CPU 0 instructions: 168000973 cycles: 151589281 heartbeat IPC: 0.3032 cumulative IPC: 0.8421 (Simulation time: 00 hr 24 min 30 sec)
Heartbeat CPU 0 instructions: 168500976 cycles: 152073578 heartbeat IPC: 1.032 cumulative IPC: 0.8427 (Simulation time: 00 hr 24 min 34 sec)
Heartbeat CPU 0 instructions: 169000980 cycles: 152537768 heartbeat IPC: 1.077 cumulative IPC: 0.8435 (Simulation time: 00 hr 24 min 39 sec)
Heartbeat CPU 0 instructions: 169500984 cycles: 153312718 heartbeat IPC: 0.6452 cumulative IPC: 0.8424 (Simulation time: 00 hr 24 min 46 sec)
Heartbeat CPU 0 instructions: 170000985 cycles: 153795193 heartbeat IPC: 1.036 cumulative IPC: 0.8431 (Simulation time: 00 hr 24 min 51 sec)
Heartbeat CPU 0 instructions: 170500985 cycles: 154265212 heartbeat IPC: 1.064 cumulative IPC: 0.8438 (Simulation time: 00 hr 24 min 56 sec)
Heartbeat CPU 0 instructions: 171000988 cycles: 154741961 heartbeat IPC: 1.049 cumulative IPC: 0.8445 (Simulation time: 00 hr 25 min 01 sec)
Heartbeat CPU 0 instructions: 171500989 cycles: 155200943 heartbeat IPC: 1.089 cumulative IPC: 0.8453 (Simulation time: 00 hr 25 min 06 sec)
Heartbeat CPU 0 instructions: 172000989 cycles: 155716643 heartbeat IPC: 0.9696 cumulative IPC: 0.8457 (Simulation time: 00 hr 25 min 11 sec)
Heartbeat CPU 0 instructions: 172500991 cycles: 156181533 heartbeat IPC: 1.076 cumulative IPC: 0.8464 (Simulation time: 00 hr 25 min 16 sec)
Heartbeat CPU 0 instructions: 173000997 cycles: 156677992 heartbeat IPC: 1.007 cumulative IPC: 0.847 (Simulation time: 00 hr 25 min 22 sec)
Heartbeat CPU 0 instructions: 173500999 cycles: 157784668 heartbeat IPC: 0.4518 cumulative IPC: 0.844 (Simulation time: 00 hr 25 min 32 sec)
Heartbeat CPU 0 instructions: 174001004 cycles: 158492564 heartbeat IPC: 0.7063 cumulative IPC: 0.8433 (Simulation time: 00 hr 25 min 37 sec)
Heartbeat CPU 0 instructions: 174501004 cycles: 158882492 heartbeat IPC: 1.282 cumulative IPC: 0.8445 (Simulation time: 00 hr 25 min 41 sec)
Heartbeat CPU 0 instructions: 175001007 cycles: 159232330 heartbeat IPC: 1.429 cumulative IPC: 0.8459 (Simulation time: 00 hr 25 min 45 sec)
Heartbeat CPU 0 instructions: 175501011 cycles: 159574352 heartbeat IPC: 1.462 cumulative IPC: 0.8473 (Simulation time: 00 hr 25 min 49 sec)
Heartbeat CPU 0 instructions: 176001012 cycles: 160703188 heartbeat IPC: 0.4429 cumulative IPC: 0.8442 (Simulation time: 00 hr 25 min 58 sec)
Heartbeat CPU 0 instructions: 176501015 cycles: 161228445 heartbeat IPC: 0.9519 cumulative IPC: 0.8446 (Simulation time: 00 hr 26 min 02 sec)
Heartbeat CPU 0 instructions: 177001021 cycles: 161637099 heartbeat IPC: 1.224 cumulative IPC: 0.8457 (Simulation time: 00 hr 26 min 06 sec)
Heartbeat CPU 0 instructions: 177501025 cycles: 162403966 heartbeat IPC: 0.652 cumulative IPC: 0.8447 (Simulation time: 00 hr 26 min 12 sec)
Heartbeat CPU 0 instructions: 178001028 cycles: 162959615 heartbeat IPC: 0.8999 cumulative IPC: 0.8449 (Simulation time: 00 hr 26 min 17 sec)
Heartbeat CPU 0 instructions: 178501031 cycles: 163550361 heartbeat IPC: 0.8464 cumulative IPC: 0.8449 (Simulation time: 00 hr 26 min 21 sec)
Heartbeat CPU 0 instructions: 179001031 cycles: 165344894 heartbeat IPC: 0.2786 cumulative IPC: 0.8383 (Simulation time: 00 hr 26 min 33 sec)
Heartbeat CPU 0 instructions: 179501031 cycles: 167515733 heartbeat IPC: 0.2303 cumulative IPC: 0.8298 (Simulation time: 00 hr 26 min 50 sec)
Heartbeat CPU 0 instructions: 180001037 cycles: 168225774 heartbeat IPC: 0.7042 cumulative IPC: 0.8292 (Simulation time: 00 hr 26 min 56 sec)
Heartbeat CPU 0 instructions: 180501038 cycles: 168856329 heartbeat IPC: 0.793 cumulative IPC: 0.8291 (Simulation time: 00 hr 27 min 03 sec)
Heartbeat CPU 0 instructions: 181001040 cycles: 169536858 heartbeat IPC: 0.7347 cumulative IPC: 0.8287 (Simulation time: 00 hr 27 min 10 sec)
Heartbeat CPU 0 instructions: 181501044 cycles: 170183322 heartbeat IPC: 0.7734 cumulative IPC: 0.8285 (Simulation time: 00 hr 27 min 16 sec)
Heartbeat CPU 0 instructions: 182001045 cycles: 170869871 heartbeat IPC: 0.7283 cumulative IPC: 0.828 (Simulation time: 00 hr 27 min 23 sec)
Heartbeat CPU 0 instructions: 182501052 cycles: 171561217 heartbeat IPC: 0.7232 cumulative IPC: 0.8276 (Simulation time: 00 hr 27 min 31 sec)
Heartbeat CPU 0 instructions: 183001054 cycles: 172206601 heartbeat IPC: 0.7747 cumulative IPC: 0.8274 (Simulation time: 00 hr 27 min 37 sec)
Heartbeat CPU 0 instructions: 183501054 cycles: 172859297 heartbeat IPC: 0.7661 cumulative IPC: 0.8271 (Simulation time: 00 hr 27 min 44 sec)
Heartbeat CPU 0 instructions: 184001060 cycles: 173511112 heartbeat IPC: 0.7671 cumulative IPC: 0.8269 (Simulation time: 00 hr 27 min 51 sec)
Heartbeat CPU 0 instructions: 184501060 cycles: 174113732 heartbeat IPC: 0.8297 cumulative IPC: 0.8269 (Simulation time: 00 hr 27 min 58 sec)
Heartbeat CPU 0 instructions: 185001060 cycles: 174927790 heartbeat IPC: 0.6142 cumulative IPC: 0.8258 (Simulation time: 00 hr 28 min 06 sec)
Heartbeat CPU 0 instructions: 185501060 cycles: 175523230 heartbeat IPC: 0.8397 cumulative IPC: 0.8259 (Simulation time: 00 hr 28 min 11 sec)
Heartbeat CPU 0 instructions: 186001061 cycles: 176030695 heartbeat IPC: 0.9853 cumulative IPC: 0.8264 (Simulation time: 00 hr 28 min 16 sec)
Heartbeat CPU 0 instructions: 186501064 cycles: 176479196 heartbeat IPC: 1.115 cumulative IPC: 0.8272 (Simulation time: 00 hr 28 min 21 sec)
Heartbeat CPU 0 instructions: 187001064 cycles: 176908877 heartbeat IPC: 1.164 cumulative IPC: 0.828 (Simulation time: 00 hr 28 min 25 sec)
Heartbeat CPU 0 instructions: 187501064 cycles: 177336889 heartbeat IPC: 1.168 cumulative IPC: 0.8289 (Simulation time: 00 hr 28 min 29 sec)
Heartbeat CPU 0 instructions: 188001064 cycles: 177784122 heartbeat IPC: 1.118 cumulative IPC: 0.8297 (Simulation time: 00 hr 28 min 34 sec)
Heartbeat CPU 0 instructions: 188501071 cycles: 178204426 heartbeat IPC: 1.19 cumulative IPC: 0.8306 (Simulation time: 00 hr 28 min 38 sec)
Heartbeat CPU 0 instructions: 189001077 cycles: 178632884 heartbeat IPC: 1.167 cumulative IPC: 0.8315 (Simulation time: 00 hr 28 min 42 sec)
Heartbeat CPU 0 instructions: 189501081 cycles: 179745758 heartbeat IPC: 0.4493 cumulative IPC: 0.8289 (Simulation time: 00 hr 28 min 50 sec)
Heartbeat CPU 0 instructions: 190001082 cycles: 180358986 heartbeat IPC: 0.8154 cumulative IPC: 0.8289 (Simulation time: 00 hr 28 min 55 sec)
Heartbeat CPU 0 instructions: 190501087 cycles: 180937523 heartbeat IPC: 0.8643 cumulative IPC: 0.829 (Simulation time: 00 hr 29 min 00 sec)
Heartbeat CPU 0 instructions: 191001091 cycles: 181441720 heartbeat IPC: 0.9917 cumulative IPC: 0.8295 (Simulation time: 00 hr 29 min 05 sec)
Heartbeat CPU 0 instructions: 191501095 cycles: 181940095 heartbeat IPC: 1.003 cumulative IPC: 0.83 (Simulation time: 00 hr 29 min 10 sec)
Heartbeat CPU 0 instructions: 192001100 cycles: 182518241 heartbeat IPC: 0.8648 cumulative IPC: 0.8301 (Simulation time: 00 hr 29 min 15 sec)
Heartbeat CPU 0 instructions: 192501103 cycles: 183074369 heartbeat IPC: 0.8991 cumulative IPC: 0.8303 (Simulation time: 00 hr 29 min 20 sec)
Heartbeat CPU 0 instructions: 193001104 cycles: 183627367 heartbeat IPC: 0.9042 cumulative IPC: 0.8306 (Simulation time: 00 hr 29 min 25 sec)
Heartbeat CPU 0 instructions: 193501105 cycles: 184690456 heartbeat IPC: 0.4703 cumulative IPC: 0.8284 (Simulation time: 00 hr 29 min 32 sec)
Heartbeat CPU 0 instructions: 194001108 cycles: 185819000 heartbeat IPC: 0.4431 cumulative IPC: 0.8259 (Simulation time: 00 hr 29 min 40 sec)
Heartbeat CPU 0 instructions: 194501113 cycles: 186116759 heartbeat IPC: 1.679 cumulative IPC: 0.8273 (Simulation time: 00 hr 29 min 43 sec)
Heartbeat CPU 0 instructions: 195001114 cycles: 186394094 heartbeat IPC: 1.803 cumulative IPC: 0.8289 (Simulation time: 00 hr 29 min 46 sec)
Heartbeat CPU 0 instructions: 195501119 cycles: 186685553 heartbeat IPC: 1.716 cumulative IPC: 0.8303 (Simulation time: 00 hr 29 min 50 sec)
Heartbeat CPU 0 instructions: 196001119 cycles: 187506709 heartbeat IPC: 0.6089 cumulative IPC: 0.8293 (Simulation time: 00 hr 29 min 56 sec)
Heartbeat CPU 0 instructions: 196501121 cycles: 187792405 heartbeat IPC: 1.75 cumulative IPC: 0.8308 (Simulation time: 00 hr 29 min 59 sec)
Heartbeat CPU 0 instructions: 197001127 cycles: 188069003 heartbeat IPC: 1.808 cumulative IPC: 0.8323 (Simulation time: 00 hr 30 min 02 sec)
Heartbeat CPU 0 instructions: 197501128 cycles: 188352789 heartbeat IPC: 1.762 cumulative IPC: 0.8338 (Simulation time: 00 hr 30 min 05 sec)
Heartbeat CPU 0 instructions: 198001135 cycles: 188633704 heartbeat IPC: 1.78 cumulative IPC: 0.8353 (Simulation time: 00 hr 30 min 09 sec)
Heartbeat CPU 0 instructions: 198501136 cycles: 188922276 heartbeat IPC: 1.733 cumulative IPC: 0.8368 (Simulation time: 00 hr 30 min 12 sec)
Heartbeat CPU 0 instructions: 199001137 cycles: 189213020 heartbeat IPC: 1.72 cumulative IPC: 0.8382 (Simulation time: 00 hr 30 min 15 sec)
Heartbeat CPU 0 instructions: 199501137 cycles: 189496708 heartbeat IPC: 1.762 cumulative IPC: 0.8397 (Simulation time: 00 hr 30 min 18 sec)
Heartbeat CPU 0 instructions: 200001137 cycles: 189771283 heartbeat IPC: 1.821 cumulative IPC: 0.8412 (Simulation time: 00 hr 30 min 21 sec)
Heartbeat CPU 0 instructions: 200501139 cycles: 190040684 heartbeat IPC: 1.856 cumulative IPC: 0.8427 (Simulation time: 00 hr 30 min 24 sec)
Heartbeat CPU 0 instructions: 201001139 cycles: 190308083 heartbeat IPC: 1.87 cumulative IPC: 0.8443 (Simulation time: 00 hr 30 min 28 sec)
Heartbeat CPU 0 instructions: 201501140 cycles: 190594730 heartbeat IPC: 1.744 cumulative IPC: 0.8457 (Simulation time: 00 hr 30 min 31 sec)
Heartbeat CPU 0 instructions: 202001141 cycles: 190870551 heartbeat IPC: 1.813 cumulative IPC: 0.8472 (Simulation time: 00 hr 30 min 34 sec)
Heartbeat CPU 0 instructions: 202501141 cycles: 191152319 heartbeat IPC: 1.775 cumulative IPC: 0.8487 (Simulation time: 00 hr 30 min 37 sec)
Heartbeat CPU 0 instructions: 203001142 cycles: 191417106 heartbeat IPC: 1.888 cumulative IPC: 0.8502 (Simulation time: 00 hr 30 min 40 sec)
Heartbeat CPU 0 instructions: 203501142 cycles: 191701116 heartbeat IPC: 1.761 cumulative IPC: 0.8516 (Simulation time: 00 hr 30 min 43 sec)
Heartbeat CPU 0 instructions: 204001146 cycles: 191964296 heartbeat IPC: 1.9 cumulative IPC: 0.8532 (Simulation time: 00 hr 30 min 46 sec)
Heartbeat CPU 0 instructions: 204501148 cycles: 192226821 heartbeat IPC: 1.905 cumulative IPC: 0.8547 (Simulation time: 00 hr 30 min 49 sec)
Heartbeat CPU 0 instructions: 205001149 cycles: 193659048 heartbeat IPC: 0.3491 cumulative IPC: 0.8507 (Simulation time: 00 hr 30 min 58 sec)
Heartbeat CPU 0 instructions: 205501153 cycles: 194436525 heartbeat IPC: 0.6431 cumulative IPC: 0.8498 (Simulation time: 00 hr 31 min 04 sec)
Heartbeat CPU 0 instructions: 206001153 cycles: 194870718 heartbeat IPC: 1.152 cumulative IPC: 0.8505 (Simulation time: 00 hr 31 min 07 sec)
Heartbeat CPU 0 instructions: 206501154 cycles: 196384123 heartbeat IPC: 0.3304 cumulative IPC: 0.8463 (Simulation time: 00 hr 31 min 16 sec)
Heartbeat CPU 0 instructions: 207001156 cycles: 196930862 heartbeat IPC: 0.9145 cumulative IPC: 0.8465 (Simulation time: 00 hr 31 min 20 sec)
Heartbeat CPU 0 instructions: 207501160 cycles: 197261439 heartbeat IPC: 1.513 cumulative IPC: 0.8477 (Simulation time: 00 hr 31 min 24 sec)
Heartbeat CPU 0 instructions: 208001162 cycles: 197543439 heartbeat IPC: 1.773 cumulative IPC: 0.8491 (Simulation time: 00 hr 31 min 27 sec)
Heartbeat CPU 0 instructions: 208501162 cycles: 197861679 heartbeat IPC: 1.571 cumulative IPC: 0.8503 (Simulation time: 00 hr 31 min 30 sec)
Heartbeat CPU 0 instructions: 209001162 cycles: 198141261 heartbeat IPC: 1.788 cumulative IPC: 0.8517 (Simulation time: 00 hr 31 min 33 sec)
Heartbeat CPU 0 instructions: 209501167 cycles: 198411557 heartbeat IPC: 1.85 cumulative IPC: 0.8532 (Simulation time: 00 hr 31 min 36 sec)
Heartbeat CPU 0 instructions: 210001167 cycles: 198680812 heartbeat IPC: 1.857 cumulative IPC: 0.8546 (Simulation time: 00 hr 31 min 39 sec)
Heartbeat CPU 0 instructions: 210501169 cycles: 198964164 heartbeat IPC: 1.765 cumulative IPC: 0.856 (Simulation time: 00 hr 31 min 43 sec)
Heartbeat CPU 0 instructions: 211001175 cycles: 199265067 heartbeat IPC: 1.662 cumulative IPC: 0.8573 (Simulation time: 00 hr 31 min 46 sec)
Heartbeat CPU 0 instructions: 211501175 cycles: 199540849 heartbeat IPC: 1.813 cumulative IPC: 0.8587 (Simulation time: 00 hr 31 min 49 sec)
Heartbeat CPU 0 instructions: 212001175 cycles: 199814667 heartbeat IPC: 1.826 cumulative IPC: 0.8601 (Simulation time: 00 hr 31 min 52 sec)
Heartbeat CPU 0 instructions: 212501175 cycles: 200091165 heartbeat IPC: 1.808 cumulative IPC: 0.8615 (Simulation time: 00 hr 31 min 55 sec)
Heartbeat CPU 0 instructions: 213001178 cycles: 200362625 heartbeat IPC: 1.842 cumulative IPC: 0.8629 (Simulation time: 00 hr 31 min 58 sec)
Heartbeat CPU 0 instructions: 213501180 cycles: 200644247 heartbeat IPC: 1.775 cumulative IPC: 0.8642 (Simulation time: 00 hr 32 min 01 sec)
Heartbeat CPU 0 instructions: 214001181 cycles: 200904924 heartbeat IPC: 1.918 cumulative IPC: 0.8657 (Simulation time: 00 hr 32 min 04 sec)
Heartbeat CPU 0 instructions: 214501181 cycles: 201180720 heartbeat IPC: 1.813 cumulative IPC: 0.8671 (Simulation time: 00 hr 32 min 07 sec)
Heartbeat CPU 0 instructions: 215001181 cycles: 201467487 heartbeat IPC: 1.744 cumulative IPC: 0.8684 (Simulation time: 00 hr 32 min 11 sec)
Heartbeat CPU 0 instructions: 215501181 cycles: 201764347 heartbeat IPC: 1.684 cumulative IPC: 0.8696 (Simulation time: 00 hr 32 min 14 sec)
Heartbeat CPU 0 instructions: 216001182 cycles: 202038848 heartbeat IPC: 1.821 cumulative IPC: 0.871 (Simulation time: 00 hr 32 min 17 sec)
Heartbeat CPU 0 instructions: 216501184 cycles: 202315062 heartbeat IPC: 1.81 cumulative IPC: 0.8724 (Simulation time: 00 hr 32 min 20 sec)
Heartbeat CPU 0 instructions: 217001186 cycles: 202588254 heartbeat IPC: 1.83 cumulative IPC: 0.8737 (Simulation time: 00 hr 32 min 23 sec)
Heartbeat CPU 0 instructions: 217501186 cycles: 202852740 heartbeat IPC: 1.89 cumulative IPC: 0.8752 (Simulation time: 00 hr 32 min 26 sec)
Heartbeat CPU 0 instructions: 218001186 cycles: 203121583 heartbeat IPC: 1.86 cumulative IPC: 0.8765 (Simulation time: 00 hr 32 min 29 sec)
Heartbeat CPU 0 instructions: 218501188 cycles: 204301049 heartbeat IPC: 0.4239 cumulative IPC: 0.8738 (Simulation time: 00 hr 32 min 37 sec)
Heartbeat CPU 0 instructions: 219001190 cycles: 205862261 heartbeat IPC: 0.3203 cumulative IPC: 0.8693 (Simulation time: 00 hr 32 min 46 sec)
Heartbeat CPU 0 instructions: 219501192 cycles: 206355770 heartbeat IPC: 1.013 cumulative IPC: 0.8697 (Simulation time: 00 hr 32 min 51 sec)
Heartbeat CPU 0 instructions: 220001198 cycles: 206645280 heartbeat IPC: 1.727 cumulative IPC: 0.871 (Simulation time: 00 hr 32 min 54 sec)
Heartbeat CPU 0 instructions: 220501201 cycles: 206924569 heartbeat IPC: 1.79 cumulative IPC: 0.8723 (Simulation time: 00 hr 32 min 57 sec)
Heartbeat CPU 0 instructions: 221001206 cycles: 207204920 heartbeat IPC: 1.783 cumulative IPC: 0.8736 (Simulation time: 00 hr 33 min 00 sec)
Heartbeat CPU 0 instructions: 221501212 cycles: 207475712 heartbeat IPC: 1.846 cumulative IPC: 0.8749 (Simulation time: 00 hr 33 min 03 sec)
Heartbeat CPU 0 instructions: 222001215 cycles: 207747243 heartbeat IPC: 1.841 cumulative IPC: 0.8763 (Simulation time: 00 hr 33 min 06 sec)
Heartbeat CPU 0 instructions: 222501215 cycles: 208019744 heartbeat IPC: 1.835 cumulative IPC: 0.8776 (Simulation time: 00 hr 33 min 09 sec)
Heartbeat CPU 0 instructions: 223001219 cycles: 208306955 heartbeat IPC: 1.741 cumulative IPC: 0.8788 (Simulation time: 00 hr 33 min 12 sec)
Heartbeat CPU 0 instructions: 223501219 cycles: 208573314 heartbeat IPC: 1.877 cumulative IPC: 0.8802 (Simulation time: 00 hr 33 min 15 sec)
Heartbeat CPU 0 instructions: 224001222 cycles: 208838184 heartbeat IPC: 1.888 cumulative IPC: 0.8815 (Simulation time: 00 hr 33 min 18 sec)
Heartbeat CPU 0 instructions: 224501222 cycles: 209112242 heartbeat IPC: 1.824 cumulative IPC: 0.8829 (Simulation time: 00 hr 33 min 21 sec)
Heartbeat CPU 0 instructions: 225001224 cycles: 209389917 heartbeat IPC: 1.801 cumulative IPC: 0.8841 (Simulation time: 00 hr 33 min 24 sec)
Heartbeat CPU 0 instructions: 225501224 cycles: 209665811 heartbeat IPC: 1.812 cumulative IPC: 0.8854 (Simulation time: 00 hr 33 min 27 sec)
Heartbeat CPU 0 instructions: 226001224 cycles: 209949387 heartbeat IPC: 1.763 cumulative IPC: 0.8867 (Simulation time: 00 hr 33 min 30 sec)
Heartbeat CPU 0 instructions: 226501226 cycles: 210226755 heartbeat IPC: 1.803 cumulative IPC: 0.888 (Simulation time: 00 hr 33 min 33 sec)
Heartbeat CPU 0 instructions: 227001230 cycles: 210497054 heartbeat IPC: 1.85 cumulative IPC: 0.8893 (Simulation time: 00 hr 33 min 36 sec)
Heartbeat CPU 0 instructions: 227501232 cycles: 210783039 heartbeat IPC: 1.748 cumulative IPC: 0.8905 (Simulation time: 00 hr 33 min 39 sec)
Heartbeat CPU 0 instructions: 228001237 cycles: 211055293 heartbeat IPC: 1.837 cumulative IPC: 0.8918 (Simulation time: 00 hr 33 min 42 sec)
Heartbeat CPU 0 instructions: 228501238 cycles: 211343307 heartbeat IPC: 1.736 cumulative IPC: 0.893 (Simulation time: 00 hr 33 min 46 sec)
Heartbeat CPU 0 instructions: 229001238 cycles: 211625955 heartbeat IPC: 1.769 cumulative IPC: 0.8942 (Simulation time: 00 hr 33 min 49 sec)
Heartbeat CPU 0 instructions: 229501245 cycles: 212160432 heartbeat IPC: 0.9355 cumulative IPC: 0.8944 (Simulation time: 00 hr 33 min 53 sec)
Heartbeat CPU 0 instructions: 230001247 cycles: 212448186 heartbeat IPC: 1.738 cumulative IPC: 0.8956 (Simulation time: 00 hr 33 min 56 sec)
Heartbeat CPU 0 instructions: 230501248 cycles: 212718699 heartbeat IPC: 1.848 cumulative IPC: 0.8968 (Simulation time: 00 hr 33 min 59 sec)
Heartbeat CPU 0 instructions: 231001249 cycles: 213001461 heartbeat IPC: 1.768 cumulative IPC: 0.8981 (Simulation time: 00 hr 34 min 02 sec)
Heartbeat CPU 0 instructions: 231501250 cycles: 213269072 heartbeat IPC: 1.868 cumulative IPC: 0.8994 (Simulation time: 00 hr 34 min 05 sec)
Heartbeat CPU 0 instructions: 232001250 cycles: 213534433 heartbeat IPC: 1.884 cumulative IPC: 0.9006 (Simulation time: 00 hr 34 min 08 sec)
Heartbeat CPU 0 instructions: 232501252 cycles: 213805475 heartbeat IPC: 1.845 cumulative IPC: 0.9019 (Simulation time: 00 hr 34 min 11 sec)
Heartbeat CPU 0 instructions: 233001257 cycles: 214074446 heartbeat IPC: 1.859 cumulative IPC: 0.9032 (Simulation time: 00 hr 34 min 14 sec)
Heartbeat CPU 0 instructions: 233501257 cycles: 214352363 heartbeat IPC: 1.799 cumulative IPC: 0.9044 (Simulation time: 00 hr 34 min 17 sec)
Heartbeat CPU 0 instructions: 234001259 cycles: 214616320 heartbeat IPC: 1.894 cumulative IPC: 0.9057 (Simulation time: 00 hr 34 min 20 sec)
Heartbeat CPU 0 instructions: 234501260 cycles: 214922196 heartbeat IPC: 1.635 cumulative IPC: 0.9068 (Simulation time: 00 hr 34 min 24 sec)
Heartbeat CPU 0 instructions: 235001264 cycles: 215187375 heartbeat IPC: 1.886 cumulative IPC: 0.9081 (Simulation time: 00 hr 34 min 27 sec)
Heartbeat CPU 0 instructions: 235501269 cycles: 215460361 heartbeat IPC: 1.832 cumulative IPC: 0.9093 (Simulation time: 00 hr 34 min 30 sec)
Heartbeat CPU 0 instructions: 236001270 cycles: 215732362 heartbeat IPC: 1.838 cumulative IPC: 0.9105 (Simulation time: 00 hr 34 min 32 sec)
Heartbeat CPU 0 instructions: 236501273 cycles: 215993720 heartbeat IPC: 1.913 cumulative IPC: 0.9118 (Simulation time: 00 hr 34 min 35 sec)
Heartbeat CPU 0 instructions: 237001279 cycles: 216270401 heartbeat IPC: 1.807 cumulative IPC: 0.913 (Simulation time: 00 hr 34 min 38 sec)
Heartbeat CPU 0 instructions: 237501279 cycles: 216556108 heartbeat IPC: 1.75 cumulative IPC: 0.9142 (Simulation time: 00 hr 34 min 42 sec)
Heartbeat CPU 0 instructions: 238001279 cycles: 216843191 heartbeat IPC: 1.742 cumulative IPC: 0.9154 (Simulation time: 00 hr 34 min 45 sec)
Heartbeat CPU 0 instructions: 238501281 cycles: 217105838 heartbeat IPC: 1.904 cumulative IPC: 0.9166 (Simulation time: 00 hr 34 min 48 sec)
Heartbeat CPU 0 instructions: 239001284 cycles: 217389786 heartbeat IPC: 1.761 cumulative IPC: 0.9178 (Simulation time: 00 hr 34 min 51 sec)
Heartbeat CPU 0 instructions: 239501291 cycles: 219031532 heartbeat IPC: 0.3046 cumulative IPC: 0.9129 (Simulation time: 00 hr 35 min 01 sec)
Heartbeat CPU 0 instructions: 240001292 cycles: 220721016 heartbeat IPC: 0.2959 cumulative IPC: 0.9079 (Simulation time: 00 hr 35 min 11 sec)
Heartbeat CPU 0 instructions: 240501293 cycles: 221322710 heartbeat IPC: 0.831 cumulative IPC: 0.9077 (Simulation time: 00 hr 35 min 16 sec)
Heartbeat CPU 0 instructions: 241001293 cycles: 222235725 heartbeat IPC: 0.5476 cumulative IPC: 0.9062 (Simulation time: 00 hr 35 min 22 sec)
Heartbeat CPU 0 instructions: 241501293 cycles: 223301013 heartbeat IPC: 0.4694 cumulative IPC: 0.904 (Simulation time: 00 hr 35 min 30 sec)
Heartbeat CPU 0 instructions: 242001293 cycles: 224902887 heartbeat IPC: 0.3121 cumulative IPC: 0.8995 (Simulation time: 00 hr 35 min 39 sec)
Heartbeat CPU 0 instructions: 242501293 cycles: 226066329 heartbeat IPC: 0.4298 cumulative IPC: 0.897 (Simulation time: 00 hr 35 min 47 sec)
Heartbeat CPU 0 instructions: 243001296 cycles: 226347931 heartbeat IPC: 1.776 cumulative IPC: 0.8981 (Simulation time: 00 hr 35 min 50 sec)
Heartbeat CPU 0 instructions: 243501301 cycles: 226639210 heartbeat IPC: 1.717 cumulative IPC: 0.8992 (Simulation time: 00 hr 35 min 53 sec)
Heartbeat CPU 0 instructions: 244001303 cycles: 226943989 heartbeat IPC: 1.641 cumulative IPC: 0.9003 (Simulation time: 00 hr 35 min 56 sec)
Heartbeat CPU 0 instructions: 244501310 cycles: 227243907 heartbeat IPC: 1.667 cumulative IPC: 0.9014 (Simulation time: 00 hr 36 min 00 sec)
Heartbeat CPU 0 instructions: 245001313 cycles: 227533701 heartbeat IPC: 1.725 cumulative IPC: 0.9025 (Simulation time: 00 hr 36 min 03 sec)
Heartbeat CPU 0 instructions: 245501317 cycles: 227819748 heartbeat IPC: 1.748 cumulative IPC: 0.9036 (Simulation time: 00 hr 36 min 06 sec)
Heartbeat CPU 0 instructions: 246001321 cycles: 228097574 heartbeat IPC: 1.8 cumulative IPC: 0.9047 (Simulation time: 00 hr 36 min 09 sec)
Heartbeat CPU 0 instructions: 246501328 cycles: 228748667 heartbeat IPC: 0.768 cumulative IPC: 0.9043 (Simulation time: 00 hr 36 min 14 sec)
Heartbeat CPU 0 instructions: 247001332 cycles: 229526604 heartbeat IPC: 0.6427 cumulative IPC: 0.9034 (Simulation time: 00 hr 36 min 20 sec)
Heartbeat CPU 0 instructions: 247501333 cycles: 230237882 heartbeat IPC: 0.703 cumulative IPC: 0.9027 (Simulation time: 00 hr 36 min 26 sec)
Heartbeat CPU 0 instructions: 248001333 cycles: 230842330 heartbeat IPC: 0.8272 cumulative IPC: 0.9025 (Simulation time: 00 hr 36 min 32 sec)
Heartbeat CPU 0 instructions: 248501337 cycles: 231636110 heartbeat IPC: 0.6299 cumulative IPC: 0.9015 (Simulation time: 00 hr 36 min 38 sec)
Heartbeat CPU 0 instructions: 249001339 cycles: 232493626 heartbeat IPC: 0.5831 cumulative IPC: 0.9003 (Simulation time: 00 hr 36 min 45 sec)
Heartbeat CPU 0 instructions: 249501339 cycles: 233468849 heartbeat IPC: 0.5127 cumulative IPC: 0.8986 (Simulation time: 00 hr 36 min 54 sec)
Simulation finished CPU 0 instructions: 200000004 cycles: 223102899 cumulative IPC: 0.8964 (Simulation time: 00 hr 37 min 04 sec)
Simulation complete CPU 0 instructions: 200000004 cycles: 223102899 cumulative IPC: 0.8964 (Simulation time: 00 hr 37 min 04 sec)

ChampSim completed all CPUs

=== Simulation ===
CPU 0 runs /local-ssd/ben/dpc4-traces/gtraces_v2/charlie_0004.champsim.gz

Region of Interest Statistics

CPU 0 cumulative IPC: 0.8964 instructions: 200000004 cycles: 223102899
CPU 0 Branch Prediction Accuracy: 95.27% MPKI: 8.875 Average ROB Occupancy at Mispredict: 54.63
Branch type MPKI
BRANCH_DIRECT_JUMP: 0.2505
BRANCH_INDIRECT: 0.08095
BRANCH_CONDITIONAL: 7.923
BRANCH_DIRECT_CALL: 0.2287
BRANCH_INDIRECT_CALL: 0.1403
BRANCH_RETURN: 0.2513

cpu0->cpu0_STLB TOTAL        ACCESS:    1755120 HIT:    1521317 MISS:     233803 MSHR_MERGE:          0
cpu0->cpu0_STLB LOAD         ACCESS:    1755120 HIT:    1521317 MISS:     233803 MSHR_MERGE:          0
cpu0->cpu0_STLB RFO          ACCESS:          0 HIT:          0 MISS:          0 MSHR_MERGE:          0
cpu0->cpu0_STLB PREFETCH     ACCESS:          0 HIT:          0 MISS:          0 MSHR_MERGE:          0
cpu0->cpu0_STLB WRITE        ACCESS:          0 HIT:          0 MISS:          0 MSHR_MERGE:          0
cpu0->cpu0_STLB TRANSLATION  ACCESS:          0 HIT:          0 MISS:          0 MSHR_MERGE:          0
cpu0->cpu0_STLB PREFETCH REQUESTED:          0 ISSUED:          0 USEFUL:          0 USELESS:          0
cpu0->cpu0_STLB AVERAGE MISS LATENCY: 215.5 cycles
cpu0->cpu0_L2C TOTAL        ACCESS:    5969988 HIT:    3952959 MISS:    2017029 MSHR_MERGE:     240997
cpu0->cpu0_L2C LOAD         ACCESS:    1995132 HIT:    1373379 MISS:     621753 MSHR_MERGE:      32808
cpu0->cpu0_L2C RFO          ACCESS:     587709 HIT:     160559 MISS:     427150 MSHR_MERGE:       6285
cpu0->cpu0_L2C PREFETCH     ACCESS:    2309720 HIT:    1450927 MISS:     858793 MSHR_MERGE:     201904
cpu0->cpu0_L2C WRITE        ACCESS:     834393 HIT:     834265 MISS:        128 MSHR_MERGE:          0
cpu0->cpu0_L2C TRANSLATION  ACCESS:     243034 HIT:     133829 MISS:     109205 MSHR_MERGE:          0
cpu0->cpu0_L2C PREFETCH REQUESTED:    2400558 ISSUED:    2309720 USEFUL:     247595 USELESS:     407053
cpu0->cpu0_L2C AVERAGE MISS LATENCY: 236.8 cycles
cpu0->cpu0_L1I TOTAL        ACCESS:   19366391 HIT:   18413396 MISS:     952995 MSHR_MERGE:     240085
cpu0->cpu0_L1I LOAD         ACCESS:   19366391 HIT:   18413396 MISS:     952995 MSHR_MERGE:     240085
cpu0->cpu0_L1I RFO          ACCESS:          0 HIT:          0 MISS:          0 MSHR_MERGE:          0
cpu0->cpu0_L1I PREFETCH     ACCESS:          0 HIT:          0 MISS:          0 MSHR_MERGE:          0
cpu0->cpu0_L1I WRITE        ACCESS:          0 HIT:          0 MISS:          0 MSHR_MERGE:          0
cpu0->cpu0_L1I TRANSLATION  ACCESS:          0 HIT:          0 MISS:          0 MSHR_MERGE:          0
cpu0->cpu0_L1I PREFETCH REQUESTED:          0 ISSUED:          0 USEFUL:          0 USELESS:          0
cpu0->cpu0_L1I AVERAGE MISS LATENCY: 74.8 cycles
cpu0->cpu0_L1D TOTAL        ACCESS:   53710669 HIT:   49503346 MISS:    4207323 MSHR_MERGE:    2094326
cpu0->cpu0_L1D LOAD         ACCESS:   30652152 HIT:   28933337 MISS:    1718815 MSHR_MERGE:     436584
cpu0->cpu0_L1D RFO          ACCESS:          0 HIT:          0 MISS:          0 MSHR_MERGE:          0
cpu0->cpu0_L1D PREFETCH     ACCESS:          0 HIT:          0 MISS:          0 MSHR_MERGE:          0
cpu0->cpu0_L1D WRITE        ACCESS:   22436152 HIT:   20195748 MISS:    2240404 MSHR_MERGE:    1652672
cpu0->cpu0_L1D TRANSLATION  ACCESS:     622365 HIT:     374261 MISS:     248104 MSHR_MERGE:       5070
cpu0->cpu0_L1D PREFETCH REQUESTED:          0 ISSUED:          0 USEFUL:          0 USELESS:          0
cpu0->cpu0_L1D AVERAGE MISS LATENCY: 115.8 cycles
cpu0->cpu0_ITLB TOTAL        ACCESS:   15838659 HIT:   15731883 MISS:     106776 MSHR_MERGE:      49157
cpu0->cpu0_ITLB LOAD         ACCESS:   15838659 HIT:   15731883 MISS:     106776 MSHR_MERGE:      49157
cpu0->cpu0_ITLB RFO          ACCESS:          0 HIT:          0 MISS:          0 MSHR_MERGE:          0
cpu0->cpu0_ITLB PREFETCH     ACCESS:          0 HIT:          0 MISS:          0 MSHR_MERGE:          0
cpu0->cpu0_ITLB WRITE        ACCESS:          0 HIT:          0 MISS:          0 MSHR_MERGE:          0
cpu0->cpu0_ITLB TRANSLATION  ACCESS:          0 HIT:          0 MISS:          0 MSHR_MERGE:          0
cpu0->cpu0_ITLB PREFETCH REQUESTED:          0 ISSUED:          0 USEFUL:          0 USELESS:          0
cpu0->cpu0_ITLB AVERAGE MISS LATENCY: 52.21 cycles
cpu0->cpu0_DTLB TOTAL        ACCESS:   50134922 HIT:   47508868 MISS:    2626054 MSHR_MERGE:     928553
cpu0->cpu0_DTLB LOAD         ACCESS:   50134922 HIT:   47508868 MISS:    2626054 MSHR_MERGE:     928553
cpu0->cpu0_DTLB RFO          ACCESS:          0 HIT:          0 MISS:          0 MSHR_MERGE:          0
cpu0->cpu0_DTLB PREFETCH     ACCESS:          0 HIT:          0 MISS:          0 MSHR_MERGE:          0
cpu0->cpu0_DTLB WRITE        ACCESS:          0 HIT:          0 MISS:          0 MSHR_MERGE:          0
cpu0->cpu0_DTLB TRANSLATION  ACCESS:          0 HIT:          0 MISS:          0 MSHR_MERGE:          0
cpu0->cpu0_DTLB PREFETCH REQUESTED:          0 ISSUED:          0 USEFUL:          0 USELESS:          0
cpu0->cpu0_DTLB AVERAGE MISS LATENCY: 33.23 cycles
cpu0->LLC TOTAL        ACCESS:    2858916 HIT:     476661 MISS:    2382255 MSHR_MERGE:      91542
cpu0->LLC LOAD         ACCESS:     588944 HIT:      70761 MISS:     518183 MSHR_MERGE:       3909
cpu0->LLC RFO          ACCESS:     420865 HIT:      15505 MISS:     405360 MSHR_MERGE:        269
cpu0->LLC PREFETCH     ACCESS:    1150006 HIT:     217552 MISS:     932454 MSHR_MERGE:      87364
cpu0->LLC WRITE        ACCESS:     589896 HIT:     169090 MISS:     420806 MSHR_MERGE:          0
cpu0->LLC TRANSLATION  ACCESS:     109205 HIT:       3753 MISS:     105452 MSHR_MERGE:          0
cpu0->LLC PREFETCH REQUESTED:     522034 ISSUED:     493117 USEFUL:     146026 USELESS:     217677
cpu0->LLC AVERAGE MISS LATENCY: 172.1 cycles

DRAM Statistics

Channel 0 RQ ROW_BUFFER_HIT:      70603
  ROW_BUFFER_MISS:    1799236
  AVG DBUS CONGESTED CYCLE: 21.43
Channel 0 WQ ROW_BUFFER_HIT:     128739
  ROW_BUFFER_MISS:     441092
  FULL:       2299
Channel 0 REFRESHES ISSUED:      18591
BERTI Stats...
