[VMEM] WARNING: physical memory size is smaller than virtual memory size.

*** ChampSim Multicore Out-of-Order Simulator ***
Warmup Instructions: 50000000
Simulation Instructions: 200000000
Number of CPUs: 1
Page size: 4096
Core 0: /local-ssd/ben/dpc4-traces/ai-ml/bark.cpp-bark-small.coarse_token_gen.1.champsimtrace.gz
IPCP_AT_L1_CONFIG
NUM_IP_TABLE_L1_ENTRIES 1024
NUM_GHB_ENTRIES 16
NUM_IP_INDEX_BITS 10
NUM_IP_TAG_BITS 6
S_TYPE 1
CS_TYPE 2
CPLX_TYPE 3
NL_TYPE 4

Off-chip DRAM Size: 64 GiB Channels: 1 Width: 64-bit Data Rate: 4807 MT/s
Heartbeat CPU 0 instructions: 500004 cycles: 135985 heartbeat IPC: 3.677 cumulative IPC: 3.677 (Simulation time: 00 hr 00 min 03 sec)
Heartbeat CPU 0 instructions: 1000009 cycles: 276796 heartbeat IPC: 3.551 cumulative IPC: 3.613 (Simulation time: 00 hr 00 min 05 sec)
Heartbeat CPU 0 instructions: 1500012 cycles: 410328 heartbeat IPC: 3.744 cumulative IPC: 3.656 (Simulation time: 00 hr 00 min 07 sec)
Heartbeat CPU 0 instructions: 2000013 cycles: 549037 heartbeat IPC: 3.605 cumulative IPC: 3.643 (Simulation time: 00 hr 00 min 10 sec)
Heartbeat CPU 0 instructions: 2500018 cycles: 695673 heartbeat IPC: 3.41 cumulative IPC: 3.594 (Simulation time: 00 hr 00 min 12 sec)
Heartbeat CPU 0 instructions: 3000021 cycles: 831093 heartbeat IPC: 3.692 cumulative IPC: 3.61 (Simulation time: 00 hr 00 min 15 sec)
Heartbeat CPU 0 instructions: 3500024 cycles: 970974 heartbeat IPC: 3.574 cumulative IPC: 3.605 (Simulation time: 00 hr 00 min 17 sec)
Heartbeat CPU 0 instructions: 4000027 cycles: 1109351 heartbeat IPC: 3.613 cumulative IPC: 3.606 (Simulation time: 00 hr 00 min 20 sec)
Heartbeat CPU 0 instructions: 4500030 cycles: 1248820 heartbeat IPC: 3.585 cumulative IPC: 3.603 (Simulation time: 00 hr 00 min 22 sec)
Heartbeat CPU 0 instructions: 5000035 cycles: 1380594 heartbeat IPC: 3.794 cumulative IPC: 3.622 (Simulation time: 00 hr 00 min 25 sec)
Heartbeat CPU 0 instructions: 5500039 cycles: 1517249 heartbeat IPC: 3.659 cumulative IPC: 3.625 (Simulation time: 00 hr 00 min 27 sec)
Heartbeat CPU 0 instructions: 6000045 cycles: 1651999 heartbeat IPC: 3.711 cumulative IPC: 3.632 (Simulation time: 00 hr 00 min 29 sec)
Heartbeat CPU 0 instructions: 6500051 cycles: 1789834 heartbeat IPC: 3.628 cumulative IPC: 3.632 (Simulation time: 00 hr 00 min 32 sec)
Heartbeat CPU 0 instructions: 7000052 cycles: 1928617 heartbeat IPC: 3.603 cumulative IPC: 3.63 (Simulation time: 00 hr 00 min 34 sec)
Heartbeat CPU 0 instructions: 7500059 cycles: 2061474 heartbeat IPC: 3.763 cumulative IPC: 3.638 (Simulation time: 00 hr 00 min 37 sec)
Heartbeat CPU 0 instructions: 8000061 cycles: 2197724 heartbeat IPC: 3.67 cumulative IPC: 3.64 (Simulation time: 00 hr 00 min 39 sec)
Heartbeat CPU 0 instructions: 8500065 cycles: 2334722 heartbeat IPC: 3.65 cumulative IPC: 3.641 (Simulation time: 00 hr 00 min 42 sec)
Heartbeat CPU 0 instructions: 9000066 cycles: 2469832 heartbeat IPC: 3.701 cumulative IPC: 3.644 (Simulation time: 00 hr 00 min 44 sec)
Heartbeat CPU 0 instructions: 9500066 cycles: 2602595 heartbeat IPC: 3.766 cumulative IPC: 3.65 (Simulation time: 00 hr 00 min 46 sec)
Heartbeat CPU 0 instructions: 10000067 cycles: 2758164 heartbeat IPC: 3.214 cumulative IPC: 3.626 (Simulation time: 00 hr 00 min 49 sec)
Heartbeat CPU 0 instructions: 10500070 cycles: 2897116 heartbeat IPC: 3.598 cumulative IPC: 3.624 (Simulation time: 00 hr 00 min 52 sec)
Heartbeat CPU 0 instructions: 11000072 cycles: 3031028 heartbeat IPC: 3.734 cumulative IPC: 3.629 (Simulation time: 00 hr 00 min 54 sec)
Heartbeat CPU 0 instructions: 11500076 cycles: 3165031 heartbeat IPC: 3.731 cumulative IPC: 3.633 (Simulation time: 00 hr 00 min 56 sec)
Heartbeat CPU 0 instructions: 12000083 cycles: 3304296 heartbeat IPC: 3.59 cumulative IPC: 3.632 (Simulation time: 00 hr 00 min 59 sec)
Heartbeat CPU 0 instructions: 12500089 cycles: 3431563 heartbeat IPC: 3.929 cumulative IPC: 3.643 (Simulation time: 00 hr 01 min 01 sec)
Heartbeat CPU 0 instructions: 13000095 cycles: 3547665 heartbeat IPC: 4.307 cumulative IPC: 3.664 (Simulation time: 00 hr 01 min 03 sec)
Heartbeat CPU 0 instructions: 13500095 cycles: 3664063 heartbeat IPC: 4.296 cumulative IPC: 3.684 (Simulation time: 00 hr 01 min 06 sec)
Heartbeat CPU 0 instructions: 14000098 cycles: 3780213 heartbeat IPC: 4.305 cumulative IPC: 3.704 (Simulation time: 00 hr 01 min 08 sec)
Heartbeat CPU 0 instructions: 14500100 cycles: 3896498 heartbeat IPC: 4.3 cumulative IPC: 3.721 (Simulation time: 00 hr 01 min 10 sec)
Heartbeat CPU 0 instructions: 15000103 cycles: 4013088 heartbeat IPC: 4.289 cumulative IPC: 3.738 (Simulation time: 00 hr 01 min 12 sec)
Heartbeat CPU 0 instructions: 15500108 cycles: 4129208 heartbeat IPC: 4.306 cumulative IPC: 3.754 (Simulation time: 00 hr 01 min 14 sec)
Heartbeat CPU 0 instructions: 16000115 cycles: 4245384 heartbeat IPC: 4.304 cumulative IPC: 3.769 (Simulation time: 00 hr 01 min 16 sec)
Heartbeat CPU 0 instructions: 16500117 cycles: 4361574 heartbeat IPC: 4.303 cumulative IPC: 3.783 (Simulation time: 00 hr 01 min 18 sec)
Heartbeat CPU 0 instructions: 17000122 cycles: 4477840 heartbeat IPC: 4.301 cumulative IPC: 3.797 (Simulation time: 00 hr 01 min 21 sec)
Heartbeat CPU 0 instructions: 17500124 cycles: 4593923 heartbeat IPC: 4.307 cumulative IPC: 3.809 (Simulation time: 00 hr 01 min 23 sec)
Heartbeat CPU 0 instructions: 18000127 cycles: 4710069 heartbeat IPC: 4.305 cumulative IPC: 3.822 (Simulation time: 00 hr 01 min 25 sec)
Heartbeat CPU 0 instructions: 18500129 cycles: 4826215 heartbeat IPC: 4.305 cumulative IPC: 3.833 (Simulation time: 00 hr 01 min 27 sec)
Heartbeat CPU 0 instructions: 19000129 cycles: 4942802 heartbeat IPC: 4.289 cumulative IPC: 3.844 (Simulation time: 00 hr 01 min 29 sec)
Heartbeat CPU 0 instructions: 19500136 cycles: 5067418 heartbeat IPC: 4.012 cumulative IPC: 3.848 (Simulation time: 00 hr 01 min 31 sec)
Heartbeat CPU 0 instructions: 20000142 cycles: 5183647 heartbeat IPC: 4.302 cumulative IPC: 3.858 (Simulation time: 00 hr 01 min 34 sec)
Heartbeat CPU 0 instructions: 20500143 cycles: 5300004 heartbeat IPC: 4.297 cumulative IPC: 3.868 (Simulation time: 00 hr 01 min 36 sec)
Heartbeat CPU 0 instructions: 21000150 cycles: 5416213 heartbeat IPC: 4.303 cumulative IPC: 3.877 (Simulation time: 00 hr 01 min 38 sec)
Heartbeat CPU 0 instructions: 21500155 cycles: 5532523 heartbeat IPC: 4.299 cumulative IPC: 3.886 (Simulation time: 00 hr 01 min 40 sec)
Heartbeat CPU 0 instructions: 22000161 cycles: 5648769 heartbeat IPC: 4.301 cumulative IPC: 3.895 (Simulation time: 00 hr 01 min 42 sec)
Heartbeat CPU 0 instructions: 22500168 cycles: 5764973 heartbeat IPC: 4.303 cumulative IPC: 3.903 (Simulation time: 00 hr 01 min 44 sec)
Heartbeat CPU 0 instructions: 23000170 cycles: 5881358 heartbeat IPC: 4.296 cumulative IPC: 3.911 (Simulation time: 00 hr 01 min 46 sec)
Heartbeat CPU 0 instructions: 23500175 cycles: 5998225 heartbeat IPC: 4.278 cumulative IPC: 3.918 (Simulation time: 00 hr 01 min 49 sec)
Heartbeat CPU 0 instructions: 24000181 cycles: 6114458 heartbeat IPC: 4.302 cumulative IPC: 3.925 (Simulation time: 00 hr 01 min 51 sec)
Heartbeat CPU 0 instructions: 24500187 cycles: 6230662 heartbeat IPC: 4.303 cumulative IPC: 3.932 (Simulation time: 00 hr 01 min 53 sec)
Heartbeat CPU 0 instructions: 25000193 cycles: 6346910 heartbeat IPC: 4.301 cumulative IPC: 3.939 (Simulation time: 00 hr 01 min 55 sec)
Heartbeat CPU 0 instructions: 25500193 cycles: 6463213 heartbeat IPC: 4.299 cumulative IPC: 3.945 (Simulation time: 00 hr 01 min 57 sec)
Heartbeat CPU 0 instructions: 26000196 cycles: 6579457 heartbeat IPC: 4.301 cumulative IPC: 3.952 (Simulation time: 00 hr 01 min 59 sec)
Heartbeat CPU 0 instructions: 26500196 cycles: 6695551 heartbeat IPC: 4.307 cumulative IPC: 3.958 (Simulation time: 00 hr 02 min 02 sec)
Heartbeat CPU 0 instructions: 27000196 cycles: 6811784 heartbeat IPC: 4.302 cumulative IPC: 3.964 (Simulation time: 00 hr 02 min 04 sec)
Heartbeat CPU 0 instructions: 27500202 cycles: 6928554 heartbeat IPC: 4.282 cumulative IPC: 3.969 (Simulation time: 00 hr 02 min 06 sec)
Heartbeat CPU 0 instructions: 28000205 cycles: 7044768 heartbeat IPC: 4.302 cumulative IPC: 3.975 (Simulation time: 00 hr 02 min 08 sec)
Heartbeat CPU 0 instructions: 28500206 cycles: 7160996 heartbeat IPC: 4.302 cumulative IPC: 3.98 (Simulation time: 00 hr 02 min 10 sec)
Heartbeat CPU 0 instructions: 29000207 cycles: 7277361 heartbeat IPC: 4.297 cumulative IPC: 3.985 (Simulation time: 00 hr 02 min 12 sec)
Heartbeat CPU 0 instructions: 29500207 cycles: 7393342 heartbeat IPC: 4.311 cumulative IPC: 3.99 (Simulation time: 00 hr 02 min 14 sec)
Heartbeat CPU 0 instructions: 30000214 cycles: 7509750 heartbeat IPC: 4.295 cumulative IPC: 3.995 (Simulation time: 00 hr 02 min 17 sec)
Heartbeat CPU 0 instructions: 30500218 cycles: 7625872 heartbeat IPC: 4.306 cumulative IPC: 4 (Simulation time: 00 hr 02 min 19 sec)
Heartbeat CPU 0 instructions: 31000221 cycles: 7742218 heartbeat IPC: 4.298 cumulative IPC: 4.004 (Simulation time: 00 hr 02 min 21 sec)
Heartbeat CPU 0 instructions: 31500224 cycles: 7864290 heartbeat IPC: 4.096 cumulative IPC: 4.005 (Simulation time: 00 hr 02 min 23 sec)
Heartbeat CPU 0 instructions: 32000226 cycles: 7980600 heartbeat IPC: 4.299 cumulative IPC: 4.01 (Simulation time: 00 hr 02 min 25 sec)
Heartbeat CPU 0 instructions: 32500233 cycles: 8096853 heartbeat IPC: 4.301 cumulative IPC: 4.014 (Simulation time: 00 hr 02 min 27 sec)
Heartbeat CPU 0 instructions: 33000237 cycles: 8213177 heartbeat IPC: 4.298 cumulative IPC: 4.018 (Simulation time: 00 hr 02 min 29 sec)
Heartbeat CPU 0 instructions: 33500237 cycles: 8329341 heartbeat IPC: 4.304 cumulative IPC: 4.022 (Simulation time: 00 hr 02 min 32 sec)
Heartbeat CPU 0 instructions: 34000241 cycles: 8445643 heartbeat IPC: 4.299 cumulative IPC: 4.026 (Simulation time: 00 hr 02 min 34 sec)
Heartbeat CPU 0 instructions: 34500245 cycles: 8561840 heartbeat IPC: 4.303 cumulative IPC: 4.03 (Simulation time: 00 hr 02 min 36 sec)
Heartbeat CPU 0 instructions: 35000245 cycles: 8678022 heartbeat IPC: 4.304 cumulative IPC: 4.033 (Simulation time: 00 hr 02 min 38 sec)
Heartbeat CPU 0 instructions: 35500251 cycles: 8794695 heartbeat IPC: 4.286 cumulative IPC: 4.037 (Simulation time: 00 hr 02 min 40 sec)
Heartbeat CPU 0 instructions: 36000251 cycles: 8910915 heartbeat IPC: 4.302 cumulative IPC: 4.04 (Simulation time: 00 hr 02 min 42 sec)
Heartbeat CPU 0 instructions: 36500252 cycles: 9027140 heartbeat IPC: 4.302 cumulative IPC: 4.043 (Simulation time: 00 hr 02 min 45 sec)
Heartbeat CPU 0 instructions: 37000256 cycles: 9143235 heartbeat IPC: 4.307 cumulative IPC: 4.047 (Simulation time: 00 hr 02 min 47 sec)
Heartbeat CPU 0 instructions: 37500263 cycles: 9259582 heartbeat IPC: 4.298 cumulative IPC: 4.05 (Simulation time: 00 hr 02 min 49 sec)
Heartbeat CPU 0 instructions: 38000270 cycles: 9375679 heartbeat IPC: 4.307 cumulative IPC: 4.053 (Simulation time: 00 hr 02 min 51 sec)
Heartbeat CPU 0 instructions: 38500272 cycles: 9491648 heartbeat IPC: 4.312 cumulative IPC: 4.056 (Simulation time: 00 hr 02 min 53 sec)
Heartbeat CPU 0 instructions: 39000275 cycles: 9607806 heartbeat IPC: 4.305 cumulative IPC: 4.059 (Simulation time: 00 hr 02 min 55 sec)
Heartbeat CPU 0 instructions: 39500282 cycles: 9723888 heartbeat IPC: 4.307 cumulative IPC: 4.062 (Simulation time: 00 hr 02 min 57 sec)
Heartbeat CPU 0 instructions: 40000287 cycles: 9840476 heartbeat IPC: 4.289 cumulative IPC: 4.065 (Simulation time: 00 hr 03 min 00 sec)
Heartbeat CPU 0 instructions: 40500287 cycles: 9956683 heartbeat IPC: 4.303 cumulative IPC: 4.068 (Simulation time: 00 hr 03 min 02 sec)
Heartbeat CPU 0 instructions: 41000292 cycles: 10073241 heartbeat IPC: 4.29 cumulative IPC: 4.07 (Simulation time: 00 hr 03 min 04 sec)
Heartbeat CPU 0 instructions: 41500295 cycles: 10189451 heartbeat IPC: 4.303 cumulative IPC: 4.073 (Simulation time: 00 hr 03 min 06 sec)
Heartbeat CPU 0 instructions: 42000301 cycles: 10305779 heartbeat IPC: 4.298 cumulative IPC: 4.075 (Simulation time: 00 hr 03 min 08 sec)
Heartbeat CPU 0 instructions: 42500303 cycles: 10427735 heartbeat IPC: 4.1 cumulative IPC: 4.076 (Simulation time: 00 hr 03 min 10 sec)
Heartbeat CPU 0 instructions: 43000303 cycles: 10544074 heartbeat IPC: 4.298 cumulative IPC: 4.078 (Simulation time: 00 hr 03 min 12 sec)
Heartbeat CPU 0 instructions: 43500306 cycles: 10660360 heartbeat IPC: 4.3 cumulative IPC: 4.081 (Simulation time: 00 hr 03 min 15 sec)
Heartbeat CPU 0 instructions: 44000307 cycles: 10781496 heartbeat IPC: 4.128 cumulative IPC: 4.081 (Simulation time: 00 hr 03 min 17 sec)
Heartbeat CPU 0 instructions: 44500312 cycles: 10897743 heartbeat IPC: 4.301 cumulative IPC: 4.083 (Simulation time: 00 hr 03 min 19 sec)
Heartbeat CPU 0 instructions: 45000316 cycles: 11013869 heartbeat IPC: 4.306 cumulative IPC: 4.086 (Simulation time: 00 hr 03 min 21 sec)
Heartbeat CPU 0 instructions: 45500323 cycles: 11130169 heartbeat IPC: 4.299 cumulative IPC: 4.088 (Simulation time: 00 hr 03 min 23 sec)
Heartbeat CPU 0 instructions: 46000328 cycles: 11246393 heartbeat IPC: 4.302 cumulative IPC: 4.09 (Simulation time: 00 hr 03 min 25 sec)
Heartbeat CPU 0 instructions: 46500334 cycles: 11362579 heartbeat IPC: 4.303 cumulative IPC: 4.092 (Simulation time: 00 hr 03 min 28 sec)
Heartbeat CPU 0 instructions: 47000335 cycles: 11478814 heartbeat IPC: 4.302 cumulative IPC: 4.095 (Simulation time: 00 hr 03 min 30 sec)
Heartbeat CPU 0 instructions: 47500335 cycles: 11595021 heartbeat IPC: 4.303 cumulative IPC: 4.097 (Simulation time: 00 hr 03 min 32 sec)
Heartbeat CPU 0 instructions: 48000342 cycles: 11711711 heartbeat IPC: 4.285 cumulative IPC: 4.098 (Simulation time: 00 hr 03 min 34 sec)
Heartbeat CPU 0 instructions: 48500349 cycles: 11827897 heartbeat IPC: 4.304 cumulative IPC: 4.101 (Simulation time: 00 hr 03 min 36 sec)
Heartbeat CPU 0 instructions: 49000354 cycles: 11943956 heartbeat IPC: 4.308 cumulative IPC: 4.103 (Simulation time: 00 hr 03 min 38 sec)
Heartbeat CPU 0 instructions: 49500361 cycles: 12060156 heartbeat IPC: 4.303 cumulative IPC: 4.104 (Simulation time: 00 hr 03 min 40 sec)
Warmup halting CPU 0 at instruction 50000005 cycle 12176383 for remainder of phase
Warmup finished CPU 0 instructions: 50000005 cycles: 12176383 cumulative IPC: 4.106 (Simulation time: 00 hr 03 min 43 sec)
Warmup complete CPU 0 instructions: 50000005 cycles: 12176383 cumulative IPC: 4.106 (Simulation time: 00 hr 03 min 43 sec)
Heartbeat CPU 0 instructions: 50000368 cycles: 12176433 heartbeat IPC: 4.3 cumulative IPC: 7.26 (Simulation time: 00 hr 03 min 43 sec)
Heartbeat CPU 0 instructions: 50500373 cycles: 12336096 heartbeat IPC: 3.132 cumulative IPC: 3.133 (Simulation time: 00 hr 03 min 45 sec)
Heartbeat CPU 0 instructions: 51000376 cycles: 12493542 heartbeat IPC: 3.176 cumulative IPC: 3.154 (Simulation time: 00 hr 03 min 47 sec)
Heartbeat CPU 0 instructions: 51500376 cycles: 12655468 heartbeat IPC: 3.088 cumulative IPC: 3.132 (Simulation time: 00 hr 03 min 49 sec)
Heartbeat CPU 0 instructions: 52000376 cycles: 12816394 heartbeat IPC: 3.107 cumulative IPC: 3.126 (Simulation time: 00 hr 03 min 52 sec)
Heartbeat CPU 0 instructions: 52500380 cycles: 12978667 heartbeat IPC: 3.081 cumulative IPC: 3.117 (Simulation time: 00 hr 03 min 54 sec)
Heartbeat CPU 0 instructions: 53000383 cycles: 13136261 heartbeat IPC: 3.173 cumulative IPC: 3.126 (Simulation time: 00 hr 03 min 56 sec)
Heartbeat CPU 0 instructions: 53500388 cycles: 13298497 heartbeat IPC: 3.082 cumulative IPC: 3.119 (Simulation time: 00 hr 03 min 58 sec)
Heartbeat CPU 0 instructions: 54000392 cycles: 13461500 heartbeat IPC: 3.067 cumulative IPC: 3.113 (Simulation time: 00 hr 04 min 01 sec)
Heartbeat CPU 0 instructions: 54500393 cycles: 13620338 heartbeat IPC: 3.148 cumulative IPC: 3.117 (Simulation time: 00 hr 04 min 03 sec)
Heartbeat CPU 0 instructions: 55000398 cycles: 13777440 heartbeat IPC: 3.183 cumulative IPC: 3.123 (Simulation time: 00 hr 04 min 05 sec)
Heartbeat CPU 0 instructions: 55500403 cycles: 13936449 heartbeat IPC: 3.145 cumulative IPC: 3.125 (Simulation time: 00 hr 04 min 07 sec)
Heartbeat CPU 0 instructions: 56000403 cycles: 14096744 heartbeat IPC: 3.119 cumulative IPC: 3.125 (Simulation time: 00 hr 04 min 10 sec)
Heartbeat CPU 0 instructions: 56500404 cycles: 14258361 heartbeat IPC: 3.094 cumulative IPC: 3.122 (Simulation time: 00 hr 04 min 12 sec)
Heartbeat CPU 0 instructions: 57000405 cycles: 14415408 heartbeat IPC: 3.184 cumulative IPC: 3.127 (Simulation time: 00 hr 04 min 14 sec)
Heartbeat CPU 0 instructions: 57500408 cycles: 14572087 heartbeat IPC: 3.191 cumulative IPC: 3.131 (Simulation time: 00 hr 04 min 16 sec)
Heartbeat CPU 0 instructions: 58000414 cycles: 14730106 heartbeat IPC: 3.164 cumulative IPC: 3.133 (Simulation time: 00 hr 04 min 19 sec)
Heartbeat CPU 0 instructions: 58500417 cycles: 14884338 heartbeat IPC: 3.242 cumulative IPC: 3.139 (Simulation time: 00 hr 04 min 21 sec)
Heartbeat CPU 0 instructions: 59000422 cycles: 15041174 heartbeat IPC: 3.188 cumulative IPC: 3.142 (Simulation time: 00 hr 04 min 23 sec)
Heartbeat CPU 0 instructions: 59500422 cycles: 15196430 heartbeat IPC: 3.22 cumulative IPC: 3.146 (Simulation time: 00 hr 04 min 25 sec)
Heartbeat CPU 0 instructions: 60000422 cycles: 15351268 heartbeat IPC: 3.229 cumulative IPC: 3.15 (Simulation time: 00 hr 04 min 27 sec)
Heartbeat CPU 0 instructions: 60500427 cycles: 15504203 heartbeat IPC: 3.269 cumulative IPC: 3.155 (Simulation time: 00 hr 04 min 29 sec)
Heartbeat CPU 0 instructions: 61000429 cycles: 15659059 heartbeat IPC: 3.229 cumulative IPC: 3.159 (Simulation time: 00 hr 04 min 32 sec)
Heartbeat CPU 0 instructions: 61500434 cycles: 15814003 heartbeat IPC: 3.227 cumulative IPC: 3.162 (Simulation time: 00 hr 04 min 34 sec)
Heartbeat CPU 0 instructions: 62000438 cycles: 15967902 heartbeat IPC: 3.249 cumulative IPC: 3.165 (Simulation time: 00 hr 04 min 36 sec)
Heartbeat CPU 0 instructions: 62500441 cycles: 16120908 heartbeat IPC: 3.268 cumulative IPC: 3.169 (Simulation time: 00 hr 04 min 38 sec)
Heartbeat CPU 0 instructions: 63000444 cycles: 16286903 heartbeat IPC: 3.012 cumulative IPC: 3.163 (Simulation time: 00 hr 04 min 41 sec)
Heartbeat CPU 0 instructions: 63500449 cycles: 16447361 heartbeat IPC: 3.116 cumulative IPC: 3.161 (Simulation time: 00 hr 04 min 43 sec)
Heartbeat CPU 0 instructions: 64000453 cycles: 16609410 heartbeat IPC: 3.086 cumulative IPC: 3.158 (Simulation time: 00 hr 04 min 45 sec)
Heartbeat CPU 0 instructions: 64500456 cycles: 16767844 heartbeat IPC: 3.156 cumulative IPC: 3.158 (Simulation time: 00 hr 04 min 47 sec)
Heartbeat CPU 0 instructions: 65000457 cycles: 16930109 heartbeat IPC: 3.081 cumulative IPC: 3.156 (Simulation time: 00 hr 04 min 50 sec)
Heartbeat CPU 0 instructions: 65500457 cycles: 17090667 heartbeat IPC: 3.114 cumulative IPC: 3.154 (Simulation time: 00 hr 04 min 52 sec)
Heartbeat CPU 0 instructions: 66000460 cycles: 17252270 heartbeat IPC: 3.094 cumulative IPC: 3.152 (Simulation time: 00 hr 04 min 54 sec)
Heartbeat CPU 0 instructions: 66500467 cycles: 17411327 heartbeat IPC: 3.144 cumulative IPC: 3.152 (Simulation time: 00 hr 04 min 57 sec)
Heartbeat CPU 0 instructions: 67000468 cycles: 17571407 heartbeat IPC: 3.123 cumulative IPC: 3.151 (Simulation time: 00 hr 04 min 59 sec)
Heartbeat CPU 0 instructions: 67500468 cycles: 17730663 heartbeat IPC: 3.14 cumulative IPC: 3.151 (Simulation time: 00 hr 05 min 01 sec)
Heartbeat CPU 0 instructions: 68000468 cycles: 17889071 heartbeat IPC: 3.156 cumulative IPC: 3.151 (Simulation time: 00 hr 05 min 03 sec)
Heartbeat CPU 0 instructions: 68500470 cycles: 18045922 heartbeat IPC: 3.188 cumulative IPC: 3.152 (Simulation time: 00 hr 05 min 05 sec)
Heartbeat CPU 0 instructions: 69000473 cycles: 18210016 heartbeat IPC: 3.047 cumulative IPC: 3.149 (Simulation time: 00 hr 05 min 08 sec)
Heartbeat CPU 0 instructions: 69500480 cycles: 18367314 heartbeat IPC: 3.179 cumulative IPC: 3.15 (Simulation time: 00 hr 05 min 10 sec)
Heartbeat CPU 0 instructions: 70000484 cycles: 18524507 heartbeat IPC: 3.181 cumulative IPC: 3.151 (Simulation time: 00 hr 05 min 12 sec)
Heartbeat CPU 0 instructions: 70500487 cycles: 18679994 heartbeat IPC: 3.216 cumulative IPC: 3.152 (Simulation time: 00 hr 05 min 14 sec)
Heartbeat CPU 0 instructions: 71000490 cycles: 18835453 heartbeat IPC: 3.216 cumulative IPC: 3.154 (Simulation time: 00 hr 05 min 17 sec)
Heartbeat CPU 0 instructions: 71500495 cycles: 18991364 heartbeat IPC: 3.207 cumulative IPC: 3.155 (Simulation time: 00 hr 05 min 19 sec)
Heartbeat CPU 0 instructions: 72000495 cycles: 19147142 heartbeat IPC: 3.21 cumulative IPC: 3.156 (Simulation time: 00 hr 05 min 21 sec)
Heartbeat CPU 0 instructions: 72500502 cycles: 19301523 heartbeat IPC: 3.239 cumulative IPC: 3.158 (Simulation time: 00 hr 05 min 23 sec)
Heartbeat CPU 0 instructions: 73000507 cycles: 19456414 heartbeat IPC: 3.228 cumulative IPC: 3.159 (Simulation time: 00 hr 05 min 25 sec)
Heartbeat CPU 0 instructions: 73500511 cycles: 19611711 heartbeat IPC: 3.22 cumulative IPC: 3.161 (Simulation time: 00 hr 05 min 28 sec)
Heartbeat CPU 0 instructions: 74000514 cycles: 19768320 heartbeat IPC: 3.193 cumulative IPC: 3.161 (Simulation time: 00 hr 05 min 30 sec)
Heartbeat CPU 0 instructions: 74500521 cycles: 19919205 heartbeat IPC: 3.314 cumulative IPC: 3.164 (Simulation time: 00 hr 05 min 32 sec)
Heartbeat CPU 0 instructions: 75000522 cycles: 20079225 heartbeat IPC: 3.125 cumulative IPC: 3.163 (Simulation time: 00 hr 05 min 34 sec)
Heartbeat CPU 0 instructions: 75500522 cycles: 20240174 heartbeat IPC: 3.107 cumulative IPC: 3.162 (Simulation time: 00 hr 05 min 37 sec)
Heartbeat CPU 0 instructions: 76000522 cycles: 20400684 heartbeat IPC: 3.115 cumulative IPC: 3.161 (Simulation time: 00 hr 05 min 39 sec)
Heartbeat CPU 0 instructions: 76500526 cycles: 20557494 heartbeat IPC: 3.189 cumulative IPC: 3.162 (Simulation time: 00 hr 05 min 41 sec)
Heartbeat CPU 0 instructions: 77000527 cycles: 20718602 heartbeat IPC: 3.104 cumulative IPC: 3.161 (Simulation time: 00 hr 05 min 43 sec)
Heartbeat CPU 0 instructions: 77500534 cycles: 20880900 heartbeat IPC: 3.081 cumulative IPC: 3.159 (Simulation time: 00 hr 05 min 46 sec)
Heartbeat CPU 0 instructions: 78000538 cycles: 21042602 heartbeat IPC: 3.092 cumulative IPC: 3.158 (Simulation time: 00 hr 05 min 48 sec)
Heartbeat CPU 0 instructions: 78500541 cycles: 21200161 heartbeat IPC: 3.173 cumulative IPC: 3.158 (Simulation time: 00 hr 05 min 50 sec)
Heartbeat CPU 0 instructions: 79000544 cycles: 21362763 heartbeat IPC: 3.075 cumulative IPC: 3.157 (Simulation time: 00 hr 05 min 52 sec)
Heartbeat CPU 0 instructions: 79500549 cycles: 21521869 heartbeat IPC: 3.143 cumulative IPC: 3.157 (Simulation time: 00 hr 05 min 55 sec)
Heartbeat CPU 0 instructions: 80000549 cycles: 21680300 heartbeat IPC: 3.156 cumulative IPC: 3.157 (Simulation time: 00 hr 05 min 57 sec)
Heartbeat CPU 0 instructions: 80500556 cycles: 21837181 heartbeat IPC: 3.187 cumulative IPC: 3.157 (Simulation time: 00 hr 05 min 59 sec)
Heartbeat CPU 0 instructions: 81000561 cycles: 22000131 heartbeat IPC: 3.068 cumulative IPC: 3.156 (Simulation time: 00 hr 06 min 01 sec)
Heartbeat CPU 0 instructions: 81500565 cycles: 22161397 heartbeat IPC: 3.1 cumulative IPC: 3.155 (Simulation time: 00 hr 06 min 04 sec)
Heartbeat CPU 0 instructions: 82000568 cycles: 22317898 heartbeat IPC: 3.195 cumulative IPC: 3.155 (Simulation time: 00 hr 06 min 06 sec)
Heartbeat CPU 0 instructions: 82500575 cycles: 22472204 heartbeat IPC: 3.24 cumulative IPC: 3.157 (Simulation time: 00 hr 06 min 08 sec)
Heartbeat CPU 0 instructions: 83000576 cycles: 22629662 heartbeat IPC: 3.175 cumulative IPC: 3.157 (Simulation time: 00 hr 06 min 10 sec)
Heartbeat CPU 0 instructions: 83500576 cycles: 22786172 heartbeat IPC: 3.195 cumulative IPC: 3.158 (Simulation time: 00 hr 06 min 13 sec)
Heartbeat CPU 0 instructions: 84000576 cycles: 22941183 heartbeat IPC: 3.226 cumulative IPC: 3.158 (Simulation time: 00 hr 06 min 15 sec)
Heartbeat CPU 0 instructions: 84500578 cycles: 23096294 heartbeat IPC: 3.224 cumulative IPC: 3.159 (Simulation time: 00 hr 06 min 17 sec)
Heartbeat CPU 0 instructions: 85000583 cycles: 23252715 heartbeat IPC: 3.197 cumulative IPC: 3.16 (Simulation time: 00 hr 06 min 19 sec)
Heartbeat CPU 0 instructions: 85500588 cycles: 23408641 heartbeat IPC: 3.207 cumulative IPC: 3.161 (Simulation time: 00 hr 06 min 21 sec)
Heartbeat CPU 0 instructions: 86000594 cycles: 23562563 heartbeat IPC: 3.248 cumulative IPC: 3.162 (Simulation time: 00 hr 06 min 24 sec)
Heartbeat CPU 0 instructions: 86500595 cycles: 23716646 heartbeat IPC: 3.245 cumulative IPC: 3.163 (Simulation time: 00 hr 06 min 26 sec)
Heartbeat CPU 0 instructions: 87000598 cycles: 23871513 heartbeat IPC: 3.229 cumulative IPC: 3.164 (Simulation time: 00 hr 06 min 28 sec)
Heartbeat CPU 0 instructions: 87500603 cycles: 24034131 heartbeat IPC: 3.075 cumulative IPC: 3.163 (Simulation time: 00 hr 06 min 30 sec)
Heartbeat CPU 0 instructions: 88000605 cycles: 24191878 heartbeat IPC: 3.17 cumulative IPC: 3.163 (Simulation time: 00 hr 06 min 33 sec)
Heartbeat CPU 0 instructions: 88500610 cycles: 24352383 heartbeat IPC: 3.115 cumulative IPC: 3.162 (Simulation time: 00 hr 06 min 35 sec)
Heartbeat CPU 0 instructions: 89000615 cycles: 24513524 heartbeat IPC: 3.103 cumulative IPC: 3.161 (Simulation time: 00 hr 06 min 37 sec)
Heartbeat CPU 0 instructions: 89500619 cycles: 24675924 heartbeat IPC: 3.079 cumulative IPC: 3.16 (Simulation time: 00 hr 06 min 39 sec)
Heartbeat CPU 0 instructions: 90000622 cycles: 24836398 heartbeat IPC: 3.116 cumulative IPC: 3.16 (Simulation time: 00 hr 06 min 42 sec)
Heartbeat CPU 0 instructions: 90500629 cycles: 24996409 heartbeat IPC: 3.125 cumulative IPC: 3.159 (Simulation time: 00 hr 06 min 44 sec)
Heartbeat CPU 0 instructions: 91000630 cycles: 25158866 heartbeat IPC: 3.078 cumulative IPC: 3.158 (Simulation time: 00 hr 06 min 46 sec)
Heartbeat CPU 0 instructions: 91500634 cycles: 25319081 heartbeat IPC: 3.121 cumulative IPC: 3.158 (Simulation time: 00 hr 06 min 48 sec)
Heartbeat CPU 0 instructions: 92000639 cycles: 25475878 heartbeat IPC: 3.189 cumulative IPC: 3.158 (Simulation time: 00 hr 06 min 51 sec)
Heartbeat CPU 0 instructions: 92500642 cycles: 25634989 heartbeat IPC: 3.142 cumulative IPC: 3.158 (Simulation time: 00 hr 06 min 53 sec)
Heartbeat CPU 0 instructions: 93000645 cycles: 25793126 heartbeat IPC: 3.162 cumulative IPC: 3.158 (Simulation time: 00 hr 06 min 55 sec)
Heartbeat CPU 0 instructions: 93500650 cycles: 25958746 heartbeat IPC: 3.019 cumulative IPC: 3.156 (Simulation time: 00 hr 06 min 57 sec)
Heartbeat CPU 0 instructions: 94000655 cycles: 26115683 heartbeat IPC: 3.186 cumulative IPC: 3.157 (Simulation time: 00 hr 07 min 00 sec)
Heartbeat CPU 0 instructions: 94500657 cycles: 26272936 heartbeat IPC: 3.18 cumulative IPC: 3.157 (Simulation time: 00 hr 07 min 02 sec)
Heartbeat CPU 0 instructions: 95000658 cycles: 26429894 heartbeat IPC: 3.186 cumulative IPC: 3.157 (Simulation time: 00 hr 07 min 04 sec)
Heartbeat CPU 0 instructions: 95500665 cycles: 26587484 heartbeat IPC: 3.173 cumulative IPC: 3.157 (Simulation time: 00 hr 07 min 06 sec)
Heartbeat CPU 0 instructions: 96000669 cycles: 26742902 heartbeat IPC: 3.217 cumulative IPC: 3.158 (Simulation time: 00 hr 07 min 09 sec)
Heartbeat CPU 0 instructions: 96500672 cycles: 26899138 heartbeat IPC: 3.2 cumulative IPC: 3.158 (Simulation time: 00 hr 07 min 11 sec)
Heartbeat CPU 0 instructions: 97000673 cycles: 27056673 heartbeat IPC: 3.174 cumulative IPC: 3.159 (Simulation time: 00 hr 07 min 13 sec)
Heartbeat CPU 0 instructions: 97500673 cycles: 27212557 heartbeat IPC: 3.208 cumulative IPC: 3.159 (Simulation time: 00 hr 07 min 15 sec)
Heartbeat CPU 0 instructions: 98000676 cycles: 27366678 heartbeat IPC: 3.244 cumulative IPC: 3.16 (Simulation time: 00 hr 07 min 17 sec)
Heartbeat CPU 0 instructions: 98500683 cycles: 27521353 heartbeat IPC: 3.233 cumulative IPC: 3.161 (Simulation time: 00 hr 07 min 20 sec)
Heartbeat CPU 0 instructions: 99000684 cycles: 27676370 heartbeat IPC: 3.225 cumulative IPC: 3.161 (Simulation time: 00 hr 07 min 22 sec)
Heartbeat CPU 0 instructions: 99500684 cycles: 27831423 heartbeat IPC: 3.225 cumulative IPC: 3.162 (Simulation time: 00 hr 07 min 24 sec)
Heartbeat CPU 0 instructions: 100000685 cycles: 27992531 heartbeat IPC: 3.104 cumulative IPC: 3.161 (Simulation time: 00 hr 07 min 26 sec)
Heartbeat CPU 0 instructions: 100500686 cycles: 28152682 heartbeat IPC: 3.122 cumulative IPC: 3.161 (Simulation time: 00 hr 07 min 29 sec)
Heartbeat CPU 0 instructions: 101000689 cycles: 28314631 heartbeat IPC: 3.087 cumulative IPC: 3.16 (Simulation time: 00 hr 07 min 31 sec)
Heartbeat CPU 0 instructions: 101500696 cycles: 28475982 heartbeat IPC: 3.099 cumulative IPC: 3.16 (Simulation time: 00 hr 07 min 33 sec)
Heartbeat CPU 0 instructions: 102000701 cycles: 28635608 heartbeat IPC: 3.132 cumulative IPC: 3.159 (Simulation time: 00 hr 07 min 35 sec)
Heartbeat CPU 0 instructions: 102500703 cycles: 28797921 heartbeat IPC: 3.08 cumulative IPC: 3.159 (Simulation time: 00 hr 07 min 38 sec)
Heartbeat CPU 0 instructions: 103000706 cycles: 28958627 heartbeat IPC: 3.111 cumulative IPC: 3.158 (Simulation time: 00 hr 07 min 40 sec)
Heartbeat CPU 0 instructions: 103500711 cycles: 29120465 heartbeat IPC: 3.09 cumulative IPC: 3.157 (Simulation time: 00 hr 07 min 42 sec)
Heartbeat CPU 0 instructions: 104000715 cycles: 29278904 heartbeat IPC: 3.156 cumulative IPC: 3.157 (Simulation time: 00 hr 07 min 44 sec)
Heartbeat CPU 0 instructions: 104500718 cycles: 29439585 heartbeat IPC: 3.112 cumulative IPC: 3.157 (Simulation time: 00 hr 07 min 47 sec)
Heartbeat CPU 0 instructions: 105000723 cycles: 29598097 heartbeat IPC: 3.154 cumulative IPC: 3.157 (Simulation time: 00 hr 07 min 49 sec)
Heartbeat CPU 0 instructions: 105500727 cycles: 29757039 heartbeat IPC: 3.146 cumulative IPC: 3.157 (Simulation time: 00 hr 07 min 51 sec)
Heartbeat CPU 0 instructions: 106000730 cycles: 29917133 heartbeat IPC: 3.123 cumulative IPC: 3.157 (Simulation time: 00 hr 07 min 53 sec)
Heartbeat CPU 0 instructions: 106500737 cycles: 30075411 heartbeat IPC: 3.159 cumulative IPC: 3.157 (Simulation time: 00 hr 07 min 56 sec)
Heartbeat CPU 0 instructions: 107000738 cycles: 30230828 heartbeat IPC: 3.217 cumulative IPC: 3.157 (Simulation time: 00 hr 07 min 58 sec)
Heartbeat CPU 0 instructions: 107500738 cycles: 30389255 heartbeat IPC: 3.156 cumulative IPC: 3.157 (Simulation time: 00 hr 08 min 00 sec)
Heartbeat CPU 0 instructions: 108000743 cycles: 30543871 heartbeat IPC: 3.234 cumulative IPC: 3.158 (Simulation time: 00 hr 08 min 02 sec)
Heartbeat CPU 0 instructions: 108500743 cycles: 30700504 heartbeat IPC: 3.192 cumulative IPC: 3.158 (Simulation time: 00 hr 08 min 05 sec)
Heartbeat CPU 0 instructions: 109000743 cycles: 30857541 heartbeat IPC: 3.184 cumulative IPC: 3.158 (Simulation time: 00 hr 08 min 07 sec)
Heartbeat CPU 0 instructions: 109500750 cycles: 31013880 heartbeat IPC: 3.198 cumulative IPC: 3.159 (Simulation time: 00 hr 08 min 09 sec)
Heartbeat CPU 0 instructions: 110000750 cycles: 31168173 heartbeat IPC: 3.241 cumulative IPC: 3.159 (Simulation time: 00 hr 08 min 11 sec)
Heartbeat CPU 0 instructions: 110500750 cycles: 31324250 heartbeat IPC: 3.204 cumulative IPC: 3.16 (Simulation time: 00 hr 08 min 13 sec)
Heartbeat CPU 0 instructions: 111000754 cycles: 31478922 heartbeat IPC: 3.233 cumulative IPC: 3.16 (Simulation time: 00 hr 08 min 16 sec)
Heartbeat CPU 0 instructions: 111500754 cycles: 31633678 heartbeat IPC: 3.231 cumulative IPC: 3.161 (Simulation time: 00 hr 08 min 18 sec)
Heartbeat CPU 0 instructions: 112000761 cycles: 31785984 heartbeat IPC: 3.283 cumulative IPC: 3.162 (Simulation time: 00 hr 08 min 20 sec)
Heartbeat CPU 0 instructions: 112500762 cycles: 31948912 heartbeat IPC: 3.069 cumulative IPC: 3.161 (Simulation time: 00 hr 08 min 22 sec)
Heartbeat CPU 0 instructions: 113000769 cycles: 32110511 heartbeat IPC: 3.094 cumulative IPC: 3.16 (Simulation time: 00 hr 08 min 24 sec)
Heartbeat CPU 0 instructions: 113500773 cycles: 32271703 heartbeat IPC: 3.102 cumulative IPC: 3.16 (Simulation time: 00 hr 08 min 27 sec)
Heartbeat CPU 0 instructions: 114000777 cycles: 32429852 heartbeat IPC: 3.162 cumulative IPC: 3.16 (Simulation time: 00 hr 08 min 29 sec)
Heartbeat CPU 0 instructions: 114500780 cycles: 32592702 heartbeat IPC: 3.07 cumulative IPC: 3.159 (Simulation time: 00 hr 08 min 31 sec)
Heartbeat CPU 0 instructions: 115000784 cycles: 32753928 heartbeat IPC: 3.101 cumulative IPC: 3.159 (Simulation time: 00 hr 08 min 34 sec)
Heartbeat CPU 0 instructions: 115500790 cycles: 32915751 heartbeat IPC: 3.09 cumulative IPC: 3.158 (Simulation time: 00 hr 08 min 36 sec)
Heartbeat CPU 0 instructions: 116000793 cycles: 33074132 heartbeat IPC: 3.157 cumulative IPC: 3.158 (Simulation time: 00 hr 08 min 38 sec)
Heartbeat CPU 0 instructions: 116500796 cycles: 33235049 heartbeat IPC: 3.107 cumulative IPC: 3.158 (Simulation time: 00 hr 08 min 40 sec)
Heartbeat CPU 0 instructions: 117000797 cycles: 33394015 heartbeat IPC: 3.145 cumulative IPC: 3.158 (Simulation time: 00 hr 08 min 43 sec)
Heartbeat CPU 0 instructions: 117500804 cycles: 33551454 heartbeat IPC: 3.176 cumulative IPC: 3.158 (Simulation time: 00 hr 08 min 45 sec)
Heartbeat CPU 0 instructions: 118000809 cycles: 33708501 heartbeat IPC: 3.184 cumulative IPC: 3.158 (Simulation time: 00 hr 08 min 47 sec)
Heartbeat CPU 0 instructions: 118500812 cycles: 33872134 heartbeat IPC: 3.056 cumulative IPC: 3.157 (Simulation time: 00 hr 08 min 49 sec)
Heartbeat CPU 0 instructions: 119000814 cycles: 34030119 heartbeat IPC: 3.165 cumulative IPC: 3.157 (Simulation time: 00 hr 08 min 52 sec)
Heartbeat CPU 0 instructions: 119500819 cycles: 34186498 heartbeat IPC: 3.197 cumulative IPC: 3.158 (Simulation time: 00 hr 08 min 54 sec)
Heartbeat CPU 0 instructions: 120000823 cycles: 34342346 heartbeat IPC: 3.208 cumulative IPC: 3.158 (Simulation time: 00 hr 08 min 56 sec)
Heartbeat CPU 0 instructions: 120500826 cycles: 34500509 heartbeat IPC: 3.161 cumulative IPC: 3.158 (Simulation time: 00 hr 08 min 58 sec)
Heartbeat CPU 0 instructions: 121000831 cycles: 34656925 heartbeat IPC: 3.197 cumulative IPC: 3.158 (Simulation time: 00 hr 09 min 00 sec)
Heartbeat CPU 0 instructions: 121500835 cycles: 34812682 heartbeat IPC: 3.21 cumulative IPC: 3.159 (Simulation time: 00 hr 09 min 03 sec)
Heartbeat CPU 0 instructions: 122000838 cycles: 34968429 heartbeat IPC: 3.21 cumulative IPC: 3.159 (Simulation time: 00 hr 09 min 05 sec)
Heartbeat CPU 0 instructions: 122500845 cycles: 35125787 heartbeat IPC: 3.178 cumulative IPC: 3.159 (Simulation time: 00 hr 09 min 07 sec)
Heartbeat CPU 0 instructions: 123000846 cycles: 35280864 heartbeat IPC: 3.224 cumulative IPC: 3.16 (Simulation time: 00 hr 09 min 09 sec)
Heartbeat CPU 0 instructions: 123500846 cycles: 35434845 heartbeat IPC: 3.247 cumulative IPC: 3.16 (Simulation time: 00 hr 09 min 11 sec)
Heartbeat CPU 0 instructions: 124000851 cycles: 35589512 heartbeat IPC: 3.233 cumulative IPC: 3.161 (Simulation time: 00 hr 09 min 14 sec)
Heartbeat CPU 0 instructions: 124500851 cycles: 35748825 heartbeat IPC: 3.138 cumulative IPC: 3.161 (Simulation time: 00 hr 09 min 16 sec)
Heartbeat CPU 0 instructions: 125000851 cycles: 35908409 heartbeat IPC: 3.133 cumulative IPC: 3.16 (Simulation time: 00 hr 09 min 18 sec)
Heartbeat CPU 0 instructions: 125500851 cycles: 36068633 heartbeat IPC: 3.121 cumulative IPC: 3.16 (Simulation time: 00 hr 09 min 20 sec)
Heartbeat CPU 0 instructions: 126000854 cycles: 36228936 heartbeat IPC: 3.119 cumulative IPC: 3.16 (Simulation time: 00 hr 09 min 23 sec)
Heartbeat CPU 0 instructions: 126500857 cycles: 36391978 heartbeat IPC: 3.067 cumulative IPC: 3.159 (Simulation time: 00 hr 09 min 25 sec)
Heartbeat CPU 0 instructions: 127000860 cycles: 36553763 heartbeat IPC: 3.091 cumulative IPC: 3.159 (Simulation time: 00 hr 09 min 27 sec)
Heartbeat CPU 0 instructions: 127500862 cycles: 36712286 heartbeat IPC: 3.154 cumulative IPC: 3.159 (Simulation time: 00 hr 09 min 30 sec)
Heartbeat CPU 0 instructions: 128000869 cycles: 36872907 heartbeat IPC: 3.113 cumulative IPC: 3.158 (Simulation time: 00 hr 09 min 32 sec)
Heartbeat CPU 0 instructions: 128500870 cycles: 37035765 heartbeat IPC: 3.07 cumulative IPC: 3.158 (Simulation time: 00 hr 09 min 34 sec)
Heartbeat CPU 0 instructions: 129000877 cycles: 37196188 heartbeat IPC: 3.117 cumulative IPC: 3.158 (Simulation time: 00 hr 09 min 36 sec)
Heartbeat CPU 0 instructions: 129500877 cycles: 37352838 heartbeat IPC: 3.192 cumulative IPC: 3.158 (Simulation time: 00 hr 09 min 39 sec)
Heartbeat CPU 0 instructions: 130000877 cycles: 37511899 heartbeat IPC: 3.143 cumulative IPC: 3.158 (Simulation time: 00 hr 09 min 41 sec)
Heartbeat CPU 0 instructions: 130500879 cycles: 37670794 heartbeat IPC: 3.147 cumulative IPC: 3.158 (Simulation time: 00 hr 09 min 43 sec)
Heartbeat CPU 0 instructions: 131000879 cycles: 37835015 heartbeat IPC: 3.045 cumulative IPC: 3.157 (Simulation time: 00 hr 09 min 45 sec)
Heartbeat CPU 0 instructions: 131500886 cycles: 37989972 heartbeat IPC: 3.227 cumulative IPC: 3.157 (Simulation time: 00 hr 09 min 48 sec)
Heartbeat CPU 0 instructions: 132000893 cycles: 38147122 heartbeat IPC: 3.182 cumulative IPC: 3.157 (Simulation time: 00 hr 09 min 50 sec)
Heartbeat CPU 0 instructions: 132500896 cycles: 38305210 heartbeat IPC: 3.163 cumulative IPC: 3.157 (Simulation time: 00 hr 09 min 52 sec)
Heartbeat CPU 0 instructions: 133000897 cycles: 38462649 heartbeat IPC: 3.176 cumulative IPC: 3.158 (Simulation time: 00 hr 09 min 54 sec)
Heartbeat CPU 0 instructions: 133500897 cycles: 38616871 heartbeat IPC: 3.242 cumulative IPC: 3.158 (Simulation time: 00 hr 09 min 56 sec)
Heartbeat CPU 0 instructions: 134000901 cycles: 38775144 heartbeat IPC: 3.159 cumulative IPC: 3.158 (Simulation time: 00 hr 09 min 59 sec)
Heartbeat CPU 0 instructions: 134500901 cycles: 38930273 heartbeat IPC: 3.223 cumulative IPC: 3.158 (Simulation time: 00 hr 10 min 01 sec)
Heartbeat CPU 0 instructions: 135000908 cycles: 39087582 heartbeat IPC: 3.179 cumulative IPC: 3.159 (Simulation time: 00 hr 10 min 03 sec)
Heartbeat CPU 0 instructions: 135500908 cycles: 39240480 heartbeat IPC: 3.27 cumulative IPC: 3.159 (Simulation time: 00 hr 10 min 05 sec)
Heartbeat CPU 0 instructions: 136000915 cycles: 39396963 heartbeat IPC: 3.195 cumulative IPC: 3.159 (Simulation time: 00 hr 10 min 07 sec)
Heartbeat CPU 0 instructions: 136500918 cycles: 39552604 heartbeat IPC: 3.213 cumulative IPC: 3.16 (Simulation time: 00 hr 10 min 10 sec)
Heartbeat CPU 0 instructions: 137000923 cycles: 39713408 heartbeat IPC: 3.109 cumulative IPC: 3.159 (Simulation time: 00 hr 10 min 12 sec)
Heartbeat CPU 0 instructions: 137500923 cycles: 39870891 heartbeat IPC: 3.175 cumulative IPC: 3.16 (Simulation time: 00 hr 10 min 14 sec)
Heartbeat CPU 0 instructions: 138000930 cycles: 40031724 heartbeat IPC: 3.109 cumulative IPC: 3.159 (Simulation time: 00 hr 10 min 16 sec)
Heartbeat CPU 0 instructions: 138500933 cycles: 40192644 heartbeat IPC: 3.107 cumulative IPC: 3.159 (Simulation time: 00 hr 10 min 19 sec)
Heartbeat CPU 0 instructions: 139000933 cycles: 40354703 heartbeat IPC: 3.085 cumulative IPC: 3.158 (Simulation time: 00 hr 10 min 21 sec)
Heartbeat CPU 0 instructions: 139500938 cycles: 40513428 heartbeat IPC: 3.15 cumulative IPC: 3.158 (Simulation time: 00 hr 10 min 23 sec)
Heartbeat CPU 0 instructions: 140000943 cycles: 40673382 heartbeat IPC: 3.126 cumulative IPC: 3.158 (Simulation time: 00 hr 10 min 25 sec)
Heartbeat CPU 0 instructions: 140500950 cycles: 40835781 heartbeat IPC: 3.079 cumulative IPC: 3.158 (Simulation time: 00 hr 10 min 28 sec)
Heartbeat CPU 0 instructions: 141000951 cycles: 40997450 heartbeat IPC: 3.093 cumulative IPC: 3.157 (Simulation time: 00 hr 10 min 30 sec)
Heartbeat CPU 0 instructions: 141500955 cycles: 41154426 heartbeat IPC: 3.185 cumulative IPC: 3.158 (Simulation time: 00 hr 10 min 32 sec)
Heartbeat CPU 0 instructions: 142000962 cycles: 41312469 heartbeat IPC: 3.164 cumulative IPC: 3.158 (Simulation time: 00 hr 10 min 34 sec)
Heartbeat CPU 0 instructions: 142500965 cycles: 41471339 heartbeat IPC: 3.147 cumulative IPC: 3.158 (Simulation time: 00 hr 10 min 37 sec)
Heartbeat CPU 0 instructions: 143000970 cycles: 41633793 heartbeat IPC: 3.078 cumulative IPC: 3.157 (Simulation time: 00 hr 10 min 39 sec)
Heartbeat CPU 0 instructions: 143500975 cycles: 41790825 heartbeat IPC: 3.184 cumulative IPC: 3.157 (Simulation time: 00 hr 10 min 41 sec)
Heartbeat CPU 0 instructions: 144000977 cycles: 41947685 heartbeat IPC: 3.188 cumulative IPC: 3.157 (Simulation time: 00 hr 10 min 43 sec)
Heartbeat CPU 0 instructions: 144500978 cycles: 42105888 heartbeat IPC: 3.161 cumulative IPC: 3.157 (Simulation time: 00 hr 10 min 46 sec)
Heartbeat CPU 0 instructions: 145000985 cycles: 42264140 heartbeat IPC: 3.16 cumulative IPC: 3.157 (Simulation time: 00 hr 10 min 48 sec)
Heartbeat CPU 0 instructions: 145500987 cycles: 42418388 heartbeat IPC: 3.242 cumulative IPC: 3.158 (Simulation time: 00 hr 10 min 50 sec)
Heartbeat CPU 0 instructions: 146000992 cycles: 42575605 heartbeat IPC: 3.18 cumulative IPC: 3.158 (Simulation time: 00 hr 10 min 52 sec)
Heartbeat CPU 0 instructions: 146500993 cycles: 42733431 heartbeat IPC: 3.168 cumulative IPC: 3.158 (Simulation time: 00 hr 10 min 55 sec)
Heartbeat CPU 0 instructions: 147001000 cycles: 42889448 heartbeat IPC: 3.205 cumulative IPC: 3.158 (Simulation time: 00 hr 10 min 57 sec)
Heartbeat CPU 0 instructions: 147501000 cycles: 43043357 heartbeat IPC: 3.249 cumulative IPC: 3.159 (Simulation time: 00 hr 10 min 59 sec)
Heartbeat CPU 0 instructions: 148001007 cycles: 43199518 heartbeat IPC: 3.202 cumulative IPC: 3.159 (Simulation time: 00 hr 11 min 01 sec)
Heartbeat CPU 0 instructions: 148501010 cycles: 43354615 heartbeat IPC: 3.224 cumulative IPC: 3.159 (Simulation time: 00 hr 11 min 03 sec)
Heartbeat CPU 0 instructions: 149001015 cycles: 43509693 heartbeat IPC: 3.224 cumulative IPC: 3.16 (Simulation time: 00 hr 11 min 06 sec)
Heartbeat CPU 0 instructions: 149501021 cycles: 43666442 heartbeat IPC: 3.19 cumulative IPC: 3.16 (Simulation time: 00 hr 11 min 08 sec)
Heartbeat CPU 0 instructions: 150001024 cycles: 43826730 heartbeat IPC: 3.119 cumulative IPC: 3.16 (Simulation time: 00 hr 11 min 10 sec)
Heartbeat CPU 0 instructions: 150501027 cycles: 43988580 heartbeat IPC: 3.089 cumulative IPC: 3.159 (Simulation time: 00 hr 11 min 12 sec)
Heartbeat CPU 0 instructions: 151001030 cycles: 44147199 heartbeat IPC: 3.152 cumulative IPC: 3.159 (Simulation time: 00 hr 11 min 15 sec)
Heartbeat CPU 0 instructions: 151501032 cycles: 44306441 heartbeat IPC: 3.14 cumulative IPC: 3.159 (Simulation time: 00 hr 11 min 17 sec)
Heartbeat CPU 0 instructions: 152001032 cycles: 44469270 heartbeat IPC: 3.071 cumulative IPC: 3.159 (Simulation time: 00 hr 11 min 19 sec)
Heartbeat CPU 0 instructions: 152501032 cycles: 44629275 heartbeat IPC: 3.125 cumulative IPC: 3.158 (Simulation time: 00 hr 11 min 21 sec)
Heartbeat CPU 0 instructions: 153001039 cycles: 44789166 heartbeat IPC: 3.127 cumulative IPC: 3.158 (Simulation time: 00 hr 11 min 24 sec)
Heartbeat CPU 0 instructions: 153501039 cycles: 44949377 heartbeat IPC: 3.121 cumulative IPC: 3.158 (Simulation time: 00 hr 11 min 26 sec)
Heartbeat CPU 0 instructions: 154001045 cycles: 45109943 heartbeat IPC: 3.114 cumulative IPC: 3.158 (Simulation time: 00 hr 11 min 28 sec)
Heartbeat CPU 0 instructions: 154501047 cycles: 45267944 heartbeat IPC: 3.165 cumulative IPC: 3.158 (Simulation time: 00 hr 11 min 30 sec)
Heartbeat CPU 0 instructions: 155001054 cycles: 45424167 heartbeat IPC: 3.201 cumulative IPC: 3.158 (Simulation time: 00 hr 11 min 33 sec)
Heartbeat CPU 0 instructions: 155501054 cycles: 45587270 heartbeat IPC: 3.066 cumulative IPC: 3.158 (Simulation time: 00 hr 11 min 35 sec)
Heartbeat CPU 0 instructions: 156001055 cycles: 45746722 heartbeat IPC: 3.136 cumulative IPC: 3.158 (Simulation time: 00 hr 11 min 37 sec)
Heartbeat CPU 0 instructions: 156501058 cycles: 45903607 heartbeat IPC: 3.187 cumulative IPC: 3.158 (Simulation time: 00 hr 11 min 39 sec)
Heartbeat CPU 0 instructions: 157001063 cycles: 46057690 heartbeat IPC: 3.245 cumulative IPC: 3.158 (Simulation time: 00 hr 11 min 42 sec)
Heartbeat CPU 0 instructions: 157501063 cycles: 46216614 heartbeat IPC: 3.146 cumulative IPC: 3.158 (Simulation time: 00 hr 11 min 44 sec)
Heartbeat CPU 0 instructions: 158001063 cycles: 46373032 heartbeat IPC: 3.197 cumulative IPC: 3.158 (Simulation time: 00 hr 11 min 46 sec)
Heartbeat CPU 0 instructions: 158501065 cycles: 46531133 heartbeat IPC: 3.163 cumulative IPC: 3.158 (Simulation time: 00 hr 11 min 48 sec)
Heartbeat CPU 0 instructions: 159001065 cycles: 46685883 heartbeat IPC: 3.231 cumulative IPC: 3.159 (Simulation time: 00 hr 11 min 50 sec)
Heartbeat CPU 0 instructions: 159501066 cycles: 46842301 heartbeat IPC: 3.197 cumulative IPC: 3.159 (Simulation time: 00 hr 11 min 53 sec)
Heartbeat CPU 0 instructions: 160001069 cycles: 46997508 heartbeat IPC: 3.222 cumulative IPC: 3.159 (Simulation time: 00 hr 11 min 55 sec)
Heartbeat CPU 0 instructions: 160501072 cycles: 47153776 heartbeat IPC: 3.2 cumulative IPC: 3.159 (Simulation time: 00 hr 11 min 57 sec)
Heartbeat CPU 0 instructions: 161001079 cycles: 47305563 heartbeat IPC: 3.294 cumulative IPC: 3.16 (Simulation time: 00 hr 11 min 59 sec)
Heartbeat CPU 0 instructions: 161501082 cycles: 47461860 heartbeat IPC: 3.199 cumulative IPC: 3.16 (Simulation time: 00 hr 12 min 01 sec)
Heartbeat CPU 0 instructions: 162001084 cycles: 47623604 heartbeat IPC: 3.091 cumulative IPC: 3.16 (Simulation time: 00 hr 12 min 04 sec)
Heartbeat CPU 0 instructions: 162501085 cycles: 47783837 heartbeat IPC: 3.12 cumulative IPC: 3.159 (Simulation time: 00 hr 12 min 06 sec)
Heartbeat CPU 0 instructions: 163001087 cycles: 47943077 heartbeat IPC: 3.14 cumulative IPC: 3.159 (Simulation time: 00 hr 12 min 08 sec)
Heartbeat CPU 0 instructions: 163501089 cycles: 48103105 heartbeat IPC: 3.124 cumulative IPC: 3.159 (Simulation time: 00 hr 12 min 10 sec)
Heartbeat CPU 0 instructions: 164001093 cycles: 48265749 heartbeat IPC: 3.074 cumulative IPC: 3.159 (Simulation time: 00 hr 12 min 13 sec)
Heartbeat CPU 0 instructions: 164501097 cycles: 48426828 heartbeat IPC: 3.104 cumulative IPC: 3.159 (Simulation time: 00 hr 12 min 15 sec)
Heartbeat CPU 0 instructions: 165001101 cycles: 48584635 heartbeat IPC: 3.168 cumulative IPC: 3.159 (Simulation time: 00 hr 12 min 17 sec)
Heartbeat CPU 0 instructions: 165501105 cycles: 48744846 heartbeat IPC: 3.121 cumulative IPC: 3.158 (Simulation time: 00 hr 12 min 20 sec)
Heartbeat CPU 0 instructions: 166001109 cycles: 48905323 heartbeat IPC: 3.116 cumulative IPC: 3.158 (Simulation time: 00 hr 12 min 22 sec)
Heartbeat CPU 0 instructions: 166501111 cycles: 49064947 heartbeat IPC: 3.132 cumulative IPC: 3.158 (Simulation time: 00 hr 12 min 24 sec)
Heartbeat CPU 0 instructions: 167001114 cycles: 49220329 heartbeat IPC: 3.218 cumulative IPC: 3.158 (Simulation time: 00 hr 12 min 26 sec)
Heartbeat CPU 0 instructions: 167501116 cycles: 49379197 heartbeat IPC: 3.147 cumulative IPC: 3.158 (Simulation time: 00 hr 12 min 29 sec)
Heartbeat CPU 0 instructions: 168001123 cycles: 49541618 heartbeat IPC: 3.078 cumulative IPC: 3.158 (Simulation time: 00 hr 12 min 31 sec)
Heartbeat CPU 0 instructions: 168501124 cycles: 49699696 heartbeat IPC: 3.163 cumulative IPC: 3.158 (Simulation time: 00 hr 12 min 33 sec)
Heartbeat CPU 0 instructions: 169001125 cycles: 49853536 heartbeat IPC: 3.25 cumulative IPC: 3.158 (Simulation time: 00 hr 12 min 35 sec)
Heartbeat CPU 0 instructions: 169501128 cycles: 50009959 heartbeat IPC: 3.196 cumulative IPC: 3.159 (Simulation time: 00 hr 12 min 37 sec)
Heartbeat CPU 0 instructions: 170001130 cycles: 50167795 heartbeat IPC: 3.168 cumulative IPC: 3.159 (Simulation time: 00 hr 12 min 40 sec)
Heartbeat CPU 0 instructions: 170501135 cycles: 50324996 heartbeat IPC: 3.181 cumulative IPC: 3.159 (Simulation time: 00 hr 12 min 42 sec)
Heartbeat CPU 0 instructions: 171001141 cycles: 50480309 heartbeat IPC: 3.219 cumulative IPC: 3.159 (Simulation time: 00 hr 12 min 44 sec)
Heartbeat CPU 0 instructions: 171501142 cycles: 50636448 heartbeat IPC: 3.202 cumulative IPC: 3.159 (Simulation time: 00 hr 12 min 46 sec)
Heartbeat CPU 0 instructions: 172001145 cycles: 50792437 heartbeat IPC: 3.205 cumulative IPC: 3.159 (Simulation time: 00 hr 12 min 49 sec)
Heartbeat CPU 0 instructions: 172501151 cycles: 50948942 heartbeat IPC: 3.195 cumulative IPC: 3.159 (Simulation time: 00 hr 12 min 51 sec)
Heartbeat CPU 0 instructions: 173001155 cycles: 51103428 heartbeat IPC: 3.237 cumulative IPC: 3.16 (Simulation time: 00 hr 12 min 53 sec)
Heartbeat CPU 0 instructions: 173501160 cycles: 51258208 heartbeat IPC: 3.23 cumulative IPC: 3.16 (Simulation time: 00 hr 12 min 55 sec)
Heartbeat CPU 0 instructions: 174001166 cycles: 51414553 heartbeat IPC: 3.198 cumulative IPC: 3.16 (Simulation time: 00 hr 12 min 57 sec)
Heartbeat CPU 0 instructions: 174501166 cycles: 51576294 heartbeat IPC: 3.091 cumulative IPC: 3.16 (Simulation time: 00 hr 13 min 00 sec)
Heartbeat CPU 0 instructions: 175001167 cycles: 51733217 heartbeat IPC: 3.186 cumulative IPC: 3.16 (Simulation time: 00 hr 13 min 02 sec)
Heartbeat CPU 0 instructions: 175501170 cycles: 51895286 heartbeat IPC: 3.085 cumulative IPC: 3.16 (Simulation time: 00 hr 13 min 04 sec)
Heartbeat CPU 0 instructions: 176001177 cycles: 52056409 heartbeat IPC: 3.103 cumulative IPC: 3.16 (Simulation time: 00 hr 13 min 06 sec)
Heartbeat CPU 0 instructions: 176501178 cycles: 52219146 heartbeat IPC: 3.072 cumulative IPC: 3.159 (Simulation time: 00 hr 13 min 09 sec)
Heartbeat CPU 0 instructions: 177001179 cycles: 52376642 heartbeat IPC: 3.175 cumulative IPC: 3.159 (Simulation time: 00 hr 13 min 11 sec)
Heartbeat CPU 0 instructions: 177501180 cycles: 52537980 heartbeat IPC: 3.099 cumulative IPC: 3.159 (Simulation time: 00 hr 13 min 13 sec)
Heartbeat CPU 0 instructions: 178001184 cycles: 52698910 heartbeat IPC: 3.107 cumulative IPC: 3.159 (Simulation time: 00 hr 13 min 16 sec)
Heartbeat CPU 0 instructions: 178501189 cycles: 52859100 heartbeat IPC: 3.121 cumulative IPC: 3.159 (Simulation time: 00 hr 13 min 18 sec)
Heartbeat CPU 0 instructions: 179001195 cycles: 53015763 heartbeat IPC: 3.192 cumulative IPC: 3.159 (Simulation time: 00 hr 13 min 20 sec)
Heartbeat CPU 0 instructions: 179501198 cycles: 53174372 heartbeat IPC: 3.152 cumulative IPC: 3.159 (Simulation time: 00 hr 13 min 22 sec)
Heartbeat CPU 0 instructions: 180001201 cycles: 53333180 heartbeat IPC: 3.148 cumulative IPC: 3.159 (Simulation time: 00 hr 13 min 25 sec)
Heartbeat CPU 0 instructions: 180501204 cycles: 53496969 heartbeat IPC: 3.053 cumulative IPC: 3.158 (Simulation time: 00 hr 13 min 27 sec)
Heartbeat CPU 0 instructions: 181001209 cycles: 53652133 heartbeat IPC: 3.222 cumulative IPC: 3.159 (Simulation time: 00 hr 13 min 29 sec)
Heartbeat CPU 0 instructions: 181501209 cycles: 53809696 heartbeat IPC: 3.173 cumulative IPC: 3.159 (Simulation time: 00 hr 13 min 31 sec)
Heartbeat CPU 0 instructions: 182001209 cycles: 53966983 heartbeat IPC: 3.179 cumulative IPC: 3.159 (Simulation time: 00 hr 13 min 34 sec)
Heartbeat CPU 0 instructions: 182501209 cycles: 54124801 heartbeat IPC: 3.168 cumulative IPC: 3.159 (Simulation time: 00 hr 13 min 36 sec)
Heartbeat CPU 0 instructions: 183001210 cycles: 54280351 heartbeat IPC: 3.214 cumulative IPC: 3.159 (Simulation time: 00 hr 13 min 38 sec)
Heartbeat CPU 0 instructions: 183501211 cycles: 54436910 heartbeat IPC: 3.194 cumulative IPC: 3.159 (Simulation time: 00 hr 13 min 40 sec)
Heartbeat CPU 0 instructions: 184001215 cycles: 54594385 heartbeat IPC: 3.175 cumulative IPC: 3.159 (Simulation time: 00 hr 13 min 42 sec)
Heartbeat CPU 0 instructions: 184501220 cycles: 54749588 heartbeat IPC: 3.222 cumulative IPC: 3.159 (Simulation time: 00 hr 13 min 45 sec)
Heartbeat CPU 0 instructions: 185001225 cycles: 54905612 heartbeat IPC: 3.205 cumulative IPC: 3.159 (Simulation time: 00 hr 13 min 47 sec)
Heartbeat CPU 0 instructions: 185501228 cycles: 55060973 heartbeat IPC: 3.218 cumulative IPC: 3.16 (Simulation time: 00 hr 13 min 49 sec)
Heartbeat CPU 0 instructions: 186001230 cycles: 55216992 heartbeat IPC: 3.205 cumulative IPC: 3.16 (Simulation time: 00 hr 13 min 51 sec)
Heartbeat CPU 0 instructions: 186501235 cycles: 55371297 heartbeat IPC: 3.24 cumulative IPC: 3.16 (Simulation time: 00 hr 13 min 53 sec)
Heartbeat CPU 0 instructions: 187001241 cycles: 55535336 heartbeat IPC: 3.048 cumulative IPC: 3.16 (Simulation time: 00 hr 13 min 56 sec)
Heartbeat CPU 0 instructions: 187501242 cycles: 55695938 heartbeat IPC: 3.113 cumulative IPC: 3.16 (Simulation time: 00 hr 13 min 58 sec)
Heartbeat CPU 0 instructions: 188001247 cycles: 55857896 heartbeat IPC: 3.087 cumulative IPC: 3.159 (Simulation time: 00 hr 14 min 00 sec)
Heartbeat CPU 0 instructions: 188501251 cycles: 56016547 heartbeat IPC: 3.152 cumulative IPC: 3.159 (Simulation time: 00 hr 14 min 03 sec)
Heartbeat CPU 0 instructions: 189001255 cycles: 56179399 heartbeat IPC: 3.07 cumulative IPC: 3.159 (Simulation time: 00 hr 14 min 05 sec)
Heartbeat CPU 0 instructions: 189501259 cycles: 56341414 heartbeat IPC: 3.086 cumulative IPC: 3.159 (Simulation time: 00 hr 14 min 07 sec)
Heartbeat CPU 0 instructions: 190001262 cycles: 56502619 heartbeat IPC: 3.102 cumulative IPC: 3.158 (Simulation time: 00 hr 14 min 09 sec)
Heartbeat CPU 0 instructions: 190501267 cycles: 56661682 heartbeat IPC: 3.143 cumulative IPC: 3.158 (Simulation time: 00 hr 14 min 12 sec)
Heartbeat CPU 0 instructions: 191001271 cycles: 56821188 heartbeat IPC: 3.135 cumulative IPC: 3.158 (Simulation time: 00 hr 14 min 14 sec)
Heartbeat CPU 0 instructions: 191501278 cycles: 56979221 heartbeat IPC: 3.164 cumulative IPC: 3.158 (Simulation time: 00 hr 14 min 16 sec)
Heartbeat CPU 0 instructions: 192001285 cycles: 57138266 heartbeat IPC: 3.144 cumulative IPC: 3.158 (Simulation time: 00 hr 14 min 18 sec)
Heartbeat CPU 0 instructions: 192501290 cycles: 57294613 heartbeat IPC: 3.198 cumulative IPC: 3.158 (Simulation time: 00 hr 14 min 21 sec)
Heartbeat CPU 0 instructions: 193001295 cycles: 57456451 heartbeat IPC: 3.09 cumulative IPC: 3.158 (Simulation time: 00 hr 14 min 23 sec)
Heartbeat CPU 0 instructions: 193501295 cycles: 57614266 heartbeat IPC: 3.168 cumulative IPC: 3.158 (Simulation time: 00 hr 14 min 25 sec)
Heartbeat CPU 0 instructions: 194001301 cycles: 57769961 heartbeat IPC: 3.211 cumulative IPC: 3.158 (Simulation time: 00 hr 14 min 27 sec)
Heartbeat CPU 0 instructions: 194501301 cycles: 57924780 heartbeat IPC: 3.23 cumulative IPC: 3.159 (Simulation time: 00 hr 14 min 30 sec)
Heartbeat CPU 0 instructions: 195001303 cycles: 58082001 heartbeat IPC: 3.18 cumulative IPC: 3.159 (Simulation time: 00 hr 14 min 32 sec)
Heartbeat CPU 0 instructions: 195501305 cycles: 58239432 heartbeat IPC: 3.176 cumulative IPC: 3.159 (Simulation time: 00 hr 14 min 34 sec)
Heartbeat CPU 0 instructions: 196001309 cycles: 58397115 heartbeat IPC: 3.171 cumulative IPC: 3.159 (Simulation time: 00 hr 14 min 36 sec)
Heartbeat CPU 0 instructions: 196501312 cycles: 58550176 heartbeat IPC: 3.267 cumulative IPC: 3.159 (Simulation time: 00 hr 14 min 38 sec)
Heartbeat CPU 0 instructions: 197001317 cycles: 58708115 heartbeat IPC: 3.166 cumulative IPC: 3.159 (Simulation time: 00 hr 14 min 41 sec)
Heartbeat CPU 0 instructions: 197501321 cycles: 58863038 heartbeat IPC: 3.227 cumulative IPC: 3.159 (Simulation time: 00 hr 14 min 43 sec)
Heartbeat CPU 0 instructions: 198001325 cycles: 59019654 heartbeat IPC: 3.193 cumulative IPC: 3.16 (Simulation time: 00 hr 14 min 45 sec)
Heartbeat CPU 0 instructions: 198501325 cycles: 59172897 heartbeat IPC: 3.263 cumulative IPC: 3.16 (Simulation time: 00 hr 14 min 47 sec)
Heartbeat CPU 0 instructions: 199001326 cycles: 59333276 heartbeat IPC: 3.118 cumulative IPC: 3.16 (Simulation time: 00 hr 14 min 50 sec)
Heartbeat CPU 0 instructions: 199501332 cycles: 59493146 heartbeat IPC: 3.128 cumulative IPC: 3.16 (Simulation time: 00 hr 14 min 52 sec)
Heartbeat CPU 0 instructions: 200001339 cycles: 59656174 heartbeat IPC: 3.067 cumulative IPC: 3.159 (Simulation time: 00 hr 14 min 54 sec)
Heartbeat CPU 0 instructions: 200501344 cycles: 59814031 heartbeat IPC: 3.167 cumulative IPC: 3.159 (Simulation time: 00 hr 14 min 56 sec)
Heartbeat CPU 0 instructions: 201001349 cycles: 59977300 heartbeat IPC: 3.062 cumulative IPC: 3.159 (Simulation time: 00 hr 14 min 59 sec)
Heartbeat CPU 0 instructions: 201501349 cycles: 60139776 heartbeat IPC: 3.077 cumulative IPC: 3.159 (Simulation time: 00 hr 15 min 01 sec)
Heartbeat CPU 0 instructions: 202001354 cycles: 60300055 heartbeat IPC: 3.12 cumulative IPC: 3.159 (Simulation time: 00 hr 15 min 03 sec)
Heartbeat CPU 0 instructions: 202501354 cycles: 60458900 heartbeat IPC: 3.148 cumulative IPC: 3.159 (Simulation time: 00 hr 15 min 06 sec)
Heartbeat CPU 0 instructions: 203001357 cycles: 60620490 heartbeat IPC: 3.094 cumulative IPC: 3.158 (Simulation time: 00 hr 15 min 08 sec)
Heartbeat CPU 0 instructions: 203501358 cycles: 60780775 heartbeat IPC: 3.119 cumulative IPC: 3.158 (Simulation time: 00 hr 15 min 10 sec)
Heartbeat CPU 0 instructions: 204001363 cycles: 60938440 heartbeat IPC: 3.171 cumulative IPC: 3.158 (Simulation time: 00 hr 15 min 12 sec)
Heartbeat CPU 0 instructions: 204501364 cycles: 61094264 heartbeat IPC: 3.209 cumulative IPC: 3.158 (Simulation time: 00 hr 15 min 15 sec)
Heartbeat CPU 0 instructions: 205001371 cycles: 61255963 heartbeat IPC: 3.092 cumulative IPC: 3.158 (Simulation time: 00 hr 15 min 17 sec)
Heartbeat CPU 0 instructions: 205501371 cycles: 61415890 heartbeat IPC: 3.126 cumulative IPC: 3.158 (Simulation time: 00 hr 15 min 19 sec)
Heartbeat CPU 0 instructions: 206001371 cycles: 61572386 heartbeat IPC: 3.195 cumulative IPC: 3.158 (Simulation time: 00 hr 15 min 21 sec)
Heartbeat CPU 0 instructions: 206501375 cycles: 61726277 heartbeat IPC: 3.249 cumulative IPC: 3.158 (Simulation time: 00 hr 15 min 23 sec)
Heartbeat CPU 0 instructions: 207001378 cycles: 61884949 heartbeat IPC: 3.151 cumulative IPC: 3.158 (Simulation time: 00 hr 15 min 26 sec)
Heartbeat CPU 0 instructions: 207501383 cycles: 62041251 heartbeat IPC: 3.199 cumulative IPC: 3.159 (Simulation time: 00 hr 15 min 28 sec)
Heartbeat CPU 0 instructions: 208001383 cycles: 62198476 heartbeat IPC: 3.18 cumulative IPC: 3.159 (Simulation time: 00 hr 15 min 30 sec)
Heartbeat CPU 0 instructions: 208501390 cycles: 62353738 heartbeat IPC: 3.22 cumulative IPC: 3.159 (Simulation time: 00 hr 15 min 32 sec)
Heartbeat CPU 0 instructions: 209001394 cycles: 62509387 heartbeat IPC: 3.212 cumulative IPC: 3.159 (Simulation time: 00 hr 15 min 35 sec)
Heartbeat CPU 0 instructions: 209501401 cycles: 62664721 heartbeat IPC: 3.219 cumulative IPC: 3.159 (Simulation time: 00 hr 15 min 37 sec)
Heartbeat CPU 0 instructions: 210001401 cycles: 62819821 heartbeat IPC: 3.224 cumulative IPC: 3.159 (Simulation time: 00 hr 15 min 39 sec)
Heartbeat CPU 0 instructions: 210501406 cycles: 62973363 heartbeat IPC: 3.256 cumulative IPC: 3.16 (Simulation time: 00 hr 15 min 41 sec)
Heartbeat CPU 0 instructions: 211001411 cycles: 63128260 heartbeat IPC: 3.228 cumulative IPC: 3.16 (Simulation time: 00 hr 15 min 43 sec)
Heartbeat CPU 0 instructions: 211501413 cycles: 63287855 heartbeat IPC: 3.133 cumulative IPC: 3.16 (Simulation time: 00 hr 15 min 46 sec)
Heartbeat CPU 0 instructions: 212001418 cycles: 63447625 heartbeat IPC: 3.13 cumulative IPC: 3.16 (Simulation time: 00 hr 15 min 48 sec)
Heartbeat CPU 0 instructions: 212501420 cycles: 63606509 heartbeat IPC: 3.147 cumulative IPC: 3.16 (Simulation time: 00 hr 15 min 50 sec)
Heartbeat CPU 0 instructions: 213001425 cycles: 63766891 heartbeat IPC: 3.118 cumulative IPC: 3.16 (Simulation time: 00 hr 15 min 53 sec)
Heartbeat CPU 0 instructions: 213501429 cycles: 63928696 heartbeat IPC: 3.09 cumulative IPC: 3.159 (Simulation time: 00 hr 15 min 55 sec)
Heartbeat CPU 0 instructions: 214001433 cycles: 64089244 heartbeat IPC: 3.114 cumulative IPC: 3.159 (Simulation time: 00 hr 15 min 57 sec)
Heartbeat CPU 0 instructions: 214501433 cycles: 64247106 heartbeat IPC: 3.167 cumulative IPC: 3.159 (Simulation time: 00 hr 15 min 59 sec)
Heartbeat CPU 0 instructions: 215001433 cycles: 64408644 heartbeat IPC: 3.095 cumulative IPC: 3.159 (Simulation time: 00 hr 16 min 02 sec)
Heartbeat CPU 0 instructions: 215501440 cycles: 64569418 heartbeat IPC: 3.11 cumulative IPC: 3.159 (Simulation time: 00 hr 16 min 04 sec)
Heartbeat CPU 0 instructions: 216001441 cycles: 64727776 heartbeat IPC: 3.157 cumulative IPC: 3.159 (Simulation time: 00 hr 16 min 06 sec)
Heartbeat CPU 0 instructions: 216501444 cycles: 64884495 heartbeat IPC: 3.19 cumulative IPC: 3.159 (Simulation time: 00 hr 16 min 08 sec)
Heartbeat CPU 0 instructions: 217001446 cycles: 65044421 heartbeat IPC: 3.126 cumulative IPC: 3.159 (Simulation time: 00 hr 16 min 11 sec)
Heartbeat CPU 0 instructions: 217501452 cycles: 65206686 heartbeat IPC: 3.081 cumulative IPC: 3.159 (Simulation time: 00 hr 16 min 13 sec)
Heartbeat CPU 0 instructions: 218001456 cycles: 65363316 heartbeat IPC: 3.192 cumulative IPC: 3.159 (Simulation time: 00 hr 16 min 15 sec)
Heartbeat CPU 0 instructions: 218501460 cycles: 65519774 heartbeat IPC: 3.196 cumulative IPC: 3.159 (Simulation time: 00 hr 16 min 17 sec)
Heartbeat CPU 0 instructions: 219001465 cycles: 65677550 heartbeat IPC: 3.169 cumulative IPC: 3.159 (Simulation time: 00 hr 16 min 20 sec)
Heartbeat CPU 0 instructions: 219501466 cycles: 65835189 heartbeat IPC: 3.172 cumulative IPC: 3.159 (Simulation time: 00 hr 16 min 22 sec)
Heartbeat CPU 0 instructions: 220001466 cycles: 65990079 heartbeat IPC: 3.228 cumulative IPC: 3.159 (Simulation time: 00 hr 16 min 24 sec)
Heartbeat CPU 0 instructions: 220501472 cycles: 66147576 heartbeat IPC: 3.175 cumulative IPC: 3.159 (Simulation time: 00 hr 16 min 26 sec)
Heartbeat CPU 0 instructions: 221001479 cycles: 66304519 heartbeat IPC: 3.186 cumulative IPC: 3.159 (Simulation time: 00 hr 16 min 28 sec)
Heartbeat CPU 0 instructions: 221501479 cycles: 66461624 heartbeat IPC: 3.183 cumulative IPC: 3.159 (Simulation time: 00 hr 16 min 31 sec)
Heartbeat CPU 0 instructions: 222001479 cycles: 66615561 heartbeat IPC: 3.248 cumulative IPC: 3.16 (Simulation time: 00 hr 16 min 33 sec)
Heartbeat CPU 0 instructions: 222501483 cycles: 66773275 heartbeat IPC: 3.17 cumulative IPC: 3.16 (Simulation time: 00 hr 16 min 35 sec)
Heartbeat CPU 0 instructions: 223001488 cycles: 66927712 heartbeat IPC: 3.238 cumulative IPC: 3.16 (Simulation time: 00 hr 16 min 37 sec)
Heartbeat CPU 0 instructions: 223501490 cycles: 67082394 heartbeat IPC: 3.232 cumulative IPC: 3.16 (Simulation time: 00 hr 16 min 39 sec)
Heartbeat CPU 0 instructions: 224001491 cycles: 67242395 heartbeat IPC: 3.125 cumulative IPC: 3.16 (Simulation time: 00 hr 16 min 42 sec)
Heartbeat CPU 0 instructions: 224501498 cycles: 67403772 heartbeat IPC: 3.098 cumulative IPC: 3.16 (Simulation time: 00 hr 16 min 44 sec)
Heartbeat CPU 0 instructions: 225001503 cycles: 67565572 heartbeat IPC: 3.09 cumulative IPC: 3.159 (Simulation time: 00 hr 16 min 46 sec)
Heartbeat CPU 0 instructions: 225501505 cycles: 67726914 heartbeat IPC: 3.099 cumulative IPC: 3.159 (Simulation time: 00 hr 16 min 49 sec)
Heartbeat CPU 0 instructions: 226001510 cycles: 67884695 heartbeat IPC: 3.169 cumulative IPC: 3.159 (Simulation time: 00 hr 16 min 51 sec)
Heartbeat CPU 0 instructions: 226501514 cycles: 68046825 heartbeat IPC: 3.084 cumulative IPC: 3.159 (Simulation time: 00 hr 16 min 53 sec)
Heartbeat CPU 0 instructions: 227001519 cycles: 68207233 heartbeat IPC: 3.117 cumulative IPC: 3.159 (Simulation time: 00 hr 16 min 55 sec)
Heartbeat CPU 0 instructions: 227501520 cycles: 68368768 heartbeat IPC: 3.095 cumulative IPC: 3.159 (Simulation time: 00 hr 16 min 58 sec)
Heartbeat CPU 0 instructions: 228001521 cycles: 68525451 heartbeat IPC: 3.191 cumulative IPC: 3.159 (Simulation time: 00 hr 17 min 00 sec)
Heartbeat CPU 0 instructions: 228501521 cycles: 68684596 heartbeat IPC: 3.142 cumulative IPC: 3.159 (Simulation time: 00 hr 17 min 02 sec)
Heartbeat CPU 0 instructions: 229001525 cycles: 68844221 heartbeat IPC: 3.132 cumulative IPC: 3.159 (Simulation time: 00 hr 17 min 04 sec)
Heartbeat CPU 0 instructions: 229501529 cycles: 69002316 heartbeat IPC: 3.163 cumulative IPC: 3.159 (Simulation time: 00 hr 17 min 07 sec)
Heartbeat CPU 0 instructions: 230001532 cycles: 69162795 heartbeat IPC: 3.116 cumulative IPC: 3.159 (Simulation time: 00 hr 17 min 09 sec)
Heartbeat CPU 0 instructions: 230501537 cycles: 69321295 heartbeat IPC: 3.155 cumulative IPC: 3.159 (Simulation time: 00 hr 17 min 11 sec)
Heartbeat CPU 0 instructions: 231001542 cycles: 69479874 heartbeat IPC: 3.153 cumulative IPC: 3.159 (Simulation time: 00 hr 17 min 13 sec)
Heartbeat CPU 0 instructions: 231501548 cycles: 69636521 heartbeat IPC: 3.192 cumulative IPC: 3.159 (Simulation time: 00 hr 17 min 15 sec)
Heartbeat CPU 0 instructions: 232001549 cycles: 69791523 heartbeat IPC: 3.226 cumulative IPC: 3.159 (Simulation time: 00 hr 17 min 18 sec)
Heartbeat CPU 0 instructions: 232501552 cycles: 69946819 heartbeat IPC: 3.22 cumulative IPC: 3.159 (Simulation time: 00 hr 17 min 20 sec)
Heartbeat CPU 0 instructions: 233001557 cycles: 70104931 heartbeat IPC: 3.162 cumulative IPC: 3.159 (Simulation time: 00 hr 17 min 22 sec)
Heartbeat CPU 0 instructions: 233501560 cycles: 70260831 heartbeat IPC: 3.207 cumulative IPC: 3.159 (Simulation time: 00 hr 17 min 24 sec)
Heartbeat CPU 0 instructions: 234001564 cycles: 70415220 heartbeat IPC: 3.239 cumulative IPC: 3.159 (Simulation time: 00 hr 17 min 26 sec)
Heartbeat CPU 0 instructions: 234501568 cycles: 70570276 heartbeat IPC: 3.225 cumulative IPC: 3.16 (Simulation time: 00 hr 17 min 29 sec)
Heartbeat CPU 0 instructions: 235001573 cycles: 70727840 heartbeat IPC: 3.173 cumulative IPC: 3.16 (Simulation time: 00 hr 17 min 31 sec)
Heartbeat CPU 0 instructions: 235501575 cycles: 70883184 heartbeat IPC: 3.219 cumulative IPC: 3.16 (Simulation time: 00 hr 17 min 33 sec)
Heartbeat CPU 0 instructions: 236001575 cycles: 71037973 heartbeat IPC: 3.23 cumulative IPC: 3.16 (Simulation time: 00 hr 17 min 35 sec)
Heartbeat CPU 0 instructions: 236501576 cycles: 71200278 heartbeat IPC: 3.081 cumulative IPC: 3.16 (Simulation time: 00 hr 17 min 37 sec)
Heartbeat CPU 0 instructions: 237001579 cycles: 71360827 heartbeat IPC: 3.114 cumulative IPC: 3.16 (Simulation time: 00 hr 17 min 40 sec)
Heartbeat CPU 0 instructions: 237501583 cycles: 71521696 heartbeat IPC: 3.108 cumulative IPC: 3.16 (Simulation time: 00 hr 17 min 42 sec)
Heartbeat CPU 0 instructions: 238001586 cycles: 71679324 heartbeat IPC: 3.172 cumulative IPC: 3.16 (Simulation time: 00 hr 17 min 44 sec)
Heartbeat CPU 0 instructions: 238501591 cycles: 71840663 heartbeat IPC: 3.099 cumulative IPC: 3.159 (Simulation time: 00 hr 17 min 46 sec)
Heartbeat CPU 0 instructions: 239001594 cycles: 72002487 heartbeat IPC: 3.09 cumulative IPC: 3.159 (Simulation time: 00 hr 17 min 49 sec)
Heartbeat CPU 0 instructions: 239501594 cycles: 72163248 heartbeat IPC: 3.11 cumulative IPC: 3.159 (Simulation time: 00 hr 17 min 51 sec)
Heartbeat CPU 0 instructions: 240001595 cycles: 72321012 heartbeat IPC: 3.169 cumulative IPC: 3.159 (Simulation time: 00 hr 17 min 53 sec)
Heartbeat CPU 0 instructions: 240501598 cycles: 72481257 heartbeat IPC: 3.12 cumulative IPC: 3.159 (Simulation time: 00 hr 17 min 55 sec)
Heartbeat CPU 0 instructions: 241001603 cycles: 72640866 heartbeat IPC: 3.133 cumulative IPC: 3.159 (Simulation time: 00 hr 17 min 58 sec)
Heartbeat CPU 0 instructions: 241501606 cycles: 72798705 heartbeat IPC: 3.168 cumulative IPC: 3.159 (Simulation time: 00 hr 18 min 00 sec)
Heartbeat CPU 0 instructions: 242001610 cycles: 72955461 heartbeat IPC: 3.19 cumulative IPC: 3.159 (Simulation time: 00 hr 18 min 02 sec)
Heartbeat CPU 0 instructions: 242501610 cycles: 73116996 heartbeat IPC: 3.095 cumulative IPC: 3.159 (Simulation time: 00 hr 18 min 04 sec)
Heartbeat CPU 0 instructions: 243001611 cycles: 73274848 heartbeat IPC: 3.168 cumulative IPC: 3.159 (Simulation time: 00 hr 18 min 06 sec)
Heartbeat CPU 0 instructions: 243501612 cycles: 73432602 heartbeat IPC: 3.169 cumulative IPC: 3.159 (Simulation time: 00 hr 18 min 09 sec)
Heartbeat CPU 0 instructions: 244001613 cycles: 73587732 heartbeat IPC: 3.223 cumulative IPC: 3.159 (Simulation time: 00 hr 18 min 11 sec)
Heartbeat CPU 0 instructions: 244501614 cycles: 73745311 heartbeat IPC: 3.173 cumulative IPC: 3.159 (Simulation time: 00 hr 18 min 13 sec)
Heartbeat CPU 0 instructions: 245001617 cycles: 73903116 heartbeat IPC: 3.168 cumulative IPC: 3.159 (Simulation time: 00 hr 18 min 15 sec)
Heartbeat CPU 0 instructions: 245501622 cycles: 74060458 heartbeat IPC: 3.178 cumulative IPC: 3.159 (Simulation time: 00 hr 18 min 17 sec)
Heartbeat CPU 0 instructions: 246001624 cycles: 74213519 heartbeat IPC: 3.267 cumulative IPC: 3.159 (Simulation time: 00 hr 18 min 20 sec)
Heartbeat CPU 0 instructions: 246501629 cycles: 74369554 heartbeat IPC: 3.204 cumulative IPC: 3.16 (Simulation time: 00 hr 18 min 22 sec)
Heartbeat CPU 0 instructions: 247001634 cycles: 74526244 heartbeat IPC: 3.191 cumulative IPC: 3.16 (Simulation time: 00 hr 18 min 24 sec)
Heartbeat CPU 0 instructions: 247501638 cycles: 74682070 heartbeat IPC: 3.209 cumulative IPC: 3.16 (Simulation time: 00 hr 18 min 26 sec)
Heartbeat CPU 0 instructions: 248001641 cycles: 74835956 heartbeat IPC: 3.249 cumulative IPC: 3.16 (Simulation time: 00 hr 18 min 28 sec)
Heartbeat CPU 0 instructions: 248501641 cycles: 74993324 heartbeat IPC: 3.177 cumulative IPC: 3.16 (Simulation time: 00 hr 18 min 31 sec)
Heartbeat CPU 0 instructions: 249001641 cycles: 75153894 heartbeat IPC: 3.114 cumulative IPC: 3.16 (Simulation time: 00 hr 18 min 33 sec)
Heartbeat CPU 0 instructions: 249501645 cycles: 75312430 heartbeat IPC: 3.154 cumulative IPC: 3.16 (Simulation time: 00 hr 18 min 35 sec)
Simulation finished CPU 0 instructions: 200000001 cycles: 63294210 cumulative IPC: 3.16 (Simulation time: 00 hr 18 min 37 sec)
Simulation complete CPU 0 instructions: 200000001 cycles: 63294210 cumulative IPC: 3.16 (Simulation time: 00 hr 18 min 37 sec)

ChampSim completed all CPUs

=== Simulation ===
CPU 0 runs /local-ssd/ben/dpc4-traces/ai-ml/bark.cpp-bark-small.coarse_token_gen.1.champsimtrace.gz

Region of Interest Statistics

CPU 0 cumulative IPC: 3.16 instructions: 200000001 cycles: 63294210
CPU 0 Branch Prediction Accuracy: 94.31% MPKI: 4.229 Average ROB Occupancy at Mispredict: 193.5
Branch type MPKI
BRANCH_DIRECT_JUMP: 0
BRANCH_INDIRECT: 0
BRANCH_CONDITIONAL: 4.229
BRANCH_DIRECT_CALL: 0
BRANCH_INDIRECT_CALL: 0
BRANCH_RETURN: 0

cpu0->cpu0_STLB TOTAL        ACCESS:      24602 HIT:      23738 MISS:        864 MSHR_MERGE:          0
cpu0->cpu0_STLB LOAD         ACCESS:      24602 HIT:      23738 MISS:        864 MSHR_MERGE:          0
cpu0->cpu0_STLB RFO          ACCESS:          0 HIT:          0 MISS:          0 MSHR_MERGE:          0
cpu0->cpu0_STLB PREFETCH     ACCESS:          0 HIT:          0 MISS:          0 MSHR_MERGE:          0
cpu0->cpu0_STLB WRITE        ACCESS:          0 HIT:          0 MISS:          0 MSHR_MERGE:          0
cpu0->cpu0_STLB TRANSLATION  ACCESS:          0 HIT:          0 MISS:          0 MSHR_MERGE:          0
cpu0->cpu0_STLB PREFETCH REQUESTED:          0 ISSUED:          0 USEFUL:          0 USELESS:          0
cpu0->cpu0_STLB AVERAGE MISS LATENCY: 272.8 cycles
cpu0->cpu0_L2C TOTAL        ACCESS:    9175293 HIT:    5341969 MISS:    3833324 MSHR_MERGE:    2586907
cpu0->cpu0_L2C LOAD         ACCESS:    2092372 HIT:    1140121 MISS:     952251 MSHR_MERGE:     332107
cpu0->cpu0_L2C RFO          ACCESS:      99132 HIT:      49318 MISS:      49814 MSHR_MERGE:          0
cpu0->cpu0_L2C PREFETCH     ACCESS:    6874996 HIT:    4043929 MISS:    2831067 MSHR_MERGE:    2254800
cpu0->cpu0_L2C WRITE        ACCESS:     108428 HIT:     108428 MISS:          0 MSHR_MERGE:          0
cpu0->cpu0_L2C TRANSLATION  ACCESS:        365 HIT:        173 MISS:        192 MSHR_MERGE:          0
cpu0->cpu0_L2C PREFETCH REQUESTED:   12436778 ISSUED:    6614448 USEFUL:     462525 USELESS:      40706
cpu0->cpu0_L2C AVERAGE MISS LATENCY: 104.1 cycles
cpu0->cpu0_L1I TOTAL        ACCESS:   22556494 HIT:   22556494 MISS:          0 MSHR_MERGE:          0
cpu0->cpu0_L1I LOAD         ACCESS:   22556494 HIT:   22556494 MISS:          0 MSHR_MERGE:          0
cpu0->cpu0_L1I RFO          ACCESS:          0 HIT:          0 MISS:          0 MSHR_MERGE:          0
cpu0->cpu0_L1I PREFETCH     ACCESS:          0 HIT:          0 MISS:          0 MSHR_MERGE:          0
cpu0->cpu0_L1I WRITE        ACCESS:          0 HIT:          0 MISS:          0 MSHR_MERGE:          0
cpu0->cpu0_L1I TRANSLATION  ACCESS:          0 HIT:          0 MISS:          0 MSHR_MERGE:          0
cpu0->cpu0_L1I PREFETCH REQUESTED:          0 ISSUED:          0 USEFUL:          0 USELESS:          0
cpu0->cpu0_L1I AVERAGE MISS LATENCY: - cycles
cpu0->cpu0_L1D TOTAL        ACCESS:   63938672 HIT:   60525076 MISS:    3413596 MSHR_MERGE:     961179
cpu0->cpu0_L1D LOAD         ACCESS:   47311582 HIT:   44808623 MISS:    2502959 MSHR_MERGE:     410587
cpu0->cpu0_L1D RFO          ACCESS:          0 HIT:          0 MISS:          0 MSHR_MERGE:          0
cpu0->cpu0_L1D PREFETCH     ACCESS:   12910379 HIT:   12099239 MISS:     811140 MSHR_MERGE:     550592
cpu0->cpu0_L1D WRITE        ACCESS:    3714982 HIT:    3615850 MISS:      99132 MSHR_MERGE:          0
cpu0->cpu0_L1D TRANSLATION  ACCESS:       1729 HIT:       1364 MISS:        365 MSHR_MERGE:          0
cpu0->cpu0_L1D PREFETCH REQUESTED:  252179218 ISSUED:   12910379 USEFUL:     238209 USELESS:      22327
cpu0->cpu0_L1D AVERAGE MISS LATENCY: 57.09 cycles
cpu0->cpu0_ITLB TOTAL        ACCESS:   16911171 HIT:   16911171 MISS:          0 MSHR_MERGE:          0
cpu0->cpu0_ITLB LOAD         ACCESS:   16911171 HIT:   16911171 MISS:          0 MSHR_MERGE:          0
cpu0->cpu0_ITLB RFO          ACCESS:          0 HIT:          0 MISS:          0 MSHR_MERGE:          0
cpu0->cpu0_ITLB PREFETCH     ACCESS:          0 HIT:          0 MISS:          0 MSHR_MERGE:          0
cpu0->cpu0_ITLB WRITE        ACCESS:          0 HIT:          0 MISS:          0 MSHR_MERGE:          0
cpu0->cpu0_ITLB TRANSLATION  ACCESS:          0 HIT:          0 MISS:          0 MSHR_MERGE:          0
cpu0->cpu0_ITLB PREFETCH REQUESTED:          0 ISSUED:          0 USEFUL:          0 USELESS:          0
cpu0->cpu0_ITLB AVERAGE MISS LATENCY: - cycles
cpu0->cpu0_DTLB TOTAL        ACCESS:   52947061 HIT:   52904560 MISS:      42501 MSHR_MERGE:      17899
cpu0->cpu0_DTLB LOAD         ACCESS:   52947061 HIT:   52904560 MISS:      42501 MSHR_MERGE:      17899
cpu0->cpu0_DTLB RFO          ACCESS:          0 HIT:          0 MISS:          0 MSHR_MERGE:          0
cpu0->cpu0_DTLB PREFETCH     ACCESS:          0 HIT:          0 MISS:          0 MSHR_MERGE:          0
cpu0->cpu0_DTLB WRITE        ACCESS:          0 HIT:          0 MISS:          0 MSHR_MERGE:          0
cpu0->cpu0_DTLB TRANSLATION  ACCESS:          0 HIT:          0 MISS:          0 MSHR_MERGE:          0
cpu0->cpu0_DTLB PREFETCH REQUESTED:          0 ISSUED:          0 USEFUL:          0 USELESS:          0
cpu0->cpu0_DTLB AVERAGE MISS LATENCY: 14.61 cycles
cpu0->LLC TOTAL        ACCESS:    2453940 HIT:    1217634 MISS:    1236306 MSHR_MERGE:     547091
cpu0->LLC LOAD         ACCESS:     620144 HIT:     385925 MISS:     234219 MSHR_MERGE:     151459
cpu0->LLC RFO          ACCESS:      49814 HIT:        144 MISS:      49670 MSHR_MERGE:          0
cpu0->LLC PREFETCH     ACCESS:    1733974 HIT:     824816 MISS:     909158 MSHR_MERGE:     395632
cpu0->LLC WRITE        ACCESS:      49816 HIT:       6746 MISS:      43070 MSHR_MERGE:          0
cpu0->LLC TRANSLATION  ACCESS:        192 HIT:          3 MISS:        189 MSHR_MERGE:          0
cpu0->LLC PREFETCH REQUESTED:    1158202 ISSUED:    1157707 USEFUL:     178988 USELESS:     287626
cpu0->LLC AVERAGE MISS LATENCY: 172.5 cycles

DRAM Statistics

Channel 0 RQ ROW_BUFFER_HIT:     175118
  ROW_BUFFER_MISS:     471027
  AVG DBUS CONGESTED CYCLE: 9.451
Channel 0 WQ ROW_BUFFER_HIT:      13520
  ROW_BUFFER_MISS:      34077
  FULL:          0
Channel 0 REFRESHES ISSUED:       5274
