[VMEM] WARNING: physical memory size is smaller than virtual memory size.

*** ChampSim Multicore Out-of-Order Simulator ***
Warmup Instructions: 50000000
Simulation Instructions: 200000000
Number of CPUs: 1
Page size: 4096
Core 0: /local-ssd/ben/dpc4-traces/Graph/GMS/gms.k_clique_list_danisch_edge_parallel.soc-pokec-relationships.slice-367.champsimtrace.gz
IPCP_AT_L1_CONFIG
NUM_IP_TABLE_L1_ENTRIES 1024
NUM_GHB_ENTRIES 16
NUM_IP_INDEX_BITS 10
NUM_IP_TAG_BITS 6
S_TYPE 1
CS_TYPE 2
CPLX_TYPE 3
NL_TYPE 4

Off-chip DRAM Size: 64 GiB Channels: 1 Width: 64-bit Data Rate: 4807 MT/s
Heartbeat CPU 0 instructions: 500001 cycles: 152428 heartbeat IPC: 3.28 cumulative IPC: 3.28 (Simulation time: 00 hr 00 min 02 sec)
Heartbeat CPU 0 instructions: 1000006 cycles: 325282 heartbeat IPC: 2.893 cumulative IPC: 3.074 (Simulation time: 00 hr 00 min 05 sec)
Heartbeat CPU 0 instructions: 1500010 cycles: 469117 heartbeat IPC: 3.476 cumulative IPC: 3.198 (Simulation time: 00 hr 00 min 07 sec)
Heartbeat CPU 0 instructions: 2000010 cycles: 601051 heartbeat IPC: 3.79 cumulative IPC: 3.328 (Simulation time: 00 hr 00 min 08 sec)
Heartbeat CPU 0 instructions: 2500011 cycles: 736226 heartbeat IPC: 3.699 cumulative IPC: 3.396 (Simulation time: 00 hr 00 min 10 sec)
Heartbeat CPU 0 instructions: 3000016 cycles: 847651 heartbeat IPC: 4.487 cumulative IPC: 3.539 (Simulation time: 00 hr 00 min 12 sec)
Heartbeat CPU 0 instructions: 3500023 cycles: 955960 heartbeat IPC: 4.616 cumulative IPC: 3.661 (Simulation time: 00 hr 00 min 14 sec)
Heartbeat CPU 0 instructions: 4000025 cycles: 1068271 heartbeat IPC: 4.452 cumulative IPC: 3.744 (Simulation time: 00 hr 00 min 16 sec)
Heartbeat CPU 0 instructions: 4500029 cycles: 1173780 heartbeat IPC: 4.739 cumulative IPC: 3.834 (Simulation time: 00 hr 00 min 17 sec)
Heartbeat CPU 0 instructions: 5000029 cycles: 1283583 heartbeat IPC: 4.554 cumulative IPC: 3.895 (Simulation time: 00 hr 00 min 19 sec)
Heartbeat CPU 0 instructions: 5500030 cycles: 1393354 heartbeat IPC: 4.555 cumulative IPC: 3.947 (Simulation time: 00 hr 00 min 21 sec)
Heartbeat CPU 0 instructions: 6000032 cycles: 1506803 heartbeat IPC: 4.407 cumulative IPC: 3.982 (Simulation time: 00 hr 00 min 23 sec)
Heartbeat CPU 0 instructions: 6500039 cycles: 1619076 heartbeat IPC: 4.453 cumulative IPC: 4.015 (Simulation time: 00 hr 00 min 24 sec)
Heartbeat CPU 0 instructions: 7000042 cycles: 1737403 heartbeat IPC: 4.226 cumulative IPC: 4.029 (Simulation time: 00 hr 00 min 26 sec)
Heartbeat CPU 0 instructions: 7500042 cycles: 1857026 heartbeat IPC: 4.18 cumulative IPC: 4.039 (Simulation time: 00 hr 00 min 28 sec)
Heartbeat CPU 0 instructions: 8000046 cycles: 1981911 heartbeat IPC: 4.004 cumulative IPC: 4.037 (Simulation time: 00 hr 00 min 30 sec)
Heartbeat CPU 0 instructions: 8500051 cycles: 2119238 heartbeat IPC: 3.641 cumulative IPC: 4.011 (Simulation time: 00 hr 00 min 32 sec)
Heartbeat CPU 0 instructions: 9000053 cycles: 2253715 heartbeat IPC: 3.718 cumulative IPC: 3.993 (Simulation time: 00 hr 00 min 34 sec)
Heartbeat CPU 0 instructions: 9500055 cycles: 2386797 heartbeat IPC: 3.757 cumulative IPC: 3.98 (Simulation time: 00 hr 00 min 36 sec)
Heartbeat CPU 0 instructions: 10000061 cycles: 2520764 heartbeat IPC: 3.732 cumulative IPC: 3.967 (Simulation time: 00 hr 00 min 38 sec)
Heartbeat CPU 0 instructions: 10500063 cycles: 2643962 heartbeat IPC: 4.059 cumulative IPC: 3.971 (Simulation time: 00 hr 00 min 40 sec)
Heartbeat CPU 0 instructions: 11000069 cycles: 2767790 heartbeat IPC: 4.038 cumulative IPC: 3.974 (Simulation time: 00 hr 00 min 42 sec)
Heartbeat CPU 0 instructions: 11500073 cycles: 2894034 heartbeat IPC: 3.961 cumulative IPC: 3.974 (Simulation time: 00 hr 00 min 44 sec)
Heartbeat CPU 0 instructions: 12000073 cycles: 3020549 heartbeat IPC: 3.952 cumulative IPC: 3.973 (Simulation time: 00 hr 00 min 45 sec)
Heartbeat CPU 0 instructions: 12500080 cycles: 3157195 heartbeat IPC: 3.659 cumulative IPC: 3.959 (Simulation time: 00 hr 00 min 47 sec)
Heartbeat CPU 0 instructions: 13000087 cycles: 3285235 heartbeat IPC: 3.905 cumulative IPC: 3.957 (Simulation time: 00 hr 00 min 49 sec)
Heartbeat CPU 0 instructions: 13500090 cycles: 3415354 heartbeat IPC: 3.843 cumulative IPC: 3.953 (Simulation time: 00 hr 00 min 51 sec)
Heartbeat CPU 0 instructions: 14000093 cycles: 3545567 heartbeat IPC: 3.84 cumulative IPC: 3.949 (Simulation time: 00 hr 00 min 53 sec)
Heartbeat CPU 0 instructions: 14500099 cycles: 3679420 heartbeat IPC: 3.735 cumulative IPC: 3.941 (Simulation time: 00 hr 00 min 55 sec)
Heartbeat CPU 0 instructions: 15000102 cycles: 3813988 heartbeat IPC: 3.716 cumulative IPC: 3.933 (Simulation time: 00 hr 00 min 57 sec)
Heartbeat CPU 0 instructions: 15500102 cycles: 3943588 heartbeat IPC: 3.858 cumulative IPC: 3.93 (Simulation time: 00 hr 00 min 59 sec)
Heartbeat CPU 0 instructions: 16000107 cycles: 4071994 heartbeat IPC: 3.894 cumulative IPC: 3.929 (Simulation time: 00 hr 01 min 01 sec)
Heartbeat CPU 0 instructions: 16500108 cycles: 4211467 heartbeat IPC: 3.585 cumulative IPC: 3.918 (Simulation time: 00 hr 01 min 03 sec)
Heartbeat CPU 0 instructions: 17000110 cycles: 4340938 heartbeat IPC: 3.862 cumulative IPC: 3.916 (Simulation time: 00 hr 01 min 05 sec)
Heartbeat CPU 0 instructions: 17500114 cycles: 4467764 heartbeat IPC: 3.942 cumulative IPC: 3.917 (Simulation time: 00 hr 01 min 07 sec)
Heartbeat CPU 0 instructions: 18000117 cycles: 4606393 heartbeat IPC: 3.607 cumulative IPC: 3.908 (Simulation time: 00 hr 01 min 09 sec)
Heartbeat CPU 0 instructions: 18500122 cycles: 4741651 heartbeat IPC: 3.697 cumulative IPC: 3.902 (Simulation time: 00 hr 01 min 11 sec)
Heartbeat CPU 0 instructions: 19000122 cycles: 4874315 heartbeat IPC: 3.769 cumulative IPC: 3.898 (Simulation time: 00 hr 01 min 13 sec)
Heartbeat CPU 0 instructions: 19500126 cycles: 4998091 heartbeat IPC: 4.04 cumulative IPC: 3.902 (Simulation time: 00 hr 01 min 14 sec)
Heartbeat CPU 0 instructions: 20000127 cycles: 5102559 heartbeat IPC: 4.786 cumulative IPC: 3.92 (Simulation time: 00 hr 01 min 16 sec)
Heartbeat CPU 0 instructions: 20500132 cycles: 5212437 heartbeat IPC: 4.551 cumulative IPC: 3.933 (Simulation time: 00 hr 01 min 18 sec)
Heartbeat CPU 0 instructions: 21000138 cycles: 5323098 heartbeat IPC: 4.518 cumulative IPC: 3.945 (Simulation time: 00 hr 01 min 20 sec)
Heartbeat CPU 0 instructions: 21500143 cycles: 5426721 heartbeat IPC: 4.825 cumulative IPC: 3.962 (Simulation time: 00 hr 01 min 21 sec)
Heartbeat CPU 0 instructions: 22000145 cycles: 5537849 heartbeat IPC: 4.499 cumulative IPC: 3.973 (Simulation time: 00 hr 01 min 23 sec)
Heartbeat CPU 0 instructions: 22500151 cycles: 5642318 heartbeat IPC: 4.786 cumulative IPC: 3.988 (Simulation time: 00 hr 01 min 25 sec)
Heartbeat CPU 0 instructions: 23000151 cycles: 5753527 heartbeat IPC: 4.496 cumulative IPC: 3.998 (Simulation time: 00 hr 01 min 27 sec)
Heartbeat CPU 0 instructions: 23500152 cycles: 5862274 heartbeat IPC: 4.598 cumulative IPC: 4.009 (Simulation time: 00 hr 01 min 28 sec)
Heartbeat CPU 0 instructions: 24000156 cycles: 5972316 heartbeat IPC: 4.544 cumulative IPC: 4.019 (Simulation time: 00 hr 01 min 30 sec)
Heartbeat CPU 0 instructions: 24500163 cycles: 6087947 heartbeat IPC: 4.324 cumulative IPC: 4.024 (Simulation time: 00 hr 01 min 32 sec)
Heartbeat CPU 0 instructions: 25000169 cycles: 6206468 heartbeat IPC: 4.219 cumulative IPC: 4.028 (Simulation time: 00 hr 01 min 34 sec)
Heartbeat CPU 0 instructions: 25500169 cycles: 6324339 heartbeat IPC: 4.242 cumulative IPC: 4.032 (Simulation time: 00 hr 01 min 36 sec)
Heartbeat CPU 0 instructions: 26000172 cycles: 6446595 heartbeat IPC: 4.09 cumulative IPC: 4.033 (Simulation time: 00 hr 01 min 38 sec)
Heartbeat CPU 0 instructions: 26500177 cycles: 6571672 heartbeat IPC: 3.998 cumulative IPC: 4.032 (Simulation time: 00 hr 01 min 39 sec)
Heartbeat CPU 0 instructions: 27000183 cycles: 6702041 heartbeat IPC: 3.835 cumulative IPC: 4.029 (Simulation time: 00 hr 01 min 42 sec)
Heartbeat CPU 0 instructions: 27500190 cycles: 6827871 heartbeat IPC: 3.974 cumulative IPC: 4.028 (Simulation time: 00 hr 01 min 43 sec)
Heartbeat CPU 0 instructions: 28000195 cycles: 6954362 heartbeat IPC: 3.953 cumulative IPC: 4.026 (Simulation time: 00 hr 01 min 45 sec)
Heartbeat CPU 0 instructions: 28500196 cycles: 7080550 heartbeat IPC: 3.962 cumulative IPC: 4.025 (Simulation time: 00 hr 01 min 47 sec)
Heartbeat CPU 0 instructions: 29000197 cycles: 7204284 heartbeat IPC: 4.041 cumulative IPC: 4.025 (Simulation time: 00 hr 01 min 49 sec)
Heartbeat CPU 0 instructions: 29500198 cycles: 7313148 heartbeat IPC: 4.593 cumulative IPC: 4.034 (Simulation time: 00 hr 01 min 51 sec)
Heartbeat CPU 0 instructions: 30000202 cycles: 7421112 heartbeat IPC: 4.631 cumulative IPC: 4.043 (Simulation time: 00 hr 01 min 52 sec)
Heartbeat CPU 0 instructions: 30500209 cycles: 7521113 heartbeat IPC: 5 cumulative IPC: 4.055 (Simulation time: 00 hr 01 min 54 sec)
Heartbeat CPU 0 instructions: 31000211 cycles: 7621147 heartbeat IPC: 4.998 cumulative IPC: 4.068 (Simulation time: 00 hr 01 min 56 sec)
Heartbeat CPU 0 instructions: 31500212 cycles: 7721118 heartbeat IPC: 5.001 cumulative IPC: 4.08 (Simulation time: 00 hr 01 min 58 sec)
Heartbeat CPU 0 instructions: 32000213 cycles: 7821141 heartbeat IPC: 4.999 cumulative IPC: 4.092 (Simulation time: 00 hr 01 min 59 sec)
Heartbeat CPU 0 instructions: 32500217 cycles: 7921137 heartbeat IPC: 5 cumulative IPC: 4.103 (Simulation time: 00 hr 02 min 01 sec)
Heartbeat CPU 0 instructions: 33000221 cycles: 8025218 heartbeat IPC: 4.804 cumulative IPC: 4.112 (Simulation time: 00 hr 02 min 03 sec)
Heartbeat CPU 0 instructions: 33500222 cycles: 8130842 heartbeat IPC: 4.734 cumulative IPC: 4.12 (Simulation time: 00 hr 02 min 04 sec)
Heartbeat CPU 0 instructions: 34000229 cycles: 8236871 heartbeat IPC: 4.716 cumulative IPC: 4.128 (Simulation time: 00 hr 02 min 06 sec)
Heartbeat CPU 0 instructions: 34500236 cycles: 8342891 heartbeat IPC: 4.716 cumulative IPC: 4.135 (Simulation time: 00 hr 02 min 08 sec)
Heartbeat CPU 0 instructions: 35000237 cycles: 8442890 heartbeat IPC: 5 cumulative IPC: 4.146 (Simulation time: 00 hr 02 min 10 sec)
Heartbeat CPU 0 instructions: 35500244 cycles: 8542915 heartbeat IPC: 4.999 cumulative IPC: 4.156 (Simulation time: 00 hr 02 min 11 sec)
Heartbeat CPU 0 instructions: 36000244 cycles: 8646789 heartbeat IPC: 4.814 cumulative IPC: 4.163 (Simulation time: 00 hr 02 min 13 sec)
Heartbeat CPU 0 instructions: 36500247 cycles: 8749109 heartbeat IPC: 4.887 cumulative IPC: 4.172 (Simulation time: 00 hr 02 min 15 sec)
Heartbeat CPU 0 instructions: 37000250 cycles: 8859627 heartbeat IPC: 4.524 cumulative IPC: 4.176 (Simulation time: 00 hr 02 min 17 sec)
Heartbeat CPU 0 instructions: 37500252 cycles: 8963310 heartbeat IPC: 4.822 cumulative IPC: 4.184 (Simulation time: 00 hr 02 min 19 sec)
Heartbeat CPU 0 instructions: 38000252 cycles: 9063312 heartbeat IPC: 5 cumulative IPC: 4.193 (Simulation time: 00 hr 02 min 20 sec)
Heartbeat CPU 0 instructions: 38500259 cycles: 9168295 heartbeat IPC: 4.763 cumulative IPC: 4.199 (Simulation time: 00 hr 02 min 22 sec)
Heartbeat CPU 0 instructions: 39000261 cycles: 9268316 heartbeat IPC: 4.999 cumulative IPC: 4.208 (Simulation time: 00 hr 02 min 24 sec)
Heartbeat CPU 0 instructions: 39500263 cycles: 9371194 heartbeat IPC: 4.86 cumulative IPC: 4.215 (Simulation time: 00 hr 02 min 26 sec)
Heartbeat CPU 0 instructions: 40000264 cycles: 9471213 heartbeat IPC: 4.999 cumulative IPC: 4.223 (Simulation time: 00 hr 02 min 27 sec)
Heartbeat CPU 0 instructions: 40500270 cycles: 9573611 heartbeat IPC: 4.883 cumulative IPC: 4.23 (Simulation time: 00 hr 02 min 29 sec)
Heartbeat CPU 0 instructions: 41000277 cycles: 9679361 heartbeat IPC: 4.728 cumulative IPC: 4.236 (Simulation time: 00 hr 02 min 31 sec)
Heartbeat CPU 0 instructions: 41500281 cycles: 9783639 heartbeat IPC: 4.795 cumulative IPC: 4.242 (Simulation time: 00 hr 02 min 33 sec)
Heartbeat CPU 0 instructions: 42000286 cycles: 9888864 heartbeat IPC: 4.752 cumulative IPC: 4.247 (Simulation time: 00 hr 02 min 35 sec)
Heartbeat CPU 0 instructions: 42500290 cycles: 9996735 heartbeat IPC: 4.635 cumulative IPC: 4.251 (Simulation time: 00 hr 02 min 36 sec)
Heartbeat CPU 0 instructions: 43000297 cycles: 10102041 heartbeat IPC: 4.748 cumulative IPC: 4.257 (Simulation time: 00 hr 02 min 38 sec)
Heartbeat CPU 0 instructions: 43500302 cycles: 10207451 heartbeat IPC: 4.743 cumulative IPC: 4.262 (Simulation time: 00 hr 02 min 40 sec)
Heartbeat CPU 0 instructions: 44000309 cycles: 10319946 heartbeat IPC: 4.445 cumulative IPC: 4.264 (Simulation time: 00 hr 02 min 42 sec)
Heartbeat CPU 0 instructions: 44500313 cycles: 10431708 heartbeat IPC: 4.474 cumulative IPC: 4.266 (Simulation time: 00 hr 02 min 43 sec)
Heartbeat CPU 0 instructions: 45000320 cycles: 10548517 heartbeat IPC: 4.281 cumulative IPC: 4.266 (Simulation time: 00 hr 02 min 45 sec)
Heartbeat CPU 0 instructions: 45500322 cycles: 10669038 heartbeat IPC: 4.149 cumulative IPC: 4.265 (Simulation time: 00 hr 02 min 47 sec)
Heartbeat CPU 0 instructions: 46000328 cycles: 10793458 heartbeat IPC: 4.019 cumulative IPC: 4.262 (Simulation time: 00 hr 02 min 49 sec)
Heartbeat CPU 0 instructions: 46500331 cycles: 10929702 heartbeat IPC: 3.67 cumulative IPC: 4.254 (Simulation time: 00 hr 02 min 51 sec)
Heartbeat CPU 0 instructions: 47000331 cycles: 11061909 heartbeat IPC: 3.782 cumulative IPC: 4.249 (Simulation time: 00 hr 02 min 53 sec)
Heartbeat CPU 0 instructions: 47500333 cycles: 11193181 heartbeat IPC: 3.809 cumulative IPC: 4.244 (Simulation time: 00 hr 02 min 55 sec)
Heartbeat CPU 0 instructions: 48000335 cycles: 11314203 heartbeat IPC: 4.131 cumulative IPC: 4.242 (Simulation time: 00 hr 02 min 57 sec)
Heartbeat CPU 0 instructions: 48500335 cycles: 11425717 heartbeat IPC: 4.484 cumulative IPC: 4.245 (Simulation time: 00 hr 02 min 58 sec)
Heartbeat CPU 0 instructions: 49000337 cycles: 11540547 heartbeat IPC: 4.354 cumulative IPC: 4.246 (Simulation time: 00 hr 03 min 00 sec)
Heartbeat CPU 0 instructions: 49500340 cycles: 11664631 heartbeat IPC: 4.03 cumulative IPC: 4.244 (Simulation time: 00 hr 03 min 02 sec)
Warmup halting CPU 0 at instruction 50000004 cycle 11790886 for remainder of phase
Warmup finished CPU 0 instructions: 50000004 cycles: 11790886 cumulative IPC: 4.241 (Simulation time: 00 hr 03 min 04 sec)
Warmup complete CPU 0 instructions: 50000004 cycles: 11790886 cumulative IPC: 4.241 (Simulation time: 00 hr 03 min 04 sec)
Heartbeat CPU 0 instructions: 50000343 cycles: 11790993 heartbeat IPC: 3.957 cumulative IPC: 3.168 (Simulation time: 00 hr 03 min 04 sec)
Heartbeat CPU 0 instructions: 50500343 cycles: 12162328 heartbeat IPC: 1.346 cumulative IPC: 1.347 (Simulation time: 00 hr 03 min 08 sec)
Heartbeat CPU 0 instructions: 51000343 cycles: 12910310 heartbeat IPC: 0.6685 cumulative IPC: 0.8936 (Simulation time: 00 hr 03 min 14 sec)
Heartbeat CPU 0 instructions: 51500345 cycles: 13446321 heartbeat IPC: 0.9328 cumulative IPC: 0.9063 (Simulation time: 00 hr 03 min 19 sec)
Heartbeat CPU 0 instructions: 52000346 cycles: 13903734 heartbeat IPC: 1.093 cumulative IPC: 0.9468 (Simulation time: 00 hr 03 min 23 sec)
Heartbeat CPU 0 instructions: 52500346 cycles: 14298267 heartbeat IPC: 1.267 cumulative IPC: 0.9972 (Simulation time: 00 hr 03 min 27 sec)
Heartbeat CPU 0 instructions: 53000350 cycles: 14642487 heartbeat IPC: 1.453 cumulative IPC: 1.052 (Simulation time: 00 hr 03 min 31 sec)
Heartbeat CPU 0 instructions: 53500352 cycles: 15152343 heartbeat IPC: 0.9807 cumulative IPC: 1.041 (Simulation time: 00 hr 03 min 36 sec)
Heartbeat CPU 0 instructions: 54000354 cycles: 15592765 heartbeat IPC: 1.135 cumulative IPC: 1.052 (Simulation time: 00 hr 03 min 41 sec)
Heartbeat CPU 0 instructions: 54500355 cycles: 16007188 heartbeat IPC: 1.206 cumulative IPC: 1.067 (Simulation time: 00 hr 03 min 45 sec)
Heartbeat CPU 0 instructions: 55000358 cycles: 16578548 heartbeat IPC: 0.8751 cumulative IPC: 1.044 (Simulation time: 00 hr 03 min 50 sec)
Heartbeat CPU 0 instructions: 55500362 cycles: 17108080 heartbeat IPC: 0.9442 cumulative IPC: 1.034 (Simulation time: 00 hr 03 min 56 sec)
Heartbeat CPU 0 instructions: 56000365 cycles: 17500937 heartbeat IPC: 1.273 cumulative IPC: 1.051 (Simulation time: 00 hr 04 min 00 sec)
Heartbeat CPU 0 instructions: 56500365 cycles: 17850116 heartbeat IPC: 1.432 cumulative IPC: 1.073 (Simulation time: 00 hr 04 min 03 sec)
Heartbeat CPU 0 instructions: 57000368 cycles: 18336374 heartbeat IPC: 1.028 cumulative IPC: 1.069 (Simulation time: 00 hr 04 min 08 sec)
Heartbeat CPU 0 instructions: 57500372 cycles: 18754561 heartbeat IPC: 1.196 cumulative IPC: 1.077 (Simulation time: 00 hr 04 min 12 sec)
Heartbeat CPU 0 instructions: 58000374 cycles: 19097651 heartbeat IPC: 1.457 cumulative IPC: 1.095 (Simulation time: 00 hr 04 min 16 sec)
Heartbeat CPU 0 instructions: 58500375 cycles: 19609455 heartbeat IPC: 0.9769 cumulative IPC: 1.087 (Simulation time: 00 hr 04 min 21 sec)
Heartbeat CPU 0 instructions: 59000376 cycles: 20117566 heartbeat IPC: 0.984 cumulative IPC: 1.081 (Simulation time: 00 hr 04 min 26 sec)
Heartbeat CPU 0 instructions: 59500378 cycles: 20497081 heartbeat IPC: 1.317 cumulative IPC: 1.091 (Simulation time: 00 hr 04 min 30 sec)
Heartbeat CPU 0 instructions: 60000382 cycles: 20807934 heartbeat IPC: 1.608 cumulative IPC: 1.109 (Simulation time: 00 hr 04 min 33 sec)
Heartbeat CPU 0 instructions: 60500383 cycles: 21486024 heartbeat IPC: 0.7374 cumulative IPC: 1.083 (Simulation time: 00 hr 04 min 39 sec)
Heartbeat CPU 0 instructions: 61000384 cycles: 21963237 heartbeat IPC: 1.048 cumulative IPC: 1.081 (Simulation time: 00 hr 04 min 43 sec)
Heartbeat CPU 0 instructions: 61500385 cycles: 22344203 heartbeat IPC: 1.312 cumulative IPC: 1.09 (Simulation time: 00 hr 04 min 47 sec)
Heartbeat CPU 0 instructions: 62000387 cycles: 22679420 heartbeat IPC: 1.492 cumulative IPC: 1.102 (Simulation time: 00 hr 04 min 51 sec)
Heartbeat CPU 0 instructions: 62500389 cycles: 23136400 heartbeat IPC: 1.094 cumulative IPC: 1.102 (Simulation time: 00 hr 04 min 55 sec)
Heartbeat CPU 0 instructions: 63000390 cycles: 23532792 heartbeat IPC: 1.261 cumulative IPC: 1.107 (Simulation time: 00 hr 05 min 00 sec)
Heartbeat CPU 0 instructions: 63500390 cycles: 23873757 heartbeat IPC: 1.466 cumulative IPC: 1.117 (Simulation time: 00 hr 05 min 03 sec)
Heartbeat CPU 0 instructions: 64000390 cycles: 24293704 heartbeat IPC: 1.191 cumulative IPC: 1.12 (Simulation time: 00 hr 05 min 07 sec)
Heartbeat CPU 0 instructions: 64500392 cycles: 24838733 heartbeat IPC: 0.9174 cumulative IPC: 1.111 (Simulation time: 00 hr 05 min 12 sec)
Heartbeat CPU 0 instructions: 65000395 cycles: 25248984 heartbeat IPC: 1.219 cumulative IPC: 1.115 (Simulation time: 00 hr 05 min 16 sec)
Heartbeat CPU 0 instructions: 65500395 cycles: 25602068 heartbeat IPC: 1.416 cumulative IPC: 1.122 (Simulation time: 00 hr 05 min 20 sec)
Heartbeat CPU 0 instructions: 66000395 cycles: 25912210 heartbeat IPC: 1.612 cumulative IPC: 1.133 (Simulation time: 00 hr 05 min 23 sec)
Heartbeat CPU 0 instructions: 66500396 cycles: 26516158 heartbeat IPC: 0.8279 cumulative IPC: 1.121 (Simulation time: 00 hr 05 min 29 sec)
Heartbeat CPU 0 instructions: 67000400 cycles: 27021482 heartbeat IPC: 0.9895 cumulative IPC: 1.116 (Simulation time: 00 hr 05 min 34 sec)
Heartbeat CPU 0 instructions: 67500401 cycles: 27406261 heartbeat IPC: 1.299 cumulative IPC: 1.121 (Simulation time: 00 hr 05 min 38 sec)
Heartbeat CPU 0 instructions: 68000402 cycles: 27921931 heartbeat IPC: 0.9696 cumulative IPC: 1.116 (Simulation time: 00 hr 05 min 43 sec)
Heartbeat CPU 0 instructions: 68500403 cycles: 28510751 heartbeat IPC: 0.8492 cumulative IPC: 1.106 (Simulation time: 00 hr 05 min 48 sec)
Heartbeat CPU 0 instructions: 69000404 cycles: 28984328 heartbeat IPC: 1.056 cumulative IPC: 1.105 (Simulation time: 00 hr 05 min 52 sec)
Heartbeat CPU 0 instructions: 69500405 cycles: 29397875 heartbeat IPC: 1.209 cumulative IPC: 1.108 (Simulation time: 00 hr 05 min 56 sec)
Heartbeat CPU 0 instructions: 70000406 cycles: 29830860 heartbeat IPC: 1.155 cumulative IPC: 1.109 (Simulation time: 00 hr 06 min 01 sec)
Heartbeat CPU 0 instructions: 70500410 cycles: 30274795 heartbeat IPC: 1.126 cumulative IPC: 1.109 (Simulation time: 00 hr 06 min 05 sec)
Heartbeat CPU 0 instructions: 71000416 cycles: 30652021 heartbeat IPC: 1.325 cumulative IPC: 1.113 (Simulation time: 00 hr 06 min 09 sec)
Heartbeat CPU 0 instructions: 71500416 cycles: 31100381 heartbeat IPC: 1.115 cumulative IPC: 1.113 (Simulation time: 00 hr 06 min 14 sec)
Heartbeat CPU 0 instructions: 72000417 cycles: 31705997 heartbeat IPC: 0.8256 cumulative IPC: 1.105 (Simulation time: 00 hr 06 min 20 sec)
Heartbeat CPU 0 instructions: 72500417 cycles: 32071779 heartbeat IPC: 1.367 cumulative IPC: 1.109 (Simulation time: 00 hr 06 min 23 sec)
Heartbeat CPU 0 instructions: 73000420 cycles: 32510943 heartbeat IPC: 1.139 cumulative IPC: 1.11 (Simulation time: 00 hr 06 min 28 sec)
Heartbeat CPU 0 instructions: 73500422 cycles: 33204307 heartbeat IPC: 0.7211 cumulative IPC: 1.097 (Simulation time: 00 hr 06 min 33 sec)
Heartbeat CPU 0 instructions: 74000423 cycles: 33677298 heartbeat IPC: 1.057 cumulative IPC: 1.097 (Simulation time: 00 hr 06 min 37 sec)
Heartbeat CPU 0 instructions: 74500427 cycles: 34112003 heartbeat IPC: 1.15 cumulative IPC: 1.098 (Simulation time: 00 hr 06 min 41 sec)
Heartbeat CPU 0 instructions: 75000429 cycles: 34560927 heartbeat IPC: 1.114 cumulative IPC: 1.098 (Simulation time: 00 hr 06 min 45 sec)
Heartbeat CPU 0 instructions: 75500430 cycles: 34945907 heartbeat IPC: 1.299 cumulative IPC: 1.101 (Simulation time: 00 hr 06 min 49 sec)
Heartbeat CPU 0 instructions: 76000430 cycles: 35273494 heartbeat IPC: 1.526 cumulative IPC: 1.107 (Simulation time: 00 hr 06 min 53 sec)
Heartbeat CPU 0 instructions: 76500433 cycles: 35813001 heartbeat IPC: 0.9268 cumulative IPC: 1.103 (Simulation time: 00 hr 06 min 58 sec)
Heartbeat CPU 0 instructions: 77000434 cycles: 36250546 heartbeat IPC: 1.143 cumulative IPC: 1.104 (Simulation time: 00 hr 07 min 02 sec)
Heartbeat CPU 0 instructions: 77500435 cycles: 36628639 heartbeat IPC: 1.322 cumulative IPC: 1.107 (Simulation time: 00 hr 07 min 06 sec)
Heartbeat CPU 0 instructions: 78000436 cycles: 37283803 heartbeat IPC: 0.7632 cumulative IPC: 1.098 (Simulation time: 00 hr 07 min 12 sec)
Heartbeat CPU 0 instructions: 78500437 cycles: 37751037 heartbeat IPC: 1.07 cumulative IPC: 1.098 (Simulation time: 00 hr 07 min 17 sec)
Heartbeat CPU 0 instructions: 79000439 cycles: 38121948 heartbeat IPC: 1.348 cumulative IPC: 1.101 (Simulation time: 00 hr 07 min 21 sec)
Heartbeat CPU 0 instructions: 79500443 cycles: 38562470 heartbeat IPC: 1.135 cumulative IPC: 1.102 (Simulation time: 00 hr 07 min 25 sec)
Heartbeat CPU 0 instructions: 80000445 cycles: 38999206 heartbeat IPC: 1.145 cumulative IPC: 1.103 (Simulation time: 00 hr 07 min 30 sec)
Heartbeat CPU 0 instructions: 80500448 cycles: 39360883 heartbeat IPC: 1.382 cumulative IPC: 1.106 (Simulation time: 00 hr 07 min 33 sec)
Heartbeat CPU 0 instructions: 81000453 cycles: 39709590 heartbeat IPC: 1.434 cumulative IPC: 1.11 (Simulation time: 00 hr 07 min 37 sec)
Heartbeat CPU 0 instructions: 81500454 cycles: 40359322 heartbeat IPC: 0.7695 cumulative IPC: 1.103 (Simulation time: 00 hr 07 min 42 sec)
Heartbeat CPU 0 instructions: 82000454 cycles: 40939284 heartbeat IPC: 0.8621 cumulative IPC: 1.098 (Simulation time: 00 hr 07 min 47 sec)
Heartbeat CPU 0 instructions: 82500456 cycles: 41444727 heartbeat IPC: 0.9892 cumulative IPC: 1.096 (Simulation time: 00 hr 07 min 51 sec)
Heartbeat CPU 0 instructions: 83000458 cycles: 41957575 heartbeat IPC: 0.975 cumulative IPC: 1.094 (Simulation time: 00 hr 07 min 55 sec)
Heartbeat CPU 0 instructions: 83500462 cycles: 42457501 heartbeat IPC: 1 cumulative IPC: 1.092 (Simulation time: 00 hr 07 min 59 sec)
Heartbeat CPU 0 instructions: 84000465 cycles: 42953773 heartbeat IPC: 1.008 cumulative IPC: 1.091 (Simulation time: 00 hr 08 min 02 sec)
Heartbeat CPU 0 instructions: 84500466 cycles: 43423359 heartbeat IPC: 1.065 cumulative IPC: 1.091 (Simulation time: 00 hr 08 min 06 sec)
Heartbeat CPU 0 instructions: 85000467 cycles: 43894669 heartbeat IPC: 1.061 cumulative IPC: 1.09 (Simulation time: 00 hr 08 min 10 sec)
Heartbeat CPU 0 instructions: 85500469 cycles: 44347566 heartbeat IPC: 1.104 cumulative IPC: 1.09 (Simulation time: 00 hr 08 min 14 sec)
Heartbeat CPU 0 instructions: 86000470 cycles: 44765112 heartbeat IPC: 1.197 cumulative IPC: 1.092 (Simulation time: 00 hr 08 min 18 sec)
Heartbeat CPU 0 instructions: 86500470 cycles: 45120159 heartbeat IPC: 1.408 cumulative IPC: 1.095 (Simulation time: 00 hr 08 min 21 sec)
Heartbeat CPU 0 instructions: 87000470 cycles: 45725348 heartbeat IPC: 0.8262 cumulative IPC: 1.09 (Simulation time: 00 hr 08 min 26 sec)
Heartbeat CPU 0 instructions: 87500474 cycles: 46276897 heartbeat IPC: 0.9065 cumulative IPC: 1.087 (Simulation time: 00 hr 08 min 31 sec)
Heartbeat CPU 0 instructions: 88000475 cycles: 46722141 heartbeat IPC: 1.123 cumulative IPC: 1.088 (Simulation time: 00 hr 08 min 35 sec)
Heartbeat CPU 0 instructions: 88500475 cycles: 47067149 heartbeat IPC: 1.449 cumulative IPC: 1.091 (Simulation time: 00 hr 08 min 38 sec)
Heartbeat CPU 0 instructions: 89000476 cycles: 47349340 heartbeat IPC: 1.772 cumulative IPC: 1.097 (Simulation time: 00 hr 08 min 41 sec)
Heartbeat CPU 0 instructions: 89500479 cycles: 47919274 heartbeat IPC: 0.8773 cumulative IPC: 1.093 (Simulation time: 00 hr 08 min 46 sec)
Heartbeat CPU 0 instructions: 90000480 cycles: 48510553 heartbeat IPC: 0.8456 cumulative IPC: 1.089 (Simulation time: 00 hr 08 min 50 sec)
Heartbeat CPU 0 instructions: 90500485 cycles: 49026976 heartbeat IPC: 0.9682 cumulative IPC: 1.088 (Simulation time: 00 hr 08 min 54 sec)
Heartbeat CPU 0 instructions: 91000486 cycles: 49522848 heartbeat IPC: 1.008 cumulative IPC: 1.087 (Simulation time: 00 hr 08 min 58 sec)
Heartbeat CPU 0 instructions: 91500486 cycles: 50034910 heartbeat IPC: 0.9764 cumulative IPC: 1.085 (Simulation time: 00 hr 09 min 02 sec)
Heartbeat CPU 0 instructions: 92000491 cycles: 50523066 heartbeat IPC: 1.024 cumulative IPC: 1.084 (Simulation time: 00 hr 09 min 06 sec)
Heartbeat CPU 0 instructions: 92500497 cycles: 51026132 heartbeat IPC: 0.9939 cumulative IPC: 1.083 (Simulation time: 00 hr 09 min 10 sec)
Heartbeat CPU 0 instructions: 93000498 cycles: 51496635 heartbeat IPC: 1.063 cumulative IPC: 1.083 (Simulation time: 00 hr 09 min 14 sec)
Heartbeat CPU 0 instructions: 93500499 cycles: 51948784 heartbeat IPC: 1.106 cumulative IPC: 1.083 (Simulation time: 00 hr 09 min 18 sec)
Heartbeat CPU 0 instructions: 94000500 cycles: 52331428 heartbeat IPC: 1.307 cumulative IPC: 1.085 (Simulation time: 00 hr 09 min 22 sec)
Heartbeat CPU 0 instructions: 94500500 cycles: 52724637 heartbeat IPC: 1.272 cumulative IPC: 1.087 (Simulation time: 00 hr 09 min 26 sec)
Heartbeat CPU 0 instructions: 95000503 cycles: 53342000 heartbeat IPC: 0.8099 cumulative IPC: 1.083 (Simulation time: 00 hr 09 min 32 sec)
Heartbeat CPU 0 instructions: 95500507 cycles: 53867665 heartbeat IPC: 0.9512 cumulative IPC: 1.081 (Simulation time: 00 hr 09 min 36 sec)
Heartbeat CPU 0 instructions: 96000508 cycles: 54263300 heartbeat IPC: 1.264 cumulative IPC: 1.083 (Simulation time: 00 hr 09 min 40 sec)
Heartbeat CPU 0 instructions: 96500513 cycles: 54579358 heartbeat IPC: 1.582 cumulative IPC: 1.087 (Simulation time: 00 hr 09 min 44 sec)
Heartbeat CPU 0 instructions: 97000516 cycles: 55259147 heartbeat IPC: 0.7355 cumulative IPC: 1.081 (Simulation time: 00 hr 09 min 50 sec)
Heartbeat CPU 0 instructions: 97500517 cycles: 55759609 heartbeat IPC: 0.9991 cumulative IPC: 1.08 (Simulation time: 00 hr 09 min 54 sec)
Heartbeat CPU 0 instructions: 98000521 cycles: 56181806 heartbeat IPC: 1.184 cumulative IPC: 1.081 (Simulation time: 00 hr 09 min 58 sec)
Heartbeat CPU 0 instructions: 98500524 cycles: 56544733 heartbeat IPC: 1.378 cumulative IPC: 1.084 (Simulation time: 00 hr 10 min 02 sec)
Heartbeat CPU 0 instructions: 99000526 cycles: 57113663 heartbeat IPC: 0.8788 cumulative IPC: 1.081 (Simulation time: 00 hr 10 min 07 sec)
Heartbeat CPU 0 instructions: 99500529 cycles: 57571424 heartbeat IPC: 1.092 cumulative IPC: 1.081 (Simulation time: 00 hr 10 min 12 sec)
Heartbeat CPU 0 instructions: 100000529 cycles: 57920159 heartbeat IPC: 1.434 cumulative IPC: 1.084 (Simulation time: 00 hr 10 min 15 sec)
Heartbeat CPU 0 instructions: 100500529 cycles: 58221724 heartbeat IPC: 1.658 cumulative IPC: 1.088 (Simulation time: 00 hr 10 min 19 sec)
Heartbeat CPU 0 instructions: 101000529 cycles: 58746232 heartbeat IPC: 0.9533 cumulative IPC: 1.086 (Simulation time: 00 hr 10 min 24 sec)
Heartbeat CPU 0 instructions: 101500529 cycles: 59138352 heartbeat IPC: 1.275 cumulative IPC: 1.088 (Simulation time: 00 hr 10 min 28 sec)
Heartbeat CPU 0 instructions: 102000529 cycles: 59504680 heartbeat IPC: 1.365 cumulative IPC: 1.09 (Simulation time: 00 hr 10 min 32 sec)
Heartbeat CPU 0 instructions: 102500529 cycles: 60167992 heartbeat IPC: 0.7538 cumulative IPC: 1.085 (Simulation time: 00 hr 10 min 37 sec)
Heartbeat CPU 0 instructions: 103000531 cycles: 60721658 heartbeat IPC: 0.9031 cumulative IPC: 1.083 (Simulation time: 00 hr 10 min 42 sec)
Heartbeat CPU 0 instructions: 103500538 cycles: 61207166 heartbeat IPC: 1.03 cumulative IPC: 1.083 (Simulation time: 00 hr 10 min 46 sec)
Heartbeat CPU 0 instructions: 104000541 cycles: 61684907 heartbeat IPC: 1.047 cumulative IPC: 1.082 (Simulation time: 00 hr 10 min 50 sec)
Heartbeat CPU 0 instructions: 104500543 cycles: 62095587 heartbeat IPC: 1.217 cumulative IPC: 1.083 (Simulation time: 00 hr 10 min 54 sec)
Heartbeat CPU 0 instructions: 105000545 cycles: 62451278 heartbeat IPC: 1.406 cumulative IPC: 1.086 (Simulation time: 00 hr 10 min 58 sec)
Heartbeat CPU 0 instructions: 105500549 cycles: 62851847 heartbeat IPC: 1.248 cumulative IPC: 1.087 (Simulation time: 00 hr 11 min 02 sec)
Heartbeat CPU 0 instructions: 106000554 cycles: 63317752 heartbeat IPC: 1.073 cumulative IPC: 1.087 (Simulation time: 00 hr 11 min 07 sec)
Heartbeat CPU 0 instructions: 106500556 cycles: 63699743 heartbeat IPC: 1.309 cumulative IPC: 1.088 (Simulation time: 00 hr 11 min 11 sec)
Heartbeat CPU 0 instructions: 107000557 cycles: 64028347 heartbeat IPC: 1.522 cumulative IPC: 1.091 (Simulation time: 00 hr 11 min 14 sec)
Heartbeat CPU 0 instructions: 107500558 cycles: 64710426 heartbeat IPC: 0.7331 cumulative IPC: 1.087 (Simulation time: 00 hr 11 min 21 sec)
Heartbeat CPU 0 instructions: 108000564 cycles: 65129973 heartbeat IPC: 1.192 cumulative IPC: 1.087 (Simulation time: 00 hr 11 min 25 sec)
Heartbeat CPU 0 instructions: 108500570 cycles: 65494883 heartbeat IPC: 1.37 cumulative IPC: 1.089 (Simulation time: 00 hr 11 min 29 sec)
Heartbeat CPU 0 instructions: 109000571 cycles: 65912394 heartbeat IPC: 1.198 cumulative IPC: 1.09 (Simulation time: 00 hr 11 min 33 sec)
Heartbeat CPU 0 instructions: 109500573 cycles: 66451296 heartbeat IPC: 0.9278 cumulative IPC: 1.089 (Simulation time: 00 hr 11 min 38 sec)
Heartbeat CPU 0 instructions: 110000574 cycles: 66859219 heartbeat IPC: 1.226 cumulative IPC: 1.09 (Simulation time: 00 hr 11 min 43 sec)
Heartbeat CPU 0 instructions: 110500574 cycles: 67220427 heartbeat IPC: 1.384 cumulative IPC: 1.091 (Simulation time: 00 hr 11 min 46 sec)
Heartbeat CPU 0 instructions: 111000574 cycles: 67829944 heartbeat IPC: 0.8203 cumulative IPC: 1.089 (Simulation time: 00 hr 11 min 51 sec)
Heartbeat CPU 0 instructions: 111500575 cycles: 68421703 heartbeat IPC: 0.8449 cumulative IPC: 1.086 (Simulation time: 00 hr 11 min 56 sec)
Heartbeat CPU 0 instructions: 112000577 cycles: 68914653 heartbeat IPC: 1.014 cumulative IPC: 1.085 (Simulation time: 00 hr 12 min 00 sec)
Heartbeat CPU 0 instructions: 112500578 cycles: 69347484 heartbeat IPC: 1.155 cumulative IPC: 1.086 (Simulation time: 00 hr 12 min 04 sec)
Heartbeat CPU 0 instructions: 113000579 cycles: 69694495 heartbeat IPC: 1.441 cumulative IPC: 1.088 (Simulation time: 00 hr 12 min 08 sec)
Heartbeat CPU 0 instructions: 113500579 cycles: 70069340 heartbeat IPC: 1.334 cumulative IPC: 1.09 (Simulation time: 00 hr 12 min 12 sec)
Heartbeat CPU 0 instructions: 114000579 cycles: 70594598 heartbeat IPC: 0.9519 cumulative IPC: 1.088 (Simulation time: 00 hr 12 min 18 sec)
Heartbeat CPU 0 instructions: 114500582 cycles: 71017914 heartbeat IPC: 1.181 cumulative IPC: 1.089 (Simulation time: 00 hr 12 min 22 sec)
Heartbeat CPU 0 instructions: 115000582 cycles: 71424917 heartbeat IPC: 1.228 cumulative IPC: 1.09 (Simulation time: 00 hr 12 min 26 sec)
Heartbeat CPU 0 instructions: 115500583 cycles: 71995919 heartbeat IPC: 0.8757 cumulative IPC: 1.088 (Simulation time: 00 hr 12 min 32 sec)
Heartbeat CPU 0 instructions: 116000583 cycles: 72381110 heartbeat IPC: 1.298 cumulative IPC: 1.089 (Simulation time: 00 hr 12 min 36 sec)
Heartbeat CPU 0 instructions: 116500583 cycles: 72744930 heartbeat IPC: 1.374 cumulative IPC: 1.091 (Simulation time: 00 hr 12 min 39 sec)
Heartbeat CPU 0 instructions: 117000585 cycles: 73338234 heartbeat IPC: 0.8427 cumulative IPC: 1.089 (Simulation time: 00 hr 12 min 45 sec)
Heartbeat CPU 0 instructions: 117500591 cycles: 73803942 heartbeat IPC: 1.074 cumulative IPC: 1.088 (Simulation time: 00 hr 12 min 49 sec)
Heartbeat CPU 0 instructions: 118000593 cycles: 74190485 heartbeat IPC: 1.294 cumulative IPC: 1.09 (Simulation time: 00 hr 12 min 53 sec)
Heartbeat CPU 0 instructions: 118500594 cycles: 74547253 heartbeat IPC: 1.401 cumulative IPC: 1.092 (Simulation time: 00 hr 12 min 57 sec)
Heartbeat CPU 0 instructions: 119000596 cycles: 75232909 heartbeat IPC: 0.7292 cumulative IPC: 1.088 (Simulation time: 00 hr 13 min 03 sec)
Heartbeat CPU 0 instructions: 119500599 cycles: 75814468 heartbeat IPC: 0.8598 cumulative IPC: 1.086 (Simulation time: 00 hr 13 min 08 sec)
Heartbeat CPU 0 instructions: 120000599 cycles: 76294862 heartbeat IPC: 1.041 cumulative IPC: 1.085 (Simulation time: 00 hr 13 min 12 sec)
Heartbeat CPU 0 instructions: 120500602 cycles: 76723466 heartbeat IPC: 1.167 cumulative IPC: 1.086 (Simulation time: 00 hr 13 min 16 sec)
Heartbeat CPU 0 instructions: 121000603 cycles: 77086955 heartbeat IPC: 1.376 cumulative IPC: 1.087 (Simulation time: 00 hr 13 min 20 sec)
Heartbeat CPU 0 instructions: 121500605 cycles: 77608771 heartbeat IPC: 0.9582 cumulative IPC: 1.086 (Simulation time: 00 hr 13 min 25 sec)
Heartbeat CPU 0 instructions: 122000606 cycles: 78227015 heartbeat IPC: 0.8087 cumulative IPC: 1.084 (Simulation time: 00 hr 13 min 30 sec)
Heartbeat CPU 0 instructions: 122500606 cycles: 78697585 heartbeat IPC: 1.063 cumulative IPC: 1.084 (Simulation time: 00 hr 13 min 34 sec)
Heartbeat CPU 0 instructions: 123000607 cycles: 79118505 heartbeat IPC: 1.188 cumulative IPC: 1.084 (Simulation time: 00 hr 13 min 38 sec)
Heartbeat CPU 0 instructions: 123500609 cycles: 79469930 heartbeat IPC: 1.423 cumulative IPC: 1.086 (Simulation time: 00 hr 13 min 42 sec)
Heartbeat CPU 0 instructions: 124000611 cycles: 79862854 heartbeat IPC: 1.273 cumulative IPC: 1.087 (Simulation time: 00 hr 13 min 46 sec)
Heartbeat CPU 0 instructions: 124500614 cycles: 80410975 heartbeat IPC: 0.9122 cumulative IPC: 1.086 (Simulation time: 00 hr 13 min 51 sec)
Heartbeat CPU 0 instructions: 125000620 cycles: 80824642 heartbeat IPC: 1.209 cumulative IPC: 1.086 (Simulation time: 00 hr 13 min 56 sec)
Heartbeat CPU 0 instructions: 125500622 cycles: 81173355 heartbeat IPC: 1.434 cumulative IPC: 1.088 (Simulation time: 00 hr 13 min 59 sec)
Heartbeat CPU 0 instructions: 126000623 cycles: 81698060 heartbeat IPC: 0.9529 cumulative IPC: 1.087 (Simulation time: 00 hr 14 min 04 sec)
Heartbeat CPU 0 instructions: 126500624 cycles: 82185535 heartbeat IPC: 1.026 cumulative IPC: 1.087 (Simulation time: 00 hr 14 min 09 sec)
Heartbeat CPU 0 instructions: 127000625 cycles: 82641333 heartbeat IPC: 1.097 cumulative IPC: 1.087 (Simulation time: 00 hr 14 min 13 sec)
Heartbeat CPU 0 instructions: 127500630 cycles: 82997385 heartbeat IPC: 1.404 cumulative IPC: 1.088 (Simulation time: 00 hr 14 min 16 sec)
Heartbeat CPU 0 instructions: 128000630 cycles: 83350800 heartbeat IPC: 1.415 cumulative IPC: 1.09 (Simulation time: 00 hr 14 min 20 sec)
Heartbeat CPU 0 instructions: 128500630 cycles: 83981552 heartbeat IPC: 0.7927 cumulative IPC: 1.087 (Simulation time: 00 hr 14 min 25 sec)
Heartbeat CPU 0 instructions: 129000635 cycles: 84409238 heartbeat IPC: 1.169 cumulative IPC: 1.088 (Simulation time: 00 hr 14 min 29 sec)
Heartbeat CPU 0 instructions: 129500635 cycles: 84785890 heartbeat IPC: 1.327 cumulative IPC: 1.089 (Simulation time: 00 hr 14 min 33 sec)
Heartbeat CPU 0 instructions: 130000636 cycles: 85118024 heartbeat IPC: 1.505 cumulative IPC: 1.091 (Simulation time: 00 hr 14 min 36 sec)
Heartbeat CPU 0 instructions: 130500636 cycles: 85581410 heartbeat IPC: 1.079 cumulative IPC: 1.091 (Simulation time: 00 hr 14 min 41 sec)
Heartbeat CPU 0 instructions: 131000638 cycles: 86242041 heartbeat IPC: 0.7569 cumulative IPC: 1.088 (Simulation time: 00 hr 14 min 46 sec)
Heartbeat CPU 0 instructions: 131500638 cycles: 86768594 heartbeat IPC: 0.9496 cumulative IPC: 1.087 (Simulation time: 00 hr 14 min 50 sec)
Heartbeat CPU 0 instructions: 132000639 cycles: 87277326 heartbeat IPC: 0.9828 cumulative IPC: 1.086 (Simulation time: 00 hr 14 min 54 sec)
Heartbeat CPU 0 instructions: 132500641 cycles: 87769646 heartbeat IPC: 1.016 cumulative IPC: 1.086 (Simulation time: 00 hr 14 min 58 sec)
Heartbeat CPU 0 instructions: 133000641 cycles: 88265502 heartbeat IPC: 1.008 cumulative IPC: 1.085 (Simulation time: 00 hr 15 min 02 sec)
Heartbeat CPU 0 instructions: 133500643 cycles: 88746356 heartbeat IPC: 1.04 cumulative IPC: 1.085 (Simulation time: 00 hr 15 min 06 sec)
Heartbeat CPU 0 instructions: 134000648 cycles: 89230044 heartbeat IPC: 1.034 cumulative IPC: 1.085 (Simulation time: 00 hr 15 min 09 sec)
Heartbeat CPU 0 instructions: 134500654 cycles: 89697781 heartbeat IPC: 1.069 cumulative IPC: 1.085 (Simulation time: 00 hr 15 min 13 sec)
Heartbeat CPU 0 instructions: 135000654 cycles: 90072626 heartbeat IPC: 1.334 cumulative IPC: 1.086 (Simulation time: 00 hr 15 min 17 sec)
Heartbeat CPU 0 instructions: 135500656 cycles: 90379322 heartbeat IPC: 1.63 cumulative IPC: 1.088 (Simulation time: 00 hr 15 min 20 sec)
Heartbeat CPU 0 instructions: 136000656 cycles: 90985846 heartbeat IPC: 0.8244 cumulative IPC: 1.086 (Simulation time: 00 hr 15 min 26 sec)
Heartbeat CPU 0 instructions: 136500659 cycles: 91477060 heartbeat IPC: 1.018 cumulative IPC: 1.086 (Simulation time: 00 hr 15 min 31 sec)
Heartbeat CPU 0 instructions: 137000660 cycles: 91906354 heartbeat IPC: 1.165 cumulative IPC: 1.086 (Simulation time: 00 hr 15 min 35 sec)
Heartbeat CPU 0 instructions: 137500660 cycles: 92258362 heartbeat IPC: 1.42 cumulative IPC: 1.087 (Simulation time: 00 hr 15 min 39 sec)
Heartbeat CPU 0 instructions: 138000661 cycles: 92855414 heartbeat IPC: 0.8374 cumulative IPC: 1.086 (Simulation time: 00 hr 15 min 44 sec)
Heartbeat CPU 0 instructions: 138500661 cycles: 93361360 heartbeat IPC: 0.9882 cumulative IPC: 1.085 (Simulation time: 00 hr 15 min 49 sec)
Heartbeat CPU 0 instructions: 139000664 cycles: 93794440 heartbeat IPC: 1.155 cumulative IPC: 1.085 (Simulation time: 00 hr 15 min 53 sec)
Heartbeat CPU 0 instructions: 139500664 cycles: 94164143 heartbeat IPC: 1.352 cumulative IPC: 1.087 (Simulation time: 00 hr 15 min 57 sec)
Heartbeat CPU 0 instructions: 140000665 cycles: 94720781 heartbeat IPC: 0.8983 cumulative IPC: 1.085 (Simulation time: 00 hr 16 min 02 sec)
Heartbeat CPU 0 instructions: 140500669 cycles: 95285465 heartbeat IPC: 0.8855 cumulative IPC: 1.084 (Simulation time: 00 hr 16 min 07 sec)
Heartbeat CPU 0 instructions: 141000674 cycles: 95707555 heartbeat IPC: 1.185 cumulative IPC: 1.084 (Simulation time: 00 hr 16 min 11 sec)
Heartbeat CPU 0 instructions: 141500675 cycles: 96048075 heartbeat IPC: 1.468 cumulative IPC: 1.086 (Simulation time: 00 hr 16 min 15 sec)
Heartbeat CPU 0 instructions: 142000680 cycles: 96680717 heartbeat IPC: 0.7903 cumulative IPC: 1.084 (Simulation time: 00 hr 16 min 20 sec)
Heartbeat CPU 0 instructions: 142500680 cycles: 97137478 heartbeat IPC: 1.095 cumulative IPC: 1.084 (Simulation time: 00 hr 16 min 25 sec)
Heartbeat CPU 0 instructions: 143000680 cycles: 97571479 heartbeat IPC: 1.152 cumulative IPC: 1.084 (Simulation time: 00 hr 16 min 29 sec)
Heartbeat CPU 0 instructions: 143500682 cycles: 97933424 heartbeat IPC: 1.381 cumulative IPC: 1.085 (Simulation time: 00 hr 16 min 33 sec)
Heartbeat CPU 0 instructions: 144000684 cycles: 98467191 heartbeat IPC: 0.9367 cumulative IPC: 1.085 (Simulation time: 00 hr 16 min 38 sec)
Heartbeat CPU 0 instructions: 144500687 cycles: 99075773 heartbeat IPC: 0.8216 cumulative IPC: 1.083 (Simulation time: 00 hr 16 min 42 sec)
Heartbeat CPU 0 instructions: 145000687 cycles: 99616843 heartbeat IPC: 0.9241 cumulative IPC: 1.082 (Simulation time: 00 hr 16 min 47 sec)
Heartbeat CPU 0 instructions: 145500688 cycles: 100128616 heartbeat IPC: 0.977 cumulative IPC: 1.081 (Simulation time: 00 hr 16 min 51 sec)
Heartbeat CPU 0 instructions: 146000695 cycles: 100629634 heartbeat IPC: 0.998 cumulative IPC: 1.081 (Simulation time: 00 hr 16 min 54 sec)
Heartbeat CPU 0 instructions: 146500700 cycles: 101102784 heartbeat IPC: 1.057 cumulative IPC: 1.08 (Simulation time: 00 hr 16 min 58 sec)
Heartbeat CPU 0 instructions: 147000700 cycles: 101557504 heartbeat IPC: 1.1 cumulative IPC: 1.081 (Simulation time: 00 hr 17 min 02 sec)
Heartbeat CPU 0 instructions: 147500701 cycles: 101970960 heartbeat IPC: 1.209 cumulative IPC: 1.081 (Simulation time: 00 hr 17 min 06 sec)
Heartbeat CPU 0 instructions: 148000702 cycles: 102341491 heartbeat IPC: 1.349 cumulative IPC: 1.082 (Simulation time: 00 hr 17 min 10 sec)
Heartbeat CPU 0 instructions: 148500705 cycles: 102700174 heartbeat IPC: 1.394 cumulative IPC: 1.084 (Simulation time: 00 hr 17 min 14 sec)
Heartbeat CPU 0 instructions: 149000705 cycles: 103291561 heartbeat IPC: 0.8455 cumulative IPC: 1.082 (Simulation time: 00 hr 17 min 19 sec)
Heartbeat CPU 0 instructions: 149500708 cycles: 103747230 heartbeat IPC: 1.097 cumulative IPC: 1.082 (Simulation time: 00 hr 17 min 24 sec)
Heartbeat CPU 0 instructions: 150000713 cycles: 104108416 heartbeat IPC: 1.384 cumulative IPC: 1.083 (Simulation time: 00 hr 17 min 28 sec)
Heartbeat CPU 0 instructions: 150500714 cycles: 104654456 heartbeat IPC: 0.9157 cumulative IPC: 1.082 (Simulation time: 00 hr 17 min 33 sec)
Heartbeat CPU 0 instructions: 151000716 cycles: 105050304 heartbeat IPC: 1.263 cumulative IPC: 1.083 (Simulation time: 00 hr 17 min 37 sec)
Heartbeat CPU 0 instructions: 151500717 cycles: 105405500 heartbeat IPC: 1.408 cumulative IPC: 1.084 (Simulation time: 00 hr 17 min 41 sec)
Heartbeat CPU 0 instructions: 152000719 cycles: 106129597 heartbeat IPC: 0.6905 cumulative IPC: 1.081 (Simulation time: 00 hr 17 min 48 sec)
Heartbeat CPU 0 instructions: 152500721 cycles: 106621142 heartbeat IPC: 1.017 cumulative IPC: 1.081 (Simulation time: 00 hr 17 min 52 sec)
Heartbeat CPU 0 instructions: 153000725 cycles: 106998860 heartbeat IPC: 1.324 cumulative IPC: 1.082 (Simulation time: 00 hr 17 min 56 sec)
Heartbeat CPU 0 instructions: 153500725 cycles: 107328548 heartbeat IPC: 1.517 cumulative IPC: 1.083 (Simulation time: 00 hr 18 min 00 sec)
Heartbeat CPU 0 instructions: 154000728 cycles: 108002304 heartbeat IPC: 0.7421 cumulative IPC: 1.081 (Simulation time: 00 hr 18 min 06 sec)
Heartbeat CPU 0 instructions: 154500730 cycles: 108471838 heartbeat IPC: 1.065 cumulative IPC: 1.081 (Simulation time: 00 hr 18 min 11 sec)
Heartbeat CPU 0 instructions: 155000733 cycles: 108850368 heartbeat IPC: 1.321 cumulative IPC: 1.082 (Simulation time: 00 hr 18 min 14 sec)
Heartbeat CPU 0 instructions: 155500735 cycles: 109180921 heartbeat IPC: 1.513 cumulative IPC: 1.083 (Simulation time: 00 hr 18 min 18 sec)
Heartbeat CPU 0 instructions: 156000736 cycles: 109917626 heartbeat IPC: 0.6787 cumulative IPC: 1.08 (Simulation time: 00 hr 18 min 24 sec)
Heartbeat CPU 0 instructions: 156500743 cycles: 110408280 heartbeat IPC: 1.019 cumulative IPC: 1.08 (Simulation time: 00 hr 18 min 29 sec)
Heartbeat CPU 0 instructions: 157000745 cycles: 110807832 heartbeat IPC: 1.251 cumulative IPC: 1.081 (Simulation time: 00 hr 18 min 33 sec)
Heartbeat CPU 0 instructions: 157500752 cycles: 111145344 heartbeat IPC: 1.481 cumulative IPC: 1.082 (Simulation time: 00 hr 18 min 36 sec)
Heartbeat CPU 0 instructions: 158000752 cycles: 111629123 heartbeat IPC: 1.034 cumulative IPC: 1.082 (Simulation time: 00 hr 18 min 41 sec)
Heartbeat CPU 0 instructions: 158500753 cycles: 112064368 heartbeat IPC: 1.149 cumulative IPC: 1.082 (Simulation time: 00 hr 18 min 46 sec)
Heartbeat CPU 0 instructions: 159000753 cycles: 112544445 heartbeat IPC: 1.041 cumulative IPC: 1.082 (Simulation time: 00 hr 18 min 50 sec)
Heartbeat CPU 0 instructions: 159500753 cycles: 113159719 heartbeat IPC: 0.8126 cumulative IPC: 1.08 (Simulation time: 00 hr 18 min 55 sec)
Heartbeat CPU 0 instructions: 160000760 cycles: 113676681 heartbeat IPC: 0.9672 cumulative IPC: 1.08 (Simulation time: 00 hr 18 min 59 sec)
Heartbeat CPU 0 instructions: 160500760 cycles: 114169075 heartbeat IPC: 1.015 cumulative IPC: 1.079 (Simulation time: 00 hr 19 min 03 sec)
Heartbeat CPU 0 instructions: 161000766 cycles: 114654513 heartbeat IPC: 1.03 cumulative IPC: 1.079 (Simulation time: 00 hr 19 min 07 sec)
Heartbeat CPU 0 instructions: 161500767 cycles: 115106928 heartbeat IPC: 1.105 cumulative IPC: 1.079 (Simulation time: 00 hr 19 min 11 sec)
Heartbeat CPU 0 instructions: 162000772 cycles: 115536116 heartbeat IPC: 1.165 cumulative IPC: 1.08 (Simulation time: 00 hr 19 min 15 sec)
Heartbeat CPU 0 instructions: 162500774 cycles: 115886546 heartbeat IPC: 1.427 cumulative IPC: 1.081 (Simulation time: 00 hr 19 min 19 sec)
Heartbeat CPU 0 instructions: 163000777 cycles: 116415826 heartbeat IPC: 0.9447 cumulative IPC: 1.08 (Simulation time: 00 hr 19 min 23 sec)
Heartbeat CPU 0 instructions: 163500781 cycles: 116872494 heartbeat IPC: 1.095 cumulative IPC: 1.08 (Simulation time: 00 hr 19 min 27 sec)
Heartbeat CPU 0 instructions: 164000788 cycles: 117346306 heartbeat IPC: 1.055 cumulative IPC: 1.08 (Simulation time: 00 hr 19 min 30 sec)
Heartbeat CPU 0 instructions: 164500788 cycles: 117829456 heartbeat IPC: 1.035 cumulative IPC: 1.08 (Simulation time: 00 hr 19 min 33 sec)
Heartbeat CPU 0 instructions: 165000795 cycles: 118324136 heartbeat IPC: 1.011 cumulative IPC: 1.079 (Simulation time: 00 hr 19 min 37 sec)
Heartbeat CPU 0 instructions: 165500795 cycles: 118823456 heartbeat IPC: 1.001 cumulative IPC: 1.079 (Simulation time: 00 hr 19 min 41 sec)
Heartbeat CPU 0 instructions: 166000795 cycles: 119277096 heartbeat IPC: 1.102 cumulative IPC: 1.079 (Simulation time: 00 hr 19 min 44 sec)
Heartbeat CPU 0 instructions: 166500799 cycles: 119741608 heartbeat IPC: 1.076 cumulative IPC: 1.079 (Simulation time: 00 hr 19 min 48 sec)
Heartbeat CPU 0 instructions: 167000799 cycles: 120211067 heartbeat IPC: 1.065 cumulative IPC: 1.079 (Simulation time: 00 hr 19 min 51 sec)
Heartbeat CPU 0 instructions: 167500799 cycles: 120699177 heartbeat IPC: 1.024 cumulative IPC: 1.079 (Simulation time: 00 hr 19 min 55 sec)
Heartbeat CPU 0 instructions: 168000800 cycles: 121176156 heartbeat IPC: 1.048 cumulative IPC: 1.079 (Simulation time: 00 hr 19 min 58 sec)
Heartbeat CPU 0 instructions: 168500804 cycles: 121679338 heartbeat IPC: 0.9937 cumulative IPC: 1.078 (Simulation time: 00 hr 20 min 01 sec)
Heartbeat CPU 0 instructions: 169000804 cycles: 122159820 heartbeat IPC: 1.041 cumulative IPC: 1.078 (Simulation time: 00 hr 20 min 05 sec)
Heartbeat CPU 0 instructions: 169500804 cycles: 122646814 heartbeat IPC: 1.027 cumulative IPC: 1.078 (Simulation time: 00 hr 20 min 09 sec)
Heartbeat CPU 0 instructions: 170000805 cycles: 123144271 heartbeat IPC: 1.005 cumulative IPC: 1.078 (Simulation time: 00 hr 20 min 12 sec)
Heartbeat CPU 0 instructions: 170500806 cycles: 123629280 heartbeat IPC: 1.031 cumulative IPC: 1.077 (Simulation time: 00 hr 20 min 16 sec)
Heartbeat CPU 0 instructions: 171000807 cycles: 124126824 heartbeat IPC: 1.005 cumulative IPC: 1.077 (Simulation time: 00 hr 20 min 19 sec)
Heartbeat CPU 0 instructions: 171500807 cycles: 124615864 heartbeat IPC: 1.022 cumulative IPC: 1.077 (Simulation time: 00 hr 20 min 23 sec)
Heartbeat CPU 0 instructions: 172000809 cycles: 125114323 heartbeat IPC: 1.003 cumulative IPC: 1.077 (Simulation time: 00 hr 20 min 27 sec)
Heartbeat CPU 0 instructions: 172500814 cycles: 125616057 heartbeat IPC: 0.9966 cumulative IPC: 1.076 (Simulation time: 00 hr 20 min 30 sec)
Heartbeat CPU 0 instructions: 173000814 cycles: 126095731 heartbeat IPC: 1.042 cumulative IPC: 1.076 (Simulation time: 00 hr 20 min 34 sec)
Heartbeat CPU 0 instructions: 173500821 cycles: 126507881 heartbeat IPC: 1.213 cumulative IPC: 1.077 (Simulation time: 00 hr 20 min 38 sec)
Heartbeat CPU 0 instructions: 174000821 cycles: 126864540 heartbeat IPC: 1.402 cumulative IPC: 1.078 (Simulation time: 00 hr 20 min 41 sec)
Heartbeat CPU 0 instructions: 174500823 cycles: 127470889 heartbeat IPC: 0.8246 cumulative IPC: 1.076 (Simulation time: 00 hr 20 min 47 sec)
Heartbeat CPU 0 instructions: 175000826 cycles: 127898479 heartbeat IPC: 1.169 cumulative IPC: 1.077 (Simulation time: 00 hr 20 min 51 sec)
Heartbeat CPU 0 instructions: 175500826 cycles: 128257925 heartbeat IPC: 1.391 cumulative IPC: 1.078 (Simulation time: 00 hr 20 min 55 sec)
Heartbeat CPU 0 instructions: 176000827 cycles: 128683739 heartbeat IPC: 1.174 cumulative IPC: 1.078 (Simulation time: 00 hr 20 min 59 sec)
Heartbeat CPU 0 instructions: 176500829 cycles: 129174183 heartbeat IPC: 1.019 cumulative IPC: 1.078 (Simulation time: 00 hr 21 min 04 sec)
Heartbeat CPU 0 instructions: 177000830 cycles: 129581407 heartbeat IPC: 1.228 cumulative IPC: 1.078 (Simulation time: 00 hr 21 min 08 sec)
Heartbeat CPU 0 instructions: 177500832 cycles: 129954772 heartbeat IPC: 1.339 cumulative IPC: 1.079 (Simulation time: 00 hr 21 min 12 sec)
Heartbeat CPU 0 instructions: 178000834 cycles: 130516802 heartbeat IPC: 0.8896 cumulative IPC: 1.078 (Simulation time: 00 hr 21 min 17 sec)
Heartbeat CPU 0 instructions: 178500837 cycles: 130928392 heartbeat IPC: 1.215 cumulative IPC: 1.079 (Simulation time: 00 hr 21 min 21 sec)
Heartbeat CPU 0 instructions: 179000838 cycles: 131285560 heartbeat IPC: 1.4 cumulative IPC: 1.08 (Simulation time: 00 hr 21 min 25 sec)
Heartbeat CPU 0 instructions: 179500839 cycles: 131710461 heartbeat IPC: 1.177 cumulative IPC: 1.08 (Simulation time: 00 hr 21 min 29 sec)
Heartbeat CPU 0 instructions: 180000845 cycles: 132104145 heartbeat IPC: 1.27 cumulative IPC: 1.081 (Simulation time: 00 hr 21 min 33 sec)
Heartbeat CPU 0 instructions: 180500845 cycles: 132470676 heartbeat IPC: 1.364 cumulative IPC: 1.081 (Simulation time: 00 hr 21 min 37 sec)
Heartbeat CPU 0 instructions: 181000846 cycles: 132981707 heartbeat IPC: 0.9784 cumulative IPC: 1.081 (Simulation time: 00 hr 21 min 41 sec)
Heartbeat CPU 0 instructions: 181500846 cycles: 133514446 heartbeat IPC: 0.9385 cumulative IPC: 1.08 (Simulation time: 00 hr 21 min 45 sec)
Heartbeat CPU 0 instructions: 182000848 cycles: 134019518 heartbeat IPC: 0.99 cumulative IPC: 1.08 (Simulation time: 00 hr 21 min 49 sec)
Heartbeat CPU 0 instructions: 182500848 cycles: 134499446 heartbeat IPC: 1.042 cumulative IPC: 1.08 (Simulation time: 00 hr 21 min 54 sec)
Heartbeat CPU 0 instructions: 183000850 cycles: 134938917 heartbeat IPC: 1.138 cumulative IPC: 1.08 (Simulation time: 00 hr 21 min 58 sec)
Heartbeat CPU 0 instructions: 183500852 cycles: 135299204 heartbeat IPC: 1.388 cumulative IPC: 1.081 (Simulation time: 00 hr 22 min 01 sec)
Heartbeat CPU 0 instructions: 184000857 cycles: 135857946 heartbeat IPC: 0.8949 cumulative IPC: 1.08 (Simulation time: 00 hr 22 min 06 sec)
Heartbeat CPU 0 instructions: 184500857 cycles: 136359501 heartbeat IPC: 0.9969 cumulative IPC: 1.08 (Simulation time: 00 hr 22 min 10 sec)
Heartbeat CPU 0 instructions: 185000857 cycles: 136791380 heartbeat IPC: 1.158 cumulative IPC: 1.08 (Simulation time: 00 hr 22 min 14 sec)
Heartbeat CPU 0 instructions: 185500859 cycles: 137145119 heartbeat IPC: 1.413 cumulative IPC: 1.081 (Simulation time: 00 hr 22 min 18 sec)
Heartbeat CPU 0 instructions: 186000861 cycles: 137595140 heartbeat IPC: 1.111 cumulative IPC: 1.081 (Simulation time: 00 hr 22 min 22 sec)
Heartbeat CPU 0 instructions: 186500863 cycles: 138178894 heartbeat IPC: 0.8565 cumulative IPC: 1.08 (Simulation time: 00 hr 22 min 27 sec)
Heartbeat CPU 0 instructions: 187000863 cycles: 138618362 heartbeat IPC: 1.138 cumulative IPC: 1.08 (Simulation time: 00 hr 22 min 31 sec)
Heartbeat CPU 0 instructions: 187500864 cycles: 138988320 heartbeat IPC: 1.352 cumulative IPC: 1.081 (Simulation time: 00 hr 22 min 35 sec)
Heartbeat CPU 0 instructions: 188000865 cycles: 139339500 heartbeat IPC: 1.424 cumulative IPC: 1.082 (Simulation time: 00 hr 22 min 38 sec)
Heartbeat CPU 0 instructions: 188500866 cycles: 139847380 heartbeat IPC: 0.9845 cumulative IPC: 1.082 (Simulation time: 00 hr 22 min 44 sec)
Heartbeat CPU 0 instructions: 189000868 cycles: 140272360 heartbeat IPC: 1.177 cumulative IPC: 1.082 (Simulation time: 00 hr 22 min 48 sec)
Heartbeat CPU 0 instructions: 189500868 cycles: 140635582 heartbeat IPC: 1.377 cumulative IPC: 1.083 (Simulation time: 00 hr 22 min 51 sec)
Heartbeat CPU 0 instructions: 190000872 cycles: 141268130 heartbeat IPC: 0.7905 cumulative IPC: 1.081 (Simulation time: 00 hr 22 min 56 sec)
Heartbeat CPU 0 instructions: 190500872 cycles: 141809387 heartbeat IPC: 0.9238 cumulative IPC: 1.081 (Simulation time: 00 hr 23 min 00 sec)
Heartbeat CPU 0 instructions: 191000874 cycles: 142338348 heartbeat IPC: 0.9453 cumulative IPC: 1.08 (Simulation time: 00 hr 23 min 04 sec)
Heartbeat CPU 0 instructions: 191500874 cycles: 142856949 heartbeat IPC: 0.9641 cumulative IPC: 1.08 (Simulation time: 00 hr 23 min 07 sec)
Heartbeat CPU 0 instructions: 192000878 cycles: 143363018 heartbeat IPC: 0.988 cumulative IPC: 1.079 (Simulation time: 00 hr 23 min 11 sec)
Heartbeat CPU 0 instructions: 192500881 cycles: 143868804 heartbeat IPC: 0.9886 cumulative IPC: 1.079 (Simulation time: 00 hr 23 min 15 sec)
Heartbeat CPU 0 instructions: 193000881 cycles: 144363209 heartbeat IPC: 1.011 cumulative IPC: 1.079 (Simulation time: 00 hr 23 min 18 sec)
Heartbeat CPU 0 instructions: 193500882 cycles: 144842489 heartbeat IPC: 1.043 cumulative IPC: 1.079 (Simulation time: 00 hr 23 min 22 sec)
Heartbeat CPU 0 instructions: 194000882 cycles: 145308085 heartbeat IPC: 1.074 cumulative IPC: 1.079 (Simulation time: 00 hr 23 min 26 sec)
Heartbeat CPU 0 instructions: 194500885 cycles: 145747220 heartbeat IPC: 1.139 cumulative IPC: 1.079 (Simulation time: 00 hr 23 min 30 sec)
Heartbeat CPU 0 instructions: 195000888 cycles: 146105945 heartbeat IPC: 1.394 cumulative IPC: 1.08 (Simulation time: 00 hr 23 min 33 sec)
Heartbeat CPU 0 instructions: 195500889 cycles: 146598180 heartbeat IPC: 1.016 cumulative IPC: 1.079 (Simulation time: 00 hr 23 min 38 sec)
Heartbeat CPU 0 instructions: 196000889 cycles: 147065934 heartbeat IPC: 1.069 cumulative IPC: 1.079 (Simulation time: 00 hr 23 min 43 sec)
Heartbeat CPU 0 instructions: 196500890 cycles: 147468129 heartbeat IPC: 1.243 cumulative IPC: 1.08 (Simulation time: 00 hr 23 min 47 sec)
Heartbeat CPU 0 instructions: 197000890 cycles: 147963256 heartbeat IPC: 1.01 cumulative IPC: 1.08 (Simulation time: 00 hr 23 min 51 sec)
Heartbeat CPU 0 instructions: 197500891 cycles: 148541487 heartbeat IPC: 0.8647 cumulative IPC: 1.079 (Simulation time: 00 hr 23 min 55 sec)
Heartbeat CPU 0 instructions: 198000893 cycles: 149041952 heartbeat IPC: 0.9991 cumulative IPC: 1.078 (Simulation time: 00 hr 23 min 59 sec)
Heartbeat CPU 0 instructions: 198500893 cycles: 149532158 heartbeat IPC: 1.02 cumulative IPC: 1.078 (Simulation time: 00 hr 24 min 03 sec)
Heartbeat CPU 0 instructions: 199000895 cycles: 150004407 heartbeat IPC: 1.059 cumulative IPC: 1.078 (Simulation time: 00 hr 24 min 07 sec)
Heartbeat CPU 0 instructions: 199500896 cycles: 150406542 heartbeat IPC: 1.243 cumulative IPC: 1.079 (Simulation time: 00 hr 24 min 11 sec)
Heartbeat CPU 0 instructions: 200000897 cycles: 150738093 heartbeat IPC: 1.508 cumulative IPC: 1.08 (Simulation time: 00 hr 24 min 14 sec)
Heartbeat CPU 0 instructions: 200500902 cycles: 151320908 heartbeat IPC: 0.8579 cumulative IPC: 1.079 (Simulation time: 00 hr 24 min 19 sec)
Heartbeat CPU 0 instructions: 201000908 cycles: 151782323 heartbeat IPC: 1.084 cumulative IPC: 1.079 (Simulation time: 00 hr 24 min 24 sec)
Heartbeat CPU 0 instructions: 201500908 cycles: 152156723 heartbeat IPC: 1.335 cumulative IPC: 1.079 (Simulation time: 00 hr 24 min 27 sec)
Heartbeat CPU 0 instructions: 202000910 cycles: 152556646 heartbeat IPC: 1.25 cumulative IPC: 1.08 (Simulation time: 00 hr 24 min 31 sec)
Heartbeat CPU 0 instructions: 202500911 cycles: 153095042 heartbeat IPC: 0.9287 cumulative IPC: 1.079 (Simulation time: 00 hr 24 min 36 sec)
Heartbeat CPU 0 instructions: 203000913 cycles: 153502136 heartbeat IPC: 1.228 cumulative IPC: 1.08 (Simulation time: 00 hr 24 min 40 sec)
Heartbeat CPU 0 instructions: 203500913 cycles: 153969742 heartbeat IPC: 1.069 cumulative IPC: 1.08 (Simulation time: 00 hr 24 min 45 sec)
Heartbeat CPU 0 instructions: 204000913 cycles: 154402232 heartbeat IPC: 1.156 cumulative IPC: 1.08 (Simulation time: 00 hr 24 min 49 sec)
Heartbeat CPU 0 instructions: 204500916 cycles: 154787075 heartbeat IPC: 1.299 cumulative IPC: 1.08 (Simulation time: 00 hr 24 min 53 sec)
Heartbeat CPU 0 instructions: 205000916 cycles: 155219680 heartbeat IPC: 1.156 cumulative IPC: 1.081 (Simulation time: 00 hr 24 min 57 sec)
Heartbeat CPU 0 instructions: 205500917 cycles: 155883273 heartbeat IPC: 0.7535 cumulative IPC: 1.079 (Simulation time: 00 hr 25 min 02 sec)
Heartbeat CPU 0 instructions: 206000918 cycles: 156378879 heartbeat IPC: 1.009 cumulative IPC: 1.079 (Simulation time: 00 hr 25 min 06 sec)
Heartbeat CPU 0 instructions: 206500921 cycles: 156776612 heartbeat IPC: 1.257 cumulative IPC: 1.079 (Simulation time: 00 hr 25 min 09 sec)
Heartbeat CPU 0 instructions: 207000924 cycles: 157119618 heartbeat IPC: 1.458 cumulative IPC: 1.08 (Simulation time: 00 hr 25 min 13 sec)
Heartbeat CPU 0 instructions: 207500925 cycles: 157747229 heartbeat IPC: 0.7967 cumulative IPC: 1.079 (Simulation time: 00 hr 25 min 18 sec)
Heartbeat CPU 0 instructions: 208000927 cycles: 158309273 heartbeat IPC: 0.8896 cumulative IPC: 1.078 (Simulation time: 00 hr 25 min 22 sec)
Heartbeat CPU 0 instructions: 208500927 cycles: 158769133 heartbeat IPC: 1.087 cumulative IPC: 1.078 (Simulation time: 00 hr 25 min 26 sec)
Heartbeat CPU 0 instructions: 209000928 cycles: 159173621 heartbeat IPC: 1.236 cumulative IPC: 1.079 (Simulation time: 00 hr 25 min 30 sec)
Heartbeat CPU 0 instructions: 209500931 cycles: 159559571 heartbeat IPC: 1.296 cumulative IPC: 1.079 (Simulation time: 00 hr 25 min 33 sec)
Heartbeat CPU 0 instructions: 210000931 cycles: 159881294 heartbeat IPC: 1.554 cumulative IPC: 1.08 (Simulation time: 00 hr 25 min 36 sec)
Heartbeat CPU 0 instructions: 210500932 cycles: 160492154 heartbeat IPC: 0.8185 cumulative IPC: 1.079 (Simulation time: 00 hr 25 min 41 sec)
Heartbeat CPU 0 instructions: 211000934 cycles: 161022030 heartbeat IPC: 0.9436 cumulative IPC: 1.079 (Simulation time: 00 hr 25 min 45 sec)
Heartbeat CPU 0 instructions: 211500936 cycles: 161542635 heartbeat IPC: 0.9604 cumulative IPC: 1.078 (Simulation time: 00 hr 25 min 48 sec)
Heartbeat CPU 0 instructions: 212000938 cycles: 162027688 heartbeat IPC: 1.031 cumulative IPC: 1.078 (Simulation time: 00 hr 25 min 52 sec)
Heartbeat CPU 0 instructions: 212500941 cycles: 162451817 heartbeat IPC: 1.179 cumulative IPC: 1.079 (Simulation time: 00 hr 25 min 56 sec)
Heartbeat CPU 0 instructions: 213000943 cycles: 162816141 heartbeat IPC: 1.372 cumulative IPC: 1.079 (Simulation time: 00 hr 25 min 59 sec)
Heartbeat CPU 0 instructions: 213500948 cycles: 163394394 heartbeat IPC: 0.8647 cumulative IPC: 1.078 (Simulation time: 00 hr 26 min 04 sec)
Heartbeat CPU 0 instructions: 214000948 cycles: 163967778 heartbeat IPC: 0.872 cumulative IPC: 1.078 (Simulation time: 00 hr 26 min 08 sec)
Heartbeat CPU 0 instructions: 214500954 cycles: 164494352 heartbeat IPC: 0.9495 cumulative IPC: 1.077 (Simulation time: 00 hr 26 min 11 sec)
Heartbeat CPU 0 instructions: 215000957 cycles: 164977054 heartbeat IPC: 1.036 cumulative IPC: 1.077 (Simulation time: 00 hr 26 min 15 sec)
Heartbeat CPU 0 instructions: 215500958 cycles: 165462828 heartbeat IPC: 1.029 cumulative IPC: 1.077 (Simulation time: 00 hr 26 min 18 sec)
Heartbeat CPU 0 instructions: 216000960 cycles: 165926349 heartbeat IPC: 1.079 cumulative IPC: 1.077 (Simulation time: 00 hr 26 min 22 sec)
Heartbeat CPU 0 instructions: 216500960 cycles: 166397669 heartbeat IPC: 1.061 cumulative IPC: 1.077 (Simulation time: 00 hr 26 min 25 sec)
Heartbeat CPU 0 instructions: 217000966 cycles: 166861164 heartbeat IPC: 1.079 cumulative IPC: 1.077 (Simulation time: 00 hr 26 min 29 sec)
Heartbeat CPU 0 instructions: 217500967 cycles: 167255081 heartbeat IPC: 1.269 cumulative IPC: 1.077 (Simulation time: 00 hr 26 min 32 sec)
Heartbeat CPU 0 instructions: 218000967 cycles: 167597378 heartbeat IPC: 1.461 cumulative IPC: 1.078 (Simulation time: 00 hr 26 min 36 sec)
Heartbeat CPU 0 instructions: 218500969 cycles: 168132835 heartbeat IPC: 0.9338 cumulative IPC: 1.078 (Simulation time: 00 hr 26 min 40 sec)
Heartbeat CPU 0 instructions: 219000972 cycles: 168760788 heartbeat IPC: 0.7962 cumulative IPC: 1.077 (Simulation time: 00 hr 26 min 44 sec)
Heartbeat CPU 0 instructions: 219500976 cycles: 169264943 heartbeat IPC: 0.9918 cumulative IPC: 1.076 (Simulation time: 00 hr 26 min 48 sec)
Heartbeat CPU 0 instructions: 220000977 cycles: 169720833 heartbeat IPC: 1.097 cumulative IPC: 1.076 (Simulation time: 00 hr 26 min 52 sec)
Heartbeat CPU 0 instructions: 220500980 cycles: 170145489 heartbeat IPC: 1.177 cumulative IPC: 1.077 (Simulation time: 00 hr 26 min 55 sec)
Heartbeat CPU 0 instructions: 221000985 cycles: 170561429 heartbeat IPC: 1.202 cumulative IPC: 1.077 (Simulation time: 00 hr 26 min 59 sec)
Heartbeat CPU 0 instructions: 221500985 cycles: 170921243 heartbeat IPC: 1.39 cumulative IPC: 1.078 (Simulation time: 00 hr 27 min 02 sec)
Heartbeat CPU 0 instructions: 222000986 cycles: 171563977 heartbeat IPC: 0.7779 cumulative IPC: 1.077 (Simulation time: 00 hr 27 min 07 sec)
Heartbeat CPU 0 instructions: 222500989 cycles: 172066505 heartbeat IPC: 0.995 cumulative IPC: 1.076 (Simulation time: 00 hr 27 min 11 sec)
Heartbeat CPU 0 instructions: 223000992 cycles: 172519751 heartbeat IPC: 1.103 cumulative IPC: 1.076 (Simulation time: 00 hr 27 min 15 sec)
Heartbeat CPU 0 instructions: 223500993 cycles: 172907114 heartbeat IPC: 1.291 cumulative IPC: 1.077 (Simulation time: 00 hr 27 min 18 sec)
Heartbeat CPU 0 instructions: 224000993 cycles: 173246480 heartbeat IPC: 1.473 cumulative IPC: 1.078 (Simulation time: 00 hr 27 min 21 sec)
Heartbeat CPU 0 instructions: 224500993 cycles: 173832025 heartbeat IPC: 0.8539 cumulative IPC: 1.077 (Simulation time: 00 hr 27 min 26 sec)
Heartbeat CPU 0 instructions: 225000994 cycles: 174314963 heartbeat IPC: 1.035 cumulative IPC: 1.077 (Simulation time: 00 hr 27 min 30 sec)
Heartbeat CPU 0 instructions: 225500998 cycles: 174733559 heartbeat IPC: 1.194 cumulative IPC: 1.077 (Simulation time: 00 hr 27 min 34 sec)
Heartbeat CPU 0 instructions: 226001004 cycles: 175092979 heartbeat IPC: 1.391 cumulative IPC: 1.078 (Simulation time: 00 hr 27 min 37 sec)
Heartbeat CPU 0 instructions: 226501006 cycles: 175559915 heartbeat IPC: 1.071 cumulative IPC: 1.078 (Simulation time: 00 hr 27 min 41 sec)
Heartbeat CPU 0 instructions: 227001011 cycles: 176024373 heartbeat IPC: 1.077 cumulative IPC: 1.078 (Simulation time: 00 hr 27 min 45 sec)
Heartbeat CPU 0 instructions: 227501013 cycles: 176434128 heartbeat IPC: 1.22 cumulative IPC: 1.078 (Simulation time: 00 hr 27 min 49 sec)
Heartbeat CPU 0 instructions: 228001015 cycles: 176794112 heartbeat IPC: 1.389 cumulative IPC: 1.079 (Simulation time: 00 hr 27 min 52 sec)
Heartbeat CPU 0 instructions: 228501016 cycles: 177452338 heartbeat IPC: 0.7596 cumulative IPC: 1.078 (Simulation time: 00 hr 27 min 57 sec)
Heartbeat CPU 0 instructions: 229001016 cycles: 177968270 heartbeat IPC: 0.9691 cumulative IPC: 1.077 (Simulation time: 00 hr 28 min 00 sec)
Heartbeat CPU 0 instructions: 229501017 cycles: 178451384 heartbeat IPC: 1.035 cumulative IPC: 1.077 (Simulation time: 00 hr 28 min 04 sec)
Heartbeat CPU 0 instructions: 230001018 cycles: 178950290 heartbeat IPC: 1.002 cumulative IPC: 1.077 (Simulation time: 00 hr 28 min 08 sec)
Heartbeat CPU 0 instructions: 230501018 cycles: 179361662 heartbeat IPC: 1.215 cumulative IPC: 1.077 (Simulation time: 00 hr 28 min 12 sec)
Heartbeat CPU 0 instructions: 231001019 cycles: 179853531 heartbeat IPC: 1.017 cumulative IPC: 1.077 (Simulation time: 00 hr 28 min 16 sec)
Heartbeat CPU 0 instructions: 231501020 cycles: 180411843 heartbeat IPC: 0.8956 cumulative IPC: 1.076 (Simulation time: 00 hr 28 min 20 sec)
Heartbeat CPU 0 instructions: 232001024 cycles: 180857067 heartbeat IPC: 1.123 cumulative IPC: 1.077 (Simulation time: 00 hr 28 min 24 sec)
Heartbeat CPU 0 instructions: 232501025 cycles: 181256332 heartbeat IPC: 1.252 cumulative IPC: 1.077 (Simulation time: 00 hr 28 min 27 sec)
Heartbeat CPU 0 instructions: 233001028 cycles: 181606616 heartbeat IPC: 1.427 cumulative IPC: 1.078 (Simulation time: 00 hr 28 min 31 sec)
Heartbeat CPU 0 instructions: 233501030 cycles: 182043331 heartbeat IPC: 1.145 cumulative IPC: 1.078 (Simulation time: 00 hr 28 min 35 sec)
Heartbeat CPU 0 instructions: 234001030 cycles: 182430556 heartbeat IPC: 1.291 cumulative IPC: 1.078 (Simulation time: 00 hr 28 min 38 sec)
Heartbeat CPU 0 instructions: 234501036 cycles: 182795302 heartbeat IPC: 1.371 cumulative IPC: 1.079 (Simulation time: 00 hr 28 min 42 sec)
Heartbeat CPU 0 instructions: 235001036 cycles: 183277785 heartbeat IPC: 1.036 cumulative IPC: 1.079 (Simulation time: 00 hr 28 min 46 sec)
Heartbeat CPU 0 instructions: 235501037 cycles: 183810679 heartbeat IPC: 0.9383 cumulative IPC: 1.078 (Simulation time: 00 hr 28 min 50 sec)
Heartbeat CPU 0 instructions: 236001037 cycles: 184198750 heartbeat IPC: 1.288 cumulative IPC: 1.079 (Simulation time: 00 hr 28 min 54 sec)
Heartbeat CPU 0 instructions: 236501039 cycles: 184542579 heartbeat IPC: 1.454 cumulative IPC: 1.08 (Simulation time: 00 hr 28 min 57 sec)
Heartbeat CPU 0 instructions: 237001040 cycles: 185158276 heartbeat IPC: 0.8121 cumulative IPC: 1.079 (Simulation time: 00 hr 29 min 02 sec)
Heartbeat CPU 0 instructions: 237501045 cycles: 185647401 heartbeat IPC: 1.022 cumulative IPC: 1.078 (Simulation time: 00 hr 29 min 06 sec)
Heartbeat CPU 0 instructions: 238001047 cycles: 186075971 heartbeat IPC: 1.167 cumulative IPC: 1.079 (Simulation time: 00 hr 29 min 10 sec)
Heartbeat CPU 0 instructions: 238501049 cycles: 186411842 heartbeat IPC: 1.489 cumulative IPC: 1.079 (Simulation time: 00 hr 29 min 13 sec)
Heartbeat CPU 0 instructions: 239001049 cycles: 186930536 heartbeat IPC: 0.964 cumulative IPC: 1.079 (Simulation time: 00 hr 29 min 17 sec)
Heartbeat CPU 0 instructions: 239501053 cycles: 187349056 heartbeat IPC: 1.195 cumulative IPC: 1.079 (Simulation time: 00 hr 29 min 21 sec)
Heartbeat CPU 0 instructions: 240001053 cycles: 187690625 heartbeat IPC: 1.464 cumulative IPC: 1.08 (Simulation time: 00 hr 29 min 24 sec)
Heartbeat CPU 0 instructions: 240501053 cycles: 188103934 heartbeat IPC: 1.21 cumulative IPC: 1.08 (Simulation time: 00 hr 29 min 28 sec)
Heartbeat CPU 0 instructions: 241001055 cycles: 188508683 heartbeat IPC: 1.235 cumulative IPC: 1.081 (Simulation time: 00 hr 29 min 32 sec)
Heartbeat CPU 0 instructions: 241501058 cycles: 188884765 heartbeat IPC: 1.33 cumulative IPC: 1.081 (Simulation time: 00 hr 29 min 36 sec)
Heartbeat CPU 0 instructions: 242001061 cycles: 189297981 heartbeat IPC: 1.21 cumulative IPC: 1.082 (Simulation time: 00 hr 29 min 39 sec)
Heartbeat CPU 0 instructions: 242501064 cycles: 189736454 heartbeat IPC: 1.14 cumulative IPC: 1.082 (Simulation time: 00 hr 29 min 44 sec)
Heartbeat CPU 0 instructions: 243001067 cycles: 190114592 heartbeat IPC: 1.322 cumulative IPC: 1.082 (Simulation time: 00 hr 29 min 47 sec)
Heartbeat CPU 0 instructions: 243501069 cycles: 190536615 heartbeat IPC: 1.185 cumulative IPC: 1.083 (Simulation time: 00 hr 29 min 51 sec)
Heartbeat CPU 0 instructions: 244001071 cycles: 191016561 heartbeat IPC: 1.042 cumulative IPC: 1.082 (Simulation time: 00 hr 29 min 55 sec)
Heartbeat CPU 0 instructions: 244501073 cycles: 191396096 heartbeat IPC: 1.317 cumulative IPC: 1.083 (Simulation time: 00 hr 29 min 58 sec)
Heartbeat CPU 0 instructions: 245001076 cycles: 191715556 heartbeat IPC: 1.565 cumulative IPC: 1.084 (Simulation time: 00 hr 30 min 01 sec)
Heartbeat CPU 0 instructions: 245501077 cycles: 192368329 heartbeat IPC: 0.766 cumulative IPC: 1.083 (Simulation time: 00 hr 30 min 06 sec)
Heartbeat CPU 0 instructions: 246001077 cycles: 192891363 heartbeat IPC: 0.956 cumulative IPC: 1.082 (Simulation time: 00 hr 30 min 10 sec)
Heartbeat CPU 0 instructions: 246501078 cycles: 193319236 heartbeat IPC: 1.169 cumulative IPC: 1.082 (Simulation time: 00 hr 30 min 14 sec)
Heartbeat CPU 0 instructions: 247001082 cycles: 193732898 heartbeat IPC: 1.209 cumulative IPC: 1.083 (Simulation time: 00 hr 30 min 17 sec)
Heartbeat CPU 0 instructions: 247501083 cycles: 194081812 heartbeat IPC: 1.433 cumulative IPC: 1.083 (Simulation time: 00 hr 30 min 20 sec)
Heartbeat CPU 0 instructions: 248001084 cycles: 194396416 heartbeat IPC: 1.589 cumulative IPC: 1.084 (Simulation time: 00 hr 30 min 23 sec)
Heartbeat CPU 0 instructions: 248501085 cycles: 194856361 heartbeat IPC: 1.087 cumulative IPC: 1.084 (Simulation time: 00 hr 30 min 27 sec)
Heartbeat CPU 0 instructions: 249001085 cycles: 195273448 heartbeat IPC: 1.199 cumulative IPC: 1.085 (Simulation time: 00 hr 30 min 31 sec)
Heartbeat CPU 0 instructions: 249501088 cycles: 195660270 heartbeat IPC: 1.293 cumulative IPC: 1.085 (Simulation time: 00 hr 30 min 35 sec)
Simulation finished CPU 0 instructions: 200000001 cycles: 184395648 cumulative IPC: 1.085 (Simulation time: 00 hr 30 min 39 sec)
Simulation complete CPU 0 instructions: 200000001 cycles: 184395648 cumulative IPC: 1.085 (Simulation time: 00 hr 30 min 39 sec)

ChampSim completed all CPUs

=== Simulation ===
CPU 0 runs /local-ssd/ben/dpc4-traces/Graph/GMS/gms.k_clique_list_danisch_edge_parallel.soc-pokec-relationships.slice-367.champsimtrace.gz

Region of Interest Statistics

CPU 0 cumulative IPC: 1.085 instructions: 200000001 cycles: 184395648
CPU 0 Branch Prediction Accuracy: 93.96% MPKI: 9.511 Average ROB Occupancy at Mispredict: 30.77
Branch type MPKI
BRANCH_DIRECT_JUMP: 0.5053
BRANCH_INDIRECT: 0
BRANCH_CONDITIONAL: 9.005
BRANCH_DIRECT_CALL: 0
BRANCH_INDIRECT_CALL: 0
BRANCH_RETURN: 0

cpu0->cpu0_STLB TOTAL        ACCESS:   13388962 HIT:   12976802 MISS:     412160 MSHR_MERGE:          0
cpu0->cpu0_STLB LOAD         ACCESS:   13388962 HIT:   12976802 MISS:     412160 MSHR_MERGE:          0
cpu0->cpu0_STLB RFO          ACCESS:          0 HIT:          0 MISS:          0 MSHR_MERGE:          0
cpu0->cpu0_STLB PREFETCH     ACCESS:          0 HIT:          0 MISS:          0 MSHR_MERGE:          0
cpu0->cpu0_STLB WRITE        ACCESS:          0 HIT:          0 MISS:          0 MSHR_MERGE:          0
cpu0->cpu0_STLB TRANSLATION  ACCESS:          0 HIT:          0 MISS:          0 MSHR_MERGE:          0
cpu0->cpu0_STLB PREFETCH REQUESTED:          0 ISSUED:          0 USEFUL:          0 USELESS:          0
cpu0->cpu0_STLB AVERAGE MISS LATENCY: 55.45 cycles
cpu0->cpu0_L2C TOTAL        ACCESS:   14595999 HIT:   11804216 MISS:    2791783 MSHR_MERGE:     210156
cpu0->cpu0_L2C LOAD         ACCESS:    3697148 HIT:    2716884 MISS:     980264 MSHR_MERGE:      13097
cpu0->cpu0_L2C RFO          ACCESS:    2031494 HIT:    2013135 MISS:      18359 MSHR_MERGE:          0
cpu0->cpu0_L2C PREFETCH     ACCESS:    6340299 HIT:    4579901 MISS:    1760398 MSHR_MERGE:     197059
cpu0->cpu0_L2C WRITE        ACCESS:    2172099 HIT:    2172052 MISS:         47 MSHR_MERGE:          0
cpu0->cpu0_L2C TRANSLATION  ACCESS:     354959 HIT:     322244 MISS:      32715 MSHR_MERGE:          0
cpu0->cpu0_L2C PREFETCH REQUESTED:    6029516 ISSUED:    5191768 USEFUL:     309271 USELESS:     935863
cpu0->cpu0_L2C AVERAGE MISS LATENCY: 204.9 cycles
cpu0->cpu0_L1I TOTAL        ACCESS:   19526730 HIT:   19526730 MISS:          0 MSHR_MERGE:          0
cpu0->cpu0_L1I LOAD         ACCESS:   19526730 HIT:   19526730 MISS:          0 MSHR_MERGE:          0
cpu0->cpu0_L1I RFO          ACCESS:          0 HIT:          0 MISS:          0 MSHR_MERGE:          0
cpu0->cpu0_L1I PREFETCH     ACCESS:          0 HIT:          0 MISS:          0 MSHR_MERGE:          0
cpu0->cpu0_L1I WRITE        ACCESS:          0 HIT:          0 MISS:          0 MSHR_MERGE:          0
cpu0->cpu0_L1I TRANSLATION  ACCESS:          0 HIT:          0 MISS:          0 MSHR_MERGE:          0
cpu0->cpu0_L1I PREFETCH REQUESTED:          0 ISSUED:          0 USEFUL:          0 USELESS:          0
cpu0->cpu0_L1I AVERAGE MISS LATENCY: - cycles
cpu0->cpu0_L1D TOTAL        ACCESS:   81248626 HIT:   72837835 MISS:    8410791 MSHR_MERGE:    1178043
cpu0->cpu0_L1D LOAD         ACCESS:   38902342 HIT:   34483554 MISS:    4418788 MSHR_MERGE:     721617
cpu0->cpu0_L1D RFO          ACCESS:          0 HIT:          0 MISS:          0 MSHR_MERGE:          0
cpu0->cpu0_L1D PREFETCH     ACCESS:   10239243 HIT:    8822674 MISS:    1416569 MSHR_MERGE:     268017
cpu0->cpu0_L1D WRITE        ACCESS:   31292083 HIT:   29084880 MISS:    2207203 MSHR_MERGE:     175137
cpu0->cpu0_L1D TRANSLATION  ACCESS:     814958 HIT:     446727 MISS:     368231 MSHR_MERGE:      13272
cpu0->cpu0_L1D PREFETCH REQUESTED:   12822750 ISSUED:   10239235 USEFUL:     268319 USELESS:     879996
cpu0->cpu0_L1D AVERAGE MISS LATENCY: 43.49 cycles
cpu0->cpu0_ITLB TOTAL        ACCESS:   19478091 HIT:   19478091 MISS:          0 MSHR_MERGE:          0
cpu0->cpu0_ITLB LOAD         ACCESS:   19478091 HIT:   19478091 MISS:          0 MSHR_MERGE:          0
cpu0->cpu0_ITLB RFO          ACCESS:          0 HIT:          0 MISS:          0 MSHR_MERGE:          0
cpu0->cpu0_ITLB PREFETCH     ACCESS:          0 HIT:          0 MISS:          0 MSHR_MERGE:          0
cpu0->cpu0_ITLB WRITE        ACCESS:          0 HIT:          0 MISS:          0 MSHR_MERGE:          0
cpu0->cpu0_ITLB TRANSLATION  ACCESS:          0 HIT:          0 MISS:          0 MSHR_MERGE:          0
cpu0->cpu0_ITLB PREFETCH REQUESTED:          0 ISSUED:          0 USEFUL:          0 USELESS:          0
cpu0->cpu0_ITLB AVERAGE MISS LATENCY: - cycles
cpu0->cpu0_DTLB TOTAL        ACCESS:   75325495 HIT:   58260848 MISS:   17064647 MSHR_MERGE:    3675686
cpu0->cpu0_DTLB LOAD         ACCESS:   75325495 HIT:   58260848 MISS:   17064647 MSHR_MERGE:    3675686
cpu0->cpu0_DTLB RFO          ACCESS:          0 HIT:          0 MISS:          0 MSHR_MERGE:          0
cpu0->cpu0_DTLB PREFETCH     ACCESS:          0 HIT:          0 MISS:          0 MSHR_MERGE:          0
cpu0->cpu0_DTLB WRITE        ACCESS:          0 HIT:          0 MISS:          0 MSHR_MERGE:          0
cpu0->cpu0_DTLB TRANSLATION  ACCESS:          0 HIT:          0 MISS:          0 MSHR_MERGE:          0
cpu0->cpu0_DTLB PREFETCH REQUESTED:          0 ISSUED:          0 USEFUL:          0 USELESS:          0
cpu0->cpu0_DTLB AVERAGE MISS LATENCY: 6.749 cycles
cpu0->LLC TOTAL        ACCESS:    4485807 HIT:    1660250 MISS:    2825557 MSHR_MERGE:     584637
cpu0->LLC LOAD         ACCESS:     967167 HIT:     361518 MISS:     605649 MSHR_MERGE:         97
cpu0->LLC RFO          ACCESS:      18359 HIT:       9852 MISS:       8507 MSHR_MERGE:          0
cpu0->LLC PREFETCH     ACCESS:    3429592 HIT:    1265511 MISS:    2164081 MSHR_MERGE:     584540
cpu0->LLC WRITE        ACCESS:      37974 HIT:      22300 MISS:      15674 MSHR_MERGE:          0
cpu0->LLC TRANSLATION  ACCESS:      32715 HIT:       1069 MISS:      31646 MSHR_MERGE:          0
cpu0->LLC PREFETCH REQUESTED:    1869292 ISSUED:    1866253 USEFUL:      73054 USELESS:     627090
cpu0->LLC AVERAGE MISS LATENCY: 280.2 cycles

DRAM Statistics

Channel 0 RQ ROW_BUFFER_HIT:       7844
  ROW_BUFFER_MISS:    2217376
  AVG DBUS CONGESTED CYCLE: 5.846
Channel 0 WQ ROW_BUFFER_HIT:       3900
  ROW_BUFFER_MISS:      17148
  FULL:          0
Channel 0 REFRESHES ISSUED:      15365
