[VMEM] WARNING: physical memory size is smaller than virtual memory size.

*** ChampSim Multicore Out-of-Order Simulator ***
Warmup Instructions: 50000000
Simulation Instructions: 200000000
Number of CPUs: 1
Page size: 4096
Core 0: /local-ssd/ben/dpc4-traces/gtraces_v2/merced_0001.champsim.gz
IPCP_AT_L1_CONFIG
NUM_IP_TABLE_L1_ENTRIES 1024
NUM_GHB_ENTRIES 16
NUM_IP_INDEX_BITS 10
NUM_IP_TAG_BITS 6
S_TYPE 1
CS_TYPE 2
CPLX_TYPE 3
NL_TYPE 4

Off-chip DRAM Size: 64 GiB Channels: 1 Width: 64-bit Data Rate: 4807 MT/s
Heartbeat CPU 0 instructions: 500000 cycles: 247261 heartbeat IPC: 2.022 cumulative IPC: 2.022 (Simulation time: 00 hr 00 min 03 sec)
[BTB] WARNING: target of return is a lower address than the corresponding call. This is usually a problem with your trace.
[BTB] WARNING: target of return is a lower address than the corresponding call. This is usually a problem with your trace.
[BTB] WARNING: target of return is a lower address than the corresponding call. This is usually a problem with your trace.
Heartbeat CPU 0 instructions: 1000007 cycles: 412294 heartbeat IPC: 3.03 cumulative IPC: 2.425 (Simulation time: 00 hr 00 min 06 sec)
[BTB] WARNING: target of return is a lower address than the corresponding call. This is usually a problem with your trace.
[BTB] WARNING: target of return is a lower address than the corresponding call. This is usually a problem with your trace.
[BTB] WARNING: target of return is a lower address than the corresponding call. This is usually a problem with your trace.
[BTB] WARNING: target of return is a lower address than the corresponding call. This is usually a problem with your trace.
Heartbeat CPU 0 instructions: 1500010 cycles: 634610 heartbeat IPC: 2.249 cumulative IPC: 2.364 (Simulation time: 00 hr 00 min 09 sec)
Heartbeat CPU 0 instructions: 2000017 cycles: 774875 heartbeat IPC: 3.565 cumulative IPC: 2.581 (Simulation time: 00 hr 00 min 11 sec)
Heartbeat CPU 0 instructions: 2500024 cycles: 910398 heartbeat IPC: 3.689 cumulative IPC: 2.746 (Simulation time: 00 hr 00 min 14 sec)
Heartbeat CPU 0 instructions: 3000025 cycles: 1032052 heartbeat IPC: 4.11 cumulative IPC: 2.907 (Simulation time: 00 hr 00 min 15 sec)
[BTB] WARNING: target of return is a lower address than the corresponding call. This is usually a problem with your trace.
[BTB] WARNING: target of return is a lower address than the corresponding call. This is usually a problem with your trace.
[BTB] WARNING: target of return is a lower address than the corresponding call. This is usually a problem with your trace.
Heartbeat CPU 0 instructions: 3500031 cycles: 1242098 heartbeat IPC: 2.38 cumulative IPC: 2.818 (Simulation time: 00 hr 00 min 18 sec)
Heartbeat CPU 0 instructions: 4000035 cycles: 1427044 heartbeat IPC: 2.704 cumulative IPC: 2.803 (Simulation time: 00 hr 00 min 21 sec)
Heartbeat CPU 0 instructions: 4500038 cycles: 1541922 heartbeat IPC: 4.352 cumulative IPC: 2.918 (Simulation time: 00 hr 00 min 23 sec)
Heartbeat CPU 0 instructions: 5000045 cycles: 1692694 heartbeat IPC: 3.316 cumulative IPC: 2.954 (Simulation time: 00 hr 00 min 25 sec)
Heartbeat CPU 0 instructions: 5500051 cycles: 1869987 heartbeat IPC: 2.82 cumulative IPC: 2.941 (Simulation time: 00 hr 00 min 28 sec)
Heartbeat CPU 0 instructions: 6000053 cycles: 2081285 heartbeat IPC: 2.366 cumulative IPC: 2.883 (Simulation time: 00 hr 00 min 31 sec)
Heartbeat CPU 0 instructions: 6500055 cycles: 2232891 heartbeat IPC: 3.298 cumulative IPC: 2.911 (Simulation time: 00 hr 00 min 33 sec)
Heartbeat CPU 0 instructions: 7000062 cycles: 2354490 heartbeat IPC: 4.112 cumulative IPC: 2.973 (Simulation time: 00 hr 00 min 35 sec)
Heartbeat CPU 0 instructions: 7500065 cycles: 2504067 heartbeat IPC: 3.343 cumulative IPC: 2.995 (Simulation time: 00 hr 00 min 38 sec)
Heartbeat CPU 0 instructions: 8000068 cycles: 2629851 heartbeat IPC: 3.975 cumulative IPC: 3.042 (Simulation time: 00 hr 00 min 40 sec)
Heartbeat CPU 0 instructions: 8500069 cycles: 2751464 heartbeat IPC: 4.111 cumulative IPC: 3.089 (Simulation time: 00 hr 00 min 42 sec)
Heartbeat CPU 0 instructions: 9000071 cycles: 2923204 heartbeat IPC: 2.911 cumulative IPC: 3.079 (Simulation time: 00 hr 00 min 45 sec)
Heartbeat CPU 0 instructions: 9500073 cycles: 3120586 heartbeat IPC: 2.533 cumulative IPC: 3.044 (Simulation time: 00 hr 00 min 48 sec)
Heartbeat CPU 0 instructions: 10000076 cycles: 3267912 heartbeat IPC: 3.394 cumulative IPC: 3.06 (Simulation time: 00 hr 00 min 50 sec)
Heartbeat CPU 0 instructions: 10500080 cycles: 3409265 heartbeat IPC: 3.537 cumulative IPC: 3.08 (Simulation time: 00 hr 00 min 52 sec)
Heartbeat CPU 0 instructions: 11000085 cycles: 3569638 heartbeat IPC: 3.118 cumulative IPC: 3.082 (Simulation time: 00 hr 00 min 55 sec)
Heartbeat CPU 0 instructions: 11500086 cycles: 3701429 heartbeat IPC: 3.794 cumulative IPC: 3.107 (Simulation time: 00 hr 00 min 57 sec)
Heartbeat CPU 0 instructions: 12000093 cycles: 3881987 heartbeat IPC: 2.769 cumulative IPC: 3.091 (Simulation time: 00 hr 01 min 00 sec)
Heartbeat CPU 0 instructions: 12500098 cycles: 4039682 heartbeat IPC: 3.171 cumulative IPC: 3.094 (Simulation time: 00 hr 01 min 03 sec)
Heartbeat CPU 0 instructions: 13000100 cycles: 4199875 heartbeat IPC: 3.121 cumulative IPC: 3.095 (Simulation time: 00 hr 01 min 05 sec)
Heartbeat CPU 0 instructions: 13500105 cycles: 4328580 heartbeat IPC: 3.885 cumulative IPC: 3.119 (Simulation time: 00 hr 01 min 08 sec)
Heartbeat CPU 0 instructions: 14000106 cycles: 4497333 heartbeat IPC: 2.963 cumulative IPC: 3.113 (Simulation time: 00 hr 01 min 10 sec)
Heartbeat CPU 0 instructions: 14500109 cycles: 4635314 heartbeat IPC: 3.624 cumulative IPC: 3.128 (Simulation time: 00 hr 01 min 13 sec)
Heartbeat CPU 0 instructions: 15000113 cycles: 4764094 heartbeat IPC: 3.883 cumulative IPC: 3.149 (Simulation time: 00 hr 01 min 15 sec)
Heartbeat CPU 0 instructions: 15500117 cycles: 4922173 heartbeat IPC: 3.163 cumulative IPC: 3.149 (Simulation time: 00 hr 01 min 18 sec)
Heartbeat CPU 0 instructions: 16000120 cycles: 5043683 heartbeat IPC: 4.115 cumulative IPC: 3.172 (Simulation time: 00 hr 01 min 20 sec)
Heartbeat CPU 0 instructions: 16500120 cycles: 5156737 heartbeat IPC: 4.423 cumulative IPC: 3.2 (Simulation time: 00 hr 01 min 21 sec)
Heartbeat CPU 0 instructions: 17000121 cycles: 5281555 heartbeat IPC: 4.006 cumulative IPC: 3.219 (Simulation time: 00 hr 01 min 24 sec)
Heartbeat CPU 0 instructions: 17500126 cycles: 5392934 heartbeat IPC: 4.489 cumulative IPC: 3.245 (Simulation time: 00 hr 01 min 25 sec)
Heartbeat CPU 0 instructions: 18000126 cycles: 5560219 heartbeat IPC: 2.989 cumulative IPC: 3.237 (Simulation time: 00 hr 01 min 28 sec)
Heartbeat CPU 0 instructions: 18500126 cycles: 5729983 heartbeat IPC: 2.945 cumulative IPC: 3.229 (Simulation time: 00 hr 01 min 31 sec)
Heartbeat CPU 0 instructions: 19000128 cycles: 5894869 heartbeat IPC: 3.032 cumulative IPC: 3.223 (Simulation time: 00 hr 01 min 34 sec)
Heartbeat CPU 0 instructions: 19500129 cycles: 6038246 heartbeat IPC: 3.487 cumulative IPC: 3.229 (Simulation time: 00 hr 01 min 36 sec)
Heartbeat CPU 0 instructions: 20000133 cycles: 6148732 heartbeat IPC: 4.525 cumulative IPC: 3.253 (Simulation time: 00 hr 01 min 38 sec)
Heartbeat CPU 0 instructions: 20500137 cycles: 6258734 heartbeat IPC: 4.545 cumulative IPC: 3.275 (Simulation time: 00 hr 01 min 40 sec)
Heartbeat CPU 0 instructions: 21000138 cycles: 6365756 heartbeat IPC: 4.672 cumulative IPC: 3.299 (Simulation time: 00 hr 01 min 41 sec)
Heartbeat CPU 0 instructions: 21500144 cycles: 6471049 heartbeat IPC: 4.749 cumulative IPC: 3.323 (Simulation time: 00 hr 01 min 43 sec)
Heartbeat CPU 0 instructions: 22000151 cycles: 6571223 heartbeat IPC: 4.991 cumulative IPC: 3.348 (Simulation time: 00 hr 01 min 45 sec)
Heartbeat CPU 0 instructions: 22500156 cycles: 6671306 heartbeat IPC: 4.996 cumulative IPC: 3.373 (Simulation time: 00 hr 01 min 46 sec)
Heartbeat CPU 0 instructions: 23000163 cycles: 6771564 heartbeat IPC: 4.987 cumulative IPC: 3.397 (Simulation time: 00 hr 01 min 48 sec)
Heartbeat CPU 0 instructions: 23500165 cycles: 6871583 heartbeat IPC: 4.999 cumulative IPC: 3.42 (Simulation time: 00 hr 01 min 49 sec)
Heartbeat CPU 0 instructions: 24000172 cycles: 6974049 heartbeat IPC: 4.88 cumulative IPC: 3.441 (Simulation time: 00 hr 01 min 51 sec)
Heartbeat CPU 0 instructions: 24500173 cycles: 7090739 heartbeat IPC: 4.285 cumulative IPC: 3.455 (Simulation time: 00 hr 01 min 53 sec)
Heartbeat CPU 0 instructions: 25000177 cycles: 7229940 heartbeat IPC: 3.592 cumulative IPC: 3.458 (Simulation time: 00 hr 01 min 55 sec)
Heartbeat CPU 0 instructions: 25500182 cycles: 7342151 heartbeat IPC: 4.456 cumulative IPC: 3.473 (Simulation time: 00 hr 01 min 57 sec)
Heartbeat CPU 0 instructions: 26000187 cycles: 7447123 heartbeat IPC: 4.763 cumulative IPC: 3.491 (Simulation time: 00 hr 01 min 59 sec)
Heartbeat CPU 0 instructions: 26500194 cycles: 7554071 heartbeat IPC: 4.675 cumulative IPC: 3.508 (Simulation time: 00 hr 02 min 01 sec)
Heartbeat CPU 0 instructions: 27000200 cycles: 7660748 heartbeat IPC: 4.687 cumulative IPC: 3.524 (Simulation time: 00 hr 02 min 02 sec)
Heartbeat CPU 0 instructions: 27500205 cycles: 7773570 heartbeat IPC: 4.432 cumulative IPC: 3.538 (Simulation time: 00 hr 02 min 04 sec)
Heartbeat CPU 0 instructions: 28000205 cycles: 7884201 heartbeat IPC: 4.52 cumulative IPC: 3.551 (Simulation time: 00 hr 02 min 06 sec)
Heartbeat CPU 0 instructions: 28500206 cycles: 7989610 heartbeat IPC: 4.743 cumulative IPC: 3.567 (Simulation time: 00 hr 02 min 07 sec)
Heartbeat CPU 0 instructions: 29000206 cycles: 8091390 heartbeat IPC: 4.913 cumulative IPC: 3.584 (Simulation time: 00 hr 02 min 09 sec)
Heartbeat CPU 0 instructions: 29500207 cycles: 8191476 heartbeat IPC: 4.996 cumulative IPC: 3.601 (Simulation time: 00 hr 02 min 10 sec)
Heartbeat CPU 0 instructions: 30000210 cycles: 8291864 heartbeat IPC: 4.981 cumulative IPC: 3.618 (Simulation time: 00 hr 02 min 12 sec)
Heartbeat CPU 0 instructions: 30500210 cycles: 8395575 heartbeat IPC: 4.821 cumulative IPC: 3.633 (Simulation time: 00 hr 02 min 14 sec)
Heartbeat CPU 0 instructions: 31000211 cycles: 8508650 heartbeat IPC: 4.422 cumulative IPC: 3.643 (Simulation time: 00 hr 02 min 16 sec)
Heartbeat CPU 0 instructions: 31500214 cycles: 8663078 heartbeat IPC: 3.238 cumulative IPC: 3.636 (Simulation time: 00 hr 02 min 18 sec)
Heartbeat CPU 0 instructions: 32000218 cycles: 8837649 heartbeat IPC: 2.864 cumulative IPC: 3.621 (Simulation time: 00 hr 02 min 21 sec)
Heartbeat CPU 0 instructions: 32500222 cycles: 8976284 heartbeat IPC: 3.607 cumulative IPC: 3.621 (Simulation time: 00 hr 02 min 24 sec)
Heartbeat CPU 0 instructions: 33000223 cycles: 9097877 heartbeat IPC: 4.112 cumulative IPC: 3.627 (Simulation time: 00 hr 02 min 26 sec)
Heartbeat CPU 0 instructions: 33500228 cycles: 9213950 heartbeat IPC: 4.308 cumulative IPC: 3.636 (Simulation time: 00 hr 02 min 27 sec)
Heartbeat CPU 0 instructions: 34000229 cycles: 9366833 heartbeat IPC: 3.27 cumulative IPC: 3.63 (Simulation time: 00 hr 02 min 30 sec)
Heartbeat CPU 0 instructions: 34500230 cycles: 9479419 heartbeat IPC: 4.441 cumulative IPC: 3.639 (Simulation time: 00 hr 02 min 31 sec)
Heartbeat CPU 0 instructions: 35000232 cycles: 9604851 heartbeat IPC: 3.986 cumulative IPC: 3.644 (Simulation time: 00 hr 02 min 33 sec)
Heartbeat CPU 0 instructions: 35500232 cycles: 9769404 heartbeat IPC: 3.039 cumulative IPC: 3.634 (Simulation time: 00 hr 02 min 36 sec)
Heartbeat CPU 0 instructions: 36000237 cycles: 9886642 heartbeat IPC: 4.265 cumulative IPC: 3.641 (Simulation time: 00 hr 02 min 37 sec)
Heartbeat CPU 0 instructions: 36500237 cycles: 10005835 heartbeat IPC: 4.195 cumulative IPC: 3.648 (Simulation time: 00 hr 02 min 39 sec)
Heartbeat CPU 0 instructions: 37000243 cycles: 10139334 heartbeat IPC: 3.745 cumulative IPC: 3.649 (Simulation time: 00 hr 02 min 42 sec)
Heartbeat CPU 0 instructions: 37500245 cycles: 10289284 heartbeat IPC: 3.334 cumulative IPC: 3.645 (Simulation time: 00 hr 02 min 44 sec)
Heartbeat CPU 0 instructions: 38000247 cycles: 10456892 heartbeat IPC: 2.983 cumulative IPC: 3.634 (Simulation time: 00 hr 02 min 47 sec)
Heartbeat CPU 0 instructions: 38500247 cycles: 10597685 heartbeat IPC: 3.551 cumulative IPC: 3.633 (Simulation time: 00 hr 02 min 49 sec)
Heartbeat CPU 0 instructions: 39000247 cycles: 10713625 heartbeat IPC: 4.313 cumulative IPC: 3.64 (Simulation time: 00 hr 02 min 50 sec)
Heartbeat CPU 0 instructions: 39500254 cycles: 10827225 heartbeat IPC: 4.401 cumulative IPC: 3.648 (Simulation time: 00 hr 02 min 52 sec)
Heartbeat CPU 0 instructions: 40000257 cycles: 10931464 heartbeat IPC: 4.797 cumulative IPC: 3.659 (Simulation time: 00 hr 02 min 53 sec)
Heartbeat CPU 0 instructions: 40500260 cycles: 11038617 heartbeat IPC: 4.666 cumulative IPC: 3.669 (Simulation time: 00 hr 02 min 54 sec)
Heartbeat CPU 0 instructions: 41000267 cycles: 11163140 heartbeat IPC: 4.015 cumulative IPC: 3.673 (Simulation time: 00 hr 02 min 56 sec)
Heartbeat CPU 0 instructions: 41500273 cycles: 11278779 heartbeat IPC: 4.324 cumulative IPC: 3.68 (Simulation time: 00 hr 02 min 58 sec)
Heartbeat CPU 0 instructions: 42000278 cycles: 11402375 heartbeat IPC: 4.045 cumulative IPC: 3.683 (Simulation time: 00 hr 03 min 00 sec)
Heartbeat CPU 0 instructions: 42500285 cycles: 11537408 heartbeat IPC: 3.703 cumulative IPC: 3.684 (Simulation time: 00 hr 03 min 02 sec)
Heartbeat CPU 0 instructions: 43000287 cycles: 11704153 heartbeat IPC: 2.999 cumulative IPC: 3.674 (Simulation time: 00 hr 03 min 04 sec)
Heartbeat CPU 0 instructions: 43500292 cycles: 11825063 heartbeat IPC: 4.135 cumulative IPC: 3.679 (Simulation time: 00 hr 03 min 07 sec)
Heartbeat CPU 0 instructions: 44000293 cycles: 11937774 heartbeat IPC: 4.436 cumulative IPC: 3.686 (Simulation time: 00 hr 03 min 08 sec)
Heartbeat CPU 0 instructions: 44500296 cycles: 12053285 heartbeat IPC: 4.329 cumulative IPC: 3.692 (Simulation time: 00 hr 03 min 10 sec)
Heartbeat CPU 0 instructions: 45000297 cycles: 12171973 heartbeat IPC: 4.213 cumulative IPC: 3.697 (Simulation time: 00 hr 03 min 11 sec)
Heartbeat CPU 0 instructions: 45500302 cycles: 12307755 heartbeat IPC: 3.682 cumulative IPC: 3.697 (Simulation time: 00 hr 03 min 13 sec)
Heartbeat CPU 0 instructions: 46000306 cycles: 12524206 heartbeat IPC: 2.31 cumulative IPC: 3.673 (Simulation time: 00 hr 03 min 17 sec)
Heartbeat CPU 0 instructions: 46500312 cycles: 12678884 heartbeat IPC: 3.233 cumulative IPC: 3.668 (Simulation time: 00 hr 03 min 19 sec)
Heartbeat CPU 0 instructions: 47000314 cycles: 12866574 heartbeat IPC: 2.664 cumulative IPC: 3.653 (Simulation time: 00 hr 03 min 22 sec)
Heartbeat CPU 0 instructions: 47500320 cycles: 13057224 heartbeat IPC: 2.623 cumulative IPC: 3.638 (Simulation time: 00 hr 03 min 25 sec)
Heartbeat CPU 0 instructions: 48000326 cycles: 13194104 heartbeat IPC: 3.653 cumulative IPC: 3.638 (Simulation time: 00 hr 03 min 28 sec)
Heartbeat CPU 0 instructions: 48500327 cycles: 13300945 heartbeat IPC: 4.68 cumulative IPC: 3.646 (Simulation time: 00 hr 03 min 29 sec)
Heartbeat CPU 0 instructions: 49000328 cycles: 13434491 heartbeat IPC: 3.744 cumulative IPC: 3.647 (Simulation time: 00 hr 03 min 31 sec)
Heartbeat CPU 0 instructions: 49500330 cycles: 13601389 heartbeat IPC: 2.996 cumulative IPC: 3.639 (Simulation time: 00 hr 03 min 34 sec)
Warmup halting CPU 0 at instruction 50000002 cycle 13747826 for remainder of phase
Warmup finished CPU 0 instructions: 50000002 cycles: 13747826 cumulative IPC: 3.637 (Simulation time: 00 hr 03 min 36 sec)
Warmup complete CPU 0 instructions: 50000002 cycles: 13747826 cumulative IPC: 3.637 (Simulation time: 00 hr 03 min 36 sec)
Heartbeat CPU 0 instructions: 50000331 cycles: 13747917 heartbeat IPC: 3.412 cumulative IPC: 3.615 (Simulation time: 00 hr 03 min 36 sec)
Heartbeat CPU 0 instructions: 50500334 cycles: 15631057 heartbeat IPC: 0.2655 cumulative IPC: 0.2657 (Simulation time: 00 hr 03 min 49 sec)
Heartbeat CPU 0 instructions: 51000335 cycles: 16086480 heartbeat IPC: 1.098 cumulative IPC: 0.4277 (Simulation time: 00 hr 03 min 53 sec)
Heartbeat CPU 0 instructions: 51500339 cycles: 17342458 heartbeat IPC: 0.3981 cumulative IPC: 0.4174 (Simulation time: 00 hr 04 min 01 sec)
Heartbeat CPU 0 instructions: 52000343 cycles: 18403296 heartbeat IPC: 0.4713 cumulative IPC: 0.4297 (Simulation time: 00 hr 04 min 08 sec)
Heartbeat CPU 0 instructions: 52500343 cycles: 19616750 heartbeat IPC: 0.412 cumulative IPC: 0.426 (Simulation time: 00 hr 04 min 16 sec)
Heartbeat CPU 0 instructions: 53000344 cycles: 20297836 heartbeat IPC: 0.7341 cumulative IPC: 0.4581 (Simulation time: 00 hr 04 min 22 sec)
Heartbeat CPU 0 instructions: 53500348 cycles: 21598543 heartbeat IPC: 0.3844 cumulative IPC: 0.4459 (Simulation time: 00 hr 04 min 30 sec)
Heartbeat CPU 0 instructions: 54000353 cycles: 22367474 heartbeat IPC: 0.6503 cumulative IPC: 0.4641 (Simulation time: 00 hr 04 min 36 sec)
Heartbeat CPU 0 instructions: 54500353 cycles: 22887826 heartbeat IPC: 0.9609 cumulative IPC: 0.4924 (Simulation time: 00 hr 04 min 40 sec)
Heartbeat CPU 0 instructions: 55000353 cycles: 23323991 heartbeat IPC: 1.146 cumulative IPC: 0.5222 (Simulation time: 00 hr 04 min 43 sec)
Heartbeat CPU 0 instructions: 55500353 cycles: 23805973 heartbeat IPC: 1.037 cumulative IPC: 0.5469 (Simulation time: 00 hr 04 min 47 sec)
Heartbeat CPU 0 instructions: 56000356 cycles: 24045658 heartbeat IPC: 2.086 cumulative IPC: 0.5827 (Simulation time: 00 hr 04 min 50 sec)
Heartbeat CPU 0 instructions: 56500356 cycles: 25680057 heartbeat IPC: 0.3059 cumulative IPC: 0.5448 (Simulation time: 00 hr 05 min 01 sec)
Heartbeat CPU 0 instructions: 57000356 cycles: 26475993 heartbeat IPC: 0.6282 cumulative IPC: 0.55 (Simulation time: 00 hr 05 min 07 sec)
Heartbeat CPU 0 instructions: 57500361 cycles: 27683879 heartbeat IPC: 0.414 cumulative IPC: 0.5382 (Simulation time: 00 hr 05 min 15 sec)
Heartbeat CPU 0 instructions: 58000361 cycles: 28325909 heartbeat IPC: 0.7788 cumulative IPC: 0.5488 (Simulation time: 00 hr 05 min 20 sec)
Heartbeat CPU 0 instructions: 58500361 cycles: 28716125 heartbeat IPC: 1.281 cumulative IPC: 0.5679 (Simulation time: 00 hr 05 min 23 sec)
Heartbeat CPU 0 instructions: 59000361 cycles: 29311407 heartbeat IPC: 0.8399 cumulative IPC: 0.5783 (Simulation time: 00 hr 05 min 28 sec)
Heartbeat CPU 0 instructions: 59500361 cycles: 29643343 heartbeat IPC: 1.506 cumulative IPC: 0.5977 (Simulation time: 00 hr 05 min 31 sec)
Heartbeat CPU 0 instructions: 60000361 cycles: 30064615 heartbeat IPC: 1.187 cumulative IPC: 0.6129 (Simulation time: 00 hr 05 min 34 sec)
Heartbeat CPU 0 instructions: 60500361 cycles: 30638554 heartbeat IPC: 0.8712 cumulative IPC: 0.6217 (Simulation time: 00 hr 05 min 39 sec)
Heartbeat CPU 0 instructions: 61000363 cycles: 30924646 heartbeat IPC: 1.748 cumulative IPC: 0.6404 (Simulation time: 00 hr 05 min 42 sec)
Heartbeat CPU 0 instructions: 61500365 cycles: 31606995 heartbeat IPC: 0.7328 cumulative IPC: 0.6439 (Simulation time: 00 hr 05 min 47 sec)
Heartbeat CPU 0 instructions: 62000365 cycles: 34051501 heartbeat IPC: 0.2045 cumulative IPC: 0.591 (Simulation time: 00 hr 06 min 03 sec)
Heartbeat CPU 0 instructions: 62500369 cycles: 35604423 heartbeat IPC: 0.322 cumulative IPC: 0.5719 (Simulation time: 00 hr 06 min 13 sec)
Heartbeat CPU 0 instructions: 63000369 cycles: 37009624 heartbeat IPC: 0.3558 cumulative IPC: 0.5589 (Simulation time: 00 hr 06 min 22 sec)
Heartbeat CPU 0 instructions: 63500369 cycles: 37577302 heartbeat IPC: 0.8808 cumulative IPC: 0.5665 (Simulation time: 00 hr 06 min 26 sec)
Heartbeat CPU 0 instructions: 64000373 cycles: 39786220 heartbeat IPC: 0.2264 cumulative IPC: 0.5377 (Simulation time: 00 hr 06 min 39 sec)
Heartbeat CPU 0 instructions: 64500377 cycles: 41749719 heartbeat IPC: 0.2546 cumulative IPC: 0.5178 (Simulation time: 00 hr 06 min 51 sec)
Heartbeat CPU 0 instructions: 65000380 cycles: 43490196 heartbeat IPC: 0.2873 cumulative IPC: 0.5043 (Simulation time: 00 hr 07 min 02 sec)
Heartbeat CPU 0 instructions: 65500386 cycles: 44357058 heartbeat IPC: 0.5768 cumulative IPC: 0.5064 (Simulation time: 00 hr 07 min 09 sec)
Heartbeat CPU 0 instructions: 66000388 cycles: 46058896 heartbeat IPC: 0.2938 cumulative IPC: 0.4952 (Simulation time: 00 hr 07 min 20 sec)
Heartbeat CPU 0 instructions: 66500389 cycles: 46686536 heartbeat IPC: 0.7966 cumulative IPC: 0.5009 (Simulation time: 00 hr 07 min 25 sec)
Heartbeat CPU 0 instructions: 67000395 cycles: 47541455 heartbeat IPC: 0.5849 cumulative IPC: 0.5031 (Simulation time: 00 hr 07 min 31 sec)
Heartbeat CPU 0 instructions: 67500399 cycles: 49441229 heartbeat IPC: 0.2632 cumulative IPC: 0.4903 (Simulation time: 00 hr 07 min 43 sec)
Heartbeat CPU 0 instructions: 68000399 cycles: 50674046 heartbeat IPC: 0.4056 cumulative IPC: 0.4875 (Simulation time: 00 hr 07 min 51 sec)
Heartbeat CPU 0 instructions: 68500405 cycles: 51164250 heartbeat IPC: 1.02 cumulative IPC: 0.4944 (Simulation time: 00 hr 07 min 55 sec)
Heartbeat CPU 0 instructions: 69000406 cycles: 52867874 heartbeat IPC: 0.2935 cumulative IPC: 0.4857 (Simulation time: 00 hr 08 min 06 sec)
Heartbeat CPU 0 instructions: 69500406 cycles: 54240000 heartbeat IPC: 0.3644 cumulative IPC: 0.4816 (Simulation time: 00 hr 08 min 14 sec)
Heartbeat CPU 0 instructions: 70000409 cycles: 54860815 heartbeat IPC: 0.8054 cumulative IPC: 0.4865 (Simulation time: 00 hr 08 min 19 sec)
Heartbeat CPU 0 instructions: 70500412 cycles: 55109784 heartbeat IPC: 2.008 cumulative IPC: 0.4956 (Simulation time: 00 hr 08 min 21 sec)
Heartbeat CPU 0 instructions: 71000414 cycles: 55801781 heartbeat IPC: 0.7225 cumulative IPC: 0.4994 (Simulation time: 00 hr 08 min 26 sec)
Heartbeat CPU 0 instructions: 71500414 cycles: 56512979 heartbeat IPC: 0.703 cumulative IPC: 0.5028 (Simulation time: 00 hr 08 min 31 sec)
Heartbeat CPU 0 instructions: 72000417 cycles: 56860920 heartbeat IPC: 1.437 cumulative IPC: 0.5103 (Simulation time: 00 hr 08 min 34 sec)
Heartbeat CPU 0 instructions: 72500422 cycles: 58520889 heartbeat IPC: 0.3012 cumulative IPC: 0.5025 (Simulation time: 00 hr 08 min 45 sec)
Heartbeat CPU 0 instructions: 73000428 cycles: 59725895 heartbeat IPC: 0.4149 cumulative IPC: 0.5002 (Simulation time: 00 hr 08 min 55 sec)
Heartbeat CPU 0 instructions: 73500428 cycles: 60787842 heartbeat IPC: 0.4708 cumulative IPC: 0.4996 (Simulation time: 00 hr 09 min 03 sec)
Heartbeat CPU 0 instructions: 74000430 cycles: 62674809 heartbeat IPC: 0.265 cumulative IPC: 0.4905 (Simulation time: 00 hr 09 min 15 sec)
Heartbeat CPU 0 instructions: 74500431 cycles: 62977589 heartbeat IPC: 1.651 cumulative IPC: 0.4977 (Simulation time: 00 hr 09 min 17 sec)
Heartbeat CPU 0 instructions: 75000434 cycles: 63229131 heartbeat IPC: 1.988 cumulative IPC: 0.5053 (Simulation time: 00 hr 09 min 19 sec)
Heartbeat CPU 0 instructions: 75500441 cycles: 63854498 heartbeat IPC: 0.7995 cumulative IPC: 0.5089 (Simulation time: 00 hr 09 min 24 sec)
Heartbeat CPU 0 instructions: 76000443 cycles: 64737344 heartbeat IPC: 0.5664 cumulative IPC: 0.5099 (Simulation time: 00 hr 09 min 30 sec)
Heartbeat CPU 0 instructions: 76500445 cycles: 65941592 heartbeat IPC: 0.4152 cumulative IPC: 0.5077 (Simulation time: 00 hr 09 min 37 sec)
Heartbeat CPU 0 instructions: 77000445 cycles: 66378235 heartbeat IPC: 1.145 cumulative IPC: 0.513 (Simulation time: 00 hr 09 min 41 sec)
Heartbeat CPU 0 instructions: 77500449 cycles: 66762007 heartbeat IPC: 1.303 cumulative IPC: 0.5187 (Simulation time: 00 hr 09 min 45 sec)
Heartbeat CPU 0 instructions: 78000450 cycles: 67178623 heartbeat IPC: 1.2 cumulative IPC: 0.5241 (Simulation time: 00 hr 09 min 49 sec)
Heartbeat CPU 0 instructions: 78500450 cycles: 67578662 heartbeat IPC: 1.25 cumulative IPC: 0.5294 (Simulation time: 00 hr 09 min 52 sec)
Heartbeat CPU 0 instructions: 79000451 cycles: 67991920 heartbeat IPC: 1.21 cumulative IPC: 0.5346 (Simulation time: 00 hr 09 min 56 sec)
Heartbeat CPU 0 instructions: 79500452 cycles: 68412195 heartbeat IPC: 1.19 cumulative IPC: 0.5397 (Simulation time: 00 hr 10 min 00 sec)
Heartbeat CPU 0 instructions: 80000452 cycles: 68705698 heartbeat IPC: 1.704 cumulative IPC: 0.5459 (Simulation time: 00 hr 10 min 02 sec)
Heartbeat CPU 0 instructions: 80500457 cycles: 69039756 heartbeat IPC: 1.497 cumulative IPC: 0.5516 (Simulation time: 00 hr 10 min 06 sec)
Heartbeat CPU 0 instructions: 81000458 cycles: 69550359 heartbeat IPC: 0.9792 cumulative IPC: 0.5555 (Simulation time: 00 hr 10 min 10 sec)
Heartbeat CPU 0 instructions: 81500458 cycles: 69937009 heartbeat IPC: 1.293 cumulative IPC: 0.5606 (Simulation time: 00 hr 10 min 13 sec)
Heartbeat CPU 0 instructions: 82000459 cycles: 70225101 heartbeat IPC: 1.736 cumulative IPC: 0.5666 (Simulation time: 00 hr 10 min 15 sec)
Heartbeat CPU 0 instructions: 82500465 cycles: 70558036 heartbeat IPC: 1.502 cumulative IPC: 0.5721 (Simulation time: 00 hr 10 min 18 sec)
Heartbeat CPU 0 instructions: 83000467 cycles: 70898139 heartbeat IPC: 1.47 cumulative IPC: 0.5774 (Simulation time: 00 hr 10 min 21 sec)
Heartbeat CPU 0 instructions: 83500467 cycles: 71239536 heartbeat IPC: 1.465 cumulative IPC: 0.5827 (Simulation time: 00 hr 10 min 25 sec)
Heartbeat CPU 0 instructions: 84000469 cycles: 71577932 heartbeat IPC: 1.478 cumulative IPC: 0.5879 (Simulation time: 00 hr 10 min 27 sec)
Heartbeat CPU 0 instructions: 84500474 cycles: 71831543 heartbeat IPC: 1.972 cumulative IPC: 0.594 (Simulation time: 00 hr 10 min 30 sec)
Heartbeat CPU 0 instructions: 85000480 cycles: 72084640 heartbeat IPC: 1.976 cumulative IPC: 0.6 (Simulation time: 00 hr 10 min 32 sec)
Heartbeat CPU 0 instructions: 85500480 cycles: 72298482 heartbeat IPC: 2.338 cumulative IPC: 0.6063 (Simulation time: 00 hr 10 min 35 sec)
Heartbeat CPU 0 instructions: 86000482 cycles: 72764125 heartbeat IPC: 1.074 cumulative IPC: 0.61 (Simulation time: 00 hr 10 min 38 sec)
Heartbeat CPU 0 instructions: 86500484 cycles: 73199270 heartbeat IPC: 1.149 cumulative IPC: 0.614 (Simulation time: 00 hr 10 min 42 sec)
Heartbeat CPU 0 instructions: 87000488 cycles: 73514880 heartbeat IPC: 1.584 cumulative IPC: 0.6191 (Simulation time: 00 hr 10 min 45 sec)
Heartbeat CPU 0 instructions: 87500492 cycles: 73769926 heartbeat IPC: 1.96 cumulative IPC: 0.6248 (Simulation time: 00 hr 10 min 47 sec)
Heartbeat CPU 0 instructions: 88000498 cycles: 74277880 heartbeat IPC: 0.9844 cumulative IPC: 0.6278 (Simulation time: 00 hr 10 min 51 sec)
Heartbeat CPU 0 instructions: 88500500 cycles: 74806285 heartbeat IPC: 0.9462 cumulative IPC: 0.6306 (Simulation time: 00 hr 10 min 55 sec)
Heartbeat CPU 0 instructions: 89000506 cycles: 75387711 heartbeat IPC: 0.86 cumulative IPC: 0.6327 (Simulation time: 00 hr 10 min 59 sec)
Heartbeat CPU 0 instructions: 89500506 cycles: 75755391 heartbeat IPC: 1.36 cumulative IPC: 0.637 (Simulation time: 00 hr 11 min 03 sec)
Heartbeat CPU 0 instructions: 90000512 cycles: 78376529 heartbeat IPC: 0.1908 cumulative IPC: 0.6189 (Simulation time: 00 hr 11 min 19 sec)
Heartbeat CPU 0 instructions: 90500512 cycles: 79229480 heartbeat IPC: 0.5862 cumulative IPC: 0.6185 (Simulation time: 00 hr 11 min 25 sec)
Heartbeat CPU 0 instructions: 91000513 cycles: 80238878 heartbeat IPC: 0.4953 cumulative IPC: 0.6166 (Simulation time: 00 hr 11 min 31 sec)
Heartbeat CPU 0 instructions: 91500513 cycles: 80853093 heartbeat IPC: 0.814 cumulative IPC: 0.6184 (Simulation time: 00 hr 11 min 36 sec)
Heartbeat CPU 0 instructions: 92000514 cycles: 82313310 heartbeat IPC: 0.3424 cumulative IPC: 0.6126 (Simulation time: 00 hr 11 min 46 sec)
Heartbeat CPU 0 instructions: 92500519 cycles: 83186057 heartbeat IPC: 0.5729 cumulative IPC: 0.6121 (Simulation time: 00 hr 11 min 51 sec)
Heartbeat CPU 0 instructions: 93000520 cycles: 85064112 heartbeat IPC: 0.2662 cumulative IPC: 0.603 (Simulation time: 00 hr 12 min 03 sec)
Heartbeat CPU 0 instructions: 93500521 cycles: 86552804 heartbeat IPC: 0.3359 cumulative IPC: 0.5975 (Simulation time: 00 hr 12 min 12 sec)
Heartbeat CPU 0 instructions: 94000521 cycles: 86908241 heartbeat IPC: 1.407 cumulative IPC: 0.6014 (Simulation time: 00 hr 12 min 15 sec)
Heartbeat CPU 0 instructions: 94500521 cycles: 87764524 heartbeat IPC: 0.5839 cumulative IPC: 0.6012 (Simulation time: 00 hr 12 min 20 sec)
Heartbeat CPU 0 instructions: 95000524 cycles: 89331171 heartbeat IPC: 0.3192 cumulative IPC: 0.5954 (Simulation time: 00 hr 12 min 30 sec)
Heartbeat CPU 0 instructions: 95500526 cycles: 89913272 heartbeat IPC: 0.859 cumulative IPC: 0.5974 (Simulation time: 00 hr 12 min 34 sec)
Heartbeat CPU 0 instructions: 96000526 cycles: 90684753 heartbeat IPC: 0.6481 cumulative IPC: 0.5979 (Simulation time: 00 hr 12 min 40 sec)
Heartbeat CPU 0 instructions: 96500527 cycles: 91354727 heartbeat IPC: 0.7463 cumulative IPC: 0.5992 (Simulation time: 00 hr 12 min 45 sec)
Heartbeat CPU 0 instructions: 97000527 cycles: 93006059 heartbeat IPC: 0.3028 cumulative IPC: 0.593 (Simulation time: 00 hr 12 min 56 sec)
Heartbeat CPU 0 instructions: 97500531 cycles: 94017576 heartbeat IPC: 0.4943 cumulative IPC: 0.5918 (Simulation time: 00 hr 13 min 02 sec)
Heartbeat CPU 0 instructions: 98000533 cycles: 96014587 heartbeat IPC: 0.2504 cumulative IPC: 0.5835 (Simulation time: 00 hr 13 min 14 sec)
Heartbeat CPU 0 instructions: 98500533 cycles: 97409827 heartbeat IPC: 0.3584 cumulative IPC: 0.5797 (Simulation time: 00 hr 13 min 23 sec)
Heartbeat CPU 0 instructions: 99000535 cycles: 99003806 heartbeat IPC: 0.3137 cumulative IPC: 0.5747 (Simulation time: 00 hr 13 min 33 sec)
Heartbeat CPU 0 instructions: 99500535 cycles: 99379004 heartbeat IPC: 1.333 cumulative IPC: 0.5781 (Simulation time: 00 hr 13 min 36 sec)
Heartbeat CPU 0 instructions: 100000536 cycles: 100528103 heartbeat IPC: 0.4351 cumulative IPC: 0.5762 (Simulation time: 00 hr 13 min 44 sec)
Heartbeat CPU 0 instructions: 100500536 cycles: 101717225 heartbeat IPC: 0.4205 cumulative IPC: 0.5741 (Simulation time: 00 hr 13 min 52 sec)
Heartbeat CPU 0 instructions: 101000537 cycles: 103430809 heartbeat IPC: 0.2918 cumulative IPC: 0.5687 (Simulation time: 00 hr 14 min 03 sec)
Heartbeat CPU 0 instructions: 101500537 cycles: 104508138 heartbeat IPC: 0.4641 cumulative IPC: 0.5674 (Simulation time: 00 hr 14 min 11 sec)
Heartbeat CPU 0 instructions: 102000539 cycles: 106081086 heartbeat IPC: 0.3179 cumulative IPC: 0.5632 (Simulation time: 00 hr 14 min 21 sec)
Heartbeat CPU 0 instructions: 102500540 cycles: 107022324 heartbeat IPC: 0.5312 cumulative IPC: 0.5629 (Simulation time: 00 hr 14 min 27 sec)
Heartbeat CPU 0 instructions: 103000547 cycles: 107437358 heartbeat IPC: 1.205 cumulative IPC: 0.5657 (Simulation time: 00 hr 14 min 31 sec)
Heartbeat CPU 0 instructions: 103500549 cycles: 107766882 heartbeat IPC: 1.517 cumulative IPC: 0.569 (Simulation time: 00 hr 14 min 33 sec)
Heartbeat CPU 0 instructions: 104000549 cycles: 108044615 heartbeat IPC: 1.8 cumulative IPC: 0.5727 (Simulation time: 00 hr 14 min 35 sec)
Heartbeat CPU 0 instructions: 104500555 cycles: 109076987 heartbeat IPC: 0.4843 cumulative IPC: 0.5717 (Simulation time: 00 hr 14 min 43 sec)
Heartbeat CPU 0 instructions: 105000555 cycles: 110025194 heartbeat IPC: 0.5273 cumulative IPC: 0.5713 (Simulation time: 00 hr 14 min 49 sec)
Heartbeat CPU 0 instructions: 105500559 cycles: 111037224 heartbeat IPC: 0.4941 cumulative IPC: 0.5705 (Simulation time: 00 hr 14 min 56 sec)
Heartbeat CPU 0 instructions: 106000559 cycles: 111830187 heartbeat IPC: 0.6305 cumulative IPC: 0.571 (Simulation time: 00 hr 15 min 02 sec)
Heartbeat CPU 0 instructions: 106500559 cycles: 113971105 heartbeat IPC: 0.2335 cumulative IPC: 0.5637 (Simulation time: 00 hr 15 min 16 sec)
Heartbeat CPU 0 instructions: 107000559 cycles: 115000292 heartbeat IPC: 0.4858 cumulative IPC: 0.563 (Simulation time: 00 hr 15 min 23 sec)
Heartbeat CPU 0 instructions: 107500564 cycles: 115492171 heartbeat IPC: 1.017 cumulative IPC: 0.5651 (Simulation time: 00 hr 15 min 27 sec)
Heartbeat CPU 0 instructions: 108000566 cycles: 116493144 heartbeat IPC: 0.4995 cumulative IPC: 0.5645 (Simulation time: 00 hr 15 min 34 sec)
Heartbeat CPU 0 instructions: 108500573 cycles: 117666551 heartbeat IPC: 0.4261 cumulative IPC: 0.5629 (Simulation time: 00 hr 15 min 42 sec)
Heartbeat CPU 0 instructions: 109000573 cycles: 118080006 heartbeat IPC: 1.209 cumulative IPC: 0.5655 (Simulation time: 00 hr 15 min 46 sec)
Heartbeat CPU 0 instructions: 109500576 cycles: 119399070 heartbeat IPC: 0.3791 cumulative IPC: 0.5632 (Simulation time: 00 hr 15 min 54 sec)
Heartbeat CPU 0 instructions: 110000579 cycles: 120314134 heartbeat IPC: 0.5464 cumulative IPC: 0.563 (Simulation time: 00 hr 16 min 01 sec)
Heartbeat CPU 0 instructions: 110500585 cycles: 120746190 heartbeat IPC: 1.157 cumulative IPC: 0.5654 (Simulation time: 00 hr 16 min 05 sec)
Heartbeat CPU 0 instructions: 111000586 cycles: 122391066 heartbeat IPC: 0.304 cumulative IPC: 0.5615 (Simulation time: 00 hr 16 min 15 sec)
Heartbeat CPU 0 instructions: 111500593 cycles: 123084214 heartbeat IPC: 0.7214 cumulative IPC: 0.5625 (Simulation time: 00 hr 16 min 21 sec)
Heartbeat CPU 0 instructions: 112000595 cycles: 124451015 heartbeat IPC: 0.3658 cumulative IPC: 0.5601 (Simulation time: 00 hr 16 min 30 sec)
Heartbeat CPU 0 instructions: 112500595 cycles: 126017899 heartbeat IPC: 0.3191 cumulative IPC: 0.5567 (Simulation time: 00 hr 16 min 40 sec)
Heartbeat CPU 0 instructions: 113000595 cycles: 127902542 heartbeat IPC: 0.2653 cumulative IPC: 0.5519 (Simulation time: 00 hr 16 min 51 sec)
Heartbeat CPU 0 instructions: 113500596 cycles: 128691351 heartbeat IPC: 0.6339 cumulative IPC: 0.5525 (Simulation time: 00 hr 16 min 57 sec)
Heartbeat CPU 0 instructions: 114000596 cycles: 129389536 heartbeat IPC: 0.7161 cumulative IPC: 0.5534 (Simulation time: 00 hr 17 min 02 sec)
Heartbeat CPU 0 instructions: 114500598 cycles: 129578862 heartbeat IPC: 2.641 cumulative IPC: 0.5569 (Simulation time: 00 hr 17 min 04 sec)
Heartbeat CPU 0 instructions: 115000602 cycles: 130053107 heartbeat IPC: 1.054 cumulative IPC: 0.5589 (Simulation time: 00 hr 17 min 08 sec)
Heartbeat CPU 0 instructions: 115500605 cycles: 132053052 heartbeat IPC: 0.25 cumulative IPC: 0.5537 (Simulation time: 00 hr 17 min 20 sec)
Heartbeat CPU 0 instructions: 116000610 cycles: 133061634 heartbeat IPC: 0.4958 cumulative IPC: 0.5532 (Simulation time: 00 hr 17 min 26 sec)
Heartbeat CPU 0 instructions: 116500612 cycles: 134475053 heartbeat IPC: 0.3538 cumulative IPC: 0.5508 (Simulation time: 00 hr 17 min 35 sec)
Heartbeat CPU 0 instructions: 117000613 cycles: 135918496 heartbeat IPC: 0.3464 cumulative IPC: 0.5484 (Simulation time: 00 hr 17 min 44 sec)
Heartbeat CPU 0 instructions: 117500614 cycles: 137545765 heartbeat IPC: 0.3073 cumulative IPC: 0.5452 (Simulation time: 00 hr 17 min 55 sec)
Heartbeat CPU 0 instructions: 118000614 cycles: 138931376 heartbeat IPC: 0.3609 cumulative IPC: 0.5432 (Simulation time: 00 hr 18 min 04 sec)
Heartbeat CPU 0 instructions: 118500615 cycles: 139363514 heartbeat IPC: 1.157 cumulative IPC: 0.5453 (Simulation time: 00 hr 18 min 07 sec)
Heartbeat CPU 0 instructions: 119000620 cycles: 140516157 heartbeat IPC: 0.4338 cumulative IPC: 0.5443 (Simulation time: 00 hr 18 min 15 sec)
Heartbeat CPU 0 instructions: 119500620 cycles: 142034927 heartbeat IPC: 0.3292 cumulative IPC: 0.5418 (Simulation time: 00 hr 18 min 24 sec)
Heartbeat CPU 0 instructions: 120000626 cycles: 143945045 heartbeat IPC: 0.2618 cumulative IPC: 0.5377 (Simulation time: 00 hr 18 min 35 sec)
Heartbeat CPU 0 instructions: 120500630 cycles: 145743285 heartbeat IPC: 0.2781 cumulative IPC: 0.5341 (Simulation time: 00 hr 18 min 46 sec)
Heartbeat CPU 0 instructions: 121000630 cycles: 146266660 heartbeat IPC: 0.9553 cumulative IPC: 0.5358 (Simulation time: 00 hr 18 min 50 sec)
Heartbeat CPU 0 instructions: 121500630 cycles: 147254766 heartbeat IPC: 0.506 cumulative IPC: 0.5356 (Simulation time: 00 hr 18 min 57 sec)
Heartbeat CPU 0 instructions: 122000635 cycles: 148643250 heartbeat IPC: 0.3601 cumulative IPC: 0.5338 (Simulation time: 00 hr 19 min 05 sec)
Heartbeat CPU 0 instructions: 122500635 cycles: 149943949 heartbeat IPC: 0.3844 cumulative IPC: 0.5323 (Simulation time: 00 hr 19 min 13 sec)
Heartbeat CPU 0 instructions: 123000635 cycles: 151212008 heartbeat IPC: 0.3943 cumulative IPC: 0.5311 (Simulation time: 00 hr 19 min 21 sec)
Heartbeat CPU 0 instructions: 123500636 cycles: 152840395 heartbeat IPC: 0.3071 cumulative IPC: 0.5284 (Simulation time: 00 hr 19 min 32 sec)
Heartbeat CPU 0 instructions: 124000640 cycles: 153444931 heartbeat IPC: 0.8271 cumulative IPC: 0.5297 (Simulation time: 00 hr 19 min 36 sec)
Heartbeat CPU 0 instructions: 124500641 cycles: 154792547 heartbeat IPC: 0.371 cumulative IPC: 0.5282 (Simulation time: 00 hr 19 min 45 sec)
Heartbeat CPU 0 instructions: 125000641 cycles: 155870651 heartbeat IPC: 0.4638 cumulative IPC: 0.5277 (Simulation time: 00 hr 19 min 53 sec)
Heartbeat CPU 0 instructions: 125500644 cycles: 157224151 heartbeat IPC: 0.3694 cumulative IPC: 0.5262 (Simulation time: 00 hr 20 min 02 sec)
Heartbeat CPU 0 instructions: 126000649 cycles: 159053041 heartbeat IPC: 0.2734 cumulative IPC: 0.523 (Simulation time: 00 hr 20 min 13 sec)
Heartbeat CPU 0 instructions: 126500650 cycles: 159921867 heartbeat IPC: 0.5755 cumulative IPC: 0.5234 (Simulation time: 00 hr 20 min 19 sec)
Heartbeat CPU 0 instructions: 127000650 cycles: 160448752 heartbeat IPC: 0.949 cumulative IPC: 0.5249 (Simulation time: 00 hr 20 min 23 sec)
Heartbeat CPU 0 instructions: 127500651 cycles: 160899201 heartbeat IPC: 1.11 cumulative IPC: 0.5267 (Simulation time: 00 hr 20 min 27 sec)
Heartbeat CPU 0 instructions: 128000652 cycles: 163421097 heartbeat IPC: 0.1983 cumulative IPC: 0.5211 (Simulation time: 00 hr 20 min 41 sec)
Heartbeat CPU 0 instructions: 128500653 cycles: 165170182 heartbeat IPC: 0.2859 cumulative IPC: 0.5184 (Simulation time: 00 hr 20 min 52 sec)
Heartbeat CPU 0 instructions: 129000653 cycles: 166502731 heartbeat IPC: 0.3752 cumulative IPC: 0.5172 (Simulation time: 00 hr 21 min 01 sec)
Heartbeat CPU 0 instructions: 129500653 cycles: 167557524 heartbeat IPC: 0.474 cumulative IPC: 0.5169 (Simulation time: 00 hr 21 min 08 sec)
Heartbeat CPU 0 instructions: 130000653 cycles: 168186064 heartbeat IPC: 0.7955 cumulative IPC: 0.518 (Simulation time: 00 hr 21 min 12 sec)
Heartbeat CPU 0 instructions: 130500655 cycles: 169306890 heartbeat IPC: 0.4461 cumulative IPC: 0.5175 (Simulation time: 00 hr 21 min 19 sec)
Heartbeat CPU 0 instructions: 131000656 cycles: 171693723 heartbeat IPC: 0.2095 cumulative IPC: 0.5128 (Simulation time: 00 hr 21 min 33 sec)
Heartbeat CPU 0 instructions: 131500657 cycles: 172811205 heartbeat IPC: 0.4474 cumulative IPC: 0.5124 (Simulation time: 00 hr 21 min 40 sec)
Heartbeat CPU 0 instructions: 132000662 cycles: 173324354 heartbeat IPC: 0.9744 cumulative IPC: 0.5139 (Simulation time: 00 hr 21 min 44 sec)
Heartbeat CPU 0 instructions: 132500665 cycles: 174452246 heartbeat IPC: 0.4433 cumulative IPC: 0.5134 (Simulation time: 00 hr 21 min 51 sec)
Heartbeat CPU 0 instructions: 133000666 cycles: 175204762 heartbeat IPC: 0.6644 cumulative IPC: 0.5141 (Simulation time: 00 hr 21 min 56 sec)
Heartbeat CPU 0 instructions: 133500666 cycles: 176113549 heartbeat IPC: 0.5502 cumulative IPC: 0.5143 (Simulation time: 00 hr 22 min 02 sec)
Heartbeat CPU 0 instructions: 134000667 cycles: 177878863 heartbeat IPC: 0.2832 cumulative IPC: 0.5118 (Simulation time: 00 hr 22 min 13 sec)
Heartbeat CPU 0 instructions: 134500669 cycles: 179190691 heartbeat IPC: 0.3811 cumulative IPC: 0.5108 (Simulation time: 00 hr 22 min 21 sec)
Heartbeat CPU 0 instructions: 135000669 cycles: 180828368 heartbeat IPC: 0.3053 cumulative IPC: 0.5087 (Simulation time: 00 hr 22 min 31 sec)
Heartbeat CPU 0 instructions: 135500672 cycles: 182662557 heartbeat IPC: 0.2726 cumulative IPC: 0.5062 (Simulation time: 00 hr 22 min 42 sec)
Heartbeat CPU 0 instructions: 136000673 cycles: 184096470 heartbeat IPC: 0.3487 cumulative IPC: 0.5049 (Simulation time: 00 hr 22 min 51 sec)
Heartbeat CPU 0 instructions: 136500676 cycles: 185104479 heartbeat IPC: 0.496 cumulative IPC: 0.5048 (Simulation time: 00 hr 22 min 57 sec)
Heartbeat CPU 0 instructions: 137000676 cycles: 186494262 heartbeat IPC: 0.3598 cumulative IPC: 0.5036 (Simulation time: 00 hr 23 min 05 sec)
Heartbeat CPU 0 instructions: 137500676 cycles: 187972730 heartbeat IPC: 0.3382 cumulative IPC: 0.5022 (Simulation time: 00 hr 23 min 14 sec)
Heartbeat CPU 0 instructions: 138000676 cycles: 188464105 heartbeat IPC: 1.018 cumulative IPC: 0.5037 (Simulation time: 00 hr 23 min 17 sec)
Heartbeat CPU 0 instructions: 138500677 cycles: 188949000 heartbeat IPC: 1.031 cumulative IPC: 0.5051 (Simulation time: 00 hr 23 min 21 sec)
Heartbeat CPU 0 instructions: 139000677 cycles: 189427314 heartbeat IPC: 1.045 cumulative IPC: 0.5066 (Simulation time: 00 hr 23 min 25 sec)
Heartbeat CPU 0 instructions: 139500678 cycles: 189910234 heartbeat IPC: 1.035 cumulative IPC: 0.5081 (Simulation time: 00 hr 23 min 28 sec)
Heartbeat CPU 0 instructions: 140000682 cycles: 190525794 heartbeat IPC: 0.8123 cumulative IPC: 0.5091 (Simulation time: 00 hr 23 min 33 sec)
Heartbeat CPU 0 instructions: 140500688 cycles: 191997559 heartbeat IPC: 0.3397 cumulative IPC: 0.5077 (Simulation time: 00 hr 23 min 41 sec)
Heartbeat CPU 0 instructions: 141000690 cycles: 193436226 heartbeat IPC: 0.3475 cumulative IPC: 0.5064 (Simulation time: 00 hr 23 min 50 sec)
Heartbeat CPU 0 instructions: 141500690 cycles: 193896545 heartbeat IPC: 1.086 cumulative IPC: 0.5079 (Simulation time: 00 hr 23 min 53 sec)
Heartbeat CPU 0 instructions: 142000692 cycles: 194367096 heartbeat IPC: 1.063 cumulative IPC: 0.5094 (Simulation time: 00 hr 23 min 57 sec)
Heartbeat CPU 0 instructions: 142500695 cycles: 194891232 heartbeat IPC: 0.954 cumulative IPC: 0.5106 (Simulation time: 00 hr 24 min 00 sec)
Heartbeat CPU 0 instructions: 143000698 cycles: 195348070 heartbeat IPC: 1.094 cumulative IPC: 0.5121 (Simulation time: 00 hr 24 min 04 sec)
Heartbeat CPU 0 instructions: 143500698 cycles: 195752131 heartbeat IPC: 1.237 cumulative IPC: 0.5137 (Simulation time: 00 hr 24 min 07 sec)
Heartbeat CPU 0 instructions: 144000700 cycles: 196844228 heartbeat IPC: 0.4578 cumulative IPC: 0.5134 (Simulation time: 00 hr 24 min 14 sec)
Heartbeat CPU 0 instructions: 144500707 cycles: 197315963 heartbeat IPC: 1.06 cumulative IPC: 0.5148 (Simulation time: 00 hr 24 min 17 sec)
Heartbeat CPU 0 instructions: 145000711 cycles: 198192206 heartbeat IPC: 0.5706 cumulative IPC: 0.5151 (Simulation time: 00 hr 24 min 23 sec)
Heartbeat CPU 0 instructions: 145500716 cycles: 199393055 heartbeat IPC: 0.4164 cumulative IPC: 0.5144 (Simulation time: 00 hr 24 min 31 sec)
Heartbeat CPU 0 instructions: 146000719 cycles: 200890588 heartbeat IPC: 0.3339 cumulative IPC: 0.513 (Simulation time: 00 hr 24 min 40 sec)
Heartbeat CPU 0 instructions: 146500725 cycles: 202257436 heartbeat IPC: 0.3658 cumulative IPC: 0.5119 (Simulation time: 00 hr 24 min 48 sec)
Heartbeat CPU 0 instructions: 147000727 cycles: 202837236 heartbeat IPC: 0.8624 cumulative IPC: 0.513 (Simulation time: 00 hr 24 min 52 sec)
Heartbeat CPU 0 instructions: 147500727 cycles: 203064799 heartbeat IPC: 2.197 cumulative IPC: 0.515 (Simulation time: 00 hr 24 min 55 sec)
Heartbeat CPU 0 instructions: 148000727 cycles: 203966362 heartbeat IPC: 0.5546 cumulative IPC: 0.5152 (Simulation time: 00 hr 25 min 01 sec)
Heartbeat CPU 0 instructions: 148500727 cycles: 204215863 heartbeat IPC: 2.004 cumulative IPC: 0.5172 (Simulation time: 00 hr 25 min 03 sec)
Heartbeat CPU 0 instructions: 149000727 cycles: 204447329 heartbeat IPC: 2.16 cumulative IPC: 0.5191 (Simulation time: 00 hr 25 min 05 sec)
Heartbeat CPU 0 instructions: 149500728 cycles: 205172128 heartbeat IPC: 0.6898 cumulative IPC: 0.5198 (Simulation time: 00 hr 25 min 10 sec)
Heartbeat CPU 0 instructions: 150000729 cycles: 206078601 heartbeat IPC: 0.5516 cumulative IPC: 0.5199 (Simulation time: 00 hr 25 min 16 sec)
Heartbeat CPU 0 instructions: 150500731 cycles: 208016974 heartbeat IPC: 0.2579 cumulative IPC: 0.5173 (Simulation time: 00 hr 25 min 28 sec)
Heartbeat CPU 0 instructions: 151000731 cycles: 209524142 heartbeat IPC: 0.3317 cumulative IPC: 0.5159 (Simulation time: 00 hr 25 min 36 sec)
Heartbeat CPU 0 instructions: 151500733 cycles: 211240173 heartbeat IPC: 0.2914 cumulative IPC: 0.5139 (Simulation time: 00 hr 25 min 46 sec)
Heartbeat CPU 0 instructions: 152000736 cycles: 211902161 heartbeat IPC: 0.7553 cumulative IPC: 0.5148 (Simulation time: 00 hr 25 min 50 sec)
Heartbeat CPU 0 instructions: 152500736 cycles: 212289534 heartbeat IPC: 1.291 cumulative IPC: 0.5163 (Simulation time: 00 hr 25 min 53 sec)
Heartbeat CPU 0 instructions: 153000736 cycles: 212705206 heartbeat IPC: 1.203 cumulative IPC: 0.5177 (Simulation time: 00 hr 25 min 57 sec)
Heartbeat CPU 0 instructions: 153500736 cycles: 213359497 heartbeat IPC: 0.7642 cumulative IPC: 0.5185 (Simulation time: 00 hr 26 min 01 sec)
Heartbeat CPU 0 instructions: 154000737 cycles: 213938316 heartbeat IPC: 0.8638 cumulative IPC: 0.5195 (Simulation time: 00 hr 26 min 05 sec)
Heartbeat CPU 0 instructions: 154500737 cycles: 214595810 heartbeat IPC: 0.7605 cumulative IPC: 0.5203 (Simulation time: 00 hr 26 min 10 sec)
Heartbeat CPU 0 instructions: 155000738 cycles: 216151922 heartbeat IPC: 0.3213 cumulative IPC: 0.5188 (Simulation time: 00 hr 26 min 18 sec)
Heartbeat CPU 0 instructions: 155500742 cycles: 218146056 heartbeat IPC: 0.2507 cumulative IPC: 0.5162 (Simulation time: 00 hr 26 min 30 sec)
Heartbeat CPU 0 instructions: 156000745 cycles: 219271343 heartbeat IPC: 0.4443 cumulative IPC: 0.5158 (Simulation time: 00 hr 26 min 37 sec)
Heartbeat CPU 0 instructions: 156500749 cycles: 220104688 heartbeat IPC: 0.6 cumulative IPC: 0.5161 (Simulation time: 00 hr 26 min 42 sec)
Heartbeat CPU 0 instructions: 157000749 cycles: 220888116 heartbeat IPC: 0.6382 cumulative IPC: 0.5166 (Simulation time: 00 hr 26 min 47 sec)
Heartbeat CPU 0 instructions: 157500749 cycles: 221926411 heartbeat IPC: 0.4816 cumulative IPC: 0.5164 (Simulation time: 00 hr 26 min 54 sec)
Heartbeat CPU 0 instructions: 158000753 cycles: 222821719 heartbeat IPC: 0.5585 cumulative IPC: 0.5166 (Simulation time: 00 hr 27 min 00 sec)
Heartbeat CPU 0 instructions: 158500754 cycles: 223775254 heartbeat IPC: 0.5244 cumulative IPC: 0.5166 (Simulation time: 00 hr 27 min 05 sec)
Heartbeat CPU 0 instructions: 159000756 cycles: 225025664 heartbeat IPC: 0.3999 cumulative IPC: 0.5159 (Simulation time: 00 hr 27 min 12 sec)
Heartbeat CPU 0 instructions: 159500757 cycles: 226280822 heartbeat IPC: 0.3984 cumulative IPC: 0.5152 (Simulation time: 00 hr 27 min 20 sec)
Heartbeat CPU 0 instructions: 160000760 cycles: 226751137 heartbeat IPC: 1.063 cumulative IPC: 0.5164 (Simulation time: 00 hr 27 min 24 sec)
Heartbeat CPU 0 instructions: 160500764 cycles: 228698285 heartbeat IPC: 0.2568 cumulative IPC: 0.5141 (Simulation time: 00 hr 27 min 34 sec)
Heartbeat CPU 0 instructions: 161000766 cycles: 229529281 heartbeat IPC: 0.6017 cumulative IPC: 0.5144 (Simulation time: 00 hr 27 min 40 sec)
Heartbeat CPU 0 instructions: 161500770 cycles: 231388428 heartbeat IPC: 0.2689 cumulative IPC: 0.5123 (Simulation time: 00 hr 27 min 50 sec)
Heartbeat CPU 0 instructions: 162000770 cycles: 232652036 heartbeat IPC: 0.3957 cumulative IPC: 0.5116 (Simulation time: 00 hr 27 min 57 sec)
Heartbeat CPU 0 instructions: 162500776 cycles: 235165573 heartbeat IPC: 0.1989 cumulative IPC: 0.5081 (Simulation time: 00 hr 28 min 10 sec)
Heartbeat CPU 0 instructions: 163000776 cycles: 235800276 heartbeat IPC: 0.7878 cumulative IPC: 0.5089 (Simulation time: 00 hr 28 min 14 sec)
Heartbeat CPU 0 instructions: 163500778 cycles: 236410604 heartbeat IPC: 0.8192 cumulative IPC: 0.5097 (Simulation time: 00 hr 28 min 18 sec)
Heartbeat CPU 0 instructions: 164000781 cycles: 236999189 heartbeat IPC: 0.8495 cumulative IPC: 0.5106 (Simulation time: 00 hr 28 min 22 sec)
Heartbeat CPU 0 instructions: 164500781 cycles: 239254976 heartbeat IPC: 0.2217 cumulative IPC: 0.5077 (Simulation time: 00 hr 28 min 35 sec)
Heartbeat CPU 0 instructions: 165000787 cycles: 239829997 heartbeat IPC: 0.8695 cumulative IPC: 0.5087 (Simulation time: 00 hr 28 min 39 sec)
Heartbeat CPU 0 instructions: 165500789 cycles: 240720816 heartbeat IPC: 0.5613 cumulative IPC: 0.5089 (Simulation time: 00 hr 28 min 45 sec)
Heartbeat CPU 0 instructions: 166000789 cycles: 241900449 heartbeat IPC: 0.4239 cumulative IPC: 0.5084 (Simulation time: 00 hr 28 min 52 sec)
Heartbeat CPU 0 instructions: 166500793 cycles: 243735399 heartbeat IPC: 0.2725 cumulative IPC: 0.5066 (Simulation time: 00 hr 29 min 02 sec)
Heartbeat CPU 0 instructions: 167000794 cycles: 244995734 heartbeat IPC: 0.3967 cumulative IPC: 0.506 (Simulation time: 00 hr 29 min 09 sec)
Heartbeat CPU 0 instructions: 167500794 cycles: 245936434 heartbeat IPC: 0.5315 cumulative IPC: 0.5061 (Simulation time: 00 hr 29 min 15 sec)
Heartbeat CPU 0 instructions: 168000799 cycles: 247792028 heartbeat IPC: 0.2695 cumulative IPC: 0.5042 (Simulation time: 00 hr 29 min 25 sec)
Heartbeat CPU 0 instructions: 168500803 cycles: 248615868 heartbeat IPC: 0.6069 cumulative IPC: 0.5045 (Simulation time: 00 hr 29 min 30 sec)
Heartbeat CPU 0 instructions: 169000804 cycles: 250750875 heartbeat IPC: 0.2342 cumulative IPC: 0.5021 (Simulation time: 00 hr 29 min 41 sec)
Heartbeat CPU 0 instructions: 169500805 cycles: 251867227 heartbeat IPC: 0.4479 cumulative IPC: 0.5019 (Simulation time: 00 hr 29 min 47 sec)
Heartbeat CPU 0 instructions: 170000805 cycles: 253933481 heartbeat IPC: 0.242 cumulative IPC: 0.4996 (Simulation time: 00 hr 29 min 58 sec)
Heartbeat CPU 0 instructions: 170500807 cycles: 255357458 heartbeat IPC: 0.3511 cumulative IPC: 0.4987 (Simulation time: 00 hr 30 min 06 sec)
Heartbeat CPU 0 instructions: 171000807 cycles: 256403979 heartbeat IPC: 0.4778 cumulative IPC: 0.4987 (Simulation time: 00 hr 30 min 12 sec)
Heartbeat CPU 0 instructions: 171500807 cycles: 257655266 heartbeat IPC: 0.3996 cumulative IPC: 0.4981 (Simulation time: 00 hr 30 min 19 sec)
Heartbeat CPU 0 instructions: 172000807 cycles: 258950292 heartbeat IPC: 0.3861 cumulative IPC: 0.4976 (Simulation time: 00 hr 30 min 27 sec)
Heartbeat CPU 0 instructions: 172500810 cycles: 260153015 heartbeat IPC: 0.4157 cumulative IPC: 0.4972 (Simulation time: 00 hr 30 min 34 sec)
Heartbeat CPU 0 instructions: 173000810 cycles: 260980353 heartbeat IPC: 0.6043 cumulative IPC: 0.4975 (Simulation time: 00 hr 30 min 39 sec)
Heartbeat CPU 0 instructions: 173500816 cycles: 262111544 heartbeat IPC: 0.442 cumulative IPC: 0.4973 (Simulation time: 00 hr 30 min 46 sec)
Heartbeat CPU 0 instructions: 174000822 cycles: 262867120 heartbeat IPC: 0.6618 cumulative IPC: 0.4978 (Simulation time: 00 hr 30 min 51 sec)
Heartbeat CPU 0 instructions: 174500823 cycles: 263619821 heartbeat IPC: 0.6643 cumulative IPC: 0.4983 (Simulation time: 00 hr 30 min 56 sec)
Heartbeat CPU 0 instructions: 175000823 cycles: 264991097 heartbeat IPC: 0.3646 cumulative IPC: 0.4975 (Simulation time: 00 hr 31 min 04 sec)
Heartbeat CPU 0 instructions: 175500823 cycles: 266777521 heartbeat IPC: 0.2799 cumulative IPC: 0.496 (Simulation time: 00 hr 31 min 13 sec)
Heartbeat CPU 0 instructions: 176000827 cycles: 268380423 heartbeat IPC: 0.3119 cumulative IPC: 0.4948 (Simulation time: 00 hr 31 min 22 sec)
Heartbeat CPU 0 instructions: 176500827 cycles: 269173458 heartbeat IPC: 0.6305 cumulative IPC: 0.4953 (Simulation time: 00 hr 31 min 28 sec)
Heartbeat CPU 0 instructions: 177000829 cycles: 269891209 heartbeat IPC: 0.6966 cumulative IPC: 0.4958 (Simulation time: 00 hr 31 min 32 sec)
Heartbeat CPU 0 instructions: 177500832 cycles: 270433775 heartbeat IPC: 0.9216 cumulative IPC: 0.4967 (Simulation time: 00 hr 31 min 36 sec)
Heartbeat CPU 0 instructions: 178000832 cycles: 270776328 heartbeat IPC: 1.46 cumulative IPC: 0.498 (Simulation time: 00 hr 31 min 38 sec)
Heartbeat CPU 0 instructions: 178500832 cycles: 271123930 heartbeat IPC: 1.438 cumulative IPC: 0.4993 (Simulation time: 00 hr 31 min 41 sec)
Heartbeat CPU 0 instructions: 179000834 cycles: 271425369 heartbeat IPC: 1.659 cumulative IPC: 0.5006 (Simulation time: 00 hr 31 min 43 sec)
Heartbeat CPU 0 instructions: 179500835 cycles: 272130472 heartbeat IPC: 0.7091 cumulative IPC: 0.5012 (Simulation time: 00 hr 31 min 47 sec)
Heartbeat CPU 0 instructions: 180000839 cycles: 273629638 heartbeat IPC: 0.3335 cumulative IPC: 0.5002 (Simulation time: 00 hr 31 min 56 sec)
Heartbeat CPU 0 instructions: 180500841 cycles: 274728422 heartbeat IPC: 0.4551 cumulative IPC: 0.5 (Simulation time: 00 hr 32 min 03 sec)
Heartbeat CPU 0 instructions: 181000842 cycles: 275519325 heartbeat IPC: 0.6322 cumulative IPC: 0.5004 (Simulation time: 00 hr 32 min 08 sec)
Heartbeat CPU 0 instructions: 181500842 cycles: 277619532 heartbeat IPC: 0.2381 cumulative IPC: 0.4984 (Simulation time: 00 hr 32 min 20 sec)
Heartbeat CPU 0 instructions: 182000843 cycles: 278340147 heartbeat IPC: 0.6939 cumulative IPC: 0.4989 (Simulation time: 00 hr 32 min 25 sec)
Heartbeat CPU 0 instructions: 182500843 cycles: 279837518 heartbeat IPC: 0.3339 cumulative IPC: 0.498 (Simulation time: 00 hr 32 min 33 sec)
Heartbeat CPU 0 instructions: 183000843 cycles: 280669932 heartbeat IPC: 0.6007 cumulative IPC: 0.4983 (Simulation time: 00 hr 32 min 39 sec)
Heartbeat CPU 0 instructions: 183500843 cycles: 281049557 heartbeat IPC: 1.317 cumulative IPC: 0.4994 (Simulation time: 00 hr 32 min 42 sec)
Heartbeat CPU 0 instructions: 184000843 cycles: 281977835 heartbeat IPC: 0.5386 cumulative IPC: 0.4996 (Simulation time: 00 hr 32 min 47 sec)
Heartbeat CPU 0 instructions: 184500843 cycles: 283064655 heartbeat IPC: 0.4601 cumulative IPC: 0.4994 (Simulation time: 00 hr 32 min 53 sec)
Heartbeat CPU 0 instructions: 185000846 cycles: 283257963 heartbeat IPC: 2.587 cumulative IPC: 0.5009 (Simulation time: 00 hr 32 min 55 sec)
Heartbeat CPU 0 instructions: 185500847 cycles: 283557127 heartbeat IPC: 1.671 cumulative IPC: 0.5022 (Simulation time: 00 hr 32 min 58 sec)
Heartbeat CPU 0 instructions: 186000853 cycles: 283951642 heartbeat IPC: 1.267 cumulative IPC: 0.5033 (Simulation time: 00 hr 33 min 01 sec)
Heartbeat CPU 0 instructions: 186500853 cycles: 284769162 heartbeat IPC: 0.6116 cumulative IPC: 0.5037 (Simulation time: 00 hr 33 min 06 sec)
Heartbeat CPU 0 instructions: 187000856 cycles: 285308497 heartbeat IPC: 0.9271 cumulative IPC: 0.5045 (Simulation time: 00 hr 33 min 10 sec)
Heartbeat CPU 0 instructions: 187500856 cycles: 286036687 heartbeat IPC: 0.6866 cumulative IPC: 0.505 (Simulation time: 00 hr 33 min 15 sec)
Heartbeat CPU 0 instructions: 188000860 cycles: 286301389 heartbeat IPC: 1.889 cumulative IPC: 0.5063 (Simulation time: 00 hr 33 min 17 sec)
Heartbeat CPU 0 instructions: 188500861 cycles: 287977278 heartbeat IPC: 0.2983 cumulative IPC: 0.5051 (Simulation time: 00 hr 33 min 27 sec)
Heartbeat CPU 0 instructions: 189000861 cycles: 289274300 heartbeat IPC: 0.3855 cumulative IPC: 0.5045 (Simulation time: 00 hr 33 min 35 sec)
Heartbeat CPU 0 instructions: 189500861 cycles: 290092759 heartbeat IPC: 0.6109 cumulative IPC: 0.5048 (Simulation time: 00 hr 33 min 40 sec)
Heartbeat CPU 0 instructions: 190000864 cycles: 290858980 heartbeat IPC: 0.6526 cumulative IPC: 0.5052 (Simulation time: 00 hr 33 min 44 sec)
Heartbeat CPU 0 instructions: 190500864 cycles: 291304973 heartbeat IPC: 1.121 cumulative IPC: 0.5062 (Simulation time: 00 hr 33 min 48 sec)
Heartbeat CPU 0 instructions: 191000866 cycles: 291755087 heartbeat IPC: 1.111 cumulative IPC: 0.5072 (Simulation time: 00 hr 33 min 51 sec)
Heartbeat CPU 0 instructions: 191500872 cycles: 292214606 heartbeat IPC: 1.088 cumulative IPC: 0.5081 (Simulation time: 00 hr 33 min 54 sec)
Heartbeat CPU 0 instructions: 192000878 cycles: 292686871 heartbeat IPC: 1.059 cumulative IPC: 0.5091 (Simulation time: 00 hr 33 min 58 sec)
Heartbeat CPU 0 instructions: 192500885 cycles: 293158715 heartbeat IPC: 1.06 cumulative IPC: 0.51 (Simulation time: 00 hr 34 min 01 sec)
Heartbeat CPU 0 instructions: 193000885 cycles: 293652423 heartbeat IPC: 1.013 cumulative IPC: 0.5109 (Simulation time: 00 hr 34 min 04 sec)
Heartbeat CPU 0 instructions: 193500887 cycles: 294103246 heartbeat IPC: 1.109 cumulative IPC: 0.5119 (Simulation time: 00 hr 34 min 08 sec)
Heartbeat CPU 0 instructions: 194000887 cycles: 294558606 heartbeat IPC: 1.098 cumulative IPC: 0.5128 (Simulation time: 00 hr 34 min 11 sec)
Heartbeat CPU 0 instructions: 194500887 cycles: 295001023 heartbeat IPC: 1.13 cumulative IPC: 0.5138 (Simulation time: 00 hr 34 min 14 sec)
Heartbeat CPU 0 instructions: 195000891 cycles: 295465703 heartbeat IPC: 1.076 cumulative IPC: 0.5147 (Simulation time: 00 hr 34 min 18 sec)
Heartbeat CPU 0 instructions: 195500893 cycles: 295914823 heartbeat IPC: 1.113 cumulative IPC: 0.5157 (Simulation time: 00 hr 34 min 21 sec)
Heartbeat CPU 0 instructions: 196000893 cycles: 296359675 heartbeat IPC: 1.124 cumulative IPC: 0.5166 (Simulation time: 00 hr 34 min 24 sec)
Heartbeat CPU 0 instructions: 196500896 cycles: 296817681 heartbeat IPC: 1.092 cumulative IPC: 0.5175 (Simulation time: 00 hr 34 min 27 sec)
Heartbeat CPU 0 instructions: 197000896 cycles: 297330368 heartbeat IPC: 0.9753 cumulative IPC: 0.5184 (Simulation time: 00 hr 34 min 31 sec)
Heartbeat CPU 0 instructions: 197500900 cycles: 297765863 heartbeat IPC: 1.148 cumulative IPC: 0.5193 (Simulation time: 00 hr 34 min 34 sec)
Heartbeat CPU 0 instructions: 198000900 cycles: 298161211 heartbeat IPC: 1.265 cumulative IPC: 0.5204 (Simulation time: 00 hr 34 min 37 sec)
Heartbeat CPU 0 instructions: 198500903 cycles: 298594629 heartbeat IPC: 1.154 cumulative IPC: 0.5213 (Simulation time: 00 hr 34 min 40 sec)
Heartbeat CPU 0 instructions: 199000903 cycles: 299054250 heartbeat IPC: 1.088 cumulative IPC: 0.5222 (Simulation time: 00 hr 34 min 44 sec)
Heartbeat CPU 0 instructions: 199500904 cycles: 299496038 heartbeat IPC: 1.132 cumulative IPC: 0.5232 (Simulation time: 00 hr 34 min 47 sec)
Heartbeat CPU 0 instructions: 200000904 cycles: 299907349 heartbeat IPC: 1.216 cumulative IPC: 0.5242 (Simulation time: 00 hr 34 min 50 sec)
Heartbeat CPU 0 instructions: 200500908 cycles: 300322632 heartbeat IPC: 1.204 cumulative IPC: 0.5252 (Simulation time: 00 hr 34 min 53 sec)
Heartbeat CPU 0 instructions: 201000908 cycles: 300766731 heartbeat IPC: 1.126 cumulative IPC: 0.5261 (Simulation time: 00 hr 34 min 56 sec)
Heartbeat CPU 0 instructions: 201500914 cycles: 301201297 heartbeat IPC: 1.151 cumulative IPC: 0.527 (Simulation time: 00 hr 34 min 59 sec)
Heartbeat CPU 0 instructions: 202000916 cycles: 301640560 heartbeat IPC: 1.138 cumulative IPC: 0.528 (Simulation time: 00 hr 35 min 02 sec)
Heartbeat CPU 0 instructions: 202500916 cycles: 302070120 heartbeat IPC: 1.164 cumulative IPC: 0.5289 (Simulation time: 00 hr 35 min 05 sec)
Heartbeat CPU 0 instructions: 203000923 cycles: 302502093 heartbeat IPC: 1.157 cumulative IPC: 0.5299 (Simulation time: 00 hr 35 min 09 sec)
Heartbeat CPU 0 instructions: 203500925 cycles: 302932550 heartbeat IPC: 1.162 cumulative IPC: 0.5308 (Simulation time: 00 hr 35 min 12 sec)
Heartbeat CPU 0 instructions: 204000929 cycles: 303378056 heartbeat IPC: 1.122 cumulative IPC: 0.5317 (Simulation time: 00 hr 35 min 15 sec)
Heartbeat CPU 0 instructions: 204500935 cycles: 303814175 heartbeat IPC: 1.146 cumulative IPC: 0.5326 (Simulation time: 00 hr 35 min 18 sec)
Heartbeat CPU 0 instructions: 205000939 cycles: 304475072 heartbeat IPC: 0.7566 cumulative IPC: 0.5331 (Simulation time: 00 hr 35 min 23 sec)
Heartbeat CPU 0 instructions: 205500939 cycles: 304827196 heartbeat IPC: 1.42 cumulative IPC: 0.5342 (Simulation time: 00 hr 35 min 25 sec)
Heartbeat CPU 0 instructions: 206000939 cycles: 305585819 heartbeat IPC: 0.6591 cumulative IPC: 0.5345 (Simulation time: 00 hr 35 min 30 sec)
Heartbeat CPU 0 instructions: 206500946 cycles: 306114063 heartbeat IPC: 0.9465 cumulative IPC: 0.5353 (Simulation time: 00 hr 35 min 34 sec)
Heartbeat CPU 0 instructions: 207000948 cycles: 307215196 heartbeat IPC: 0.4541 cumulative IPC: 0.535 (Simulation time: 00 hr 35 min 40 sec)
Heartbeat CPU 0 instructions: 207500948 cycles: 308781606 heartbeat IPC: 0.3192 cumulative IPC: 0.5338 (Simulation time: 00 hr 35 min 49 sec)
Heartbeat CPU 0 instructions: 208000951 cycles: 309406165 heartbeat IPC: 0.8006 cumulative IPC: 0.5344 (Simulation time: 00 hr 35 min 53 sec)
Heartbeat CPU 0 instructions: 208500951 cycles: 310234932 heartbeat IPC: 0.6033 cumulative IPC: 0.5346 (Simulation time: 00 hr 35 min 58 sec)
Heartbeat CPU 0 instructions: 209000951 cycles: 311981754 heartbeat IPC: 0.2862 cumulative IPC: 0.5331 (Simulation time: 00 hr 36 min 07 sec)
Heartbeat CPU 0 instructions: 209500951 cycles: 313054984 heartbeat IPC: 0.4659 cumulative IPC: 0.5329 (Simulation time: 00 hr 36 min 13 sec)
Heartbeat CPU 0 instructions: 210000954 cycles: 313554086 heartbeat IPC: 1.002 cumulative IPC: 0.5337 (Simulation time: 00 hr 36 min 17 sec)
Heartbeat CPU 0 instructions: 210500961 cycles: 314028213 heartbeat IPC: 1.055 cumulative IPC: 0.5345 (Simulation time: 00 hr 36 min 20 sec)
Heartbeat CPU 0 instructions: 211000963 cycles: 314481881 heartbeat IPC: 1.102 cumulative IPC: 0.5354 (Simulation time: 00 hr 36 min 24 sec)
Heartbeat CPU 0 instructions: 211500963 cycles: 314955387 heartbeat IPC: 1.056 cumulative IPC: 0.5362 (Simulation time: 00 hr 36 min 27 sec)
Heartbeat CPU 0 instructions: 212000966 cycles: 315432621 heartbeat IPC: 1.048 cumulative IPC: 0.537 (Simulation time: 00 hr 36 min 30 sec)
Heartbeat CPU 0 instructions: 212500966 cycles: 315867622 heartbeat IPC: 1.149 cumulative IPC: 0.5379 (Simulation time: 00 hr 36 min 34 sec)
Heartbeat CPU 0 instructions: 213000971 cycles: 316393390 heartbeat IPC: 0.951 cumulative IPC: 0.5386 (Simulation time: 00 hr 36 min 37 sec)
Heartbeat CPU 0 instructions: 213500974 cycles: 317195400 heartbeat IPC: 0.6234 cumulative IPC: 0.5388 (Simulation time: 00 hr 36 min 42 sec)
Heartbeat CPU 0 instructions: 214000980 cycles: 318440255 heartbeat IPC: 0.4017 cumulative IPC: 0.5383 (Simulation time: 00 hr 36 min 50 sec)
Heartbeat CPU 0 instructions: 214500980 cycles: 319274875 heartbeat IPC: 0.5991 cumulative IPC: 0.5384 (Simulation time: 00 hr 36 min 55 sec)
Heartbeat CPU 0 instructions: 215000980 cycles: 319809264 heartbeat IPC: 0.9356 cumulative IPC: 0.5391 (Simulation time: 00 hr 36 min 58 sec)
Heartbeat CPU 0 instructions: 215500981 cycles: 320359933 heartbeat IPC: 0.908 cumulative IPC: 0.5398 (Simulation time: 00 hr 37 min 02 sec)
Heartbeat CPU 0 instructions: 216000983 cycles: 321652515 heartbeat IPC: 0.3868 cumulative IPC: 0.5391 (Simulation time: 00 hr 37 min 10 sec)
Heartbeat CPU 0 instructions: 216500983 cycles: 323023257 heartbeat IPC: 0.3648 cumulative IPC: 0.5384 (Simulation time: 00 hr 37 min 17 sec)
Heartbeat CPU 0 instructions: 217000983 cycles: 324163852 heartbeat IPC: 0.4384 cumulative IPC: 0.538 (Simulation time: 00 hr 37 min 24 sec)
Heartbeat CPU 0 instructions: 217500984 cycles: 324931989 heartbeat IPC: 0.6509 cumulative IPC: 0.5383 (Simulation time: 00 hr 37 min 28 sec)
Heartbeat CPU 0 instructions: 218000984 cycles: 325820842 heartbeat IPC: 0.5625 cumulative IPC: 0.5383 (Simulation time: 00 hr 37 min 34 sec)
Heartbeat CPU 0 instructions: 218500984 cycles: 327026653 heartbeat IPC: 0.4147 cumulative IPC: 0.5379 (Simulation time: 00 hr 37 min 41 sec)
Heartbeat CPU 0 instructions: 219000990 cycles: 328440494 heartbeat IPC: 0.3537 cumulative IPC: 0.537 (Simulation time: 00 hr 37 min 49 sec)
Heartbeat CPU 0 instructions: 219500992 cycles: 329752592 heartbeat IPC: 0.3811 cumulative IPC: 0.5364 (Simulation time: 00 hr 37 min 56 sec)
Heartbeat CPU 0 instructions: 220000998 cycles: 330413564 heartbeat IPC: 0.7565 cumulative IPC: 0.5368 (Simulation time: 00 hr 38 min 01 sec)
Heartbeat CPU 0 instructions: 220500998 cycles: 331637037 heartbeat IPC: 0.4087 cumulative IPC: 0.5364 (Simulation time: 00 hr 38 min 08 sec)
Heartbeat CPU 0 instructions: 221001001 cycles: 333036309 heartbeat IPC: 0.3573 cumulative IPC: 0.5356 (Simulation time: 00 hr 38 min 15 sec)
Heartbeat CPU 0 instructions: 221501001 cycles: 335819451 heartbeat IPC: 0.1797 cumulative IPC: 0.5325 (Simulation time: 00 hr 38 min 30 sec)
Heartbeat CPU 0 instructions: 222001001 cycles: 338001355 heartbeat IPC: 0.2292 cumulative IPC: 0.5305 (Simulation time: 00 hr 38 min 45 sec)
Heartbeat CPU 0 instructions: 222501001 cycles: 340219336 heartbeat IPC: 0.2254 cumulative IPC: 0.5284 (Simulation time: 00 hr 39 min 03 sec)
Heartbeat CPU 0 instructions: 223001006 cycles: 342376093 heartbeat IPC: 0.2318 cumulative IPC: 0.5264 (Simulation time: 00 hr 39 min 21 sec)
Heartbeat CPU 0 instructions: 223501012 cycles: 344638072 heartbeat IPC: 0.221 cumulative IPC: 0.5243 (Simulation time: 00 hr 39 min 40 sec)
Heartbeat CPU 0 instructions: 224001015 cycles: 346716056 heartbeat IPC: 0.2406 cumulative IPC: 0.5226 (Simulation time: 00 hr 39 min 58 sec)
Heartbeat CPU 0 instructions: 224501020 cycles: 348803683 heartbeat IPC: 0.2395 cumulative IPC: 0.5208 (Simulation time: 00 hr 40 min 15 sec)
Heartbeat CPU 0 instructions: 225001027 cycles: 350769023 heartbeat IPC: 0.2544 cumulative IPC: 0.5193 (Simulation time: 00 hr 40 min 32 sec)
Heartbeat CPU 0 instructions: 225501027 cycles: 352536729 heartbeat IPC: 0.2829 cumulative IPC: 0.518 (Simulation time: 00 hr 40 min 45 sec)
Heartbeat CPU 0 instructions: 226001029 cycles: 354784549 heartbeat IPC: 0.2224 cumulative IPC: 0.5161 (Simulation time: 00 hr 41 min 01 sec)
Heartbeat CPU 0 instructions: 226501029 cycles: 357182346 heartbeat IPC: 0.2085 cumulative IPC: 0.5139 (Simulation time: 00 hr 41 min 18 sec)
Heartbeat CPU 0 instructions: 227001036 cycles: 359300482 heartbeat IPC: 0.2361 cumulative IPC: 0.5122 (Simulation time: 00 hr 41 min 33 sec)
Heartbeat CPU 0 instructions: 227501038 cycles: 361415224 heartbeat IPC: 0.2364 cumulative IPC: 0.5105 (Simulation time: 00 hr 41 min 48 sec)
Heartbeat CPU 0 instructions: 228001038 cycles: 363821633 heartbeat IPC: 0.2078 cumulative IPC: 0.5085 (Simulation time: 00 hr 42 min 05 sec)
Heartbeat CPU 0 instructions: 228501038 cycles: 366182544 heartbeat IPC: 0.2118 cumulative IPC: 0.5065 (Simulation time: 00 hr 42 min 21 sec)
Heartbeat CPU 0 instructions: 229001040 cycles: 368739059 heartbeat IPC: 0.1956 cumulative IPC: 0.5042 (Simulation time: 00 hr 42 min 39 sec)
Heartbeat CPU 0 instructions: 229501046 cycles: 371031335 heartbeat IPC: 0.2181 cumulative IPC: 0.5024 (Simulation time: 00 hr 42 min 55 sec)
Heartbeat CPU 0 instructions: 230001046 cycles: 373592503 heartbeat IPC: 0.1952 cumulative IPC: 0.5002 (Simulation time: 00 hr 43 min 12 sec)
Heartbeat CPU 0 instructions: 230501051 cycles: 375652994 heartbeat IPC: 0.2427 cumulative IPC: 0.4988 (Simulation time: 00 hr 43 min 27 sec)
Heartbeat CPU 0 instructions: 231001054 cycles: 377889021 heartbeat IPC: 0.2236 cumulative IPC: 0.4971 (Simulation time: 00 hr 43 min 43 sec)
Heartbeat CPU 0 instructions: 231501058 cycles: 380260811 heartbeat IPC: 0.2108 cumulative IPC: 0.4952 (Simulation time: 00 hr 43 min 59 sec)
Heartbeat CPU 0 instructions: 232001065 cycles: 381753480 heartbeat IPC: 0.335 cumulative IPC: 0.4946 (Simulation time: 00 hr 44 min 09 sec)
Heartbeat CPU 0 instructions: 232501065 cycles: 383831387 heartbeat IPC: 0.2406 cumulative IPC: 0.4931 (Simulation time: 00 hr 44 min 20 sec)
Heartbeat CPU 0 instructions: 233001065 cycles: 385850998 heartbeat IPC: 0.2476 cumulative IPC: 0.4918 (Simulation time: 00 hr 44 min 31 sec)
Heartbeat CPU 0 instructions: 233501072 cycles: 387060721 heartbeat IPC: 0.4133 cumulative IPC: 0.4915 (Simulation time: 00 hr 44 min 38 sec)
Heartbeat CPU 0 instructions: 234001078 cycles: 388474570 heartbeat IPC: 0.3536 cumulative IPC: 0.491 (Simulation time: 00 hr 44 min 46 sec)
Heartbeat CPU 0 instructions: 234501079 cycles: 388957336 heartbeat IPC: 1.036 cumulative IPC: 0.4917 (Simulation time: 00 hr 44 min 50 sec)
Heartbeat CPU 0 instructions: 235001083 cycles: 389978378 heartbeat IPC: 0.4897 cumulative IPC: 0.4917 (Simulation time: 00 hr 44 min 56 sec)
Heartbeat CPU 0 instructions: 235501086 cycles: 390990790 heartbeat IPC: 0.4939 cumulative IPC: 0.4917 (Simulation time: 00 hr 45 min 03 sec)
Heartbeat CPU 0 instructions: 236001092 cycles: 392093661 heartbeat IPC: 0.4534 cumulative IPC: 0.4916 (Simulation time: 00 hr 45 min 09 sec)
Heartbeat CPU 0 instructions: 236501092 cycles: 392629816 heartbeat IPC: 0.9326 cumulative IPC: 0.4922 (Simulation time: 00 hr 45 min 13 sec)
Heartbeat CPU 0 instructions: 237001095 cycles: 393427658 heartbeat IPC: 0.6267 cumulative IPC: 0.4925 (Simulation time: 00 hr 45 min 19 sec)
Heartbeat CPU 0 instructions: 237501095 cycles: 394418477 heartbeat IPC: 0.5046 cumulative IPC: 0.4926 (Simulation time: 00 hr 45 min 24 sec)
Heartbeat CPU 0 instructions: 238001095 cycles: 394676441 heartbeat IPC: 1.938 cumulative IPC: 0.4935 (Simulation time: 00 hr 45 min 26 sec)
Heartbeat CPU 0 instructions: 238501095 cycles: 394900800 heartbeat IPC: 2.229 cumulative IPC: 0.4946 (Simulation time: 00 hr 45 min 28 sec)
Heartbeat CPU 0 instructions: 239001098 cycles: 395108569 heartbeat IPC: 2.407 cumulative IPC: 0.4956 (Simulation time: 00 hr 45 min 30 sec)
Heartbeat CPU 0 instructions: 239501102 cycles: 395334422 heartbeat IPC: 2.214 cumulative IPC: 0.4966 (Simulation time: 00 hr 45 min 32 sec)
Heartbeat CPU 0 instructions: 240001105 cycles: 396052295 heartbeat IPC: 0.6965 cumulative IPC: 0.497 (Simulation time: 00 hr 45 min 36 sec)
Heartbeat CPU 0 instructions: 240501105 cycles: 397348031 heartbeat IPC: 0.3859 cumulative IPC: 0.4966 (Simulation time: 00 hr 45 min 43 sec)
Heartbeat CPU 0 instructions: 241001109 cycles: 397582253 heartbeat IPC: 2.135 cumulative IPC: 0.4976 (Simulation time: 00 hr 45 min 45 sec)
Heartbeat CPU 0 instructions: 241501109 cycles: 399236277 heartbeat IPC: 0.3023 cumulative IPC: 0.4968 (Simulation time: 00 hr 45 min 54 sec)
Heartbeat CPU 0 instructions: 242001113 cycles: 400231662 heartbeat IPC: 0.5023 cumulative IPC: 0.4968 (Simulation time: 00 hr 46 min 00 sec)
Heartbeat CPU 0 instructions: 242501116 cycles: 402635932 heartbeat IPC: 0.208 cumulative IPC: 0.495 (Simulation time: 00 hr 46 min 12 sec)
Heartbeat CPU 0 instructions: 243001116 cycles: 404971337 heartbeat IPC: 0.2141 cumulative IPC: 0.4933 (Simulation time: 00 hr 46 min 24 sec)
Heartbeat CPU 0 instructions: 243501120 cycles: 406983262 heartbeat IPC: 0.2485 cumulative IPC: 0.4921 (Simulation time: 00 hr 46 min 34 sec)
Heartbeat CPU 0 instructions: 244001125 cycles: 408054585 heartbeat IPC: 0.4667 cumulative IPC: 0.492 (Simulation time: 00 hr 46 min 41 sec)
Heartbeat CPU 0 instructions: 244501127 cycles: 408868219 heartbeat IPC: 0.6145 cumulative IPC: 0.4923 (Simulation time: 00 hr 46 min 46 sec)
Heartbeat CPU 0 instructions: 245001127 cycles: 410089078 heartbeat IPC: 0.4095 cumulative IPC: 0.492 (Simulation time: 00 hr 46 min 53 sec)
Heartbeat CPU 0 instructions: 245501132 cycles: 411251929 heartbeat IPC: 0.43 cumulative IPC: 0.4918 (Simulation time: 00 hr 47 min 00 sec)
Heartbeat CPU 0 instructions: 246001134 cycles: 412599844 heartbeat IPC: 0.3709 cumulative IPC: 0.4914 (Simulation time: 00 hr 47 min 07 sec)
Heartbeat CPU 0 instructions: 246501135 cycles: 414005311 heartbeat IPC: 0.3558 cumulative IPC: 0.4909 (Simulation time: 00 hr 47 min 15 sec)
Heartbeat CPU 0 instructions: 247001138 cycles: 414643333 heartbeat IPC: 0.7837 cumulative IPC: 0.4914 (Simulation time: 00 hr 47 min 19 sec)
Heartbeat CPU 0 instructions: 247501139 cycles: 415024387 heartbeat IPC: 1.312 cumulative IPC: 0.4922 (Simulation time: 00 hr 47 min 22 sec)
Heartbeat CPU 0 instructions: 248001140 cycles: 415353715 heartbeat IPC: 1.518 cumulative IPC: 0.493 (Simulation time: 00 hr 47 min 24 sec)
Heartbeat CPU 0 instructions: 248501141 cycles: 415879117 heartbeat IPC: 0.9517 cumulative IPC: 0.4936 (Simulation time: 00 hr 47 min 28 sec)
Heartbeat CPU 0 instructions: 249001143 cycles: 416626118 heartbeat IPC: 0.6693 cumulative IPC: 0.4939 (Simulation time: 00 hr 47 min 32 sec)
Heartbeat CPU 0 instructions: 249501145 cycles: 418038470 heartbeat IPC: 0.354 cumulative IPC: 0.4935 (Simulation time: 00 hr 47 min 40 sec)
Simulation finished CPU 0 instructions: 200000001 cycles: 406128026 cumulative IPC: 0.4925 (Simulation time: 00 hr 47 min 50 sec)
Simulation complete CPU 0 instructions: 200000001 cycles: 406128026 cumulative IPC: 0.4925 (Simulation time: 00 hr 47 min 50 sec)

ChampSim completed all CPUs

=== Simulation ===
CPU 0 runs /local-ssd/ben/dpc4-traces/gtraces_v2/merced_0001.champsim.gz

Region of Interest Statistics

CPU 0 cumulative IPC: 0.4925 instructions: 200000001 cycles: 406128026
CPU 0 Branch Prediction Accuracy: 90.55% MPKI: 17.05 Average ROB Occupancy at Mispredict: 24.56
Branch type MPKI
BRANCH_DIRECT_JUMP: 0.9392
BRANCH_INDIRECT: 0.3477
BRANCH_CONDITIONAL: 14.04
BRANCH_DIRECT_CALL: 0.8087
BRANCH_INDIRECT_CALL: 0.3144
BRANCH_RETURN: 0.6074

cpu0->cpu0_STLB TOTAL        ACCESS:    1984148 HIT:    1429267 MISS:     554881 MSHR_MERGE:          0
cpu0->cpu0_STLB LOAD         ACCESS:    1984148 HIT:    1429267 MISS:     554881 MSHR_MERGE:          0
cpu0->cpu0_STLB RFO          ACCESS:          0 HIT:          0 MISS:          0 MSHR_MERGE:          0
cpu0->cpu0_STLB PREFETCH     ACCESS:          0 HIT:          0 MISS:          0 MSHR_MERGE:          0
cpu0->cpu0_STLB WRITE        ACCESS:          0 HIT:          0 MISS:          0 MSHR_MERGE:          0
cpu0->cpu0_STLB TRANSLATION  ACCESS:          0 HIT:          0 MISS:          0 MSHR_MERGE:          0
cpu0->cpu0_STLB PREFETCH REQUESTED:          0 ISSUED:          0 USEFUL:          0 USELESS:          0
cpu0->cpu0_STLB AVERAGE MISS LATENCY: 175.6 cycles
cpu0->cpu0_L2C TOTAL        ACCESS:   21116930 HIT:   15153305 MISS:    5963625 MSHR_MERGE:    1130655
cpu0->cpu0_L2C LOAD         ACCESS:    4066183 HIT:    2441194 MISS:    1624989 MSHR_MERGE:      19971
cpu0->cpu0_L2C RFO          ACCESS:     678811 HIT:     319681 MISS:     359130 MSHR_MERGE:       3866
cpu0->cpu0_L2C PREFETCH     ACCESS:   14528313 HIT:   10804394 MISS:    3723919 MSHR_MERGE:    1106818
cpu0->cpu0_L2C WRITE        ACCESS:    1242086 HIT:    1242065 MISS:         21 MSHR_MERGE:          0
cpu0->cpu0_L2C TRANSLATION  ACCESS:     601537 HIT:     345971 MISS:     255566 MSHR_MERGE:          0
cpu0->cpu0_L2C PREFETCH REQUESTED:   12955404 ISSUED:   11783458 USEFUL:     630578 USELESS:    1299479
cpu0->cpu0_L2C AVERAGE MISS LATENCY: 228.2 cycles
cpu0->cpu0_L1I TOTAL        ACCESS:   15560489 HIT:   13269435 MISS:    2291054 MSHR_MERGE:     531374
cpu0->cpu0_L1I LOAD         ACCESS:   15560489 HIT:   13269435 MISS:    2291054 MSHR_MERGE:     531374
cpu0->cpu0_L1I RFO          ACCESS:          0 HIT:          0 MISS:          0 MSHR_MERGE:          0
cpu0->cpu0_L1I PREFETCH     ACCESS:          0 HIT:          0 MISS:          0 MSHR_MERGE:          0
cpu0->cpu0_L1I WRITE        ACCESS:          0 HIT:          0 MISS:          0 MSHR_MERGE:          0
cpu0->cpu0_L1I TRANSLATION  ACCESS:          0 HIT:          0 MISS:          0 MSHR_MERGE:          0
cpu0->cpu0_L1I PREFETCH REQUESTED:          0 ISSUED:          0 USEFUL:          0 USELESS:          0
cpu0->cpu0_L1I AVERAGE MISS LATENCY: 117.9 cycles
cpu0->cpu0_L1D TOTAL        ACCESS:   70722663 HIT:   61149290 MISS:    9573373 MSHR_MERGE:    3241563
cpu0->cpu0_L1D LOAD         ACCESS:   33494689 HIT:   30362261 MISS:    3132428 MSHR_MERGE:     825892
cpu0->cpu0_L1D RFO          ACCESS:          0 HIT:          0 MISS:          0 MSHR_MERGE:          0
cpu0->cpu0_L1D PREFETCH     ACCESS:   15979985 HIT:   12501979 MISS:    3478006 MSHR_MERGE:     733145
cpu0->cpu0_L1D WRITE        ACCESS:   19833612 HIT:   17477193 MISS:    2356419 MSHR_MERGE:    1677543
cpu0->cpu0_L1D TRANSLATION  ACCESS:    1414377 HIT:     807857 MISS:     606520 MSHR_MERGE:       4983
cpu0->cpu0_L1D PREFETCH REQUESTED:   19935979 ISSUED:   15979979 USEFUL:     958942 USELESS:    1785851
cpu0->cpu0_L1D AVERAGE MISS LATENCY: 96.48 cycles
cpu0->cpu0_ITLB TOTAL        ACCESS:   12572215 HIT:   12331202 MISS:     241013 MSHR_MERGE:     122237
cpu0->cpu0_ITLB LOAD         ACCESS:   12572215 HIT:   12331202 MISS:     241013 MSHR_MERGE:     122237
cpu0->cpu0_ITLB RFO          ACCESS:          0 HIT:          0 MISS:          0 MSHR_MERGE:          0
cpu0->cpu0_ITLB PREFETCH     ACCESS:          0 HIT:          0 MISS:          0 MSHR_MERGE:          0
cpu0->cpu0_ITLB WRITE        ACCESS:          0 HIT:          0 MISS:          0 MSHR_MERGE:          0
cpu0->cpu0_ITLB TRANSLATION  ACCESS:          0 HIT:          0 MISS:          0 MSHR_MERGE:          0
cpu0->cpu0_ITLB PREFETCH REQUESTED:          0 ISSUED:          0 USEFUL:          0 USELESS:          0
cpu0->cpu0_ITLB AVERAGE MISS LATENCY: 35.94 cycles
cpu0->cpu0_DTLB TOTAL        ACCESS:   63351496 HIT:   60367555 MISS:    2983941 MSHR_MERGE:    1118569
cpu0->cpu0_DTLB LOAD         ACCESS:   63351496 HIT:   60367555 MISS:    2983941 MSHR_MERGE:    1118569
cpu0->cpu0_DTLB RFO          ACCESS:          0 HIT:          0 MISS:          0 MSHR_MERGE:          0
cpu0->cpu0_DTLB PREFETCH     ACCESS:          0 HIT:          0 MISS:          0 MSHR_MERGE:          0
cpu0->cpu0_DTLB WRITE        ACCESS:          0 HIT:          0 MISS:          0 MSHR_MERGE:          0
cpu0->cpu0_DTLB TRANSLATION  ACCESS:          0 HIT:          0 MISS:          0 MSHR_MERGE:          0
cpu0->cpu0_DTLB PREFETCH REQUESTED:          0 ISSUED:          0 USEFUL:          0 USELESS:          0
cpu0->cpu0_DTLB AVERAGE MISS LATENCY: 55.57 cycles
cpu0->LLC TOTAL        ACCESS:    7333201 HIT:    1076766 MISS:    6256435 MSHR_MERGE:     542598
cpu0->LLC LOAD         ACCESS:    1605018 HIT:     178188 MISS:    1426830 MSHR_MERGE:       1829
cpu0->LLC RFO          ACCESS:     355264 HIT:      19451 MISS:     335813 MSHR_MERGE:        279
cpu0->LLC PREFETCH     ACCESS:    4412689 HIT:     651351 MISS:    3761338 MSHR_MERGE:     540490
cpu0->LLC WRITE        ACCESS:     704664 HIT:     207574 MISS:     497090 MSHR_MERGE:          0
cpu0->LLC TRANSLATION  ACCESS:     255566 HIT:      20202 MISS:     235364 MSHR_MERGE:          0
cpu0->LLC PREFETCH REQUESTED:    1901003 ISSUED:    1795588 USEFUL:     240813 USELESS:     812432
cpu0->LLC AVERAGE MISS LATENCY: 186.4 cycles

DRAM Statistics

Channel 0 RQ ROW_BUFFER_HIT:     230291
  ROW_BUFFER_MISS:    4986369
  AVG DBUS CONGESTED CYCLE: 18.13
Channel 0 WQ ROW_BUFFER_HIT:     162542
  ROW_BUFFER_MISS:     492457
  FULL:          0
Channel 0 REFRESHES ISSUED:      33842
