[VMEM] WARNING: physical memory size is smaller than virtual memory size.

*** ChampSim Multicore Out-of-Order Simulator ***
Warmup Instructions: 50000000
Simulation Instructions: 200000000
Number of CPUs: 1
Page size: 4096
Core 0: /local-ssd/ben/dpc4-traces/gtraces_v2/merced_0000.champsim.gz
IPCP_AT_L1_CONFIG
NUM_IP_TABLE_L1_ENTRIES 1024
NUM_GHB_ENTRIES 16
NUM_IP_INDEX_BITS 10
NUM_IP_TAG_BITS 6
S_TYPE 1
CS_TYPE 2
CPLX_TYPE 3
NL_TYPE 4

Off-chip DRAM Size: 64 GiB Channels: 1 Width: 64-bit Data Rate: 4807 MT/s
Heartbeat CPU 0 instructions: 500000 cycles: 156776 heartbeat IPC: 3.189 cumulative IPC: 3.189 (Simulation time: 00 hr 00 min 02 sec)
Heartbeat CPU 0 instructions: 1000004 cycles: 360831 heartbeat IPC: 2.45 cumulative IPC: 2.771 (Simulation time: 00 hr 00 min 05 sec)
[BTB] WARNING: target of return is a lower address than the corresponding call. This is usually a problem with your trace.
[BTB] WARNING: target of return is a lower address than the corresponding call. This is usually a problem with your trace.
[BTB] WARNING: target of return is a lower address than the corresponding call. This is usually a problem with your trace.
Heartbeat CPU 0 instructions: 1500006 cycles: 581151 heartbeat IPC: 2.269 cumulative IPC: 2.581 (Simulation time: 00 hr 00 min 08 sec)
[BTB] WARNING: target of return is a lower address than the corresponding call. This is usually a problem with your trace.
[BTB] WARNING: target of return is a lower address than the corresponding call. This is usually a problem with your trace.
[BTB] WARNING: target of return is a lower address than the corresponding call. This is usually a problem with your trace.
[BTB] WARNING: target of return is a lower address than the corresponding call. This is usually a problem with your trace.
[BTB] WARNING: target of return is a lower address than the corresponding call. This is usually a problem with your trace.
[BTB] WARNING: target of return is a lower address than the corresponding call. This is usually a problem with your trace.
[BTB] WARNING: target of return is a lower address than the corresponding call. This is usually a problem with your trace.
Heartbeat CPU 0 instructions: 2000011 cycles: 760003 heartbeat IPC: 2.796 cumulative IPC: 2.632 (Simulation time: 00 hr 00 min 11 sec)
Heartbeat CPU 0 instructions: 2500015 cycles: 946942 heartbeat IPC: 2.675 cumulative IPC: 2.64 (Simulation time: 00 hr 00 min 14 sec)
Heartbeat CPU 0 instructions: 3000018 cycles: 1139143 heartbeat IPC: 2.601 cumulative IPC: 2.634 (Simulation time: 00 hr 00 min 16 sec)
Heartbeat CPU 0 instructions: 3500018 cycles: 1262062 heartbeat IPC: 4.068 cumulative IPC: 2.773 (Simulation time: 00 hr 00 min 18 sec)
Heartbeat CPU 0 instructions: 4000023 cycles: 1410318 heartbeat IPC: 3.373 cumulative IPC: 2.836 (Simulation time: 00 hr 00 min 20 sec)
Heartbeat CPU 0 instructions: 4500026 cycles: 1528652 heartbeat IPC: 4.225 cumulative IPC: 2.944 (Simulation time: 00 hr 00 min 22 sec)
Heartbeat CPU 0 instructions: 5000032 cycles: 1672366 heartbeat IPC: 3.479 cumulative IPC: 2.99 (Simulation time: 00 hr 00 min 25 sec)
Heartbeat CPU 0 instructions: 5500035 cycles: 1802457 heartbeat IPC: 3.843 cumulative IPC: 3.051 (Simulation time: 00 hr 00 min 27 sec)
Heartbeat CPU 0 instructions: 6000039 cycles: 1936644 heartbeat IPC: 3.726 cumulative IPC: 3.098 (Simulation time: 00 hr 00 min 29 sec)
Heartbeat CPU 0 instructions: 6500046 cycles: 2090025 heartbeat IPC: 3.26 cumulative IPC: 3.11 (Simulation time: 00 hr 00 min 32 sec)
Heartbeat CPU 0 instructions: 7000047 cycles: 2233270 heartbeat IPC: 3.491 cumulative IPC: 3.134 (Simulation time: 00 hr 00 min 34 sec)
Heartbeat CPU 0 instructions: 7500049 cycles: 2367816 heartbeat IPC: 3.716 cumulative IPC: 3.167 (Simulation time: 00 hr 00 min 36 sec)
Heartbeat CPU 0 instructions: 8000050 cycles: 2480915 heartbeat IPC: 4.421 cumulative IPC: 3.225 (Simulation time: 00 hr 00 min 37 sec)
Heartbeat CPU 0 instructions: 8500051 cycles: 2610210 heartbeat IPC: 3.867 cumulative IPC: 3.256 (Simulation time: 00 hr 00 min 39 sec)
Heartbeat CPU 0 instructions: 9000053 cycles: 2764771 heartbeat IPC: 3.235 cumulative IPC: 3.255 (Simulation time: 00 hr 00 min 42 sec)
Heartbeat CPU 0 instructions: 9500054 cycles: 2885990 heartbeat IPC: 4.125 cumulative IPC: 3.292 (Simulation time: 00 hr 00 min 44 sec)
Heartbeat CPU 0 instructions: 10000059 cycles: 2999578 heartbeat IPC: 4.402 cumulative IPC: 3.334 (Simulation time: 00 hr 00 min 46 sec)
Heartbeat CPU 0 instructions: 10500063 cycles: 3127898 heartbeat IPC: 3.897 cumulative IPC: 3.357 (Simulation time: 00 hr 00 min 48 sec)
Heartbeat CPU 0 instructions: 11000070 cycles: 3290601 heartbeat IPC: 3.073 cumulative IPC: 3.343 (Simulation time: 00 hr 00 min 51 sec)
Heartbeat CPU 0 instructions: 11500072 cycles: 3445167 heartbeat IPC: 3.235 cumulative IPC: 3.338 (Simulation time: 00 hr 00 min 53 sec)
Heartbeat CPU 0 instructions: 12000079 cycles: 3602472 heartbeat IPC: 3.179 cumulative IPC: 3.331 (Simulation time: 00 hr 00 min 55 sec)
Heartbeat CPU 0 instructions: 12500080 cycles: 3732483 heartbeat IPC: 3.846 cumulative IPC: 3.349 (Simulation time: 00 hr 00 min 57 sec)
Heartbeat CPU 0 instructions: 13000080 cycles: 3891590 heartbeat IPC: 3.143 cumulative IPC: 3.341 (Simulation time: 00 hr 01 min 00 sec)
Heartbeat CPU 0 instructions: 13500086 cycles: 4056916 heartbeat IPC: 3.024 cumulative IPC: 3.328 (Simulation time: 00 hr 01 min 03 sec)
Heartbeat CPU 0 instructions: 14000093 cycles: 4219585 heartbeat IPC: 3.074 cumulative IPC: 3.318 (Simulation time: 00 hr 01 min 05 sec)
Heartbeat CPU 0 instructions: 14500096 cycles: 4331428 heartbeat IPC: 4.471 cumulative IPC: 3.348 (Simulation time: 00 hr 01 min 07 sec)
Heartbeat CPU 0 instructions: 15000099 cycles: 4473017 heartbeat IPC: 3.531 cumulative IPC: 3.353 (Simulation time: 00 hr 01 min 10 sec)
Heartbeat CPU 0 instructions: 15500101 cycles: 4614879 heartbeat IPC: 3.525 cumulative IPC: 3.359 (Simulation time: 00 hr 01 min 12 sec)
Heartbeat CPU 0 instructions: 16000108 cycles: 4727970 heartbeat IPC: 4.421 cumulative IPC: 3.384 (Simulation time: 00 hr 01 min 14 sec)
Heartbeat CPU 0 instructions: 16500111 cycles: 4849255 heartbeat IPC: 4.123 cumulative IPC: 3.403 (Simulation time: 00 hr 01 min 16 sec)
Heartbeat CPU 0 instructions: 17000115 cycles: 4980474 heartbeat IPC: 3.81 cumulative IPC: 3.413 (Simulation time: 00 hr 01 min 18 sec)
Heartbeat CPU 0 instructions: 17500119 cycles: 5150626 heartbeat IPC: 2.939 cumulative IPC: 3.398 (Simulation time: 00 hr 01 min 21 sec)
Heartbeat CPU 0 instructions: 18000124 cycles: 5260467 heartbeat IPC: 4.552 cumulative IPC: 3.422 (Simulation time: 00 hr 01 min 22 sec)
Heartbeat CPU 0 instructions: 18500128 cycles: 5401003 heartbeat IPC: 3.558 cumulative IPC: 3.425 (Simulation time: 00 hr 01 min 25 sec)
Heartbeat CPU 0 instructions: 19000131 cycles: 5534391 heartbeat IPC: 3.748 cumulative IPC: 3.433 (Simulation time: 00 hr 01 min 27 sec)
Heartbeat CPU 0 instructions: 19500132 cycles: 5639952 heartbeat IPC: 4.737 cumulative IPC: 3.457 (Simulation time: 00 hr 01 min 28 sec)
Heartbeat CPU 0 instructions: 20000134 cycles: 5743440 heartbeat IPC: 4.831 cumulative IPC: 3.482 (Simulation time: 00 hr 01 min 30 sec)
Heartbeat CPU 0 instructions: 20500134 cycles: 5844964 heartbeat IPC: 4.925 cumulative IPC: 3.507 (Simulation time: 00 hr 01 min 31 sec)
Heartbeat CPU 0 instructions: 21000140 cycles: 5945794 heartbeat IPC: 4.959 cumulative IPC: 3.532 (Simulation time: 00 hr 01 min 32 sec)
Heartbeat CPU 0 instructions: 21500146 cycles: 6053895 heartbeat IPC: 4.625 cumulative IPC: 3.551 (Simulation time: 00 hr 01 min 33 sec)
Heartbeat CPU 0 instructions: 22000153 cycles: 6163719 heartbeat IPC: 4.553 cumulative IPC: 3.569 (Simulation time: 00 hr 01 min 35 sec)
Heartbeat CPU 0 instructions: 22500154 cycles: 6316743 heartbeat IPC: 3.267 cumulative IPC: 3.562 (Simulation time: 00 hr 01 min 38 sec)
Heartbeat CPU 0 instructions: 23000158 cycles: 6473030 heartbeat IPC: 3.199 cumulative IPC: 3.553 (Simulation time: 00 hr 01 min 40 sec)
Heartbeat CPU 0 instructions: 23500164 cycles: 6589850 heartbeat IPC: 4.28 cumulative IPC: 3.566 (Simulation time: 00 hr 01 min 42 sec)
Heartbeat CPU 0 instructions: 24000167 cycles: 6692774 heartbeat IPC: 4.858 cumulative IPC: 3.586 (Simulation time: 00 hr 01 min 44 sec)
Heartbeat CPU 0 instructions: 24500169 cycles: 6831952 heartbeat IPC: 3.593 cumulative IPC: 3.586 (Simulation time: 00 hr 01 min 47 sec)
Heartbeat CPU 0 instructions: 25000171 cycles: 6976494 heartbeat IPC: 3.459 cumulative IPC: 3.583 (Simulation time: 00 hr 01 min 49 sec)
Heartbeat CPU 0 instructions: 25500172 cycles: 7104186 heartbeat IPC: 3.916 cumulative IPC: 3.589 (Simulation time: 00 hr 01 min 51 sec)
Heartbeat CPU 0 instructions: 26000173 cycles: 7245801 heartbeat IPC: 3.531 cumulative IPC: 3.588 (Simulation time: 00 hr 01 min 53 sec)
Heartbeat CPU 0 instructions: 26500175 cycles: 7398736 heartbeat IPC: 3.269 cumulative IPC: 3.582 (Simulation time: 00 hr 01 min 56 sec)
Heartbeat CPU 0 instructions: 27000176 cycles: 7537373 heartbeat IPC: 3.607 cumulative IPC: 3.582 (Simulation time: 00 hr 01 min 58 sec)
Heartbeat CPU 0 instructions: 27500182 cycles: 7699651 heartbeat IPC: 3.081 cumulative IPC: 3.572 (Simulation time: 00 hr 02 min 01 sec)
Heartbeat CPU 0 instructions: 28000187 cycles: 7821226 heartbeat IPC: 4.113 cumulative IPC: 3.58 (Simulation time: 00 hr 02 min 03 sec)
Heartbeat CPU 0 instructions: 28500188 cycles: 7941997 heartbeat IPC: 4.14 cumulative IPC: 3.589 (Simulation time: 00 hr 02 min 05 sec)
Heartbeat CPU 0 instructions: 29000190 cycles: 8076771 heartbeat IPC: 3.71 cumulative IPC: 3.591 (Simulation time: 00 hr 02 min 08 sec)
Heartbeat CPU 0 instructions: 29500197 cycles: 8204907 heartbeat IPC: 3.902 cumulative IPC: 3.595 (Simulation time: 00 hr 02 min 10 sec)
Heartbeat CPU 0 instructions: 30000204 cycles: 8314217 heartbeat IPC: 4.574 cumulative IPC: 3.608 (Simulation time: 00 hr 02 min 12 sec)
Heartbeat CPU 0 instructions: 30500205 cycles: 8434269 heartbeat IPC: 4.165 cumulative IPC: 3.616 (Simulation time: 00 hr 02 min 14 sec)
Heartbeat CPU 0 instructions: 31000209 cycles: 8550612 heartbeat IPC: 4.298 cumulative IPC: 3.625 (Simulation time: 00 hr 02 min 15 sec)
Heartbeat CPU 0 instructions: 31500212 cycles: 8674858 heartbeat IPC: 4.024 cumulative IPC: 3.631 (Simulation time: 00 hr 02 min 17 sec)
Heartbeat CPU 0 instructions: 32000213 cycles: 8809921 heartbeat IPC: 3.702 cumulative IPC: 3.632 (Simulation time: 00 hr 02 min 19 sec)
Heartbeat CPU 0 instructions: 32500220 cycles: 8981408 heartbeat IPC: 2.916 cumulative IPC: 3.619 (Simulation time: 00 hr 02 min 22 sec)
Heartbeat CPU 0 instructions: 33000224 cycles: 9106944 heartbeat IPC: 3.983 cumulative IPC: 3.624 (Simulation time: 00 hr 02 min 24 sec)
Heartbeat CPU 0 instructions: 33500227 cycles: 9209181 heartbeat IPC: 4.891 cumulative IPC: 3.638 (Simulation time: 00 hr 02 min 25 sec)
Heartbeat CPU 0 instructions: 34000229 cycles: 9343831 heartbeat IPC: 3.713 cumulative IPC: 3.639 (Simulation time: 00 hr 02 min 27 sec)
Heartbeat CPU 0 instructions: 34500235 cycles: 9476724 heartbeat IPC: 3.762 cumulative IPC: 3.641 (Simulation time: 00 hr 02 min 29 sec)
Heartbeat CPU 0 instructions: 35000241 cycles: 9619011 heartbeat IPC: 3.514 cumulative IPC: 3.639 (Simulation time: 00 hr 02 min 31 sec)
Heartbeat CPU 0 instructions: 35500246 cycles: 9745651 heartbeat IPC: 3.948 cumulative IPC: 3.643 (Simulation time: 00 hr 02 min 33 sec)
Heartbeat CPU 0 instructions: 36000252 cycles: 9850001 heartbeat IPC: 4.792 cumulative IPC: 3.655 (Simulation time: 00 hr 02 min 35 sec)
Heartbeat CPU 0 instructions: 36500256 cycles: 9988417 heartbeat IPC: 3.612 cumulative IPC: 3.654 (Simulation time: 00 hr 02 min 37 sec)
Heartbeat CPU 0 instructions: 37000257 cycles: 10109204 heartbeat IPC: 4.14 cumulative IPC: 3.66 (Simulation time: 00 hr 02 min 39 sec)
Heartbeat CPU 0 instructions: 37500258 cycles: 10230276 heartbeat IPC: 4.13 cumulative IPC: 3.666 (Simulation time: 00 hr 02 min 41 sec)
Heartbeat CPU 0 instructions: 38000263 cycles: 10379033 heartbeat IPC: 3.361 cumulative IPC: 3.661 (Simulation time: 00 hr 02 min 44 sec)
Heartbeat CPU 0 instructions: 38500264 cycles: 10514912 heartbeat IPC: 3.68 cumulative IPC: 3.661 (Simulation time: 00 hr 02 min 46 sec)
Heartbeat CPU 0 instructions: 39000265 cycles: 10637488 heartbeat IPC: 4.079 cumulative IPC: 3.666 (Simulation time: 00 hr 02 min 48 sec)
Heartbeat CPU 0 instructions: 39500270 cycles: 10762337 heartbeat IPC: 4.005 cumulative IPC: 3.67 (Simulation time: 00 hr 02 min 50 sec)
Heartbeat CPU 0 instructions: 40000274 cycles: 10870586 heartbeat IPC: 4.619 cumulative IPC: 3.68 (Simulation time: 00 hr 02 min 52 sec)
Heartbeat CPU 0 instructions: 40500280 cycles: 10990482 heartbeat IPC: 4.17 cumulative IPC: 3.685 (Simulation time: 00 hr 02 min 53 sec)
Heartbeat CPU 0 instructions: 41000282 cycles: 11122753 heartbeat IPC: 3.78 cumulative IPC: 3.686 (Simulation time: 00 hr 02 min 56 sec)
Heartbeat CPU 0 instructions: 41500286 cycles: 11278789 heartbeat IPC: 3.204 cumulative IPC: 3.679 (Simulation time: 00 hr 02 min 58 sec)
Heartbeat CPU 0 instructions: 42000288 cycles: 11410606 heartbeat IPC: 3.793 cumulative IPC: 3.681 (Simulation time: 00 hr 03 min 01 sec)
Heartbeat CPU 0 instructions: 42500295 cycles: 11557289 heartbeat IPC: 3.409 cumulative IPC: 3.677 (Simulation time: 00 hr 03 min 03 sec)
Heartbeat CPU 0 instructions: 43000299 cycles: 11721662 heartbeat IPC: 3.042 cumulative IPC: 3.668 (Simulation time: 00 hr 03 min 05 sec)
Heartbeat CPU 0 instructions: 43500303 cycles: 11844113 heartbeat IPC: 4.083 cumulative IPC: 3.673 (Simulation time: 00 hr 03 min 07 sec)
Heartbeat CPU 0 instructions: 44000308 cycles: 12019302 heartbeat IPC: 2.854 cumulative IPC: 3.661 (Simulation time: 00 hr 03 min 10 sec)
Heartbeat CPU 0 instructions: 44500310 cycles: 12175800 heartbeat IPC: 3.195 cumulative IPC: 3.655 (Simulation time: 00 hr 03 min 13 sec)
Heartbeat CPU 0 instructions: 45000311 cycles: 12323642 heartbeat IPC: 3.382 cumulative IPC: 3.652 (Simulation time: 00 hr 03 min 15 sec)
Heartbeat CPU 0 instructions: 45500313 cycles: 12457075 heartbeat IPC: 3.747 cumulative IPC: 3.653 (Simulation time: 00 hr 03 min 17 sec)
Heartbeat CPU 0 instructions: 46000314 cycles: 12610667 heartbeat IPC: 3.255 cumulative IPC: 3.648 (Simulation time: 00 hr 03 min 20 sec)
Heartbeat CPU 0 instructions: 46500321 cycles: 12739840 heartbeat IPC: 3.871 cumulative IPC: 3.65 (Simulation time: 00 hr 03 min 22 sec)
Heartbeat CPU 0 instructions: 47000322 cycles: 12850494 heartbeat IPC: 4.519 cumulative IPC: 3.657 (Simulation time: 00 hr 03 min 23 sec)
Heartbeat CPU 0 instructions: 47500329 cycles: 12969460 heartbeat IPC: 4.203 cumulative IPC: 3.662 (Simulation time: 00 hr 03 min 25 sec)
Heartbeat CPU 0 instructions: 48000334 cycles: 13108294 heartbeat IPC: 3.601 cumulative IPC: 3.662 (Simulation time: 00 hr 03 min 27 sec)
Heartbeat CPU 0 instructions: 48500341 cycles: 13238826 heartbeat IPC: 3.831 cumulative IPC: 3.663 (Simulation time: 00 hr 03 min 29 sec)
Heartbeat CPU 0 instructions: 49000343 cycles: 13367477 heartbeat IPC: 3.886 cumulative IPC: 3.666 (Simulation time: 00 hr 03 min 31 sec)
Heartbeat CPU 0 instructions: 49500343 cycles: 13522040 heartbeat IPC: 3.235 cumulative IPC: 3.661 (Simulation time: 00 hr 03 min 33 sec)
Warmup halting CPU 0 at instruction 50000005 cycle 13654846 for remainder of phase
Warmup finished CPU 0 instructions: 50000005 cycles: 13654846 cumulative IPC: 3.662 (Simulation time: 00 hr 03 min 35 sec)
Warmup complete CPU 0 instructions: 50000005 cycles: 13654846 cumulative IPC: 3.662 (Simulation time: 00 hr 03 min 35 sec)
Heartbeat CPU 0 instructions: 50000343 cycles: 13654944 heartbeat IPC: 3.762 cumulative IPC: 3.449 (Simulation time: 00 hr 03 min 35 sec)
Heartbeat CPU 0 instructions: 50500345 cycles: 13980765 heartbeat IPC: 1.535 cumulative IPC: 1.535 (Simulation time: 00 hr 03 min 39 sec)
Heartbeat CPU 0 instructions: 51000352 cycles: 15274663 heartbeat IPC: 0.3864 cumulative IPC: 0.6176 (Simulation time: 00 hr 03 min 47 sec)
Heartbeat CPU 0 instructions: 51500354 cycles: 16239606 heartbeat IPC: 0.5182 cumulative IPC: 0.5805 (Simulation time: 00 hr 03 min 54 sec)
Heartbeat CPU 0 instructions: 52000359 cycles: 16896582 heartbeat IPC: 0.7611 cumulative IPC: 0.6171 (Simulation time: 00 hr 03 min 59 sec)
Heartbeat CPU 0 instructions: 52500359 cycles: 18160382 heartbeat IPC: 0.3956 cumulative IPC: 0.555 (Simulation time: 00 hr 04 min 07 sec)
Heartbeat CPU 0 instructions: 53000364 cycles: 19423914 heartbeat IPC: 0.3957 cumulative IPC: 0.5201 (Simulation time: 00 hr 04 min 16 sec)
Heartbeat CPU 0 instructions: 53500364 cycles: 20355343 heartbeat IPC: 0.5368 cumulative IPC: 0.5224 (Simulation time: 00 hr 04 min 23 sec)
Heartbeat CPU 0 instructions: 54000366 cycles: 21071668 heartbeat IPC: 0.698 cumulative IPC: 0.5394 (Simulation time: 00 hr 04 min 28 sec)
Heartbeat CPU 0 instructions: 54500368 cycles: 22943329 heartbeat IPC: 0.2671 cumulative IPC: 0.4845 (Simulation time: 00 hr 04 min 39 sec)
Heartbeat CPU 0 instructions: 55000368 cycles: 24177084 heartbeat IPC: 0.4053 cumulative IPC: 0.4752 (Simulation time: 00 hr 04 min 47 sec)
Heartbeat CPU 0 instructions: 55500368 cycles: 24681247 heartbeat IPC: 0.9917 cumulative IPC: 0.4988 (Simulation time: 00 hr 04 min 50 sec)
Heartbeat CPU 0 instructions: 56000368 cycles: 25054012 heartbeat IPC: 1.341 cumulative IPC: 0.5264 (Simulation time: 00 hr 04 min 53 sec)
Heartbeat CPU 0 instructions: 56500370 cycles: 26453464 heartbeat IPC: 0.3573 cumulative IPC: 0.5079 (Simulation time: 00 hr 05 min 02 sec)
Heartbeat CPU 0 instructions: 57000371 cycles: 27478403 heartbeat IPC: 0.4878 cumulative IPC: 0.5064 (Simulation time: 00 hr 05 min 09 sec)
Heartbeat CPU 0 instructions: 57500371 cycles: 28537794 heartbeat IPC: 0.472 cumulative IPC: 0.504 (Simulation time: 00 hr 05 min 16 sec)
Heartbeat CPU 0 instructions: 58000374 cycles: 29905715 heartbeat IPC: 0.3655 cumulative IPC: 0.4923 (Simulation time: 00 hr 05 min 24 sec)
Heartbeat CPU 0 instructions: 58500377 cycles: 30883216 heartbeat IPC: 0.5115 cumulative IPC: 0.4934 (Simulation time: 00 hr 05 min 31 sec)
Heartbeat CPU 0 instructions: 59000384 cycles: 31877625 heartbeat IPC: 0.5028 cumulative IPC: 0.4939 (Simulation time: 00 hr 05 min 37 sec)
Heartbeat CPU 0 instructions: 59500384 cycles: 32565680 heartbeat IPC: 0.7267 cumulative IPC: 0.5024 (Simulation time: 00 hr 05 min 42 sec)
Heartbeat CPU 0 instructions: 60000384 cycles: 33325034 heartbeat IPC: 0.6585 cumulative IPC: 0.5084 (Simulation time: 00 hr 05 min 47 sec)
Heartbeat CPU 0 instructions: 60500391 cycles: 33947631 heartbeat IPC: 0.8031 cumulative IPC: 0.5174 (Simulation time: 00 hr 05 min 52 sec)
Heartbeat CPU 0 instructions: 61000391 cycles: 34251635 heartbeat IPC: 1.645 cumulative IPC: 0.5341 (Simulation time: 00 hr 05 min 55 sec)
Heartbeat CPU 0 instructions: 61500393 cycles: 34511619 heartbeat IPC: 1.923 cumulative IPC: 0.5514 (Simulation time: 00 hr 05 min 57 sec)
Heartbeat CPU 0 instructions: 62000396 cycles: 34764373 heartbeat IPC: 1.978 cumulative IPC: 0.5685 (Simulation time: 00 hr 06 min 00 sec)
Heartbeat CPU 0 instructions: 62500396 cycles: 35156318 heartbeat IPC: 1.276 cumulative IPC: 0.5814 (Simulation time: 00 hr 06 min 03 sec)
Heartbeat CPU 0 instructions: 63000396 cycles: 35557497 heartbeat IPC: 1.246 cumulative IPC: 0.5936 (Simulation time: 00 hr 06 min 06 sec)
Heartbeat CPU 0 instructions: 63500396 cycles: 35945524 heartbeat IPC: 1.289 cumulative IPC: 0.6057 (Simulation time: 00 hr 06 min 09 sec)
Heartbeat CPU 0 instructions: 64000397 cycles: 36406429 heartbeat IPC: 1.085 cumulative IPC: 0.6154 (Simulation time: 00 hr 06 min 13 sec)
Heartbeat CPU 0 instructions: 64500401 cycles: 37136025 heartbeat IPC: 0.6853 cumulative IPC: 0.6175 (Simulation time: 00 hr 06 min 18 sec)
Heartbeat CPU 0 instructions: 65000402 cycles: 37660296 heartbeat IPC: 0.9537 cumulative IPC: 0.6249 (Simulation time: 00 hr 06 min 22 sec)
Heartbeat CPU 0 instructions: 65500402 cycles: 38975641 heartbeat IPC: 0.3801 cumulative IPC: 0.6122 (Simulation time: 00 hr 06 min 30 sec)
Heartbeat CPU 0 instructions: 66000405 cycles: 40984607 heartbeat IPC: 0.2489 cumulative IPC: 0.5855 (Simulation time: 00 hr 06 min 42 sec)
Heartbeat CPU 0 instructions: 66500405 cycles: 42486225 heartbeat IPC: 0.333 cumulative IPC: 0.5723 (Simulation time: 00 hr 06 min 52 sec)
Heartbeat CPU 0 instructions: 67000406 cycles: 43416237 heartbeat IPC: 0.5376 cumulative IPC: 0.5712 (Simulation time: 00 hr 06 min 58 sec)
Heartbeat CPU 0 instructions: 67500409 cycles: 43988310 heartbeat IPC: 0.874 cumulative IPC: 0.5769 (Simulation time: 00 hr 07 min 02 sec)
Heartbeat CPU 0 instructions: 68000416 cycles: 44264595 heartbeat IPC: 1.81 cumulative IPC: 0.5881 (Simulation time: 00 hr 07 min 05 sec)
Heartbeat CPU 0 instructions: 68500416 cycles: 44922765 heartbeat IPC: 0.7597 cumulative IPC: 0.5917 (Simulation time: 00 hr 07 min 09 sec)
Heartbeat CPU 0 instructions: 69000417 cycles: 45523154 heartbeat IPC: 0.8328 cumulative IPC: 0.5962 (Simulation time: 00 hr 07 min 13 sec)
Heartbeat CPU 0 instructions: 69500420 cycles: 45867188 heartbeat IPC: 1.453 cumulative IPC: 0.6054 (Simulation time: 00 hr 07 min 16 sec)
Heartbeat CPU 0 instructions: 70000421 cycles: 46353388 heartbeat IPC: 1.028 cumulative IPC: 0.6117 (Simulation time: 00 hr 07 min 20 sec)
Heartbeat CPU 0 instructions: 70500424 cycles: 48020108 heartbeat IPC: 0.3 cumulative IPC: 0.5965 (Simulation time: 00 hr 07 min 30 sec)
Heartbeat CPU 0 instructions: 71000426 cycles: 49750198 heartbeat IPC: 0.289 cumulative IPC: 0.5818 (Simulation time: 00 hr 07 min 41 sec)
Heartbeat CPU 0 instructions: 71500426 cycles: 52001832 heartbeat IPC: 0.2221 cumulative IPC: 0.5607 (Simulation time: 00 hr 07 min 54 sec)
Heartbeat CPU 0 instructions: 72000426 cycles: 54278445 heartbeat IPC: 0.2196 cumulative IPC: 0.5416 (Simulation time: 00 hr 08 min 07 sec)
Heartbeat CPU 0 instructions: 72500426 cycles: 55372950 heartbeat IPC: 0.4568 cumulative IPC: 0.5393 (Simulation time: 00 hr 08 min 15 sec)
Heartbeat CPU 0 instructions: 73000427 cycles: 56681298 heartbeat IPC: 0.3822 cumulative IPC: 0.5346 (Simulation time: 00 hr 08 min 23 sec)
Heartbeat CPU 0 instructions: 73500427 cycles: 58514909 heartbeat IPC: 0.2727 cumulative IPC: 0.5239 (Simulation time: 00 hr 08 min 35 sec)
Heartbeat CPU 0 instructions: 74000430 cycles: 59850750 heartbeat IPC: 0.3743 cumulative IPC: 0.5195 (Simulation time: 00 hr 08 min 43 sec)
Heartbeat CPU 0 instructions: 74500434 cycles: 60931823 heartbeat IPC: 0.4625 cumulative IPC: 0.5182 (Simulation time: 00 hr 08 min 51 sec)
Heartbeat CPU 0 instructions: 75000437 cycles: 62216425 heartbeat IPC: 0.3892 cumulative IPC: 0.5148 (Simulation time: 00 hr 08 min 59 sec)
Heartbeat CPU 0 instructions: 75500437 cycles: 63230803 heartbeat IPC: 0.4929 cumulative IPC: 0.5144 (Simulation time: 00 hr 09 min 06 sec)
Heartbeat CPU 0 instructions: 76000441 cycles: 64217545 heartbeat IPC: 0.5067 cumulative IPC: 0.5142 (Simulation time: 00 hr 09 min 13 sec)
Heartbeat CPU 0 instructions: 76500445 cycles: 64867881 heartbeat IPC: 0.7688 cumulative IPC: 0.5175 (Simulation time: 00 hr 09 min 19 sec)
Heartbeat CPU 0 instructions: 77000451 cycles: 66958561 heartbeat IPC: 0.2392 cumulative IPC: 0.5065 (Simulation time: 00 hr 09 min 31 sec)
Heartbeat CPU 0 instructions: 77500455 cycles: 69113978 heartbeat IPC: 0.232 cumulative IPC: 0.4959 (Simulation time: 00 hr 09 min 45 sec)
Heartbeat CPU 0 instructions: 78000457 cycles: 70268490 heartbeat IPC: 0.4331 cumulative IPC: 0.4946 (Simulation time: 00 hr 09 min 52 sec)
Heartbeat CPU 0 instructions: 78500457 cycles: 71735838 heartbeat IPC: 0.3408 cumulative IPC: 0.4907 (Simulation time: 00 hr 10 min 01 sec)
Heartbeat CPU 0 instructions: 79000459 cycles: 73055849 heartbeat IPC: 0.3788 cumulative IPC: 0.4882 (Simulation time: 00 hr 10 min 09 sec)
Heartbeat CPU 0 instructions: 79500459 cycles: 74883914 heartbeat IPC: 0.2735 cumulative IPC: 0.4818 (Simulation time: 00 hr 10 min 20 sec)
Heartbeat CPU 0 instructions: 80000459 cycles: 76455264 heartbeat IPC: 0.3182 cumulative IPC: 0.4777 (Simulation time: 00 hr 10 min 30 sec)
Heartbeat CPU 0 instructions: 80500459 cycles: 78402833 heartbeat IPC: 0.2567 cumulative IPC: 0.4711 (Simulation time: 00 hr 10 min 43 sec)
Heartbeat CPU 0 instructions: 81000459 cycles: 79363895 heartbeat IPC: 0.5203 cumulative IPC: 0.4718 (Simulation time: 00 hr 10 min 49 sec)
Heartbeat CPU 0 instructions: 81500461 cycles: 80929899 heartbeat IPC: 0.3193 cumulative IPC: 0.4682 (Simulation time: 00 hr 10 min 59 sec)
Heartbeat CPU 0 instructions: 82000461 cycles: 82824208 heartbeat IPC: 0.2639 cumulative IPC: 0.4626 (Simulation time: 00 hr 11 min 10 sec)
Heartbeat CPU 0 instructions: 82500466 cycles: 84070688 heartbeat IPC: 0.4011 cumulative IPC: 0.4616 (Simulation time: 00 hr 11 min 19 sec)
Heartbeat CPU 0 instructions: 83000466 cycles: 85557229 heartbeat IPC: 0.3364 cumulative IPC: 0.459 (Simulation time: 00 hr 11 min 28 sec)
Heartbeat CPU 0 instructions: 83500470 cycles: 86115352 heartbeat IPC: 0.8959 cumulative IPC: 0.4623 (Simulation time: 00 hr 11 min 32 sec)
Heartbeat CPU 0 instructions: 84000470 cycles: 87011035 heartbeat IPC: 0.5582 cumulative IPC: 0.4635 (Simulation time: 00 hr 11 min 38 sec)
Heartbeat CPU 0 instructions: 84500474 cycles: 87222188 heartbeat IPC: 2.368 cumulative IPC: 0.469 (Simulation time: 00 hr 11 min 40 sec)
Heartbeat CPU 0 instructions: 85000475 cycles: 88152841 heartbeat IPC: 0.5373 cumulative IPC: 0.4698 (Simulation time: 00 hr 11 min 46 sec)
Heartbeat CPU 0 instructions: 85500477 cycles: 89155001 heartbeat IPC: 0.4989 cumulative IPC: 0.4702 (Simulation time: 00 hr 11 min 52 sec)
Heartbeat CPU 0 instructions: 86000477 cycles: 90394571 heartbeat IPC: 0.4034 cumulative IPC: 0.4691 (Simulation time: 00 hr 12 min 01 sec)
Heartbeat CPU 0 instructions: 86500477 cycles: 91818908 heartbeat IPC: 0.351 cumulative IPC: 0.467 (Simulation time: 00 hr 12 min 10 sec)
Heartbeat CPU 0 instructions: 87000477 cycles: 92197062 heartbeat IPC: 1.322 cumulative IPC: 0.4711 (Simulation time: 00 hr 12 min 13 sec)
Heartbeat CPU 0 instructions: 87500478 cycles: 92578590 heartbeat IPC: 1.311 cumulative IPC: 0.4751 (Simulation time: 00 hr 12 min 16 sec)
Heartbeat CPU 0 instructions: 88000479 cycles: 92967314 heartbeat IPC: 1.286 cumulative IPC: 0.4791 (Simulation time: 00 hr 12 min 19 sec)
Heartbeat CPU 0 instructions: 88500480 cycles: 93394193 heartbeat IPC: 1.171 cumulative IPC: 0.4828 (Simulation time: 00 hr 12 min 22 sec)
Heartbeat CPU 0 instructions: 89000485 cycles: 94619001 heartbeat IPC: 0.4082 cumulative IPC: 0.4817 (Simulation time: 00 hr 12 min 30 sec)
Heartbeat CPU 0 instructions: 89500492 cycles: 94979520 heartbeat IPC: 1.387 cumulative IPC: 0.4857 (Simulation time: 00 hr 12 min 33 sec)
Heartbeat CPU 0 instructions: 90000492 cycles: 96287165 heartbeat IPC: 0.3824 cumulative IPC: 0.4841 (Simulation time: 00 hr 12 min 41 sec)
Heartbeat CPU 0 instructions: 90500492 cycles: 98789242 heartbeat IPC: 0.1998 cumulative IPC: 0.4757 (Simulation time: 00 hr 12 min 56 sec)
Heartbeat CPU 0 instructions: 91000497 cycles: 100816783 heartbeat IPC: 0.2466 cumulative IPC: 0.4704 (Simulation time: 00 hr 13 min 08 sec)
Heartbeat CPU 0 instructions: 91500502 cycles: 102242054 heartbeat IPC: 0.3508 cumulative IPC: 0.4685 (Simulation time: 00 hr 13 min 17 sec)
Heartbeat CPU 0 instructions: 92000509 cycles: 103431691 heartbeat IPC: 0.4203 cumulative IPC: 0.4678 (Simulation time: 00 hr 13 min 25 sec)
Heartbeat CPU 0 instructions: 92500510 cycles: 105610931 heartbeat IPC: 0.2294 cumulative IPC: 0.4622 (Simulation time: 00 hr 13 min 37 sec)
Heartbeat CPU 0 instructions: 93000510 cycles: 106622453 heartbeat IPC: 0.4943 cumulative IPC: 0.4625 (Simulation time: 00 hr 13 min 44 sec)
Heartbeat CPU 0 instructions: 93500510 cycles: 108138185 heartbeat IPC: 0.3299 cumulative IPC: 0.4604 (Simulation time: 00 hr 13 min 54 sec)
Heartbeat CPU 0 instructions: 94000510 cycles: 109532634 heartbeat IPC: 0.3586 cumulative IPC: 0.4589 (Simulation time: 00 hr 14 min 02 sec)
Heartbeat CPU 0 instructions: 94500510 cycles: 111123615 heartbeat IPC: 0.3143 cumulative IPC: 0.4566 (Simulation time: 00 hr 14 min 13 sec)
Heartbeat CPU 0 instructions: 95000516 cycles: 111926272 heartbeat IPC: 0.6229 cumulative IPC: 0.4579 (Simulation time: 00 hr 14 min 19 sec)
Heartbeat CPU 0 instructions: 95500520 cycles: 113170692 heartbeat IPC: 0.4018 cumulative IPC: 0.4572 (Simulation time: 00 hr 14 min 27 sec)
Heartbeat CPU 0 instructions: 96000523 cycles: 113992524 heartbeat IPC: 0.6084 cumulative IPC: 0.4585 (Simulation time: 00 hr 14 min 33 sec)
Heartbeat CPU 0 instructions: 96500523 cycles: 114459425 heartbeat IPC: 1.071 cumulative IPC: 0.4613 (Simulation time: 00 hr 14 min 37 sec)
Heartbeat CPU 0 instructions: 97000527 cycles: 114826941 heartbeat IPC: 1.36 cumulative IPC: 0.4646 (Simulation time: 00 hr 14 min 40 sec)
Heartbeat CPU 0 instructions: 97500528 cycles: 115301318 heartbeat IPC: 1.054 cumulative IPC: 0.4673 (Simulation time: 00 hr 14 min 44 sec)
Heartbeat CPU 0 instructions: 98000528 cycles: 115825353 heartbeat IPC: 0.9541 cumulative IPC: 0.4698 (Simulation time: 00 hr 14 min 49 sec)
Heartbeat CPU 0 instructions: 98500528 cycles: 116284082 heartbeat IPC: 1.09 cumulative IPC: 0.4726 (Simulation time: 00 hr 14 min 52 sec)
Heartbeat CPU 0 instructions: 99000530 cycles: 116991041 heartbeat IPC: 0.7073 cumulative IPC: 0.4742 (Simulation time: 00 hr 14 min 58 sec)
Heartbeat CPU 0 instructions: 99500530 cycles: 118604880 heartbeat IPC: 0.3098 cumulative IPC: 0.4717 (Simulation time: 00 hr 15 min 08 sec)
Heartbeat CPU 0 instructions: 100000531 cycles: 119728279 heartbeat IPC: 0.4451 cumulative IPC: 0.4714 (Simulation time: 00 hr 15 min 15 sec)
Heartbeat CPU 0 instructions: 100500538 cycles: 120343842 heartbeat IPC: 0.8123 cumulative IPC: 0.4733 (Simulation time: 00 hr 15 min 20 sec)
Heartbeat CPU 0 instructions: 101000538 cycles: 120822071 heartbeat IPC: 1.046 cumulative IPC: 0.4759 (Simulation time: 00 hr 15 min 24 sec)
Heartbeat CPU 0 instructions: 101500540 cycles: 121224716 heartbeat IPC: 1.242 cumulative IPC: 0.4788 (Simulation time: 00 hr 15 min 27 sec)
Heartbeat CPU 0 instructions: 102000545 cycles: 122217057 heartbeat IPC: 0.5039 cumulative IPC: 0.479 (Simulation time: 00 hr 15 min 34 sec)
Heartbeat CPU 0 instructions: 102500547 cycles: 122512994 heartbeat IPC: 1.69 cumulative IPC: 0.4823 (Simulation time: 00 hr 15 min 36 sec)
Heartbeat CPU 0 instructions: 103000547 cycles: 123025625 heartbeat IPC: 0.9754 cumulative IPC: 0.4846 (Simulation time: 00 hr 15 min 40 sec)
Heartbeat CPU 0 instructions: 103500548 cycles: 123519802 heartbeat IPC: 1.012 cumulative IPC: 0.487 (Simulation time: 00 hr 15 min 44 sec)
Heartbeat CPU 0 instructions: 104000550 cycles: 123957423 heartbeat IPC: 1.143 cumulative IPC: 0.4896 (Simulation time: 00 hr 15 min 48 sec)
Heartbeat CPU 0 instructions: 104500557 cycles: 124511349 heartbeat IPC: 0.9027 cumulative IPC: 0.4916 (Simulation time: 00 hr 15 min 53 sec)
Heartbeat CPU 0 instructions: 105000561 cycles: 126759912 heartbeat IPC: 0.2224 cumulative IPC: 0.4863 (Simulation time: 00 hr 16 min 06 sec)
Heartbeat CPU 0 instructions: 105500562 cycles: 128725163 heartbeat IPC: 0.2544 cumulative IPC: 0.4823 (Simulation time: 00 hr 16 min 18 sec)
Heartbeat CPU 0 instructions: 106000564 cycles: 129488056 heartbeat IPC: 0.6554 cumulative IPC: 0.4835 (Simulation time: 00 hr 16 min 24 sec)
Heartbeat CPU 0 instructions: 106500569 cycles: 130699350 heartbeat IPC: 0.4128 cumulative IPC: 0.4827 (Simulation time: 00 hr 16 min 31 sec)
Heartbeat CPU 0 instructions: 107000569 cycles: 131031539 heartbeat IPC: 1.505 cumulative IPC: 0.4856 (Simulation time: 00 hr 16 min 34 sec)
Heartbeat CPU 0 instructions: 107500569 cycles: 131429810 heartbeat IPC: 1.255 cumulative IPC: 0.4882 (Simulation time: 00 hr 16 min 38 sec)
Heartbeat CPU 0 instructions: 108000576 cycles: 132157545 heartbeat IPC: 0.6871 cumulative IPC: 0.4894 (Simulation time: 00 hr 16 min 43 sec)
Heartbeat CPU 0 instructions: 108500577 cycles: 132853231 heartbeat IPC: 0.7187 cumulative IPC: 0.4908 (Simulation time: 00 hr 16 min 48 sec)
Heartbeat CPU 0 instructions: 109000578 cycles: 133267775 heartbeat IPC: 1.206 cumulative IPC: 0.4933 (Simulation time: 00 hr 16 min 52 sec)
Heartbeat CPU 0 instructions: 109500578 cycles: 135454104 heartbeat IPC: 0.2287 cumulative IPC: 0.4885 (Simulation time: 00 hr 17 min 06 sec)
Heartbeat CPU 0 instructions: 110000580 cycles: 135978258 heartbeat IPC: 0.9539 cumulative IPC: 0.4905 (Simulation time: 00 hr 17 min 10 sec)
Heartbeat CPU 0 instructions: 110500582 cycles: 136334626 heartbeat IPC: 1.403 cumulative IPC: 0.4932 (Simulation time: 00 hr 17 min 13 sec)
Heartbeat CPU 0 instructions: 111000584 cycles: 136938203 heartbeat IPC: 0.8284 cumulative IPC: 0.4948 (Simulation time: 00 hr 17 min 18 sec)
Heartbeat CPU 0 instructions: 111500584 cycles: 137314950 heartbeat IPC: 1.327 cumulative IPC: 0.4973 (Simulation time: 00 hr 17 min 21 sec)
Heartbeat CPU 0 instructions: 112000585 cycles: 138006889 heartbeat IPC: 0.7226 cumulative IPC: 0.4986 (Simulation time: 00 hr 17 min 26 sec)
Heartbeat CPU 0 instructions: 112500588 cycles: 138843299 heartbeat IPC: 0.5978 cumulative IPC: 0.4993 (Simulation time: 00 hr 17 min 32 sec)
Heartbeat CPU 0 instructions: 113000589 cycles: 139471358 heartbeat IPC: 0.7961 cumulative IPC: 0.5007 (Simulation time: 00 hr 17 min 37 sec)
Heartbeat CPU 0 instructions: 113500589 cycles: 140082268 heartbeat IPC: 0.8185 cumulative IPC: 0.5023 (Simulation time: 00 hr 17 min 41 sec)
Heartbeat CPU 0 instructions: 114000592 cycles: 140590136 heartbeat IPC: 0.9845 cumulative IPC: 0.5042 (Simulation time: 00 hr 17 min 45 sec)
Heartbeat CPU 0 instructions: 114500593 cycles: 141247097 heartbeat IPC: 0.7611 cumulative IPC: 0.5055 (Simulation time: 00 hr 17 min 50 sec)
Heartbeat CPU 0 instructions: 115000593 cycles: 141708397 heartbeat IPC: 1.084 cumulative IPC: 0.5076 (Simulation time: 00 hr 17 min 54 sec)
Heartbeat CPU 0 instructions: 115500594 cycles: 142105384 heartbeat IPC: 1.259 cumulative IPC: 0.5099 (Simulation time: 00 hr 17 min 57 sec)
Heartbeat CPU 0 instructions: 116000596 cycles: 142604568 heartbeat IPC: 1.002 cumulative IPC: 0.5118 (Simulation time: 00 hr 18 min 02 sec)
Heartbeat CPU 0 instructions: 116500597 cycles: 143126232 heartbeat IPC: 0.9585 cumulative IPC: 0.5136 (Simulation time: 00 hr 18 min 06 sec)
Heartbeat CPU 0 instructions: 117000598 cycles: 143614825 heartbeat IPC: 1.023 cumulative IPC: 0.5155 (Simulation time: 00 hr 18 min 10 sec)
Heartbeat CPU 0 instructions: 117500602 cycles: 144726301 heartbeat IPC: 0.4499 cumulative IPC: 0.515 (Simulation time: 00 hr 18 min 19 sec)
Heartbeat CPU 0 instructions: 118000606 cycles: 145716007 heartbeat IPC: 0.5052 cumulative IPC: 0.5149 (Simulation time: 00 hr 18 min 25 sec)
Heartbeat CPU 0 instructions: 118500608 cycles: 146517268 heartbeat IPC: 0.624 cumulative IPC: 0.5156 (Simulation time: 00 hr 18 min 31 sec)
Heartbeat CPU 0 instructions: 119000609 cycles: 147079888 heartbeat IPC: 0.8887 cumulative IPC: 0.5171 (Simulation time: 00 hr 18 min 36 sec)
Heartbeat CPU 0 instructions: 119500609 cycles: 147756756 heartbeat IPC: 0.7387 cumulative IPC: 0.5183 (Simulation time: 00 hr 18 min 41 sec)
Heartbeat CPU 0 instructions: 120000610 cycles: 148524577 heartbeat IPC: 0.6512 cumulative IPC: 0.519 (Simulation time: 00 hr 18 min 47 sec)
Heartbeat CPU 0 instructions: 120500614 cycles: 149218086 heartbeat IPC: 0.721 cumulative IPC: 0.5201 (Simulation time: 00 hr 18 min 52 sec)
Heartbeat CPU 0 instructions: 121000614 cycles: 149915771 heartbeat IPC: 0.7167 cumulative IPC: 0.5211 (Simulation time: 00 hr 18 min 57 sec)
Heartbeat CPU 0 instructions: 121500614 cycles: 150386994 heartbeat IPC: 1.061 cumulative IPC: 0.5229 (Simulation time: 00 hr 19 min 01 sec)
Heartbeat CPU 0 instructions: 122000616 cycles: 151064174 heartbeat IPC: 0.7384 cumulative IPC: 0.524 (Simulation time: 00 hr 19 min 07 sec)
Heartbeat CPU 0 instructions: 122500621 cycles: 152079953 heartbeat IPC: 0.4922 cumulative IPC: 0.5238 (Simulation time: 00 hr 19 min 14 sec)
Heartbeat CPU 0 instructions: 123000624 cycles: 153347685 heartbeat IPC: 0.3944 cumulative IPC: 0.5226 (Simulation time: 00 hr 19 min 23 sec)
Heartbeat CPU 0 instructions: 123500627 cycles: 154760205 heartbeat IPC: 0.354 cumulative IPC: 0.5209 (Simulation time: 00 hr 19 min 35 sec)
Heartbeat CPU 0 instructions: 124000630 cycles: 156030148 heartbeat IPC: 0.3937 cumulative IPC: 0.5198 (Simulation time: 00 hr 19 min 45 sec)
Heartbeat CPU 0 instructions: 124500630 cycles: 157283923 heartbeat IPC: 0.3988 cumulative IPC: 0.5187 (Simulation time: 00 hr 19 min 56 sec)
Heartbeat CPU 0 instructions: 125000635 cycles: 158518028 heartbeat IPC: 0.4052 cumulative IPC: 0.5177 (Simulation time: 00 hr 20 min 06 sec)
Heartbeat CPU 0 instructions: 125500636 cycles: 159720230 heartbeat IPC: 0.4159 cumulative IPC: 0.5169 (Simulation time: 00 hr 20 min 16 sec)
Heartbeat CPU 0 instructions: 126000636 cycles: 160928596 heartbeat IPC: 0.4138 cumulative IPC: 0.5161 (Simulation time: 00 hr 20 min 26 sec)
Heartbeat CPU 0 instructions: 126500636 cycles: 161489071 heartbeat IPC: 0.8921 cumulative IPC: 0.5175 (Simulation time: 00 hr 20 min 31 sec)
Heartbeat CPU 0 instructions: 127000636 cycles: 162380230 heartbeat IPC: 0.5611 cumulative IPC: 0.5177 (Simulation time: 00 hr 20 min 37 sec)
Heartbeat CPU 0 instructions: 127500636 cycles: 163197353 heartbeat IPC: 0.6119 cumulative IPC: 0.5183 (Simulation time: 00 hr 20 min 43 sec)
Heartbeat CPU 0 instructions: 128000640 cycles: 163680459 heartbeat IPC: 1.035 cumulative IPC: 0.5199 (Simulation time: 00 hr 20 min 47 sec)
Heartbeat CPU 0 instructions: 128500640 cycles: 164105826 heartbeat IPC: 1.175 cumulative IPC: 0.5218 (Simulation time: 00 hr 20 min 51 sec)
Heartbeat CPU 0 instructions: 129000641 cycles: 164558227 heartbeat IPC: 1.105 cumulative IPC: 0.5235 (Simulation time: 00 hr 20 min 55 sec)
Heartbeat CPU 0 instructions: 129500641 cycles: 165330275 heartbeat IPC: 0.6476 cumulative IPC: 0.5241 (Simulation time: 00 hr 21 min 00 sec)
Heartbeat CPU 0 instructions: 130000641 cycles: 165827946 heartbeat IPC: 1.005 cumulative IPC: 0.5257 (Simulation time: 00 hr 21 min 05 sec)
Heartbeat CPU 0 instructions: 130500647 cycles: 166853187 heartbeat IPC: 0.4877 cumulative IPC: 0.5255 (Simulation time: 00 hr 21 min 12 sec)
Heartbeat CPU 0 instructions: 131000648 cycles: 167441639 heartbeat IPC: 0.8497 cumulative IPC: 0.5267 (Simulation time: 00 hr 21 min 16 sec)
Heartbeat CPU 0 instructions: 131500651 cycles: 167940040 heartbeat IPC: 1.003 cumulative IPC: 0.5282 (Simulation time: 00 hr 21 min 19 sec)
Heartbeat CPU 0 instructions: 132000653 cycles: 168431886 heartbeat IPC: 1.017 cumulative IPC: 0.5298 (Simulation time: 00 hr 21 min 23 sec)
Heartbeat CPU 0 instructions: 132500657 cycles: 168883068 heartbeat IPC: 1.108 cumulative IPC: 0.5315 (Simulation time: 00 hr 21 min 27 sec)
Heartbeat CPU 0 instructions: 133000657 cycles: 169341423 heartbeat IPC: 1.091 cumulative IPC: 0.5331 (Simulation time: 00 hr 21 min 30 sec)
Heartbeat CPU 0 instructions: 133500658 cycles: 169850550 heartbeat IPC: 0.9821 cumulative IPC: 0.5346 (Simulation time: 00 hr 21 min 34 sec)
Heartbeat CPU 0 instructions: 134000658 cycles: 170296169 heartbeat IPC: 1.122 cumulative IPC: 0.5363 (Simulation time: 00 hr 21 min 37 sec)
Heartbeat CPU 0 instructions: 134500662 cycles: 170753963 heartbeat IPC: 1.092 cumulative IPC: 0.5379 (Simulation time: 00 hr 21 min 41 sec)
Heartbeat CPU 0 instructions: 135000663 cycles: 171193449 heartbeat IPC: 1.138 cumulative IPC: 0.5396 (Simulation time: 00 hr 21 min 44 sec)
Heartbeat CPU 0 instructions: 135500663 cycles: 171657251 heartbeat IPC: 1.078 cumulative IPC: 0.5411 (Simulation time: 00 hr 21 min 47 sec)
Heartbeat CPU 0 instructions: 136000664 cycles: 172142852 heartbeat IPC: 1.03 cumulative IPC: 0.5426 (Simulation time: 00 hr 21 min 51 sec)
Heartbeat CPU 0 instructions: 136500666 cycles: 172573525 heartbeat IPC: 1.161 cumulative IPC: 0.5443 (Simulation time: 00 hr 21 min 54 sec)
Heartbeat CPU 0 instructions: 137000667 cycles: 173018364 heartbeat IPC: 1.124 cumulative IPC: 0.5459 (Simulation time: 00 hr 21 min 58 sec)
Heartbeat CPU 0 instructions: 137500668 cycles: 173443566 heartbeat IPC: 1.176 cumulative IPC: 0.5476 (Simulation time: 00 hr 22 min 01 sec)
Heartbeat CPU 0 instructions: 138000668 cycles: 173929258 heartbeat IPC: 1.029 cumulative IPC: 0.5491 (Simulation time: 00 hr 22 min 05 sec)
Heartbeat CPU 0 instructions: 138500668 cycles: 174465035 heartbeat IPC: 0.9332 cumulative IPC: 0.5503 (Simulation time: 00 hr 22 min 09 sec)
Heartbeat CPU 0 instructions: 139000669 cycles: 175000750 heartbeat IPC: 0.9333 cumulative IPC: 0.5516 (Simulation time: 00 hr 22 min 13 sec)
Heartbeat CPU 0 instructions: 139500673 cycles: 175510328 heartbeat IPC: 0.9812 cumulative IPC: 0.553 (Simulation time: 00 hr 22 min 16 sec)
Heartbeat CPU 0 instructions: 140000675 cycles: 175998958 heartbeat IPC: 1.023 cumulative IPC: 0.5544 (Simulation time: 00 hr 22 min 20 sec)
Heartbeat CPU 0 instructions: 140500680 cycles: 176411286 heartbeat IPC: 1.213 cumulative IPC: 0.556 (Simulation time: 00 hr 22 min 23 sec)
Heartbeat CPU 0 instructions: 141000684 cycles: 176874156 heartbeat IPC: 1.08 cumulative IPC: 0.5575 (Simulation time: 00 hr 22 min 27 sec)
Heartbeat CPU 0 instructions: 141500689 cycles: 177336847 heartbeat IPC: 1.081 cumulative IPC: 0.559 (Simulation time: 00 hr 22 min 30 sec)
Heartbeat CPU 0 instructions: 142000693 cycles: 177768131 heartbeat IPC: 1.159 cumulative IPC: 0.5606 (Simulation time: 00 hr 22 min 34 sec)
Heartbeat CPU 0 instructions: 142500696 cycles: 178188271 heartbeat IPC: 1.19 cumulative IPC: 0.5622 (Simulation time: 00 hr 22 min 37 sec)
Heartbeat CPU 0 instructions: 143000698 cycles: 178621893 heartbeat IPC: 1.153 cumulative IPC: 0.5638 (Simulation time: 00 hr 22 min 40 sec)
Heartbeat CPU 0 instructions: 143500703 cycles: 179029847 heartbeat IPC: 1.226 cumulative IPC: 0.5654 (Simulation time: 00 hr 22 min 43 sec)
Heartbeat CPU 0 instructions: 144000703 cycles: 179471674 heartbeat IPC: 1.132 cumulative IPC: 0.5669 (Simulation time: 00 hr 22 min 47 sec)
Heartbeat CPU 0 instructions: 144500707 cycles: 179924141 heartbeat IPC: 1.105 cumulative IPC: 0.5684 (Simulation time: 00 hr 22 min 50 sec)
Heartbeat CPU 0 instructions: 145000707 cycles: 180408593 heartbeat IPC: 1.032 cumulative IPC: 0.5697 (Simulation time: 00 hr 22 min 54 sec)
Heartbeat CPU 0 instructions: 145500712 cycles: 180862614 heartbeat IPC: 1.101 cumulative IPC: 0.5711 (Simulation time: 00 hr 22 min 57 sec)
Heartbeat CPU 0 instructions: 146000719 cycles: 181307297 heartbeat IPC: 1.124 cumulative IPC: 0.5726 (Simulation time: 00 hr 23 min 01 sec)
Heartbeat CPU 0 instructions: 146500720 cycles: 181778756 heartbeat IPC: 1.061 cumulative IPC: 0.574 (Simulation time: 00 hr 23 min 04 sec)
Heartbeat CPU 0 instructions: 147000720 cycles: 182235995 heartbeat IPC: 1.094 cumulative IPC: 0.5754 (Simulation time: 00 hr 23 min 08 sec)
Heartbeat CPU 0 instructions: 147500722 cycles: 182664953 heartbeat IPC: 1.166 cumulative IPC: 0.5769 (Simulation time: 00 hr 23 min 11 sec)
Heartbeat CPU 0 instructions: 148000726 cycles: 183121165 heartbeat IPC: 1.096 cumulative IPC: 0.5783 (Simulation time: 00 hr 23 min 14 sec)
Heartbeat CPU 0 instructions: 148500727 cycles: 183570659 heartbeat IPC: 1.112 cumulative IPC: 0.5797 (Simulation time: 00 hr 23 min 18 sec)
Heartbeat CPU 0 instructions: 149000729 cycles: 184001672 heartbeat IPC: 1.16 cumulative IPC: 0.5812 (Simulation time: 00 hr 23 min 21 sec)
Heartbeat CPU 0 instructions: 149500731 cycles: 184446865 heartbeat IPC: 1.123 cumulative IPC: 0.5826 (Simulation time: 00 hr 23 min 24 sec)
Heartbeat CPU 0 instructions: 150000731 cycles: 184865052 heartbeat IPC: 1.196 cumulative IPC: 0.5841 (Simulation time: 00 hr 23 min 28 sec)
Heartbeat CPU 0 instructions: 150500731 cycles: 185291117 heartbeat IPC: 1.174 cumulative IPC: 0.5855 (Simulation time: 00 hr 23 min 31 sec)
Heartbeat CPU 0 instructions: 151000733 cycles: 185736827 heartbeat IPC: 1.122 cumulative IPC: 0.5869 (Simulation time: 00 hr 23 min 34 sec)
Heartbeat CPU 0 instructions: 151500734 cycles: 186213396 heartbeat IPC: 1.049 cumulative IPC: 0.5882 (Simulation time: 00 hr 23 min 38 sec)
Heartbeat CPU 0 instructions: 152000735 cycles: 186639202 heartbeat IPC: 1.174 cumulative IPC: 0.5897 (Simulation time: 00 hr 23 min 41 sec)
Heartbeat CPU 0 instructions: 152500735 cycles: 187063065 heartbeat IPC: 1.18 cumulative IPC: 0.5911 (Simulation time: 00 hr 23 min 44 sec)
Heartbeat CPU 0 instructions: 153000737 cycles: 187510552 heartbeat IPC: 1.117 cumulative IPC: 0.5924 (Simulation time: 00 hr 23 min 47 sec)
Heartbeat CPU 0 instructions: 153500743 cycles: 187941519 heartbeat IPC: 1.16 cumulative IPC: 0.5939 (Simulation time: 00 hr 23 min 51 sec)
Heartbeat CPU 0 instructions: 154000744 cycles: 188345372 heartbeat IPC: 1.238 cumulative IPC: 0.5953 (Simulation time: 00 hr 23 min 54 sec)
Heartbeat CPU 0 instructions: 154500744 cycles: 188807220 heartbeat IPC: 1.083 cumulative IPC: 0.5966 (Simulation time: 00 hr 23 min 57 sec)
Heartbeat CPU 0 instructions: 155000748 cycles: 189237605 heartbeat IPC: 1.162 cumulative IPC: 0.598 (Simulation time: 00 hr 24 min 01 sec)
Heartbeat CPU 0 instructions: 155500750 cycles: 189654203 heartbeat IPC: 1.2 cumulative IPC: 0.5994 (Simulation time: 00 hr 24 min 04 sec)
Heartbeat CPU 0 instructions: 156000753 cycles: 190090352 heartbeat IPC: 1.146 cumulative IPC: 0.6008 (Simulation time: 00 hr 24 min 07 sec)
Heartbeat CPU 0 instructions: 156500753 cycles: 190510938 heartbeat IPC: 1.189 cumulative IPC: 0.6022 (Simulation time: 00 hr 24 min 10 sec)
Heartbeat CPU 0 instructions: 157000754 cycles: 190953358 heartbeat IPC: 1.13 cumulative IPC: 0.6035 (Simulation time: 00 hr 24 min 14 sec)
Heartbeat CPU 0 instructions: 157500757 cycles: 191440657 heartbeat IPC: 1.026 cumulative IPC: 0.6047 (Simulation time: 00 hr 24 min 17 sec)
Heartbeat CPU 0 instructions: 158000757 cycles: 191871923 heartbeat IPC: 1.159 cumulative IPC: 0.606 (Simulation time: 00 hr 24 min 20 sec)
Heartbeat CPU 0 instructions: 158500763 cycles: 192292879 heartbeat IPC: 1.188 cumulative IPC: 0.6074 (Simulation time: 00 hr 24 min 24 sec)
Heartbeat CPU 0 instructions: 159000765 cycles: 192703530 heartbeat IPC: 1.218 cumulative IPC: 0.6088 (Simulation time: 00 hr 24 min 27 sec)
Heartbeat CPU 0 instructions: 159500765 cycles: 193142555 heartbeat IPC: 1.139 cumulative IPC: 0.6101 (Simulation time: 00 hr 24 min 30 sec)
Heartbeat CPU 0 instructions: 160000770 cycles: 193594417 heartbeat IPC: 1.107 cumulative IPC: 0.6113 (Simulation time: 00 hr 24 min 33 sec)
Heartbeat CPU 0 instructions: 160500774 cycles: 194269936 heartbeat IPC: 0.7402 cumulative IPC: 0.6118 (Simulation time: 00 hr 24 min 38 sec)
Heartbeat CPU 0 instructions: 161000775 cycles: 194816459 heartbeat IPC: 0.9149 cumulative IPC: 0.6127 (Simulation time: 00 hr 24 min 42 sec)
Heartbeat CPU 0 instructions: 161500779 cycles: 195342313 heartbeat IPC: 0.9508 cumulative IPC: 0.6137 (Simulation time: 00 hr 24 min 45 sec)
Heartbeat CPU 0 instructions: 162000779 cycles: 195819903 heartbeat IPC: 1.047 cumulative IPC: 0.6148 (Simulation time: 00 hr 24 min 49 sec)
Heartbeat CPU 0 instructions: 162500786 cycles: 196239707 heartbeat IPC: 1.191 cumulative IPC: 0.6162 (Simulation time: 00 hr 24 min 52 sec)
Heartbeat CPU 0 instructions: 163000788 cycles: 196668546 heartbeat IPC: 1.166 cumulative IPC: 0.6174 (Simulation time: 00 hr 24 min 55 sec)
Heartbeat CPU 0 instructions: 163500791 cycles: 197143299 heartbeat IPC: 1.053 cumulative IPC: 0.6186 (Simulation time: 00 hr 24 min 59 sec)
Heartbeat CPU 0 instructions: 164000792 cycles: 197589010 heartbeat IPC: 1.122 cumulative IPC: 0.6198 (Simulation time: 00 hr 25 min 02 sec)
Heartbeat CPU 0 instructions: 164500792 cycles: 198024790 heartbeat IPC: 1.147 cumulative IPC: 0.621 (Simulation time: 00 hr 25 min 05 sec)
Heartbeat CPU 0 instructions: 165000795 cycles: 198462576 heartbeat IPC: 1.142 cumulative IPC: 0.6223 (Simulation time: 00 hr 25 min 08 sec)
Heartbeat CPU 0 instructions: 165500796 cycles: 198893679 heartbeat IPC: 1.16 cumulative IPC: 0.6235 (Simulation time: 00 hr 25 min 12 sec)
Heartbeat CPU 0 instructions: 166000797 cycles: 199349890 heartbeat IPC: 1.096 cumulative IPC: 0.6247 (Simulation time: 00 hr 25 min 15 sec)
Heartbeat CPU 0 instructions: 166500802 cycles: 199770448 heartbeat IPC: 1.189 cumulative IPC: 0.626 (Simulation time: 00 hr 25 min 18 sec)
Heartbeat CPU 0 instructions: 167000803 cycles: 200294397 heartbeat IPC: 0.9543 cumulative IPC: 0.6269 (Simulation time: 00 hr 25 min 22 sec)
Heartbeat CPU 0 instructions: 167500807 cycles: 200766182 heartbeat IPC: 1.06 cumulative IPC: 0.628 (Simulation time: 00 hr 25 min 25 sec)
Heartbeat CPU 0 instructions: 168000814 cycles: 201200071 heartbeat IPC: 1.152 cumulative IPC: 0.6292 (Simulation time: 00 hr 25 min 28 sec)
Heartbeat CPU 0 instructions: 168500814 cycles: 201620385 heartbeat IPC: 1.19 cumulative IPC: 0.6304 (Simulation time: 00 hr 25 min 32 sec)
Heartbeat CPU 0 instructions: 169000817 cycles: 202045969 heartbeat IPC: 1.175 cumulative IPC: 0.6317 (Simulation time: 00 hr 25 min 35 sec)
Heartbeat CPU 0 instructions: 169500818 cycles: 202508248 heartbeat IPC: 1.082 cumulative IPC: 0.6328 (Simulation time: 00 hr 25 min 38 sec)
Heartbeat CPU 0 instructions: 170000824 cycles: 202960532 heartbeat IPC: 1.106 cumulative IPC: 0.6339 (Simulation time: 00 hr 25 min 41 sec)
Heartbeat CPU 0 instructions: 170500831 cycles: 203386652 heartbeat IPC: 1.173 cumulative IPC: 0.6351 (Simulation time: 00 hr 25 min 45 sec)
Heartbeat CPU 0 instructions: 171000831 cycles: 203821897 heartbeat IPC: 1.149 cumulative IPC: 0.6363 (Simulation time: 00 hr 25 min 48 sec)
Heartbeat CPU 0 instructions: 171500831 cycles: 204236809 heartbeat IPC: 1.205 cumulative IPC: 0.6375 (Simulation time: 00 hr 25 min 51 sec)
Heartbeat CPU 0 instructions: 172000832 cycles: 204689223 heartbeat IPC: 1.105 cumulative IPC: 0.6386 (Simulation time: 00 hr 25 min 54 sec)
Heartbeat CPU 0 instructions: 172500833 cycles: 205097595 heartbeat IPC: 1.224 cumulative IPC: 0.6399 (Simulation time: 00 hr 25 min 57 sec)
Heartbeat CPU 0 instructions: 173000834 cycles: 205520147 heartbeat IPC: 1.183 cumulative IPC: 0.6411 (Simulation time: 00 hr 26 min 00 sec)
Heartbeat CPU 0 instructions: 173500834 cycles: 205951382 heartbeat IPC: 1.159 cumulative IPC: 0.6422 (Simulation time: 00 hr 26 min 03 sec)
Heartbeat CPU 0 instructions: 174000834 cycles: 206360458 heartbeat IPC: 1.222 cumulative IPC: 0.6435 (Simulation time: 00 hr 26 min 07 sec)
Heartbeat CPU 0 instructions: 174500835 cycles: 206833256 heartbeat IPC: 1.058 cumulative IPC: 0.6445 (Simulation time: 00 hr 26 min 10 sec)
Heartbeat CPU 0 instructions: 175000835 cycles: 207250914 heartbeat IPC: 1.197 cumulative IPC: 0.6457 (Simulation time: 00 hr 26 min 13 sec)
Heartbeat CPU 0 instructions: 175500840 cycles: 207698557 heartbeat IPC: 1.117 cumulative IPC: 0.6468 (Simulation time: 00 hr 26 min 16 sec)
Heartbeat CPU 0 instructions: 176000840 cycles: 208116600 heartbeat IPC: 1.196 cumulative IPC: 0.6479 (Simulation time: 00 hr 26 min 19 sec)
Heartbeat CPU 0 instructions: 176500840 cycles: 208578001 heartbeat IPC: 1.084 cumulative IPC: 0.649 (Simulation time: 00 hr 26 min 23 sec)
Heartbeat CPU 0 instructions: 177000840 cycles: 208994236 heartbeat IPC: 1.201 cumulative IPC: 0.6502 (Simulation time: 00 hr 26 min 26 sec)
Heartbeat CPU 0 instructions: 177500845 cycles: 209449221 heartbeat IPC: 1.099 cumulative IPC: 0.6512 (Simulation time: 00 hr 26 min 29 sec)
Heartbeat CPU 0 instructions: 178000847 cycles: 209894863 heartbeat IPC: 1.122 cumulative IPC: 0.6523 (Simulation time: 00 hr 26 min 32 sec)
Heartbeat CPU 0 instructions: 178500852 cycles: 210298029 heartbeat IPC: 1.24 cumulative IPC: 0.6535 (Simulation time: 00 hr 26 min 35 sec)
Heartbeat CPU 0 instructions: 179000854 cycles: 210732730 heartbeat IPC: 1.15 cumulative IPC: 0.6546 (Simulation time: 00 hr 26 min 38 sec)
Heartbeat CPU 0 instructions: 179500855 cycles: 211189239 heartbeat IPC: 1.095 cumulative IPC: 0.6556 (Simulation time: 00 hr 26 min 42 sec)
Heartbeat CPU 0 instructions: 180000855 cycles: 211602994 heartbeat IPC: 1.208 cumulative IPC: 0.6567 (Simulation time: 00 hr 26 min 45 sec)
Heartbeat CPU 0 instructions: 180500859 cycles: 212046232 heartbeat IPC: 1.128 cumulative IPC: 0.6578 (Simulation time: 00 hr 26 min 48 sec)
Heartbeat CPU 0 instructions: 181000859 cycles: 212545988 heartbeat IPC: 1 cumulative IPC: 0.6587 (Simulation time: 00 hr 26 min 51 sec)
Heartbeat CPU 0 instructions: 181500859 cycles: 212982636 heartbeat IPC: 1.145 cumulative IPC: 0.6597 (Simulation time: 00 hr 26 min 54 sec)
Heartbeat CPU 0 instructions: 182000862 cycles: 213394498 heartbeat IPC: 1.214 cumulative IPC: 0.6609 (Simulation time: 00 hr 26 min 58 sec)
Heartbeat CPU 0 instructions: 182500862 cycles: 213830519 heartbeat IPC: 1.147 cumulative IPC: 0.6619 (Simulation time: 00 hr 27 min 01 sec)
Heartbeat CPU 0 instructions: 183000866 cycles: 214249959 heartbeat IPC: 1.192 cumulative IPC: 0.663 (Simulation time: 00 hr 27 min 04 sec)
Heartbeat CPU 0 instructions: 183500866 cycles: 214696358 heartbeat IPC: 1.12 cumulative IPC: 0.664 (Simulation time: 00 hr 27 min 07 sec)
Heartbeat CPU 0 instructions: 184000866 cycles: 215109304 heartbeat IPC: 1.211 cumulative IPC: 0.6652 (Simulation time: 00 hr 27 min 10 sec)
Heartbeat CPU 0 instructions: 184500866 cycles: 215534589 heartbeat IPC: 1.176 cumulative IPC: 0.6662 (Simulation time: 00 hr 27 min 13 sec)
Heartbeat CPU 0 instructions: 185000867 cycles: 215980394 heartbeat IPC: 1.122 cumulative IPC: 0.6672 (Simulation time: 00 hr 27 min 16 sec)
Heartbeat CPU 0 instructions: 185500868 cycles: 216390354 heartbeat IPC: 1.22 cumulative IPC: 0.6684 (Simulation time: 00 hr 27 min 19 sec)
Heartbeat CPU 0 instructions: 186000870 cycles: 216816731 heartbeat IPC: 1.173 cumulative IPC: 0.6694 (Simulation time: 00 hr 27 min 22 sec)
Heartbeat CPU 0 instructions: 186500876 cycles: 217248081 heartbeat IPC: 1.159 cumulative IPC: 0.6705 (Simulation time: 00 hr 27 min 26 sec)
Heartbeat CPU 0 instructions: 187000876 cycles: 217669868 heartbeat IPC: 1.185 cumulative IPC: 0.6715 (Simulation time: 00 hr 27 min 29 sec)
Heartbeat CPU 0 instructions: 187500880 cycles: 218131880 heartbeat IPC: 1.082 cumulative IPC: 0.6725 (Simulation time: 00 hr 27 min 32 sec)
Heartbeat CPU 0 instructions: 188000883 cycles: 218578258 heartbeat IPC: 1.12 cumulative IPC: 0.6734 (Simulation time: 00 hr 27 min 35 sec)
Heartbeat CPU 0 instructions: 188500883 cycles: 219007291 heartbeat IPC: 1.165 cumulative IPC: 0.6745 (Simulation time: 00 hr 27 min 38 sec)
Heartbeat CPU 0 instructions: 189000884 cycles: 219448810 heartbeat IPC: 1.132 cumulative IPC: 0.6754 (Simulation time: 00 hr 27 min 41 sec)
Heartbeat CPU 0 instructions: 189500885 cycles: 219868843 heartbeat IPC: 1.19 cumulative IPC: 0.6765 (Simulation time: 00 hr 27 min 44 sec)
Heartbeat CPU 0 instructions: 190000886 cycles: 220274030 heartbeat IPC: 1.234 cumulative IPC: 0.6776 (Simulation time: 00 hr 27 min 47 sec)
Heartbeat CPU 0 instructions: 190500886 cycles: 220709400 heartbeat IPC: 1.148 cumulative IPC: 0.6786 (Simulation time: 00 hr 27 min 51 sec)
Heartbeat CPU 0 instructions: 191000889 cycles: 221168994 heartbeat IPC: 1.088 cumulative IPC: 0.6795 (Simulation time: 00 hr 27 min 54 sec)
Heartbeat CPU 0 instructions: 191500891 cycles: 221575706 heartbeat IPC: 1.229 cumulative IPC: 0.6806 (Simulation time: 00 hr 27 min 57 sec)
Heartbeat CPU 0 instructions: 192000892 cycles: 222007214 heartbeat IPC: 1.159 cumulative IPC: 0.6815 (Simulation time: 00 hr 28 min 00 sec)
Heartbeat CPU 0 instructions: 192500892 cycles: 222449646 heartbeat IPC: 1.13 cumulative IPC: 0.6825 (Simulation time: 00 hr 28 min 03 sec)
Heartbeat CPU 0 instructions: 193000892 cycles: 222866887 heartbeat IPC: 1.198 cumulative IPC: 0.6835 (Simulation time: 00 hr 28 min 06 sec)
Heartbeat CPU 0 instructions: 193500894 cycles: 223320067 heartbeat IPC: 1.103 cumulative IPC: 0.6844 (Simulation time: 00 hr 28 min 09 sec)
Heartbeat CPU 0 instructions: 194000895 cycles: 223765930 heartbeat IPC: 1.121 cumulative IPC: 0.6854 (Simulation time: 00 hr 28 min 12 sec)
Heartbeat CPU 0 instructions: 194500895 cycles: 224175666 heartbeat IPC: 1.22 cumulative IPC: 0.6864 (Simulation time: 00 hr 28 min 15 sec)
Heartbeat CPU 0 instructions: 195000896 cycles: 224620114 heartbeat IPC: 1.125 cumulative IPC: 0.6873 (Simulation time: 00 hr 28 min 19 sec)
Heartbeat CPU 0 instructions: 195500898 cycles: 225051088 heartbeat IPC: 1.16 cumulative IPC: 0.6883 (Simulation time: 00 hr 28 min 22 sec)
Heartbeat CPU 0 instructions: 196000898 cycles: 225464594 heartbeat IPC: 1.209 cumulative IPC: 0.6893 (Simulation time: 00 hr 28 min 25 sec)
Heartbeat CPU 0 instructions: 196500898 cycles: 225881392 heartbeat IPC: 1.2 cumulative IPC: 0.6903 (Simulation time: 00 hr 28 min 28 sec)
Heartbeat CPU 0 instructions: 197000901 cycles: 226313584 heartbeat IPC: 1.157 cumulative IPC: 0.6913 (Simulation time: 00 hr 28 min 31 sec)
Heartbeat CPU 0 instructions: 197500902 cycles: 226740098 heartbeat IPC: 1.172 cumulative IPC: 0.6922 (Simulation time: 00 hr 28 min 34 sec)
Heartbeat CPU 0 instructions: 198000903 cycles: 227172423 heartbeat IPC: 1.157 cumulative IPC: 0.6932 (Simulation time: 00 hr 28 min 37 sec)
Heartbeat CPU 0 instructions: 198500910 cycles: 227576570 heartbeat IPC: 1.237 cumulative IPC: 0.6942 (Simulation time: 00 hr 28 min 40 sec)
Heartbeat CPU 0 instructions: 199000914 cycles: 228004452 heartbeat IPC: 1.169 cumulative IPC: 0.6951 (Simulation time: 00 hr 28 min 43 sec)
Heartbeat CPU 0 instructions: 199500921 cycles: 228408589 heartbeat IPC: 1.237 cumulative IPC: 0.6962 (Simulation time: 00 hr 28 min 46 sec)
Heartbeat CPU 0 instructions: 200000922 cycles: 228816749 heartbeat IPC: 1.225 cumulative IPC: 0.6972 (Simulation time: 00 hr 28 min 49 sec)
Heartbeat CPU 0 instructions: 200500922 cycles: 229244386 heartbeat IPC: 1.169 cumulative IPC: 0.6981 (Simulation time: 00 hr 28 min 52 sec)
Heartbeat CPU 0 instructions: 201000925 cycles: 229669949 heartbeat IPC: 1.175 cumulative IPC: 0.699 (Simulation time: 00 hr 28 min 55 sec)
Heartbeat CPU 0 instructions: 201500925 cycles: 230085765 heartbeat IPC: 1.202 cumulative IPC: 0.7 (Simulation time: 00 hr 28 min 58 sec)
Heartbeat CPU 0 instructions: 202000930 cycles: 230556126 heartbeat IPC: 1.063 cumulative IPC: 0.7008 (Simulation time: 00 hr 29 min 01 sec)
Heartbeat CPU 0 instructions: 202500930 cycles: 231034673 heartbeat IPC: 1.045 cumulative IPC: 0.7015 (Simulation time: 00 hr 29 min 05 sec)
Heartbeat CPU 0 instructions: 203000932 cycles: 232356898 heartbeat IPC: 0.3782 cumulative IPC: 0.6996 (Simulation time: 00 hr 29 min 12 sec)
Heartbeat CPU 0 instructions: 203500937 cycles: 232752031 heartbeat IPC: 1.265 cumulative IPC: 0.7006 (Simulation time: 00 hr 29 min 15 sec)
Heartbeat CPU 0 instructions: 204000944 cycles: 233445058 heartbeat IPC: 0.7215 cumulative IPC: 0.7007 (Simulation time: 00 hr 29 min 20 sec)
Heartbeat CPU 0 instructions: 204500949 cycles: 234215900 heartbeat IPC: 0.6486 cumulative IPC: 0.7005 (Simulation time: 00 hr 29 min 24 sec)
Heartbeat CPU 0 instructions: 205000949 cycles: 234743070 heartbeat IPC: 0.9485 cumulative IPC: 0.7011 (Simulation time: 00 hr 29 min 28 sec)
Heartbeat CPU 0 instructions: 205500952 cycles: 235191789 heartbeat IPC: 1.114 cumulative IPC: 0.7019 (Simulation time: 00 hr 29 min 31 sec)
Heartbeat CPU 0 instructions: 206000955 cycles: 235705700 heartbeat IPC: 0.9729 cumulative IPC: 0.7025 (Simulation time: 00 hr 29 min 35 sec)
Heartbeat CPU 0 instructions: 206500956 cycles: 236063643 heartbeat IPC: 1.397 cumulative IPC: 0.7037 (Simulation time: 00 hr 29 min 38 sec)
Heartbeat CPU 0 instructions: 207000956 cycles: 236518125 heartbeat IPC: 1.1 cumulative IPC: 0.7045 (Simulation time: 00 hr 29 min 41 sec)
Heartbeat CPU 0 instructions: 207500956 cycles: 236858342 heartbeat IPC: 1.47 cumulative IPC: 0.7056 (Simulation time: 00 hr 29 min 44 sec)
Heartbeat CPU 0 instructions: 208000959 cycles: 237237854 heartbeat IPC: 1.317 cumulative IPC: 0.7067 (Simulation time: 00 hr 29 min 47 sec)
Heartbeat CPU 0 instructions: 208500961 cycles: 237640688 heartbeat IPC: 1.241 cumulative IPC: 0.7076 (Simulation time: 00 hr 29 min 50 sec)
Heartbeat CPU 0 instructions: 209000961 cycles: 238004555 heartbeat IPC: 1.374 cumulative IPC: 0.7087 (Simulation time: 00 hr 29 min 53 sec)
Heartbeat CPU 0 instructions: 209500962 cycles: 238358678 heartbeat IPC: 1.412 cumulative IPC: 0.7098 (Simulation time: 00 hr 29 min 55 sec)
Heartbeat CPU 0 instructions: 210000963 cycles: 239041144 heartbeat IPC: 0.7326 cumulative IPC: 0.7099 (Simulation time: 00 hr 30 min 00 sec)
Heartbeat CPU 0 instructions: 210500967 cycles: 240766506 heartbeat IPC: 0.2898 cumulative IPC: 0.7067 (Simulation time: 00 hr 30 min 10 sec)
Heartbeat CPU 0 instructions: 211000968 cycles: 241130010 heartbeat IPC: 1.376 cumulative IPC: 0.7078 (Simulation time: 00 hr 30 min 12 sec)
Heartbeat CPU 0 instructions: 211500969 cycles: 242014882 heartbeat IPC: 0.5651 cumulative IPC: 0.7072 (Simulation time: 00 hr 30 min 18 sec)
Heartbeat CPU 0 instructions: 212000969 cycles: 242406832 heartbeat IPC: 1.276 cumulative IPC: 0.7082 (Simulation time: 00 hr 30 min 21 sec)
Heartbeat CPU 0 instructions: 212500969 cycles: 243779617 heartbeat IPC: 0.3642 cumulative IPC: 0.7061 (Simulation time: 00 hr 30 min 29 sec)
Heartbeat CPU 0 instructions: 213000969 cycles: 245414764 heartbeat IPC: 0.3058 cumulative IPC: 0.7033 (Simulation time: 00 hr 30 min 38 sec)
Heartbeat CPU 0 instructions: 213500971 cycles: 246715446 heartbeat IPC: 0.3844 cumulative IPC: 0.7015 (Simulation time: 00 hr 30 min 46 sec)
Heartbeat CPU 0 instructions: 214000974 cycles: 247095653 heartbeat IPC: 1.315 cumulative IPC: 0.7025 (Simulation time: 00 hr 30 min 49 sec)
Heartbeat CPU 0 instructions: 214500977 cycles: 248468941 heartbeat IPC: 0.3641 cumulative IPC: 0.7006 (Simulation time: 00 hr 30 min 57 sec)
Heartbeat CPU 0 instructions: 215000982 cycles: 249239591 heartbeat IPC: 0.6488 cumulative IPC: 0.7004 (Simulation time: 00 hr 31 min 02 sec)
Heartbeat CPU 0 instructions: 215500983 cycles: 250257021 heartbeat IPC: 0.4914 cumulative IPC: 0.6995 (Simulation time: 00 hr 31 min 08 sec)
Heartbeat CPU 0 instructions: 216000986 cycles: 252114515 heartbeat IPC: 0.2692 cumulative IPC: 0.6961 (Simulation time: 00 hr 31 min 18 sec)
Heartbeat CPU 0 instructions: 216500990 cycles: 252602387 heartbeat IPC: 1.025 cumulative IPC: 0.6968 (Simulation time: 00 hr 31 min 21 sec)
Heartbeat CPU 0 instructions: 217000992 cycles: 253231776 heartbeat IPC: 0.7944 cumulative IPC: 0.6971 (Simulation time: 00 hr 31 min 25 sec)
Heartbeat CPU 0 instructions: 217500996 cycles: 255229735 heartbeat IPC: 0.2503 cumulative IPC: 0.6934 (Simulation time: 00 hr 31 min 36 sec)
Heartbeat CPU 0 instructions: 218001000 cycles: 255878146 heartbeat IPC: 0.7711 cumulative IPC: 0.6936 (Simulation time: 00 hr 31 min 40 sec)
Heartbeat CPU 0 instructions: 218501003 cycles: 256222925 heartbeat IPC: 1.45 cumulative IPC: 0.6947 (Simulation time: 00 hr 31 min 42 sec)
Heartbeat CPU 0 instructions: 219001009 cycles: 256607567 heartbeat IPC: 1.3 cumulative IPC: 0.6956 (Simulation time: 00 hr 31 min 45 sec)
Heartbeat CPU 0 instructions: 219501011 cycles: 257095209 heartbeat IPC: 1.025 cumulative IPC: 0.6963 (Simulation time: 00 hr 31 min 49 sec)
Heartbeat CPU 0 instructions: 220001011 cycles: 258237414 heartbeat IPC: 0.4377 cumulative IPC: 0.6951 (Simulation time: 00 hr 31 min 55 sec)
Heartbeat CPU 0 instructions: 220501011 cycles: 258621158 heartbeat IPC: 1.303 cumulative IPC: 0.696 (Simulation time: 00 hr 31 min 58 sec)
Heartbeat CPU 0 instructions: 221001015 cycles: 259007458 heartbeat IPC: 1.294 cumulative IPC: 0.697 (Simulation time: 00 hr 32 min 00 sec)
Heartbeat CPU 0 instructions: 221501016 cycles: 259330561 heartbeat IPC: 1.547 cumulative IPC: 0.6981 (Simulation time: 00 hr 32 min 03 sec)
Heartbeat CPU 0 instructions: 222001017 cycles: 261006114 heartbeat IPC: 0.2984 cumulative IPC: 0.6954 (Simulation time: 00 hr 32 min 12 sec)
Heartbeat CPU 0 instructions: 222501017 cycles: 262015485 heartbeat IPC: 0.4954 cumulative IPC: 0.6946 (Simulation time: 00 hr 32 min 18 sec)
Heartbeat CPU 0 instructions: 223001024 cycles: 263614565 heartbeat IPC: 0.3127 cumulative IPC: 0.6921 (Simulation time: 00 hr 32 min 27 sec)
Heartbeat CPU 0 instructions: 223501025 cycles: 265219375 heartbeat IPC: 0.3116 cumulative IPC: 0.6897 (Simulation time: 00 hr 32 min 36 sec)
Heartbeat CPU 0 instructions: 224001025 cycles: 265862789 heartbeat IPC: 0.7771 cumulative IPC: 0.6899 (Simulation time: 00 hr 32 min 40 sec)
Heartbeat CPU 0 instructions: 224501026 cycles: 266206212 heartbeat IPC: 1.456 cumulative IPC: 0.691 (Simulation time: 00 hr 32 min 42 sec)
Heartbeat CPU 0 instructions: 225001026 cycles: 266504116 heartbeat IPC: 1.678 cumulative IPC: 0.6921 (Simulation time: 00 hr 32 min 44 sec)
Heartbeat CPU 0 instructions: 225501026 cycles: 267331265 heartbeat IPC: 0.6045 cumulative IPC: 0.6918 (Simulation time: 00 hr 32 min 50 sec)
Heartbeat CPU 0 instructions: 226001028 cycles: 267688644 heartbeat IPC: 1.399 cumulative IPC: 0.6928 (Simulation time: 00 hr 32 min 52 sec)
Heartbeat CPU 0 instructions: 226501031 cycles: 268406027 heartbeat IPC: 0.697 cumulative IPC: 0.6928 (Simulation time: 00 hr 32 min 56 sec)
Heartbeat CPU 0 instructions: 227001031 cycles: 270043289 heartbeat IPC: 0.3054 cumulative IPC: 0.6904 (Simulation time: 00 hr 33 min 06 sec)
Heartbeat CPU 0 instructions: 227501031 cycles: 271821449 heartbeat IPC: 0.2812 cumulative IPC: 0.6875 (Simulation time: 00 hr 33 min 15 sec)
Heartbeat CPU 0 instructions: 228001032 cycles: 273053866 heartbeat IPC: 0.4057 cumulative IPC: 0.6862 (Simulation time: 00 hr 33 min 23 sec)
Heartbeat CPU 0 instructions: 228501032 cycles: 274084103 heartbeat IPC: 0.4853 cumulative IPC: 0.6854 (Simulation time: 00 hr 33 min 28 sec)
Heartbeat CPU 0 instructions: 229001039 cycles: 275287470 heartbeat IPC: 0.4155 cumulative IPC: 0.6842 (Simulation time: 00 hr 33 min 35 sec)
Heartbeat CPU 0 instructions: 229501041 cycles: 277179142 heartbeat IPC: 0.2643 cumulative IPC: 0.6812 (Simulation time: 00 hr 33 min 45 sec)
Heartbeat CPU 0 instructions: 230001047 cycles: 279237957 heartbeat IPC: 0.2429 cumulative IPC: 0.6778 (Simulation time: 00 hr 33 min 56 sec)
Heartbeat CPU 0 instructions: 230501051 cycles: 279992405 heartbeat IPC: 0.6627 cumulative IPC: 0.6777 (Simulation time: 00 hr 34 min 01 sec)
Heartbeat CPU 0 instructions: 231001051 cycles: 280184233 heartbeat IPC: 2.607 cumulative IPC: 0.6791 (Simulation time: 00 hr 34 min 03 sec)
Heartbeat CPU 0 instructions: 231501055 cycles: 280452255 heartbeat IPC: 1.866 cumulative IPC: 0.6803 (Simulation time: 00 hr 34 min 05 sec)
Heartbeat CPU 0 instructions: 232001055 cycles: 280671854 heartbeat IPC: 2.277 cumulative IPC: 0.6816 (Simulation time: 00 hr 34 min 08 sec)
Heartbeat CPU 0 instructions: 232501057 cycles: 281051033 heartbeat IPC: 1.319 cumulative IPC: 0.6825 (Simulation time: 00 hr 34 min 11 sec)
Heartbeat CPU 0 instructions: 233001063 cycles: 282669783 heartbeat IPC: 0.3089 cumulative IPC: 0.6803 (Simulation time: 00 hr 34 min 20 sec)
Heartbeat CPU 0 instructions: 233501066 cycles: 284647769 heartbeat IPC: 0.2528 cumulative IPC: 0.6771 (Simulation time: 00 hr 34 min 31 sec)
Heartbeat CPU 0 instructions: 234001071 cycles: 286589118 heartbeat IPC: 0.2576 cumulative IPC: 0.6742 (Simulation time: 00 hr 34 min 42 sec)
Heartbeat CPU 0 instructions: 234501076 cycles: 287246683 heartbeat IPC: 0.7604 cumulative IPC: 0.6744 (Simulation time: 00 hr 34 min 47 sec)
Heartbeat CPU 0 instructions: 235001081 cycles: 289038960 heartbeat IPC: 0.279 cumulative IPC: 0.6718 (Simulation time: 00 hr 34 min 57 sec)
Heartbeat CPU 0 instructions: 235501081 cycles: 290044517 heartbeat IPC: 0.4972 cumulative IPC: 0.6712 (Simulation time: 00 hr 35 min 03 sec)
Heartbeat CPU 0 instructions: 236001081 cycles: 290328917 heartbeat IPC: 1.758 cumulative IPC: 0.6723 (Simulation time: 00 hr 35 min 05 sec)
Heartbeat CPU 0 instructions: 236501081 cycles: 291741986 heartbeat IPC: 0.3538 cumulative IPC: 0.6707 (Simulation time: 00 hr 35 min 13 sec)
Heartbeat CPU 0 instructions: 237001084 cycles: 293885545 heartbeat IPC: 0.2333 cumulative IPC: 0.6673 (Simulation time: 00 hr 35 min 24 sec)
Heartbeat CPU 0 instructions: 237501084 cycles: 295024005 heartbeat IPC: 0.4392 cumulative IPC: 0.6664 (Simulation time: 00 hr 35 min 31 sec)
Heartbeat CPU 0 instructions: 238001088 cycles: 296703862 heartbeat IPC: 0.2976 cumulative IPC: 0.6642 (Simulation time: 00 hr 35 min 40 sec)
Heartbeat CPU 0 instructions: 238501089 cycles: 297424022 heartbeat IPC: 0.6943 cumulative IPC: 0.6643 (Simulation time: 00 hr 35 min 45 sec)
Heartbeat CPU 0 instructions: 239001089 cycles: 298689050 heartbeat IPC: 0.3952 cumulative IPC: 0.6631 (Simulation time: 00 hr 35 min 53 sec)
Heartbeat CPU 0 instructions: 239501092 cycles: 300133114 heartbeat IPC: 0.3462 cumulative IPC: 0.6615 (Simulation time: 00 hr 36 min 01 sec)
Heartbeat CPU 0 instructions: 240001096 cycles: 302381547 heartbeat IPC: 0.2224 cumulative IPC: 0.6581 (Simulation time: 00 hr 36 min 13 sec)
Heartbeat CPU 0 instructions: 240501096 cycles: 303933753 heartbeat IPC: 0.3221 cumulative IPC: 0.6563 (Simulation time: 00 hr 36 min 21 sec)
Heartbeat CPU 0 instructions: 241001098 cycles: 305536630 heartbeat IPC: 0.3119 cumulative IPC: 0.6544 (Simulation time: 00 hr 36 min 30 sec)
Heartbeat CPU 0 instructions: 241501102 cycles: 306334318 heartbeat IPC: 0.6268 cumulative IPC: 0.6543 (Simulation time: 00 hr 36 min 35 sec)
Heartbeat CPU 0 instructions: 242001103 cycles: 307623534 heartbeat IPC: 0.3878 cumulative IPC: 0.6531 (Simulation time: 00 hr 36 min 43 sec)
Heartbeat CPU 0 instructions: 242501103 cycles: 308847306 heartbeat IPC: 0.4086 cumulative IPC: 0.6521 (Simulation time: 00 hr 36 min 50 sec)
Heartbeat CPU 0 instructions: 243001110 cycles: 309782088 heartbeat IPC: 0.5349 cumulative IPC: 0.6518 (Simulation time: 00 hr 36 min 55 sec)
Heartbeat CPU 0 instructions: 243501110 cycles: 310875156 heartbeat IPC: 0.4574 cumulative IPC: 0.651 (Simulation time: 00 hr 37 min 03 sec)
Heartbeat CPU 0 instructions: 244001110 cycles: 311920328 heartbeat IPC: 0.4784 cumulative IPC: 0.6504 (Simulation time: 00 hr 37 min 09 sec)
Heartbeat CPU 0 instructions: 244501110 cycles: 313543158 heartbeat IPC: 0.3081 cumulative IPC: 0.6486 (Simulation time: 00 hr 37 min 18 sec)
Heartbeat CPU 0 instructions: 245001112 cycles: 314277928 heartbeat IPC: 0.6805 cumulative IPC: 0.6487 (Simulation time: 00 hr 37 min 23 sec)
Heartbeat CPU 0 instructions: 245501116 cycles: 315039741 heartbeat IPC: 0.6563 cumulative IPC: 0.6487 (Simulation time: 00 hr 37 min 28 sec)
Heartbeat CPU 0 instructions: 246001122 cycles: 315627150 heartbeat IPC: 0.8512 cumulative IPC: 0.6491 (Simulation time: 00 hr 37 min 32 sec)
Heartbeat CPU 0 instructions: 246501122 cycles: 317077018 heartbeat IPC: 0.3449 cumulative IPC: 0.6476 (Simulation time: 00 hr 37 min 41 sec)
Heartbeat CPU 0 instructions: 247001123 cycles: 317788582 heartbeat IPC: 0.7027 cumulative IPC: 0.6477 (Simulation time: 00 hr 37 min 45 sec)
Heartbeat CPU 0 instructions: 247501123 cycles: 318925192 heartbeat IPC: 0.4399 cumulative IPC: 0.647 (Simulation time: 00 hr 37 min 52 sec)
Heartbeat CPU 0 instructions: 248001126 cycles: 319925420 heartbeat IPC: 0.4999 cumulative IPC: 0.6465 (Simulation time: 00 hr 37 min 58 sec)
Heartbeat CPU 0 instructions: 248501129 cycles: 320540007 heartbeat IPC: 0.8136 cumulative IPC: 0.6468 (Simulation time: 00 hr 38 min 03 sec)
Heartbeat CPU 0 instructions: 249001132 cycles: 322025703 heartbeat IPC: 0.3365 cumulative IPC: 0.6453 (Simulation time: 00 hr 38 min 11 sec)
Heartbeat CPU 0 instructions: 249501132 cycles: 324038316 heartbeat IPC: 0.2484 cumulative IPC: 0.6428 (Simulation time: 00 hr 38 min 21 sec)
Simulation finished CPU 0 instructions: 200000001 cycles: 311313340 cumulative IPC: 0.6424 (Simulation time: 00 hr 38 min 27 sec)
Simulation complete CPU 0 instructions: 200000001 cycles: 311313340 cumulative IPC: 0.6424 (Simulation time: 00 hr 38 min 27 sec)

ChampSim completed all CPUs

=== Simulation ===
CPU 0 runs /local-ssd/ben/dpc4-traces/gtraces_v2/merced_0000.champsim.gz

Region of Interest Statistics

CPU 0 cumulative IPC: 0.6424 instructions: 200000001 cycles: 311313340
CPU 0 Branch Prediction Accuracy: 89.91% MPKI: 20.38 Average ROB Occupancy at Mispredict: 25.38
Branch type MPKI
BRANCH_DIRECT_JUMP: 0.6276
BRANCH_INDIRECT: 7.691
BRANCH_CONDITIONAL: 10.96
BRANCH_DIRECT_CALL: 0.5551
BRANCH_INDIRECT_CALL: 0.1874
BRANCH_RETURN: 0.3552

cpu0->cpu0_STLB TOTAL        ACCESS:    2171380 HIT:    1850956 MISS:     320424 MSHR_MERGE:          0
cpu0->cpu0_STLB LOAD         ACCESS:    2171380 HIT:    1850956 MISS:     320424 MSHR_MERGE:          0
cpu0->cpu0_STLB RFO          ACCESS:          0 HIT:          0 MISS:          0 MSHR_MERGE:          0
cpu0->cpu0_STLB PREFETCH     ACCESS:          0 HIT:          0 MISS:          0 MSHR_MERGE:          0
cpu0->cpu0_STLB WRITE        ACCESS:          0 HIT:          0 MISS:          0 MSHR_MERGE:          0
cpu0->cpu0_STLB TRANSLATION  ACCESS:          0 HIT:          0 MISS:          0 MSHR_MERGE:          0
cpu0->cpu0_STLB PREFETCH REQUESTED:          0 ISSUED:          0 USEFUL:          0 USELESS:          0
cpu0->cpu0_STLB AVERAGE MISS LATENCY: 208.7 cycles
cpu0->cpu0_L2C TOTAL        ACCESS:   16121674 HIT:   11746064 MISS:    4375610 MSHR_MERGE:     991320
cpu0->cpu0_L2C LOAD         ACCESS:    2810715 HIT:    1830739 MISS:     979976 MSHR_MERGE:      19135
cpu0->cpu0_L2C RFO          ACCESS:     395793 HIT:     175048 MISS:     220745 MSHR_MERGE:       2200
cpu0->cpu0_L2C PREFETCH     ACCESS:   11647665 HIT:    8647169 MISS:    3000496 MSHR_MERGE:     969985
cpu0->cpu0_L2C WRITE        ACCESS:     868956 HIT:     868873 MISS:         83 MSHR_MERGE:          0
cpu0->cpu0_L2C TRANSLATION  ACCESS:     398545 HIT:     224235 MISS:     174310 MSHR_MERGE:          0
cpu0->cpu0_L2C PREFETCH REQUESTED:    9684130 ISSUED:    9180391 USEFUL:     506163 USELESS:     934511
cpu0->cpu0_L2C AVERAGE MISS LATENCY: 221.7 cycles
cpu0->cpu0_L1I TOTAL        ACCESS:   12128752 HIT:   11017126 MISS:    1111626 MSHR_MERGE:     246916
cpu0->cpu0_L1I LOAD         ACCESS:   12128752 HIT:   11017126 MISS:    1111626 MSHR_MERGE:     246916
cpu0->cpu0_L1I RFO          ACCESS:          0 HIT:          0 MISS:          0 MSHR_MERGE:          0
cpu0->cpu0_L1I PREFETCH     ACCESS:          0 HIT:          0 MISS:          0 MSHR_MERGE:          0
cpu0->cpu0_L1I WRITE        ACCESS:          0 HIT:          0 MISS:          0 MSHR_MERGE:          0
cpu0->cpu0_L1I TRANSLATION  ACCESS:          0 HIT:          0 MISS:          0 MSHR_MERGE:          0
cpu0->cpu0_L1I PREFETCH REQUESTED:          0 ISSUED:          0 USEFUL:          0 USELESS:          0
cpu0->cpu0_L1I AVERAGE MISS LATENCY: 148.3 cycles
cpu0->cpu0_L1D TOTAL        ACCESS:   67522964 HIT:   59609017 MISS:    7913947 MSHR_MERGE:    2706275
cpu0->cpu0_L1D LOAD         ACCESS:   32901172 HIT:   29962178 MISS:    2938994 MSHR_MERGE:     992976
cpu0->cpu0_L1D RFO          ACCESS:          0 HIT:          0 MISS:          0 MSHR_MERGE:          0
cpu0->cpu0_L1D PREFETCH     ACCESS:   16991510 HIT:   13804746 MISS:    3186764 MSHR_MERGE:     719486
cpu0->cpu0_L1D WRITE        ACCESS:   16796790 HIT:   15410534 MISS:    1386256 MSHR_MERGE:     990425
cpu0->cpu0_L1D TRANSLATION  ACCESS:     833492 HIT:     431559 MISS:     401933 MSHR_MERGE:       3388
cpu0->cpu0_L1D PREFETCH REQUESTED:   18878770 ISSUED:   16991506 USEFUL:     723216 USELESS:    1743952
cpu0->cpu0_L1D AVERAGE MISS LATENCY: 75.22 cycles
cpu0->cpu0_ITLB TOTAL        ACCESS:    9770302 HIT:    9653698 MISS:     116604 MSHR_MERGE:      57029
cpu0->cpu0_ITLB LOAD         ACCESS:    9770302 HIT:    9653698 MISS:     116604 MSHR_MERGE:      57029
cpu0->cpu0_ITLB RFO          ACCESS:          0 HIT:          0 MISS:          0 MSHR_MERGE:          0
cpu0->cpu0_ITLB PREFETCH     ACCESS:          0 HIT:          0 MISS:          0 MSHR_MERGE:          0
cpu0->cpu0_ITLB WRITE        ACCESS:          0 HIT:          0 MISS:          0 MSHR_MERGE:          0
cpu0->cpu0_ITLB TRANSLATION  ACCESS:          0 HIT:          0 MISS:          0 MSHR_MERGE:          0
cpu0->cpu0_ITLB PREFETCH REQUESTED:          0 ISSUED:          0 USEFUL:          0 USELESS:          0
cpu0->cpu0_ITLB AVERAGE MISS LATENCY: 43.09 cycles
cpu0->cpu0_DTLB TOTAL        ACCESS:   60043464 HIT:   56563321 MISS:    3480143 MSHR_MERGE:    1368338
cpu0->cpu0_DTLB LOAD         ACCESS:   60043464 HIT:   56563321 MISS:    3480143 MSHR_MERGE:    1368338
cpu0->cpu0_DTLB RFO          ACCESS:          0 HIT:          0 MISS:          0 MSHR_MERGE:          0
cpu0->cpu0_DTLB PREFETCH     ACCESS:          0 HIT:          0 MISS:          0 MSHR_MERGE:          0
cpu0->cpu0_DTLB WRITE        ACCESS:          0 HIT:          0 MISS:          0 MSHR_MERGE:          0
cpu0->cpu0_DTLB TRANSLATION  ACCESS:          0 HIT:          0 MISS:          0 MSHR_MERGE:          0
cpu0->cpu0_DTLB PREFETCH REQUESTED:          0 ISSUED:          0 USEFUL:          0 USELESS:          0
cpu0->cpu0_DTLB AVERAGE MISS LATENCY: 35.74 cycles
cpu0->LLC TOTAL        ACCESS:    5244717 HIT:     990730 MISS:    4253987 MSHR_MERGE:     385826
cpu0->LLC LOAD         ACCESS:     960841 HIT:     120028 MISS:     840813 MSHR_MERGE:       3815
cpu0->LLC RFO          ACCESS:     218545 HIT:      10779 MISS:     207766 MSHR_MERGE:        168
cpu0->LLC PREFETCH     ACCESS:    3475061 HIT:     686776 MISS:    2788285 MSHR_MERGE:     381843
cpu0->LLC WRITE        ACCESS:     415960 HIT:     157546 MISS:     258414 MSHR_MERGE:          0
cpu0->LLC TRANSLATION  ACCESS:     174310 HIT:      15601 MISS:     158709 MSHR_MERGE:          0
cpu0->LLC PREFETCH REQUESTED:    1523240 ISSUED:    1444550 USEFUL:     233852 USELESS:     598568
cpu0->LLC AVERAGE MISS LATENCY: 187.8 cycles

DRAM Statistics

Channel 0 RQ ROW_BUFFER_HIT:     193957
  ROW_BUFFER_MISS:    3415761
  AVG DBUS CONGESTED CYCLE: 18.27
Channel 0 WQ ROW_BUFFER_HIT:      99126
  ROW_BUFFER_MISS:     284561
  FULL:          0
Channel 0 REFRESHES ISSUED:      25941
