[VMEM] WARNING: physical memory size is smaller than virtual memory size.

*** ChampSim Multicore Out-of-Order Simulator ***
Warmup Instructions: 50000000
Simulation Instructions: 200000000
Number of CPUs: 1
Page size: 4096
Core 0: /local-ssd/ben/dpc4-traces/SPEC17/602.gcc_s-734B.champsimtrace.xz
IPCP_AT_L1_CONFIG
NUM_IP_TABLE_L1_ENTRIES 1024
NUM_GHB_ENTRIES 16
NUM_IP_INDEX_BITS 10
NUM_IP_TAG_BITS 6
S_TYPE 1
CS_TYPE 2
CPLX_TYPE 3
NL_TYPE 4

Off-chip DRAM Size: 64 GiB Channels: 1 Width: 64-bit Data Rate: 4807 MT/s
Heartbeat CPU 0 instructions: 500003 cycles: 114631 heartbeat IPC: 4.362 cumulative IPC: 4.362 (Simulation time: 00 hr 00 min 02 sec)
Heartbeat CPU 0 instructions: 1000006 cycles: 224913 heartbeat IPC: 4.534 cumulative IPC: 4.446 (Simulation time: 00 hr 00 min 04 sec)
Heartbeat CPU 0 instructions: 1500008 cycles: 334708 heartbeat IPC: 4.554 cumulative IPC: 4.482 (Simulation time: 00 hr 00 min 05 sec)
Heartbeat CPU 0 instructions: 2000012 cycles: 445496 heartbeat IPC: 4.513 cumulative IPC: 4.489 (Simulation time: 00 hr 00 min 07 sec)
Heartbeat CPU 0 instructions: 2500014 cycles: 553483 heartbeat IPC: 4.63 cumulative IPC: 4.517 (Simulation time: 00 hr 00 min 08 sec)
Heartbeat CPU 0 instructions: 3000014 cycles: 661867 heartbeat IPC: 4.613 cumulative IPC: 4.533 (Simulation time: 00 hr 00 min 10 sec)
Heartbeat CPU 0 instructions: 3500018 cycles: 769967 heartbeat IPC: 4.625 cumulative IPC: 4.546 (Simulation time: 00 hr 00 min 11 sec)
Heartbeat CPU 0 instructions: 4000018 cycles: 878572 heartbeat IPC: 4.604 cumulative IPC: 4.553 (Simulation time: 00 hr 00 min 13 sec)
Heartbeat CPU 0 instructions: 4500023 cycles: 987686 heartbeat IPC: 4.582 cumulative IPC: 4.556 (Simulation time: 00 hr 00 min 15 sec)
Heartbeat CPU 0 instructions: 5000026 cycles: 1096587 heartbeat IPC: 4.591 cumulative IPC: 4.56 (Simulation time: 00 hr 00 min 16 sec)
Heartbeat CPU 0 instructions: 5500031 cycles: 1205357 heartbeat IPC: 4.597 cumulative IPC: 4.563 (Simulation time: 00 hr 00 min 18 sec)
Heartbeat CPU 0 instructions: 6000031 cycles: 1312652 heartbeat IPC: 4.66 cumulative IPC: 4.571 (Simulation time: 00 hr 00 min 19 sec)
Heartbeat CPU 0 instructions: 6500034 cycles: 1420998 heartbeat IPC: 4.615 cumulative IPC: 4.574 (Simulation time: 00 hr 00 min 21 sec)
Heartbeat CPU 0 instructions: 7000036 cycles: 1531714 heartbeat IPC: 4.516 cumulative IPC: 4.57 (Simulation time: 00 hr 00 min 22 sec)
Heartbeat CPU 0 instructions: 7500036 cycles: 1641710 heartbeat IPC: 4.546 cumulative IPC: 4.568 (Simulation time: 00 hr 00 min 24 sec)
Heartbeat CPU 0 instructions: 8000038 cycles: 1751955 heartbeat IPC: 4.535 cumulative IPC: 4.566 (Simulation time: 00 hr 00 min 26 sec)
Heartbeat CPU 0 instructions: 8500041 cycles: 1861983 heartbeat IPC: 4.544 cumulative IPC: 4.565 (Simulation time: 00 hr 00 min 27 sec)
Heartbeat CPU 0 instructions: 9000048 cycles: 1970850 heartbeat IPC: 4.593 cumulative IPC: 4.567 (Simulation time: 00 hr 00 min 29 sec)
Heartbeat CPU 0 instructions: 9500053 cycles: 2079829 heartbeat IPC: 4.588 cumulative IPC: 4.568 (Simulation time: 00 hr 00 min 30 sec)
Heartbeat CPU 0 instructions: 10000056 cycles: 2191112 heartbeat IPC: 4.493 cumulative IPC: 4.564 (Simulation time: 00 hr 00 min 32 sec)
Heartbeat CPU 0 instructions: 10500057 cycles: 2299504 heartbeat IPC: 4.613 cumulative IPC: 4.566 (Simulation time: 00 hr 00 min 33 sec)
Heartbeat CPU 0 instructions: 11000060 cycles: 2408316 heartbeat IPC: 4.595 cumulative IPC: 4.568 (Simulation time: 00 hr 00 min 35 sec)
Heartbeat CPU 0 instructions: 11500062 cycles: 2517499 heartbeat IPC: 4.579 cumulative IPC: 4.568 (Simulation time: 00 hr 00 min 37 sec)
Heartbeat CPU 0 instructions: 12000064 cycles: 2626270 heartbeat IPC: 4.597 cumulative IPC: 4.569 (Simulation time: 00 hr 00 min 38 sec)
Heartbeat CPU 0 instructions: 12500068 cycles: 2736595 heartbeat IPC: 4.532 cumulative IPC: 4.568 (Simulation time: 00 hr 00 min 40 sec)
Heartbeat CPU 0 instructions: 13000071 cycles: 2845076 heartbeat IPC: 4.609 cumulative IPC: 4.569 (Simulation time: 00 hr 00 min 41 sec)
Heartbeat CPU 0 instructions: 13500072 cycles: 2955109 heartbeat IPC: 4.544 cumulative IPC: 4.568 (Simulation time: 00 hr 00 min 43 sec)
Heartbeat CPU 0 instructions: 14000072 cycles: 3068477 heartbeat IPC: 4.41 cumulative IPC: 4.563 (Simulation time: 00 hr 00 min 45 sec)
Heartbeat CPU 0 instructions: 14500075 cycles: 3178830 heartbeat IPC: 4.531 cumulative IPC: 4.561 (Simulation time: 00 hr 00 min 46 sec)
Heartbeat CPU 0 instructions: 15000082 cycles: 3297722 heartbeat IPC: 4.206 cumulative IPC: 4.549 (Simulation time: 00 hr 00 min 48 sec)
Heartbeat CPU 0 instructions: 15500084 cycles: 3406329 heartbeat IPC: 4.604 cumulative IPC: 4.55 (Simulation time: 00 hr 00 min 50 sec)
Heartbeat CPU 0 instructions: 16000084 cycles: 3514590 heartbeat IPC: 4.618 cumulative IPC: 4.552 (Simulation time: 00 hr 00 min 51 sec)
Heartbeat CPU 0 instructions: 16500087 cycles: 3623365 heartbeat IPC: 4.597 cumulative IPC: 4.554 (Simulation time: 00 hr 00 min 53 sec)
Heartbeat CPU 0 instructions: 17000090 cycles: 3731271 heartbeat IPC: 4.634 cumulative IPC: 4.556 (Simulation time: 00 hr 00 min 54 sec)
Heartbeat CPU 0 instructions: 17500093 cycles: 3839469 heartbeat IPC: 4.621 cumulative IPC: 4.558 (Simulation time: 00 hr 00 min 56 sec)
Heartbeat CPU 0 instructions: 18000094 cycles: 3948745 heartbeat IPC: 4.576 cumulative IPC: 4.558 (Simulation time: 00 hr 00 min 57 sec)
Heartbeat CPU 0 instructions: 18500096 cycles: 4057285 heartbeat IPC: 4.607 cumulative IPC: 4.56 (Simulation time: 00 hr 00 min 59 sec)
Heartbeat CPU 0 instructions: 19000097 cycles: 4165882 heartbeat IPC: 4.604 cumulative IPC: 4.561 (Simulation time: 00 hr 01 min 01 sec)
Heartbeat CPU 0 instructions: 19500102 cycles: 4273193 heartbeat IPC: 4.659 cumulative IPC: 4.563 (Simulation time: 00 hr 01 min 02 sec)
Heartbeat CPU 0 instructions: 20000103 cycles: 4380843 heartbeat IPC: 4.645 cumulative IPC: 4.565 (Simulation time: 00 hr 01 min 04 sec)
Heartbeat CPU 0 instructions: 20500106 cycles: 4488513 heartbeat IPC: 4.644 cumulative IPC: 4.567 (Simulation time: 00 hr 01 min 05 sec)
Heartbeat CPU 0 instructions: 21000109 cycles: 4597078 heartbeat IPC: 4.606 cumulative IPC: 4.568 (Simulation time: 00 hr 01 min 07 sec)
Heartbeat CPU 0 instructions: 21500113 cycles: 4704890 heartbeat IPC: 4.638 cumulative IPC: 4.57 (Simulation time: 00 hr 01 min 08 sec)
Heartbeat CPU 0 instructions: 22000118 cycles: 4812748 heartbeat IPC: 4.636 cumulative IPC: 4.571 (Simulation time: 00 hr 01 min 10 sec)
Heartbeat CPU 0 instructions: 22500120 cycles: 4920410 heartbeat IPC: 4.644 cumulative IPC: 4.573 (Simulation time: 00 hr 01 min 11 sec)
Heartbeat CPU 0 instructions: 23000125 cycles: 5029007 heartbeat IPC: 4.604 cumulative IPC: 4.573 (Simulation time: 00 hr 01 min 13 sec)
Heartbeat CPU 0 instructions: 23500129 cycles: 5136808 heartbeat IPC: 4.638 cumulative IPC: 4.575 (Simulation time: 00 hr 01 min 15 sec)
Heartbeat CPU 0 instructions: 24000130 cycles: 5244635 heartbeat IPC: 4.637 cumulative IPC: 4.576 (Simulation time: 00 hr 01 min 16 sec)
Heartbeat CPU 0 instructions: 24500136 cycles: 5352841 heartbeat IPC: 4.621 cumulative IPC: 4.577 (Simulation time: 00 hr 01 min 18 sec)
Heartbeat CPU 0 instructions: 25000136 cycles: 5460334 heartbeat IPC: 4.651 cumulative IPC: 4.578 (Simulation time: 00 hr 01 min 19 sec)
Heartbeat CPU 0 instructions: 25500143 cycles: 5567531 heartbeat IPC: 4.664 cumulative IPC: 4.58 (Simulation time: 00 hr 01 min 21 sec)
Heartbeat CPU 0 instructions: 26000144 cycles: 5674569 heartbeat IPC: 4.671 cumulative IPC: 4.582 (Simulation time: 00 hr 01 min 22 sec)
Heartbeat CPU 0 instructions: 26500145 cycles: 5781864 heartbeat IPC: 4.66 cumulative IPC: 4.583 (Simulation time: 00 hr 01 min 24 sec)
Heartbeat CPU 0 instructions: 27000146 cycles: 5889783 heartbeat IPC: 4.633 cumulative IPC: 4.584 (Simulation time: 00 hr 01 min 25 sec)
Heartbeat CPU 0 instructions: 27500151 cycles: 5996659 heartbeat IPC: 4.678 cumulative IPC: 4.586 (Simulation time: 00 hr 01 min 27 sec)
Heartbeat CPU 0 instructions: 28000154 cycles: 6104574 heartbeat IPC: 4.633 cumulative IPC: 4.587 (Simulation time: 00 hr 01 min 28 sec)
Heartbeat CPU 0 instructions: 28500157 cycles: 6210814 heartbeat IPC: 4.706 cumulative IPC: 4.589 (Simulation time: 00 hr 01 min 30 sec)
Heartbeat CPU 0 instructions: 29000158 cycles: 6318952 heartbeat IPC: 4.624 cumulative IPC: 4.589 (Simulation time: 00 hr 01 min 32 sec)
Heartbeat CPU 0 instructions: 29500161 cycles: 6426888 heartbeat IPC: 4.632 cumulative IPC: 4.59 (Simulation time: 00 hr 01 min 33 sec)
Heartbeat CPU 0 instructions: 30000168 cycles: 6527413 heartbeat IPC: 4.974 cumulative IPC: 4.596 (Simulation time: 00 hr 01 min 34 sec)
Heartbeat CPU 0 instructions: 30500173 cycles: 6627419 heartbeat IPC: 5 cumulative IPC: 4.602 (Simulation time: 00 hr 01 min 36 sec)
Heartbeat CPU 0 instructions: 31000179 cycles: 6727419 heartbeat IPC: 5 cumulative IPC: 4.608 (Simulation time: 00 hr 01 min 37 sec)
Heartbeat CPU 0 instructions: 31500181 cycles: 6827422 heartbeat IPC: 5 cumulative IPC: 4.614 (Simulation time: 00 hr 01 min 39 sec)
Heartbeat CPU 0 instructions: 32000185 cycles: 6927417 heartbeat IPC: 5 cumulative IPC: 4.619 (Simulation time: 00 hr 01 min 40 sec)
Heartbeat CPU 0 instructions: 32500192 cycles: 7027425 heartbeat IPC: 5 cumulative IPC: 4.625 (Simulation time: 00 hr 01 min 41 sec)
Heartbeat CPU 0 instructions: 33000197 cycles: 7127429 heartbeat IPC: 5 cumulative IPC: 4.63 (Simulation time: 00 hr 01 min 43 sec)
Heartbeat CPU 0 instructions: 33500198 cycles: 7227427 heartbeat IPC: 5 cumulative IPC: 4.635 (Simulation time: 00 hr 01 min 44 sec)
Heartbeat CPU 0 instructions: 34000204 cycles: 7327424 heartbeat IPC: 5 cumulative IPC: 4.64 (Simulation time: 00 hr 01 min 46 sec)
Heartbeat CPU 0 instructions: 34500204 cycles: 7427546 heartbeat IPC: 4.994 cumulative IPC: 4.645 (Simulation time: 00 hr 01 min 47 sec)
Heartbeat CPU 0 instructions: 35000209 cycles: 7527538 heartbeat IPC: 5 cumulative IPC: 4.65 (Simulation time: 00 hr 01 min 48 sec)
Heartbeat CPU 0 instructions: 35500214 cycles: 7627541 heartbeat IPC: 5 cumulative IPC: 4.654 (Simulation time: 00 hr 01 min 50 sec)
Heartbeat CPU 0 instructions: 36000215 cycles: 7727542 heartbeat IPC: 5 cumulative IPC: 4.659 (Simulation time: 00 hr 01 min 51 sec)
Heartbeat CPU 0 instructions: 36500215 cycles: 7827542 heartbeat IPC: 5 cumulative IPC: 4.663 (Simulation time: 00 hr 01 min 53 sec)
Heartbeat CPU 0 instructions: 37000220 cycles: 7927549 heartbeat IPC: 5 cumulative IPC: 4.667 (Simulation time: 00 hr 01 min 54 sec)
Heartbeat CPU 0 instructions: 37500226 cycles: 8027550 heartbeat IPC: 5 cumulative IPC: 4.671 (Simulation time: 00 hr 01 min 55 sec)
Heartbeat CPU 0 instructions: 38000233 cycles: 8127669 heartbeat IPC: 4.994 cumulative IPC: 4.675 (Simulation time: 00 hr 01 min 57 sec)
Heartbeat CPU 0 instructions: 38500234 cycles: 8228875 heartbeat IPC: 4.94 cumulative IPC: 4.679 (Simulation time: 00 hr 01 min 58 sec)
Heartbeat CPU 0 instructions: 39000240 cycles: 8328873 heartbeat IPC: 5 cumulative IPC: 4.683 (Simulation time: 00 hr 02 min 00 sec)
Heartbeat CPU 0 instructions: 39500241 cycles: 8428880 heartbeat IPC: 5 cumulative IPC: 4.686 (Simulation time: 00 hr 02 min 01 sec)
Heartbeat CPU 0 instructions: 40000242 cycles: 8528872 heartbeat IPC: 5 cumulative IPC: 4.69 (Simulation time: 00 hr 02 min 02 sec)
Heartbeat CPU 0 instructions: 40500249 cycles: 8628875 heartbeat IPC: 5 cumulative IPC: 4.694 (Simulation time: 00 hr 02 min 04 sec)
Heartbeat CPU 0 instructions: 41000255 cycles: 8728877 heartbeat IPC: 5 cumulative IPC: 4.697 (Simulation time: 00 hr 02 min 05 sec)
Heartbeat CPU 0 instructions: 41500256 cycles: 8828878 heartbeat IPC: 5 cumulative IPC: 4.701 (Simulation time: 00 hr 02 min 06 sec)
Heartbeat CPU 0 instructions: 42000261 cycles: 8928888 heartbeat IPC: 5 cumulative IPC: 4.704 (Simulation time: 00 hr 02 min 08 sec)
Heartbeat CPU 0 instructions: 42500261 cycles: 9028877 heartbeat IPC: 5.001 cumulative IPC: 4.707 (Simulation time: 00 hr 02 min 09 sec)
Heartbeat CPU 0 instructions: 43000263 cycles: 9128886 heartbeat IPC: 5 cumulative IPC: 4.71 (Simulation time: 00 hr 02 min 11 sec)
Heartbeat CPU 0 instructions: 43500269 cycles: 9228880 heartbeat IPC: 5 cumulative IPC: 4.713 (Simulation time: 00 hr 02 min 12 sec)
Heartbeat CPU 0 instructions: 44000270 cycles: 9328877 heartbeat IPC: 5 cumulative IPC: 4.717 (Simulation time: 00 hr 02 min 13 sec)
Heartbeat CPU 0 instructions: 44500273 cycles: 9428878 heartbeat IPC: 5 cumulative IPC: 4.72 (Simulation time: 00 hr 02 min 15 sec)
Heartbeat CPU 0 instructions: 45000279 cycles: 9528880 heartbeat IPC: 5 cumulative IPC: 4.723 (Simulation time: 00 hr 02 min 16 sec)
Heartbeat CPU 0 instructions: 45500284 cycles: 9628880 heartbeat IPC: 5 cumulative IPC: 4.725 (Simulation time: 00 hr 02 min 18 sec)
Heartbeat CPU 0 instructions: 46000287 cycles: 9728885 heartbeat IPC: 5 cumulative IPC: 4.728 (Simulation time: 00 hr 02 min 19 sec)
Heartbeat CPU 0 instructions: 46500290 cycles: 9828883 heartbeat IPC: 5 cumulative IPC: 4.731 (Simulation time: 00 hr 02 min 20 sec)
Heartbeat CPU 0 instructions: 47000292 cycles: 9928887 heartbeat IPC: 5 cumulative IPC: 4.734 (Simulation time: 00 hr 02 min 22 sec)
Heartbeat CPU 0 instructions: 47500299 cycles: 10028889 heartbeat IPC: 5 cumulative IPC: 4.736 (Simulation time: 00 hr 02 min 23 sec)
Heartbeat CPU 0 instructions: 48000305 cycles: 10128893 heartbeat IPC: 5 cumulative IPC: 4.739 (Simulation time: 00 hr 02 min 24 sec)
Heartbeat CPU 0 instructions: 48500311 cycles: 10228884 heartbeat IPC: 5.001 cumulative IPC: 4.742 (Simulation time: 00 hr 02 min 26 sec)
Heartbeat CPU 0 instructions: 49000318 cycles: 10328887 heartbeat IPC: 5 cumulative IPC: 4.744 (Simulation time: 00 hr 02 min 27 sec)
Heartbeat CPU 0 instructions: 49500324 cycles: 10428889 heartbeat IPC: 5 cumulative IPC: 4.746 (Simulation time: 00 hr 02 min 29 sec)
Warmup halting CPU 0 at instruction 50000005 cycle 10528828 for remainder of phase
Warmup finished CPU 0 instructions: 50000005 cycles: 10528828 cumulative IPC: 4.749 (Simulation time: 00 hr 02 min 30 sec)
Warmup complete CPU 0 instructions: 50000005 cycles: 10528828 cumulative IPC: 4.749 (Simulation time: 00 hr 02 min 30 sec)
Heartbeat CPU 0 instructions: 50000327 cycles: 10529109 heartbeat IPC: 4.989 cumulative IPC: 1.146 (Simulation time: 00 hr 02 min 30 sec)
Heartbeat CPU 0 instructions: 50500332 cycles: 10736614 heartbeat IPC: 2.41 cumulative IPC: 2.408 (Simulation time: 00 hr 02 min 33 sec)
Heartbeat CPU 0 instructions: 51000338 cycles: 10952739 heartbeat IPC: 2.314 cumulative IPC: 2.36 (Simulation time: 00 hr 02 min 37 sec)
Heartbeat CPU 0 instructions: 51500338 cycles: 11169366 heartbeat IPC: 2.308 cumulative IPC: 2.342 (Simulation time: 00 hr 02 min 40 sec)
Heartbeat CPU 0 instructions: 52000338 cycles: 11377852 heartbeat IPC: 2.398 cumulative IPC: 2.356 (Simulation time: 00 hr 02 min 43 sec)
Heartbeat CPU 0 instructions: 52500340 cycles: 11581126 heartbeat IPC: 2.46 cumulative IPC: 2.376 (Simulation time: 00 hr 02 min 47 sec)
Heartbeat CPU 0 instructions: 53000340 cycles: 11802557 heartbeat IPC: 2.258 cumulative IPC: 2.356 (Simulation time: 00 hr 02 min 50 sec)
Heartbeat CPU 0 instructions: 53500345 cycles: 12016142 heartbeat IPC: 2.341 cumulative IPC: 2.353 (Simulation time: 00 hr 02 min 53 sec)
Heartbeat CPU 0 instructions: 54000345 cycles: 12236317 heartbeat IPC: 2.271 cumulative IPC: 2.343 (Simulation time: 00 hr 02 min 57 sec)
Heartbeat CPU 0 instructions: 54500346 cycles: 12462104 heartbeat IPC: 2.214 cumulative IPC: 2.328 (Simulation time: 00 hr 03 min 00 sec)
Heartbeat CPU 0 instructions: 55000350 cycles: 12682275 heartbeat IPC: 2.271 cumulative IPC: 2.322 (Simulation time: 00 hr 03 min 04 sec)
Heartbeat CPU 0 instructions: 55500350 cycles: 12910604 heartbeat IPC: 2.19 cumulative IPC: 2.309 (Simulation time: 00 hr 03 min 07 sec)
Heartbeat CPU 0 instructions: 56000350 cycles: 13125751 heartbeat IPC: 2.324 cumulative IPC: 2.311 (Simulation time: 00 hr 03 min 11 sec)
Heartbeat CPU 0 instructions: 56500352 cycles: 13346328 heartbeat IPC: 2.267 cumulative IPC: 2.307 (Simulation time: 00 hr 03 min 14 sec)
Heartbeat CPU 0 instructions: 57000353 cycles: 13558794 heartbeat IPC: 2.353 cumulative IPC: 2.31 (Simulation time: 00 hr 03 min 17 sec)
Heartbeat CPU 0 instructions: 57500354 cycles: 13779187 heartbeat IPC: 2.269 cumulative IPC: 2.308 (Simulation time: 00 hr 03 min 21 sec)
Heartbeat CPU 0 instructions: 58000354 cycles: 13993952 heartbeat IPC: 2.328 cumulative IPC: 2.309 (Simulation time: 00 hr 03 min 24 sec)
Heartbeat CPU 0 instructions: 58500355 cycles: 14205923 heartbeat IPC: 2.359 cumulative IPC: 2.312 (Simulation time: 00 hr 03 min 28 sec)
Heartbeat CPU 0 instructions: 59000359 cycles: 14429114 heartbeat IPC: 2.24 cumulative IPC: 2.308 (Simulation time: 00 hr 03 min 31 sec)
Heartbeat CPU 0 instructions: 59500361 cycles: 14631332 heartbeat IPC: 2.473 cumulative IPC: 2.316 (Simulation time: 00 hr 03 min 34 sec)
Heartbeat CPU 0 instructions: 60000366 cycles: 14846808 heartbeat IPC: 2.32 cumulative IPC: 2.316 (Simulation time: 00 hr 03 min 38 sec)
Heartbeat CPU 0 instructions: 60500369 cycles: 15113654 heartbeat IPC: 1.874 cumulative IPC: 2.29 (Simulation time: 00 hr 03 min 41 sec)
Heartbeat CPU 0 instructions: 61000372 cycles: 15427131 heartbeat IPC: 1.595 cumulative IPC: 2.246 (Simulation time: 00 hr 03 min 45 sec)
Heartbeat CPU 0 instructions: 61500373 cycles: 15673257 heartbeat IPC: 2.031 cumulative IPC: 2.235 (Simulation time: 00 hr 03 min 49 sec)
Heartbeat CPU 0 instructions: 62000374 cycles: 16009408 heartbeat IPC: 1.487 cumulative IPC: 2.19 (Simulation time: 00 hr 03 min 53 sec)
Heartbeat CPU 0 instructions: 62500374 cycles: 16490554 heartbeat IPC: 1.039 cumulative IPC: 2.097 (Simulation time: 00 hr 03 min 57 sec)
Heartbeat CPU 0 instructions: 63000374 cycles: 17087361 heartbeat IPC: 0.8378 cumulative IPC: 1.982 (Simulation time: 00 hr 04 min 03 sec)
Heartbeat CPU 0 instructions: 63500375 cycles: 17323514 heartbeat IPC: 2.117 cumulative IPC: 1.987 (Simulation time: 00 hr 04 min 06 sec)
Heartbeat CPU 0 instructions: 64000378 cycles: 17536339 heartbeat IPC: 2.349 cumulative IPC: 1.998 (Simulation time: 00 hr 04 min 09 sec)
Heartbeat CPU 0 instructions: 64500380 cycles: 17751100 heartbeat IPC: 2.328 cumulative IPC: 2.008 (Simulation time: 00 hr 04 min 13 sec)
Heartbeat CPU 0 instructions: 65000382 cycles: 17967261 heartbeat IPC: 2.313 cumulative IPC: 2.017 (Simulation time: 00 hr 04 min 16 sec)
Heartbeat CPU 0 instructions: 65500383 cycles: 18178578 heartbeat IPC: 2.366 cumulative IPC: 2.026 (Simulation time: 00 hr 04 min 20 sec)
Heartbeat CPU 0 instructions: 66000385 cycles: 18389548 heartbeat IPC: 2.37 cumulative IPC: 2.035 (Simulation time: 00 hr 04 min 23 sec)
Heartbeat CPU 0 instructions: 66500389 cycles: 18607272 heartbeat IPC: 2.297 cumulative IPC: 2.043 (Simulation time: 00 hr 04 min 26 sec)
Heartbeat CPU 0 instructions: 67000389 cycles: 18821527 heartbeat IPC: 2.334 cumulative IPC: 2.05 (Simulation time: 00 hr 04 min 30 sec)
Heartbeat CPU 0 instructions: 67500395 cycles: 19037552 heartbeat IPC: 2.315 cumulative IPC: 2.057 (Simulation time: 00 hr 04 min 33 sec)
Heartbeat CPU 0 instructions: 68000398 cycles: 19251438 heartbeat IPC: 2.338 cumulative IPC: 2.064 (Simulation time: 00 hr 04 min 37 sec)
Heartbeat CPU 0 instructions: 68500399 cycles: 19461224 heartbeat IPC: 2.383 cumulative IPC: 2.071 (Simulation time: 00 hr 04 min 40 sec)
Heartbeat CPU 0 instructions: 69000404 cycles: 19667077 heartbeat IPC: 2.429 cumulative IPC: 2.079 (Simulation time: 00 hr 04 min 43 sec)
Heartbeat CPU 0 instructions: 69500408 cycles: 19885766 heartbeat IPC: 2.286 cumulative IPC: 2.084 (Simulation time: 00 hr 04 min 47 sec)
Heartbeat CPU 0 instructions: 70000409 cycles: 20098513 heartbeat IPC: 2.35 cumulative IPC: 2.09 (Simulation time: 00 hr 04 min 50 sec)
Heartbeat CPU 0 instructions: 70500415 cycles: 20308869 heartbeat IPC: 2.377 cumulative IPC: 2.096 (Simulation time: 00 hr 04 min 53 sec)
Heartbeat CPU 0 instructions: 71000420 cycles: 20524940 heartbeat IPC: 2.314 cumulative IPC: 2.101 (Simulation time: 00 hr 04 min 57 sec)
Heartbeat CPU 0 instructions: 71500427 cycles: 20741530 heartbeat IPC: 2.309 cumulative IPC: 2.105 (Simulation time: 00 hr 05 min 00 sec)
Heartbeat CPU 0 instructions: 72000431 cycles: 20951676 heartbeat IPC: 2.379 cumulative IPC: 2.111 (Simulation time: 00 hr 05 min 03 sec)
Heartbeat CPU 0 instructions: 72500431 cycles: 21175289 heartbeat IPC: 2.236 cumulative IPC: 2.113 (Simulation time: 00 hr 05 min 07 sec)
Heartbeat CPU 0 instructions: 73000433 cycles: 21397543 heartbeat IPC: 2.25 cumulative IPC: 2.116 (Simulation time: 00 hr 05 min 10 sec)
Heartbeat CPU 0 instructions: 73500433 cycles: 21605380 heartbeat IPC: 2.406 cumulative IPC: 2.122 (Simulation time: 00 hr 05 min 14 sec)
Heartbeat CPU 0 instructions: 74000440 cycles: 21806915 heartbeat IPC: 2.481 cumulative IPC: 2.128 (Simulation time: 00 hr 05 min 17 sec)
Heartbeat CPU 0 instructions: 74500441 cycles: 22012933 heartbeat IPC: 2.427 cumulative IPC: 2.133 (Simulation time: 00 hr 05 min 20 sec)
Heartbeat CPU 0 instructions: 75000443 cycles: 22219987 heartbeat IPC: 2.415 cumulative IPC: 2.138 (Simulation time: 00 hr 05 min 24 sec)
Heartbeat CPU 0 instructions: 75500447 cycles: 22434757 heartbeat IPC: 2.328 cumulative IPC: 2.142 (Simulation time: 00 hr 05 min 27 sec)
Heartbeat CPU 0 instructions: 76000448 cycles: 22644382 heartbeat IPC: 2.385 cumulative IPC: 2.146 (Simulation time: 00 hr 05 min 30 sec)
Heartbeat CPU 0 instructions: 76500448 cycles: 22848756 heartbeat IPC: 2.446 cumulative IPC: 2.151 (Simulation time: 00 hr 05 min 34 sec)
Heartbeat CPU 0 instructions: 77000449 cycles: 23048350 heartbeat IPC: 2.505 cumulative IPC: 2.157 (Simulation time: 00 hr 05 min 37 sec)
Heartbeat CPU 0 instructions: 77500449 cycles: 23264478 heartbeat IPC: 2.313 cumulative IPC: 2.159 (Simulation time: 00 hr 05 min 40 sec)
Heartbeat CPU 0 instructions: 78000451 cycles: 23477351 heartbeat IPC: 2.349 cumulative IPC: 2.162 (Simulation time: 00 hr 05 min 44 sec)
Heartbeat CPU 0 instructions: 78500452 cycles: 23697835 heartbeat IPC: 2.268 cumulative IPC: 2.164 (Simulation time: 00 hr 05 min 47 sec)
Heartbeat CPU 0 instructions: 79000455 cycles: 23919873 heartbeat IPC: 2.252 cumulative IPC: 2.166 (Simulation time: 00 hr 05 min 50 sec)
Heartbeat CPU 0 instructions: 79500457 cycles: 24144149 heartbeat IPC: 2.229 cumulative IPC: 2.167 (Simulation time: 00 hr 05 min 54 sec)
Heartbeat CPU 0 instructions: 80000459 cycles: 24370174 heartbeat IPC: 2.212 cumulative IPC: 2.167 (Simulation time: 00 hr 05 min 57 sec)
Heartbeat CPU 0 instructions: 80500459 cycles: 24582108 heartbeat IPC: 2.359 cumulative IPC: 2.17 (Simulation time: 00 hr 06 min 01 sec)
Heartbeat CPU 0 instructions: 81000459 cycles: 24795658 heartbeat IPC: 2.341 cumulative IPC: 2.173 (Simulation time: 00 hr 06 min 04 sec)
Heartbeat CPU 0 instructions: 81500459 cycles: 25005955 heartbeat IPC: 2.378 cumulative IPC: 2.176 (Simulation time: 00 hr 06 min 07 sec)
Heartbeat CPU 0 instructions: 82000459 cycles: 25221485 heartbeat IPC: 2.32 cumulative IPC: 2.178 (Simulation time: 00 hr 06 min 11 sec)
Heartbeat CPU 0 instructions: 82500459 cycles: 25443294 heartbeat IPC: 2.254 cumulative IPC: 2.179 (Simulation time: 00 hr 06 min 14 sec)
Heartbeat CPU 0 instructions: 83000459 cycles: 25652927 heartbeat IPC: 2.385 cumulative IPC: 2.182 (Simulation time: 00 hr 06 min 17 sec)
Heartbeat CPU 0 instructions: 83500463 cycles: 25871554 heartbeat IPC: 2.287 cumulative IPC: 2.183 (Simulation time: 00 hr 06 min 21 sec)
Heartbeat CPU 0 instructions: 84000465 cycles: 26076706 heartbeat IPC: 2.437 cumulative IPC: 2.187 (Simulation time: 00 hr 06 min 24 sec)
Heartbeat CPU 0 instructions: 84500465 cycles: 26288873 heartbeat IPC: 2.357 cumulative IPC: 2.189 (Simulation time: 00 hr 06 min 28 sec)
Heartbeat CPU 0 instructions: 85000465 cycles: 26526066 heartbeat IPC: 2.108 cumulative IPC: 2.188 (Simulation time: 00 hr 06 min 31 sec)
Heartbeat CPU 0 instructions: 85500466 cycles: 26766345 heartbeat IPC: 2.081 cumulative IPC: 2.186 (Simulation time: 00 hr 06 min 35 sec)
Heartbeat CPU 0 instructions: 86000469 cycles: 27000631 heartbeat IPC: 2.134 cumulative IPC: 2.186 (Simulation time: 00 hr 06 min 38 sec)
Heartbeat CPU 0 instructions: 86500470 cycles: 27244154 heartbeat IPC: 2.053 cumulative IPC: 2.184 (Simulation time: 00 hr 06 min 42 sec)
Heartbeat CPU 0 instructions: 87000473 cycles: 27470134 heartbeat IPC: 2.213 cumulative IPC: 2.184 (Simulation time: 00 hr 06 min 45 sec)
Heartbeat CPU 0 instructions: 87500475 cycles: 27687775 heartbeat IPC: 2.297 cumulative IPC: 2.185 (Simulation time: 00 hr 06 min 48 sec)
Heartbeat CPU 0 instructions: 88000477 cycles: 27935292 heartbeat IPC: 2.02 cumulative IPC: 2.183 (Simulation time: 00 hr 06 min 52 sec)
Heartbeat CPU 0 instructions: 88500480 cycles: 28142217 heartbeat IPC: 2.416 cumulative IPC: 2.186 (Simulation time: 00 hr 06 min 55 sec)
Heartbeat CPU 0 instructions: 89000485 cycles: 28360700 heartbeat IPC: 2.289 cumulative IPC: 2.187 (Simulation time: 00 hr 06 min 59 sec)
Heartbeat CPU 0 instructions: 89500489 cycles: 28578714 heartbeat IPC: 2.293 cumulative IPC: 2.188 (Simulation time: 00 hr 07 min 02 sec)
Heartbeat CPU 0 instructions: 90000489 cycles: 28805702 heartbeat IPC: 2.203 cumulative IPC: 2.189 (Simulation time: 00 hr 07 min 06 sec)
Heartbeat CPU 0 instructions: 90500495 cycles: 29053265 heartbeat IPC: 2.02 cumulative IPC: 2.186 (Simulation time: 00 hr 07 min 09 sec)
Heartbeat CPU 0 instructions: 91000495 cycles: 29273860 heartbeat IPC: 2.267 cumulative IPC: 2.187 (Simulation time: 00 hr 07 min 13 sec)
Heartbeat CPU 0 instructions: 91500500 cycles: 29525171 heartbeat IPC: 1.99 cumulative IPC: 2.185 (Simulation time: 00 hr 07 min 16 sec)
Heartbeat CPU 0 instructions: 92000504 cycles: 29816658 heartbeat IPC: 1.715 cumulative IPC: 2.178 (Simulation time: 00 hr 07 min 20 sec)
Heartbeat CPU 0 instructions: 92500507 cycles: 30293558 heartbeat IPC: 1.048 cumulative IPC: 2.15 (Simulation time: 00 hr 07 min 25 sec)
Heartbeat CPU 0 instructions: 93000507 cycles: 31182375 heartbeat IPC: 0.5625 cumulative IPC: 2.082 (Simulation time: 00 hr 07 min 35 sec)
Heartbeat CPU 0 instructions: 93500511 cycles: 32043970 heartbeat IPC: 0.5803 cumulative IPC: 2.022 (Simulation time: 00 hr 07 min 45 sec)
Heartbeat CPU 0 instructions: 94000511 cycles: 32928916 heartbeat IPC: 0.565 cumulative IPC: 1.964 (Simulation time: 00 hr 07 min 55 sec)
Heartbeat CPU 0 instructions: 94500511 cycles: 33833364 heartbeat IPC: 0.5528 cumulative IPC: 1.91 (Simulation time: 00 hr 08 min 04 sec)
Heartbeat CPU 0 instructions: 95000512 cycles: 34701447 heartbeat IPC: 0.576 cumulative IPC: 1.862 (Simulation time: 00 hr 08 min 12 sec)
Heartbeat CPU 0 instructions: 95500516 cycles: 36623009 heartbeat IPC: 0.2602 cumulative IPC: 1.744 (Simulation time: 00 hr 08 min 25 sec)
Heartbeat CPU 0 instructions: 96000517 cycles: 37553032 heartbeat IPC: 0.5376 cumulative IPC: 1.702 (Simulation time: 00 hr 08 min 32 sec)
Heartbeat CPU 0 instructions: 96500517 cycles: 37787823 heartbeat IPC: 2.13 cumulative IPC: 1.706 (Simulation time: 00 hr 08 min 35 sec)
Heartbeat CPU 0 instructions: 97000521 cycles: 38004512 heartbeat IPC: 2.307 cumulative IPC: 1.711 (Simulation time: 00 hr 08 min 38 sec)
Heartbeat CPU 0 instructions: 97500522 cycles: 38209660 heartbeat IPC: 2.437 cumulative IPC: 1.716 (Simulation time: 00 hr 08 min 42 sec)
Heartbeat CPU 0 instructions: 98000523 cycles: 38429815 heartbeat IPC: 2.271 cumulative IPC: 1.72 (Simulation time: 00 hr 08 min 45 sec)
Heartbeat CPU 0 instructions: 98500524 cycles: 38636886 heartbeat IPC: 2.415 cumulative IPC: 1.726 (Simulation time: 00 hr 08 min 48 sec)
Heartbeat CPU 0 instructions: 99000529 cycles: 38848551 heartbeat IPC: 2.362 cumulative IPC: 1.73 (Simulation time: 00 hr 08 min 52 sec)
Heartbeat CPU 0 instructions: 99500533 cycles: 39066397 heartbeat IPC: 2.295 cumulative IPC: 1.735 (Simulation time: 00 hr 08 min 55 sec)
Heartbeat CPU 0 instructions: 100000535 cycles: 39285523 heartbeat IPC: 2.282 cumulative IPC: 1.739 (Simulation time: 00 hr 08 min 59 sec)
Heartbeat CPU 0 instructions: 100500536 cycles: 39502802 heartbeat IPC: 2.301 cumulative IPC: 1.743 (Simulation time: 00 hr 09 min 02 sec)
Heartbeat CPU 0 instructions: 101000539 cycles: 39708640 heartbeat IPC: 2.429 cumulative IPC: 1.748 (Simulation time: 00 hr 09 min 05 sec)
Heartbeat CPU 0 instructions: 101500543 cycles: 39920732 heartbeat IPC: 2.357 cumulative IPC: 1.752 (Simulation time: 00 hr 09 min 09 sec)
Heartbeat CPU 0 instructions: 102000547 cycles: 40124037 heartbeat IPC: 2.459 cumulative IPC: 1.757 (Simulation time: 00 hr 09 min 12 sec)
Heartbeat CPU 0 instructions: 102500554 cycles: 40339809 heartbeat IPC: 2.317 cumulative IPC: 1.761 (Simulation time: 00 hr 09 min 15 sec)
Heartbeat CPU 0 instructions: 103000555 cycles: 40555619 heartbeat IPC: 2.317 cumulative IPC: 1.765 (Simulation time: 00 hr 09 min 19 sec)
Heartbeat CPU 0 instructions: 103500555 cycles: 40764796 heartbeat IPC: 2.39 cumulative IPC: 1.769 (Simulation time: 00 hr 09 min 22 sec)
Heartbeat CPU 0 instructions: 104000558 cycles: 40976543 heartbeat IPC: 2.361 cumulative IPC: 1.774 (Simulation time: 00 hr 09 min 25 sec)
Heartbeat CPU 0 instructions: 104500559 cycles: 41197864 heartbeat IPC: 2.259 cumulative IPC: 1.777 (Simulation time: 00 hr 09 min 29 sec)
Heartbeat CPU 0 instructions: 105000565 cycles: 41403954 heartbeat IPC: 2.426 cumulative IPC: 1.781 (Simulation time: 00 hr 09 min 32 sec)
Heartbeat CPU 0 instructions: 105500565 cycles: 41627054 heartbeat IPC: 2.241 cumulative IPC: 1.785 (Simulation time: 00 hr 09 min 36 sec)
Heartbeat CPU 0 instructions: 106000567 cycles: 41848255 heartbeat IPC: 2.26 cumulative IPC: 1.788 (Simulation time: 00 hr 09 min 39 sec)
Heartbeat CPU 0 instructions: 106500568 cycles: 42057927 heartbeat IPC: 2.385 cumulative IPC: 1.792 (Simulation time: 00 hr 09 min 42 sec)
Heartbeat CPU 0 instructions: 107000568 cycles: 42264075 heartbeat IPC: 2.425 cumulative IPC: 1.796 (Simulation time: 00 hr 09 min 46 sec)
Heartbeat CPU 0 instructions: 107500571 cycles: 42470242 heartbeat IPC: 2.425 cumulative IPC: 1.8 (Simulation time: 00 hr 09 min 49 sec)
Heartbeat CPU 0 instructions: 108000571 cycles: 42677814 heartbeat IPC: 2.409 cumulative IPC: 1.804 (Simulation time: 00 hr 09 min 52 sec)
Heartbeat CPU 0 instructions: 108500572 cycles: 42887353 heartbeat IPC: 2.386 cumulative IPC: 1.808 (Simulation time: 00 hr 09 min 56 sec)
Heartbeat CPU 0 instructions: 109000577 cycles: 43096577 heartbeat IPC: 2.39 cumulative IPC: 1.812 (Simulation time: 00 hr 09 min 59 sec)
Heartbeat CPU 0 instructions: 109500578 cycles: 43307858 heartbeat IPC: 2.367 cumulative IPC: 1.815 (Simulation time: 00 hr 10 min 02 sec)
Heartbeat CPU 0 instructions: 110000578 cycles: 43510170 heartbeat IPC: 2.471 cumulative IPC: 1.819 (Simulation time: 00 hr 10 min 06 sec)
Heartbeat CPU 0 instructions: 110500580 cycles: 43719639 heartbeat IPC: 2.387 cumulative IPC: 1.823 (Simulation time: 00 hr 10 min 09 sec)
Heartbeat CPU 0 instructions: 111000586 cycles: 43938064 heartbeat IPC: 2.289 cumulative IPC: 1.826 (Simulation time: 00 hr 10 min 12 sec)
Heartbeat CPU 0 instructions: 111500586 cycles: 44143430 heartbeat IPC: 2.435 cumulative IPC: 1.83 (Simulation time: 00 hr 10 min 16 sec)
Heartbeat CPU 0 instructions: 112000586 cycles: 44370508 heartbeat IPC: 2.202 cumulative IPC: 1.832 (Simulation time: 00 hr 10 min 19 sec)
Heartbeat CPU 0 instructions: 112500586 cycles: 44591165 heartbeat IPC: 2.266 cumulative IPC: 1.835 (Simulation time: 00 hr 10 min 22 sec)
Heartbeat CPU 0 instructions: 113000587 cycles: 44812548 heartbeat IPC: 2.259 cumulative IPC: 1.838 (Simulation time: 00 hr 10 min 26 sec)
Heartbeat CPU 0 instructions: 113500588 cycles: 45031149 heartbeat IPC: 2.287 cumulative IPC: 1.84 (Simulation time: 00 hr 10 min 29 sec)
Heartbeat CPU 0 instructions: 114000588 cycles: 45241884 heartbeat IPC: 2.373 cumulative IPC: 1.844 (Simulation time: 00 hr 10 min 33 sec)
Heartbeat CPU 0 instructions: 114500588 cycles: 45452978 heartbeat IPC: 2.369 cumulative IPC: 1.847 (Simulation time: 00 hr 10 min 36 sec)
Heartbeat CPU 0 instructions: 115000591 cycles: 45661549 heartbeat IPC: 2.397 cumulative IPC: 1.85 (Simulation time: 00 hr 10 min 39 sec)
Heartbeat CPU 0 instructions: 115500593 cycles: 45881696 heartbeat IPC: 2.271 cumulative IPC: 1.853 (Simulation time: 00 hr 10 min 43 sec)
Heartbeat CPU 0 instructions: 116000597 cycles: 46093339 heartbeat IPC: 2.362 cumulative IPC: 1.856 (Simulation time: 00 hr 10 min 46 sec)
Heartbeat CPU 0 instructions: 116500602 cycles: 46303983 heartbeat IPC: 2.374 cumulative IPC: 1.859 (Simulation time: 00 hr 10 min 49 sec)
Heartbeat CPU 0 instructions: 117000603 cycles: 46511903 heartbeat IPC: 2.405 cumulative IPC: 1.862 (Simulation time: 00 hr 10 min 53 sec)
Heartbeat CPU 0 instructions: 117500608 cycles: 46722720 heartbeat IPC: 2.372 cumulative IPC: 1.865 (Simulation time: 00 hr 10 min 56 sec)
Heartbeat CPU 0 instructions: 118000609 cycles: 46940319 heartbeat IPC: 2.298 cumulative IPC: 1.868 (Simulation time: 00 hr 10 min 59 sec)
Heartbeat CPU 0 instructions: 118500616 cycles: 47200246 heartbeat IPC: 1.924 cumulative IPC: 1.868 (Simulation time: 00 hr 11 min 03 sec)
Heartbeat CPU 0 instructions: 119000618 cycles: 47413210 heartbeat IPC: 2.348 cumulative IPC: 1.871 (Simulation time: 00 hr 11 min 06 sec)
Heartbeat CPU 0 instructions: 119500620 cycles: 47651583 heartbeat IPC: 2.098 cumulative IPC: 1.872 (Simulation time: 00 hr 11 min 10 sec)
Heartbeat CPU 0 instructions: 120000623 cycles: 47897654 heartbeat IPC: 2.032 cumulative IPC: 1.873 (Simulation time: 00 hr 11 min 13 sec)
Heartbeat CPU 0 instructions: 120500626 cycles: 48119476 heartbeat IPC: 2.254 cumulative IPC: 1.875 (Simulation time: 00 hr 11 min 17 sec)
Heartbeat CPU 0 instructions: 121000628 cycles: 48361712 heartbeat IPC: 2.064 cumulative IPC: 1.877 (Simulation time: 00 hr 11 min 20 sec)
Heartbeat CPU 0 instructions: 121500628 cycles: 48571826 heartbeat IPC: 2.38 cumulative IPC: 1.879 (Simulation time: 00 hr 11 min 24 sec)
Heartbeat CPU 0 instructions: 122000633 cycles: 48784783 heartbeat IPC: 2.348 cumulative IPC: 1.882 (Simulation time: 00 hr 11 min 27 sec)
Heartbeat CPU 0 instructions: 122500633 cycles: 49004812 heartbeat IPC: 2.272 cumulative IPC: 1.884 (Simulation time: 00 hr 11 min 30 sec)
Heartbeat CPU 0 instructions: 123000637 cycles: 49219018 heartbeat IPC: 2.334 cumulative IPC: 1.887 (Simulation time: 00 hr 11 min 34 sec)
Heartbeat CPU 0 instructions: 123500638 cycles: 49481143 heartbeat IPC: 1.907 cumulative IPC: 1.887 (Simulation time: 00 hr 11 min 37 sec)
Heartbeat CPU 0 instructions: 124000638 cycles: 49694610 heartbeat IPC: 2.342 cumulative IPC: 1.889 (Simulation time: 00 hr 11 min 41 sec)
Heartbeat CPU 0 instructions: 124500638 cycles: 49938396 heartbeat IPC: 2.051 cumulative IPC: 1.89 (Simulation time: 00 hr 11 min 44 sec)
Heartbeat CPU 0 instructions: 125000638 cycles: 50191871 heartbeat IPC: 1.973 cumulative IPC: 1.891 (Simulation time: 00 hr 11 min 48 sec)
Heartbeat CPU 0 instructions: 125500642 cycles: 50817254 heartbeat IPC: 0.7995 cumulative IPC: 1.874 (Simulation time: 00 hr 11 min 54 sec)
Heartbeat CPU 0 instructions: 126000642 cycles: 52170752 heartbeat IPC: 0.3694 cumulative IPC: 1.825 (Simulation time: 00 hr 12 min 09 sec)
Heartbeat CPU 0 instructions: 126500642 cycles: 53431902 heartbeat IPC: 0.3965 cumulative IPC: 1.783 (Simulation time: 00 hr 12 min 22 sec)
Heartbeat CPU 0 instructions: 127000642 cycles: 54138732 heartbeat IPC: 0.7074 cumulative IPC: 1.766 (Simulation time: 00 hr 12 min 30 sec)
Heartbeat CPU 0 instructions: 127500646 cycles: 54422761 heartbeat IPC: 1.76 cumulative IPC: 1.766 (Simulation time: 00 hr 12 min 34 sec)
Heartbeat CPU 0 instructions: 128000649 cycles: 54645438 heartbeat IPC: 2.245 cumulative IPC: 1.768 (Simulation time: 00 hr 12 min 37 sec)
Heartbeat CPU 0 instructions: 128500653 cycles: 54860942 heartbeat IPC: 2.32 cumulative IPC: 1.771 (Simulation time: 00 hr 12 min 41 sec)
Heartbeat CPU 0 instructions: 129000654 cycles: 55086332 heartbeat IPC: 2.218 cumulative IPC: 1.773 (Simulation time: 00 hr 12 min 44 sec)
Heartbeat CPU 0 instructions: 129500654 cycles: 55303646 heartbeat IPC: 2.301 cumulative IPC: 1.776 (Simulation time: 00 hr 12 min 48 sec)
Heartbeat CPU 0 instructions: 130000658 cycles: 55523101 heartbeat IPC: 2.278 cumulative IPC: 1.778 (Simulation time: 00 hr 12 min 51 sec)
Heartbeat CPU 0 instructions: 130500658 cycles: 55751421 heartbeat IPC: 2.19 cumulative IPC: 1.78 (Simulation time: 00 hr 12 min 55 sec)
Heartbeat CPU 0 instructions: 131000660 cycles: 55972187 heartbeat IPC: 2.265 cumulative IPC: 1.782 (Simulation time: 00 hr 12 min 59 sec)
Heartbeat CPU 0 instructions: 131500660 cycles: 56197257 heartbeat IPC: 2.222 cumulative IPC: 1.785 (Simulation time: 00 hr 13 min 02 sec)
Heartbeat CPU 0 instructions: 132000662 cycles: 56414064 heartbeat IPC: 2.306 cumulative IPC: 1.787 (Simulation time: 00 hr 13 min 06 sec)
Heartbeat CPU 0 instructions: 132500668 cycles: 56635560 heartbeat IPC: 2.257 cumulative IPC: 1.789 (Simulation time: 00 hr 13 min 09 sec)
Heartbeat CPU 0 instructions: 133000671 cycles: 56849907 heartbeat IPC: 2.333 cumulative IPC: 1.792 (Simulation time: 00 hr 13 min 13 sec)
Heartbeat CPU 0 instructions: 133500671 cycles: 57075337 heartbeat IPC: 2.218 cumulative IPC: 1.794 (Simulation time: 00 hr 13 min 16 sec)
Heartbeat CPU 0 instructions: 134000673 cycles: 57296637 heartbeat IPC: 2.259 cumulative IPC: 1.796 (Simulation time: 00 hr 13 min 20 sec)
Heartbeat CPU 0 instructions: 134500673 cycles: 57514890 heartbeat IPC: 2.291 cumulative IPC: 1.798 (Simulation time: 00 hr 13 min 23 sec)
Heartbeat CPU 0 instructions: 135000673 cycles: 57740882 heartbeat IPC: 2.212 cumulative IPC: 1.8 (Simulation time: 00 hr 13 min 27 sec)
Heartbeat CPU 0 instructions: 135500674 cycles: 57964102 heartbeat IPC: 2.24 cumulative IPC: 1.802 (Simulation time: 00 hr 13 min 31 sec)
Heartbeat CPU 0 instructions: 136000676 cycles: 58184717 heartbeat IPC: 2.266 cumulative IPC: 1.805 (Simulation time: 00 hr 13 min 34 sec)
Heartbeat CPU 0 instructions: 136500677 cycles: 58414711 heartbeat IPC: 2.174 cumulative IPC: 1.806 (Simulation time: 00 hr 13 min 38 sec)
Heartbeat CPU 0 instructions: 137000678 cycles: 58645865 heartbeat IPC: 2.163 cumulative IPC: 1.808 (Simulation time: 00 hr 13 min 41 sec)
Heartbeat CPU 0 instructions: 137500683 cycles: 58859669 heartbeat IPC: 2.339 cumulative IPC: 1.81 (Simulation time: 00 hr 13 min 45 sec)
Heartbeat CPU 0 instructions: 138000687 cycles: 59070963 heartbeat IPC: 2.366 cumulative IPC: 1.813 (Simulation time: 00 hr 13 min 48 sec)
Heartbeat CPU 0 instructions: 138500689 cycles: 59285705 heartbeat IPC: 2.328 cumulative IPC: 1.815 (Simulation time: 00 hr 13 min 52 sec)
Heartbeat CPU 0 instructions: 139000690 cycles: 59497429 heartbeat IPC: 2.362 cumulative IPC: 1.818 (Simulation time: 00 hr 13 min 55 sec)
Heartbeat CPU 0 instructions: 139500694 cycles: 59724082 heartbeat IPC: 2.206 cumulative IPC: 1.819 (Simulation time: 00 hr 13 min 59 sec)
Heartbeat CPU 0 instructions: 140000700 cycles: 59937439 heartbeat IPC: 2.344 cumulative IPC: 1.822 (Simulation time: 00 hr 14 min 02 sec)
Heartbeat CPU 0 instructions: 140500701 cycles: 60157676 heartbeat IPC: 2.27 cumulative IPC: 1.824 (Simulation time: 00 hr 14 min 06 sec)
Heartbeat CPU 0 instructions: 141000706 cycles: 60370714 heartbeat IPC: 2.347 cumulative IPC: 1.826 (Simulation time: 00 hr 14 min 09 sec)
Heartbeat CPU 0 instructions: 141500706 cycles: 60599231 heartbeat IPC: 2.188 cumulative IPC: 1.827 (Simulation time: 00 hr 14 min 13 sec)
Heartbeat CPU 0 instructions: 142000711 cycles: 60819264 heartbeat IPC: 2.272 cumulative IPC: 1.829 (Simulation time: 00 hr 14 min 16 sec)
Heartbeat CPU 0 instructions: 142500713 cycles: 61038866 heartbeat IPC: 2.277 cumulative IPC: 1.831 (Simulation time: 00 hr 14 min 20 sec)
Heartbeat CPU 0 instructions: 143000713 cycles: 61280930 heartbeat IPC: 2.066 cumulative IPC: 1.832 (Simulation time: 00 hr 14 min 24 sec)
Heartbeat CPU 0 instructions: 143500717 cycles: 61513445 heartbeat IPC: 2.15 cumulative IPC: 1.834 (Simulation time: 00 hr 14 min 27 sec)
Heartbeat CPU 0 instructions: 144000723 cycles: 61744319 heartbeat IPC: 2.166 cumulative IPC: 1.835 (Simulation time: 00 hr 14 min 31 sec)
Heartbeat CPU 0 instructions: 144500723 cycles: 61973349 heartbeat IPC: 2.183 cumulative IPC: 1.837 (Simulation time: 00 hr 14 min 34 sec)
Heartbeat CPU 0 instructions: 145000724 cycles: 62196007 heartbeat IPC: 2.246 cumulative IPC: 1.839 (Simulation time: 00 hr 14 min 38 sec)
Heartbeat CPU 0 instructions: 145500725 cycles: 62415037 heartbeat IPC: 2.283 cumulative IPC: 1.841 (Simulation time: 00 hr 14 min 42 sec)
Heartbeat CPU 0 instructions: 146000729 cycles: 62641307 heartbeat IPC: 2.21 cumulative IPC: 1.842 (Simulation time: 00 hr 14 min 45 sec)
Heartbeat CPU 0 instructions: 146500730 cycles: 62873829 heartbeat IPC: 2.15 cumulative IPC: 1.844 (Simulation time: 00 hr 14 min 49 sec)
Heartbeat CPU 0 instructions: 147000731 cycles: 63094014 heartbeat IPC: 2.271 cumulative IPC: 1.845 (Simulation time: 00 hr 14 min 52 sec)
Heartbeat CPU 0 instructions: 147500734 cycles: 63321586 heartbeat IPC: 2.197 cumulative IPC: 1.847 (Simulation time: 00 hr 14 min 56 sec)
Heartbeat CPU 0 instructions: 148000735 cycles: 63538703 heartbeat IPC: 2.303 cumulative IPC: 1.849 (Simulation time: 00 hr 14 min 59 sec)
Heartbeat CPU 0 instructions: 148500735 cycles: 63763029 heartbeat IPC: 2.229 cumulative IPC: 1.85 (Simulation time: 00 hr 15 min 03 sec)
Heartbeat CPU 0 instructions: 149000735 cycles: 64001349 heartbeat IPC: 2.098 cumulative IPC: 1.851 (Simulation time: 00 hr 15 min 07 sec)
Heartbeat CPU 0 instructions: 149500735 cycles: 64253850 heartbeat IPC: 1.98 cumulative IPC: 1.852 (Simulation time: 00 hr 15 min 10 sec)
Heartbeat CPU 0 instructions: 150000735 cycles: 64490362 heartbeat IPC: 2.114 cumulative IPC: 1.853 (Simulation time: 00 hr 15 min 14 sec)
Heartbeat CPU 0 instructions: 150500738 cycles: 64753918 heartbeat IPC: 1.897 cumulative IPC: 1.853 (Simulation time: 00 hr 15 min 18 sec)
Heartbeat CPU 0 instructions: 151000738 cycles: 64991630 heartbeat IPC: 2.103 cumulative IPC: 1.854 (Simulation time: 00 hr 15 min 21 sec)
Heartbeat CPU 0 instructions: 151500740 cycles: 65228293 heartbeat IPC: 2.113 cumulative IPC: 1.856 (Simulation time: 00 hr 15 min 25 sec)
Heartbeat CPU 0 instructions: 152000740 cycles: 65484959 heartbeat IPC: 1.948 cumulative IPC: 1.856 (Simulation time: 00 hr 15 min 28 sec)
Heartbeat CPU 0 instructions: 152500741 cycles: 65709106 heartbeat IPC: 2.231 cumulative IPC: 1.858 (Simulation time: 00 hr 15 min 32 sec)
Heartbeat CPU 0 instructions: 153000744 cycles: 65930830 heartbeat IPC: 2.255 cumulative IPC: 1.859 (Simulation time: 00 hr 15 min 36 sec)
Heartbeat CPU 0 instructions: 153500745 cycles: 66164291 heartbeat IPC: 2.142 cumulative IPC: 1.86 (Simulation time: 00 hr 15 min 39 sec)
Heartbeat CPU 0 instructions: 154000751 cycles: 66382675 heartbeat IPC: 2.29 cumulative IPC: 1.862 (Simulation time: 00 hr 15 min 43 sec)
Heartbeat CPU 0 instructions: 154500752 cycles: 66666069 heartbeat IPC: 1.764 cumulative IPC: 1.862 (Simulation time: 00 hr 15 min 47 sec)
Heartbeat CPU 0 instructions: 155000756 cycles: 66893230 heartbeat IPC: 2.201 cumulative IPC: 1.863 (Simulation time: 00 hr 15 min 50 sec)
Heartbeat CPU 0 instructions: 155500758 cycles: 67171724 heartbeat IPC: 1.795 cumulative IPC: 1.863 (Simulation time: 00 hr 15 min 54 sec)
Heartbeat CPU 0 instructions: 156000758 cycles: 67452547 heartbeat IPC: 1.78 cumulative IPC: 1.862 (Simulation time: 00 hr 15 min 58 sec)
Heartbeat CPU 0 instructions: 156500765 cycles: 67795379 heartbeat IPC: 1.458 cumulative IPC: 1.86 (Simulation time: 00 hr 16 min 02 sec)
Heartbeat CPU 0 instructions: 157000766 cycles: 68049411 heartbeat IPC: 1.968 cumulative IPC: 1.86 (Simulation time: 00 hr 16 min 06 sec)
Heartbeat CPU 0 instructions: 157500769 cycles: 68274368 heartbeat IPC: 2.223 cumulative IPC: 1.862 (Simulation time: 00 hr 16 min 09 sec)
Heartbeat CPU 0 instructions: 158000776 cycles: 68481836 heartbeat IPC: 2.41 cumulative IPC: 1.864 (Simulation time: 00 hr 16 min 12 sec)
Heartbeat CPU 0 instructions: 158500777 cycles: 68704720 heartbeat IPC: 2.243 cumulative IPC: 1.865 (Simulation time: 00 hr 16 min 16 sec)
Heartbeat CPU 0 instructions: 159000784 cycles: 68911802 heartbeat IPC: 2.415 cumulative IPC: 1.867 (Simulation time: 00 hr 16 min 19 sec)
Heartbeat CPU 0 instructions: 159500784 cycles: 69124384 heartbeat IPC: 2.352 cumulative IPC: 1.869 (Simulation time: 00 hr 16 min 22 sec)
Heartbeat CPU 0 instructions: 160000786 cycles: 69346778 heartbeat IPC: 2.248 cumulative IPC: 1.87 (Simulation time: 00 hr 16 min 26 sec)
Heartbeat CPU 0 instructions: 160500790 cycles: 69564546 heartbeat IPC: 2.296 cumulative IPC: 1.872 (Simulation time: 00 hr 16 min 29 sec)
Heartbeat CPU 0 instructions: 161000791 cycles: 69785891 heartbeat IPC: 2.259 cumulative IPC: 1.873 (Simulation time: 00 hr 16 min 33 sec)
Heartbeat CPU 0 instructions: 161500796 cycles: 69992542 heartbeat IPC: 2.42 cumulative IPC: 1.875 (Simulation time: 00 hr 16 min 36 sec)
Heartbeat CPU 0 instructions: 162000796 cycles: 70204458 heartbeat IPC: 2.359 cumulative IPC: 1.877 (Simulation time: 00 hr 16 min 40 sec)
Heartbeat CPU 0 instructions: 162500801 cycles: 70411770 heartbeat IPC: 2.412 cumulative IPC: 1.879 (Simulation time: 00 hr 16 min 43 sec)
Heartbeat CPU 0 instructions: 163000801 cycles: 70629018 heartbeat IPC: 2.302 cumulative IPC: 1.88 (Simulation time: 00 hr 16 min 46 sec)
Heartbeat CPU 0 instructions: 163500804 cycles: 70842251 heartbeat IPC: 2.345 cumulative IPC: 1.882 (Simulation time: 00 hr 16 min 50 sec)
Heartbeat CPU 0 instructions: 164000804 cycles: 71053782 heartbeat IPC: 2.364 cumulative IPC: 1.884 (Simulation time: 00 hr 16 min 53 sec)
Heartbeat CPU 0 instructions: 164500809 cycles: 71265887 heartbeat IPC: 2.357 cumulative IPC: 1.885 (Simulation time: 00 hr 16 min 57 sec)
Heartbeat CPU 0 instructions: 165000809 cycles: 71483041 heartbeat IPC: 2.303 cumulative IPC: 1.887 (Simulation time: 00 hr 17 min 00 sec)
Heartbeat CPU 0 instructions: 165500809 cycles: 71692423 heartbeat IPC: 2.388 cumulative IPC: 1.888 (Simulation time: 00 hr 17 min 03 sec)
Heartbeat CPU 0 instructions: 166000815 cycles: 71919541 heartbeat IPC: 2.202 cumulative IPC: 1.89 (Simulation time: 00 hr 17 min 07 sec)
Heartbeat CPU 0 instructions: 166500818 cycles: 72144472 heartbeat IPC: 2.223 cumulative IPC: 1.891 (Simulation time: 00 hr 17 min 10 sec)
Heartbeat CPU 0 instructions: 167000818 cycles: 72352626 heartbeat IPC: 2.402 cumulative IPC: 1.892 (Simulation time: 00 hr 17 min 14 sec)
Heartbeat CPU 0 instructions: 167500820 cycles: 72558121 heartbeat IPC: 2.433 cumulative IPC: 1.894 (Simulation time: 00 hr 17 min 17 sec)
Heartbeat CPU 0 instructions: 168000820 cycles: 72762469 heartbeat IPC: 2.447 cumulative IPC: 1.896 (Simulation time: 00 hr 17 min 20 sec)
Heartbeat CPU 0 instructions: 168500821 cycles: 72972802 heartbeat IPC: 2.377 cumulative IPC: 1.898 (Simulation time: 00 hr 17 min 24 sec)
Heartbeat CPU 0 instructions: 169000822 cycles: 73188346 heartbeat IPC: 2.32 cumulative IPC: 1.899 (Simulation time: 00 hr 17 min 27 sec)
Heartbeat CPU 0 instructions: 169500825 cycles: 73390298 heartbeat IPC: 2.476 cumulative IPC: 1.901 (Simulation time: 00 hr 17 min 30 sec)
Heartbeat CPU 0 instructions: 170000828 cycles: 73602781 heartbeat IPC: 2.353 cumulative IPC: 1.903 (Simulation time: 00 hr 17 min 34 sec)
Heartbeat CPU 0 instructions: 170500828 cycles: 73802697 heartbeat IPC: 2.501 cumulative IPC: 1.904 (Simulation time: 00 hr 17 min 37 sec)
Heartbeat CPU 0 instructions: 171000832 cycles: 74020503 heartbeat IPC: 2.296 cumulative IPC: 1.906 (Simulation time: 00 hr 17 min 40 sec)
Heartbeat CPU 0 instructions: 171500837 cycles: 74235196 heartbeat IPC: 2.329 cumulative IPC: 1.907 (Simulation time: 00 hr 17 min 44 sec)
Heartbeat CPU 0 instructions: 172000838 cycles: 74444794 heartbeat IPC: 2.386 cumulative IPC: 1.909 (Simulation time: 00 hr 17 min 47 sec)
Heartbeat CPU 0 instructions: 172500841 cycles: 74675703 heartbeat IPC: 2.165 cumulative IPC: 1.91 (Simulation time: 00 hr 17 min 51 sec)
Heartbeat CPU 0 instructions: 173000841 cycles: 74905111 heartbeat IPC: 2.18 cumulative IPC: 1.911 (Simulation time: 00 hr 17 min 54 sec)
Heartbeat CPU 0 instructions: 173500846 cycles: 75123553 heartbeat IPC: 2.289 cumulative IPC: 1.912 (Simulation time: 00 hr 17 min 58 sec)
Heartbeat CPU 0 instructions: 174000848 cycles: 75348568 heartbeat IPC: 2.222 cumulative IPC: 1.913 (Simulation time: 00 hr 18 min 01 sec)
Heartbeat CPU 0 instructions: 174500849 cycles: 75560751 heartbeat IPC: 2.356 cumulative IPC: 1.914 (Simulation time: 00 hr 18 min 04 sec)
Heartbeat CPU 0 instructions: 175000852 cycles: 75770584 heartbeat IPC: 2.383 cumulative IPC: 1.916 (Simulation time: 00 hr 18 min 08 sec)
Heartbeat CPU 0 instructions: 175500853 cycles: 75982235 heartbeat IPC: 2.362 cumulative IPC: 1.917 (Simulation time: 00 hr 18 min 11 sec)
Heartbeat CPU 0 instructions: 176000858 cycles: 76201500 heartbeat IPC: 2.28 cumulative IPC: 1.919 (Simulation time: 00 hr 18 min 15 sec)
Heartbeat CPU 0 instructions: 176500859 cycles: 76412189 heartbeat IPC: 2.373 cumulative IPC: 1.92 (Simulation time: 00 hr 18 min 18 sec)
Heartbeat CPU 0 instructions: 177000859 cycles: 76626078 heartbeat IPC: 2.338 cumulative IPC: 1.921 (Simulation time: 00 hr 18 min 21 sec)
Heartbeat CPU 0 instructions: 177500859 cycles: 76834627 heartbeat IPC: 2.398 cumulative IPC: 1.923 (Simulation time: 00 hr 18 min 25 sec)
Heartbeat CPU 0 instructions: 178000863 cycles: 77047687 heartbeat IPC: 2.347 cumulative IPC: 1.924 (Simulation time: 00 hr 18 min 28 sec)
Heartbeat CPU 0 instructions: 178500868 cycles: 77286557 heartbeat IPC: 2.093 cumulative IPC: 1.925 (Simulation time: 00 hr 18 min 32 sec)
Heartbeat CPU 0 instructions: 179000869 cycles: 77596731 heartbeat IPC: 1.612 cumulative IPC: 1.923 (Simulation time: 00 hr 18 min 35 sec)
Heartbeat CPU 0 instructions: 179500876 cycles: 77871598 heartbeat IPC: 1.819 cumulative IPC: 1.923 (Simulation time: 00 hr 18 min 39 sec)
Heartbeat CPU 0 instructions: 180000883 cycles: 78204382 heartbeat IPC: 1.502 cumulative IPC: 1.921 (Simulation time: 00 hr 18 min 43 sec)
Heartbeat CPU 0 instructions: 180500883 cycles: 78538054 heartbeat IPC: 1.498 cumulative IPC: 1.919 (Simulation time: 00 hr 18 min 47 sec)
Heartbeat CPU 0 instructions: 181000886 cycles: 78908918 heartbeat IPC: 1.348 cumulative IPC: 1.916 (Simulation time: 00 hr 18 min 51 sec)
Heartbeat CPU 0 instructions: 181500887 cycles: 79264538 heartbeat IPC: 1.406 cumulative IPC: 1.913 (Simulation time: 00 hr 18 min 54 sec)
Heartbeat CPU 0 instructions: 182000891 cycles: 79621941 heartbeat IPC: 1.399 cumulative IPC: 1.91 (Simulation time: 00 hr 18 min 58 sec)
Heartbeat CPU 0 instructions: 182500894 cycles: 79971126 heartbeat IPC: 1.432 cumulative IPC: 1.908 (Simulation time: 00 hr 19 min 01 sec)
Heartbeat CPU 0 instructions: 183000895 cycles: 80326370 heartbeat IPC: 1.407 cumulative IPC: 1.906 (Simulation time: 00 hr 19 min 05 sec)
Heartbeat CPU 0 instructions: 183500899 cycles: 80683427 heartbeat IPC: 1.4 cumulative IPC: 1.903 (Simulation time: 00 hr 19 min 08 sec)
Heartbeat CPU 0 instructions: 184000901 cycles: 81038169 heartbeat IPC: 1.409 cumulative IPC: 1.9 (Simulation time: 00 hr 19 min 12 sec)
Heartbeat CPU 0 instructions: 184500901 cycles: 81386653 heartbeat IPC: 1.435 cumulative IPC: 1.898 (Simulation time: 00 hr 19 min 16 sec)
Heartbeat CPU 0 instructions: 185000903 cycles: 81744032 heartbeat IPC: 1.399 cumulative IPC: 1.896 (Simulation time: 00 hr 19 min 19 sec)
Heartbeat CPU 0 instructions: 185500906 cycles: 82099657 heartbeat IPC: 1.406 cumulative IPC: 1.893 (Simulation time: 00 hr 19 min 23 sec)
Heartbeat CPU 0 instructions: 186000907 cycles: 82451881 heartbeat IPC: 1.42 cumulative IPC: 1.891 (Simulation time: 00 hr 19 min 26 sec)
Heartbeat CPU 0 instructions: 186500909 cycles: 82809341 heartbeat IPC: 1.399 cumulative IPC: 1.888 (Simulation time: 00 hr 19 min 30 sec)
Heartbeat CPU 0 instructions: 187000909 cycles: 83166752 heartbeat IPC: 1.399 cumulative IPC: 1.886 (Simulation time: 00 hr 19 min 33 sec)
Heartbeat CPU 0 instructions: 187500916 cycles: 83515889 heartbeat IPC: 1.432 cumulative IPC: 1.884 (Simulation time: 00 hr 19 min 37 sec)
Heartbeat CPU 0 instructions: 188000916 cycles: 83855630 heartbeat IPC: 1.472 cumulative IPC: 1.882 (Simulation time: 00 hr 19 min 40 sec)
Heartbeat CPU 0 instructions: 188500919 cycles: 84196864 heartbeat IPC: 1.465 cumulative IPC: 1.88 (Simulation time: 00 hr 19 min 44 sec)
Heartbeat CPU 0 instructions: 189000923 cycles: 84534928 heartbeat IPC: 1.479 cumulative IPC: 1.878 (Simulation time: 00 hr 19 min 47 sec)
Heartbeat CPU 0 instructions: 189500927 cycles: 84885741 heartbeat IPC: 1.425 cumulative IPC: 1.876 (Simulation time: 00 hr 19 min 50 sec)
Heartbeat CPU 0 instructions: 190000930 cycles: 85244776 heartbeat IPC: 1.393 cumulative IPC: 1.874 (Simulation time: 00 hr 19 min 54 sec)
Heartbeat CPU 0 instructions: 190500931 cycles: 85602983 heartbeat IPC: 1.396 cumulative IPC: 1.871 (Simulation time: 00 hr 19 min 58 sec)
Heartbeat CPU 0 instructions: 191000932 cycles: 85961727 heartbeat IPC: 1.394 cumulative IPC: 1.869 (Simulation time: 00 hr 20 min 01 sec)
Heartbeat CPU 0 instructions: 191500934 cycles: 86314120 heartbeat IPC: 1.419 cumulative IPC: 1.867 (Simulation time: 00 hr 20 min 05 sec)
Heartbeat CPU 0 instructions: 192000935 cycles: 86667930 heartbeat IPC: 1.413 cumulative IPC: 1.865 (Simulation time: 00 hr 20 min 08 sec)
Heartbeat CPU 0 instructions: 192500938 cycles: 87021934 heartbeat IPC: 1.412 cumulative IPC: 1.863 (Simulation time: 00 hr 20 min 12 sec)
Heartbeat CPU 0 instructions: 193000939 cycles: 87368584 heartbeat IPC: 1.442 cumulative IPC: 1.861 (Simulation time: 00 hr 20 min 15 sec)
Heartbeat CPU 0 instructions: 193500940 cycles: 87735363 heartbeat IPC: 1.363 cumulative IPC: 1.859 (Simulation time: 00 hr 20 min 19 sec)
Heartbeat CPU 0 instructions: 194000941 cycles: 88041812 heartbeat IPC: 1.632 cumulative IPC: 1.858 (Simulation time: 00 hr 20 min 23 sec)
Heartbeat CPU 0 instructions: 194500942 cycles: 88270490 heartbeat IPC: 2.186 cumulative IPC: 1.859 (Simulation time: 00 hr 20 min 26 sec)
Heartbeat CPU 0 instructions: 195000944 cycles: 88479142 heartbeat IPC: 2.396 cumulative IPC: 1.86 (Simulation time: 00 hr 20 min 29 sec)
Heartbeat CPU 0 instructions: 195500945 cycles: 88704355 heartbeat IPC: 2.22 cumulative IPC: 1.861 (Simulation time: 00 hr 20 min 33 sec)
Heartbeat CPU 0 instructions: 196000948 cycles: 88913155 heartbeat IPC: 2.395 cumulative IPC: 1.863 (Simulation time: 00 hr 20 min 36 sec)
Heartbeat CPU 0 instructions: 196500955 cycles: 89124518 heartbeat IPC: 2.366 cumulative IPC: 1.864 (Simulation time: 00 hr 20 min 39 sec)
Heartbeat CPU 0 instructions: 197000956 cycles: 89342954 heartbeat IPC: 2.289 cumulative IPC: 1.865 (Simulation time: 00 hr 20 min 43 sec)
Heartbeat CPU 0 instructions: 197500961 cycles: 89560672 heartbeat IPC: 2.297 cumulative IPC: 1.866 (Simulation time: 00 hr 20 min 46 sec)
Heartbeat CPU 0 instructions: 198000962 cycles: 89777988 heartbeat IPC: 2.301 cumulative IPC: 1.868 (Simulation time: 00 hr 20 min 49 sec)
Heartbeat CPU 0 instructions: 198500965 cycles: 89990354 heartbeat IPC: 2.354 cumulative IPC: 1.869 (Simulation time: 00 hr 20 min 53 sec)
Heartbeat CPU 0 instructions: 199000970 cycles: 90203107 heartbeat IPC: 2.35 cumulative IPC: 1.87 (Simulation time: 00 hr 20 min 56 sec)
Heartbeat CPU 0 instructions: 199500971 cycles: 90412665 heartbeat IPC: 2.386 cumulative IPC: 1.871 (Simulation time: 00 hr 20 min 59 sec)
Heartbeat CPU 0 instructions: 200000972 cycles: 90626888 heartbeat IPC: 2.334 cumulative IPC: 1.873 (Simulation time: 00 hr 21 min 03 sec)
Heartbeat CPU 0 instructions: 200500973 cycles: 90847162 heartbeat IPC: 2.27 cumulative IPC: 1.874 (Simulation time: 00 hr 21 min 06 sec)
Heartbeat CPU 0 instructions: 201000977 cycles: 91055721 heartbeat IPC: 2.397 cumulative IPC: 1.875 (Simulation time: 00 hr 21 min 09 sec)
Heartbeat CPU 0 instructions: 201500980 cycles: 91272122 heartbeat IPC: 2.311 cumulative IPC: 1.876 (Simulation time: 00 hr 21 min 13 sec)
Heartbeat CPU 0 instructions: 202000984 cycles: 91485167 heartbeat IPC: 2.347 cumulative IPC: 1.878 (Simulation time: 00 hr 21 min 16 sec)
Heartbeat CPU 0 instructions: 202500989 cycles: 91696330 heartbeat IPC: 2.368 cumulative IPC: 1.879 (Simulation time: 00 hr 21 min 19 sec)
Heartbeat CPU 0 instructions: 203000990 cycles: 91916786 heartbeat IPC: 2.268 cumulative IPC: 1.88 (Simulation time: 00 hr 21 min 23 sec)
Heartbeat CPU 0 instructions: 203500994 cycles: 92138772 heartbeat IPC: 2.252 cumulative IPC: 1.881 (Simulation time: 00 hr 21 min 26 sec)
Heartbeat CPU 0 instructions: 204001001 cycles: 92356876 heartbeat IPC: 2.293 cumulative IPC: 1.882 (Simulation time: 00 hr 21 min 29 sec)
Heartbeat CPU 0 instructions: 204501006 cycles: 92562328 heartbeat IPC: 2.434 cumulative IPC: 1.883 (Simulation time: 00 hr 21 min 32 sec)
Heartbeat CPU 0 instructions: 205001008 cycles: 92769569 heartbeat IPC: 2.413 cumulative IPC: 1.885 (Simulation time: 00 hr 21 min 36 sec)
Heartbeat CPU 0 instructions: 205501010 cycles: 92973766 heartbeat IPC: 2.449 cumulative IPC: 1.886 (Simulation time: 00 hr 21 min 39 sec)
Heartbeat CPU 0 instructions: 206001011 cycles: 93184480 heartbeat IPC: 2.373 cumulative IPC: 1.887 (Simulation time: 00 hr 21 min 42 sec)
Heartbeat CPU 0 instructions: 206501016 cycles: 93389216 heartbeat IPC: 2.442 cumulative IPC: 1.889 (Simulation time: 00 hr 21 min 45 sec)
Heartbeat CPU 0 instructions: 207001021 cycles: 93606708 heartbeat IPC: 2.299 cumulative IPC: 1.89 (Simulation time: 00 hr 21 min 49 sec)
Heartbeat CPU 0 instructions: 207501021 cycles: 93809015 heartbeat IPC: 2.471 cumulative IPC: 1.891 (Simulation time: 00 hr 21 min 52 sec)
Heartbeat CPU 0 instructions: 208001021 cycles: 94021656 heartbeat IPC: 2.351 cumulative IPC: 1.892 (Simulation time: 00 hr 21 min 55 sec)
Heartbeat CPU 0 instructions: 208501022 cycles: 94242161 heartbeat IPC: 2.268 cumulative IPC: 1.893 (Simulation time: 00 hr 21 min 58 sec)
Heartbeat CPU 0 instructions: 209001023 cycles: 94450597 heartbeat IPC: 2.399 cumulative IPC: 1.895 (Simulation time: 00 hr 22 min 02 sec)
Heartbeat CPU 0 instructions: 209501024 cycles: 94675301 heartbeat IPC: 2.225 cumulative IPC: 1.896 (Simulation time: 00 hr 22 min 05 sec)
Heartbeat CPU 0 instructions: 210001025 cycles: 94899153 heartbeat IPC: 2.234 cumulative IPC: 1.896 (Simulation time: 00 hr 22 min 08 sec)
Heartbeat CPU 0 instructions: 210501028 cycles: 95120736 heartbeat IPC: 2.257 cumulative IPC: 1.897 (Simulation time: 00 hr 22 min 12 sec)
Heartbeat CPU 0 instructions: 211001034 cycles: 95339464 heartbeat IPC: 2.286 cumulative IPC: 1.898 (Simulation time: 00 hr 22 min 15 sec)
Heartbeat CPU 0 instructions: 211501035 cycles: 95553868 heartbeat IPC: 2.332 cumulative IPC: 1.899 (Simulation time: 00 hr 22 min 18 sec)
Heartbeat CPU 0 instructions: 212001035 cycles: 95765955 heartbeat IPC: 2.358 cumulative IPC: 1.901 (Simulation time: 00 hr 22 min 21 sec)
Heartbeat CPU 0 instructions: 212501036 cycles: 95984967 heartbeat IPC: 2.283 cumulative IPC: 1.902 (Simulation time: 00 hr 22 min 25 sec)
Heartbeat CPU 0 instructions: 213001038 cycles: 96197513 heartbeat IPC: 2.352 cumulative IPC: 1.903 (Simulation time: 00 hr 22 min 28 sec)
Heartbeat CPU 0 instructions: 213501040 cycles: 96413522 heartbeat IPC: 2.315 cumulative IPC: 1.904 (Simulation time: 00 hr 22 min 31 sec)
Heartbeat CPU 0 instructions: 214001040 cycles: 96623778 heartbeat IPC: 2.378 cumulative IPC: 1.905 (Simulation time: 00 hr 22 min 34 sec)
Heartbeat CPU 0 instructions: 214501040 cycles: 96837895 heartbeat IPC: 2.335 cumulative IPC: 1.906 (Simulation time: 00 hr 22 min 38 sec)
Heartbeat CPU 0 instructions: 215001041 cycles: 97049278 heartbeat IPC: 2.365 cumulative IPC: 1.907 (Simulation time: 00 hr 22 min 41 sec)
Heartbeat CPU 0 instructions: 215501042 cycles: 97272002 heartbeat IPC: 2.245 cumulative IPC: 1.908 (Simulation time: 00 hr 22 min 44 sec)
Heartbeat CPU 0 instructions: 216001042 cycles: 97550580 heartbeat IPC: 1.795 cumulative IPC: 1.908 (Simulation time: 00 hr 22 min 48 sec)
Heartbeat CPU 0 instructions: 216501042 cycles: 97864665 heartbeat IPC: 1.592 cumulative IPC: 1.906 (Simulation time: 00 hr 22 min 52 sec)
Heartbeat CPU 0 instructions: 217001042 cycles: 98176137 heartbeat IPC: 1.605 cumulative IPC: 1.905 (Simulation time: 00 hr 22 min 55 sec)
Heartbeat CPU 0 instructions: 217501042 cycles: 98470914 heartbeat IPC: 1.696 cumulative IPC: 1.905 (Simulation time: 00 hr 22 min 59 sec)
Heartbeat CPU 0 instructions: 218001042 cycles: 98798562 heartbeat IPC: 1.526 cumulative IPC: 1.903 (Simulation time: 00 hr 23 min 03 sec)
Heartbeat CPU 0 instructions: 218501044 cycles: 99023486 heartbeat IPC: 2.223 cumulative IPC: 1.904 (Simulation time: 00 hr 23 min 06 sec)
Heartbeat CPU 0 instructions: 219001046 cycles: 99230336 heartbeat IPC: 2.417 cumulative IPC: 1.905 (Simulation time: 00 hr 23 min 10 sec)
Heartbeat CPU 0 instructions: 219501050 cycles: 99455813 heartbeat IPC: 2.218 cumulative IPC: 1.906 (Simulation time: 00 hr 23 min 13 sec)
Heartbeat CPU 0 instructions: 220001050 cycles: 99664348 heartbeat IPC: 2.398 cumulative IPC: 1.907 (Simulation time: 00 hr 23 min 16 sec)
Heartbeat CPU 0 instructions: 220501052 cycles: 99876755 heartbeat IPC: 2.354 cumulative IPC: 1.908 (Simulation time: 00 hr 23 min 19 sec)
Heartbeat CPU 0 instructions: 221001053 cycles: 100094202 heartbeat IPC: 2.299 cumulative IPC: 1.909 (Simulation time: 00 hr 23 min 23 sec)
Heartbeat CPU 0 instructions: 221501060 cycles: 100316525 heartbeat IPC: 2.249 cumulative IPC: 1.91 (Simulation time: 00 hr 23 min 26 sec)
Heartbeat CPU 0 instructions: 222001061 cycles: 100538387 heartbeat IPC: 2.254 cumulative IPC: 1.911 (Simulation time: 00 hr 23 min 29 sec)
Heartbeat CPU 0 instructions: 222501064 cycles: 100748059 heartbeat IPC: 2.385 cumulative IPC: 1.912 (Simulation time: 00 hr 23 min 32 sec)
Heartbeat CPU 0 instructions: 223001064 cycles: 100961460 heartbeat IPC: 2.343 cumulative IPC: 1.913 (Simulation time: 00 hr 23 min 36 sec)
Heartbeat CPU 0 instructions: 223501070 cycles: 101168031 heartbeat IPC: 2.421 cumulative IPC: 1.914 (Simulation time: 00 hr 23 min 39 sec)
Heartbeat CPU 0 instructions: 224001072 cycles: 101385176 heartbeat IPC: 2.303 cumulative IPC: 1.915 (Simulation time: 00 hr 23 min 42 sec)
Heartbeat CPU 0 instructions: 224501076 cycles: 101601625 heartbeat IPC: 2.31 cumulative IPC: 1.916 (Simulation time: 00 hr 23 min 45 sec)
Heartbeat CPU 0 instructions: 225001076 cycles: 101809922 heartbeat IPC: 2.4 cumulative IPC: 1.917 (Simulation time: 00 hr 23 min 48 sec)
Heartbeat CPU 0 instructions: 225501077 cycles: 102025177 heartbeat IPC: 2.323 cumulative IPC: 1.918 (Simulation time: 00 hr 23 min 52 sec)
Heartbeat CPU 0 instructions: 226001078 cycles: 102243852 heartbeat IPC: 2.287 cumulative IPC: 1.919 (Simulation time: 00 hr 23 min 55 sec)
Heartbeat CPU 0 instructions: 226501078 cycles: 102459318 heartbeat IPC: 2.321 cumulative IPC: 1.92 (Simulation time: 00 hr 23 min 58 sec)
Heartbeat CPU 0 instructions: 227001079 cycles: 102676009 heartbeat IPC: 2.307 cumulative IPC: 1.921 (Simulation time: 00 hr 24 min 01 sec)
Heartbeat CPU 0 instructions: 227501082 cycles: 102900292 heartbeat IPC: 2.229 cumulative IPC: 1.922 (Simulation time: 00 hr 24 min 04 sec)
Heartbeat CPU 0 instructions: 228001082 cycles: 103113047 heartbeat IPC: 2.35 cumulative IPC: 1.923 (Simulation time: 00 hr 24 min 08 sec)
Heartbeat CPU 0 instructions: 228501082 cycles: 103316790 heartbeat IPC: 2.454 cumulative IPC: 1.924 (Simulation time: 00 hr 24 min 11 sec)
Heartbeat CPU 0 instructions: 229001083 cycles: 103522335 heartbeat IPC: 2.433 cumulative IPC: 1.925 (Simulation time: 00 hr 24 min 14 sec)
Heartbeat CPU 0 instructions: 229501083 cycles: 103726905 heartbeat IPC: 2.444 cumulative IPC: 1.926 (Simulation time: 00 hr 24 min 17 sec)
Heartbeat CPU 0 instructions: 230001089 cycles: 103939866 heartbeat IPC: 2.348 cumulative IPC: 1.927 (Simulation time: 00 hr 24 min 20 sec)
Heartbeat CPU 0 instructions: 230501091 cycles: 104143758 heartbeat IPC: 2.452 cumulative IPC: 1.928 (Simulation time: 00 hr 24 min 23 sec)
Heartbeat CPU 0 instructions: 231001097 cycles: 104362609 heartbeat IPC: 2.285 cumulative IPC: 1.929 (Simulation time: 00 hr 24 min 26 sec)
Heartbeat CPU 0 instructions: 231501103 cycles: 104567365 heartbeat IPC: 2.442 cumulative IPC: 1.93 (Simulation time: 00 hr 24 min 30 sec)
Heartbeat CPU 0 instructions: 232001109 cycles: 104776260 heartbeat IPC: 2.394 cumulative IPC: 1.931 (Simulation time: 00 hr 24 min 33 sec)
Heartbeat CPU 0 instructions: 232501111 cycles: 104998082 heartbeat IPC: 2.254 cumulative IPC: 1.932 (Simulation time: 00 hr 24 min 36 sec)
Heartbeat CPU 0 instructions: 233001112 cycles: 105205027 heartbeat IPC: 2.416 cumulative IPC: 1.933 (Simulation time: 00 hr 24 min 39 sec)
Heartbeat CPU 0 instructions: 233501118 cycles: 105427506 heartbeat IPC: 2.247 cumulative IPC: 1.934 (Simulation time: 00 hr 24 min 42 sec)
Heartbeat CPU 0 instructions: 234001122 cycles: 105648175 heartbeat IPC: 2.266 cumulative IPC: 1.934 (Simulation time: 00 hr 24 min 45 sec)
Heartbeat CPU 0 instructions: 234501123 cycles: 105863914 heartbeat IPC: 2.318 cumulative IPC: 1.935 (Simulation time: 00 hr 24 min 49 sec)
Heartbeat CPU 0 instructions: 235001123 cycles: 106090777 heartbeat IPC: 2.204 cumulative IPC: 1.936 (Simulation time: 00 hr 24 min 52 sec)
Heartbeat CPU 0 instructions: 235501123 cycles: 106302198 heartbeat IPC: 2.365 cumulative IPC: 1.937 (Simulation time: 00 hr 24 min 55 sec)
Heartbeat CPU 0 instructions: 236001123 cycles: 106514204 heartbeat IPC: 2.358 cumulative IPC: 1.938 (Simulation time: 00 hr 24 min 58 sec)
Heartbeat CPU 0 instructions: 236501124 cycles: 106729103 heartbeat IPC: 2.327 cumulative IPC: 1.939 (Simulation time: 00 hr 25 min 01 sec)
Heartbeat CPU 0 instructions: 237001124 cycles: 106945063 heartbeat IPC: 2.315 cumulative IPC: 1.94 (Simulation time: 00 hr 25 min 04 sec)
Heartbeat CPU 0 instructions: 237501129 cycles: 107161458 heartbeat IPC: 2.311 cumulative IPC: 1.94 (Simulation time: 00 hr 25 min 07 sec)
Heartbeat CPU 0 instructions: 238001129 cycles: 107371315 heartbeat IPC: 2.383 cumulative IPC: 1.941 (Simulation time: 00 hr 25 min 11 sec)
Heartbeat CPU 0 instructions: 238501131 cycles: 107586267 heartbeat IPC: 2.326 cumulative IPC: 1.942 (Simulation time: 00 hr 25 min 14 sec)
Heartbeat CPU 0 instructions: 239001131 cycles: 107793723 heartbeat IPC: 2.41 cumulative IPC: 1.943 (Simulation time: 00 hr 25 min 17 sec)
Heartbeat CPU 0 instructions: 239501132 cycles: 108013595 heartbeat IPC: 2.274 cumulative IPC: 1.944 (Simulation time: 00 hr 25 min 20 sec)
Heartbeat CPU 0 instructions: 240001135 cycles: 108290881 heartbeat IPC: 1.803 cumulative IPC: 1.944 (Simulation time: 00 hr 25 min 23 sec)
Heartbeat CPU 0 instructions: 240501139 cycles: 108604169 heartbeat IPC: 1.596 cumulative IPC: 1.942 (Simulation time: 00 hr 25 min 27 sec)
Heartbeat CPU 0 instructions: 241001143 cycles: 108914811 heartbeat IPC: 1.61 cumulative IPC: 1.941 (Simulation time: 00 hr 25 min 31 sec)
Heartbeat CPU 0 instructions: 241501145 cycles: 109205531 heartbeat IPC: 1.72 cumulative IPC: 1.941 (Simulation time: 00 hr 25 min 34 sec)
Heartbeat CPU 0 instructions: 242001145 cycles: 109872756 heartbeat IPC: 0.7494 cumulative IPC: 1.933 (Simulation time: 00 hr 25 min 39 sec)
Heartbeat CPU 0 instructions: 242501147 cycles: 110281193 heartbeat IPC: 1.224 cumulative IPC: 1.93 (Simulation time: 00 hr 25 min 43 sec)
Heartbeat CPU 0 instructions: 243001152 cycles: 110499367 heartbeat IPC: 2.292 cumulative IPC: 1.931 (Simulation time: 00 hr 25 min 46 sec)
Heartbeat CPU 0 instructions: 243501153 cycles: 110712959 heartbeat IPC: 2.341 cumulative IPC: 1.931 (Simulation time: 00 hr 25 min 49 sec)
Heartbeat CPU 0 instructions: 244001156 cycles: 110927948 heartbeat IPC: 2.326 cumulative IPC: 1.932 (Simulation time: 00 hr 25 min 52 sec)
Heartbeat CPU 0 instructions: 244501161 cycles: 111140423 heartbeat IPC: 2.353 cumulative IPC: 1.933 (Simulation time: 00 hr 25 min 55 sec)
Heartbeat CPU 0 instructions: 245001162 cycles: 111350767 heartbeat IPC: 2.377 cumulative IPC: 1.934 (Simulation time: 00 hr 25 min 58 sec)
Heartbeat CPU 0 instructions: 245501165 cycles: 111566361 heartbeat IPC: 2.319 cumulative IPC: 1.935 (Simulation time: 00 hr 26 min 02 sec)
Heartbeat CPU 0 instructions: 246001166 cycles: 111783793 heartbeat IPC: 2.3 cumulative IPC: 1.936 (Simulation time: 00 hr 26 min 05 sec)
Heartbeat CPU 0 instructions: 246501169 cycles: 112002363 heartbeat IPC: 2.288 cumulative IPC: 1.936 (Simulation time: 00 hr 26 min 08 sec)
Heartbeat CPU 0 instructions: 247001172 cycles: 112219375 heartbeat IPC: 2.304 cumulative IPC: 1.937 (Simulation time: 00 hr 26 min 11 sec)
Heartbeat CPU 0 instructions: 247501174 cycles: 112428199 heartbeat IPC: 2.394 cumulative IPC: 1.938 (Simulation time: 00 hr 26 min 14 sec)
Heartbeat CPU 0 instructions: 248001177 cycles: 112638794 heartbeat IPC: 2.374 cumulative IPC: 1.939 (Simulation time: 00 hr 26 min 17 sec)
Heartbeat CPU 0 instructions: 248501178 cycles: 112844749 heartbeat IPC: 2.428 cumulative IPC: 1.94 (Simulation time: 00 hr 26 min 20 sec)
Heartbeat CPU 0 instructions: 249001180 cycles: 113062126 heartbeat IPC: 2.3 cumulative IPC: 1.941 (Simulation time: 00 hr 26 min 23 sec)
Heartbeat CPU 0 instructions: 249501181 cycles: 113273231 heartbeat IPC: 2.368 cumulative IPC: 1.942 (Simulation time: 00 hr 26 min 26 sec)
Simulation finished CPU 0 instructions: 200000001 cycles: 102961262 cumulative IPC: 1.942 (Simulation time: 00 hr 26 min 29 sec)
Simulation complete CPU 0 instructions: 200000001 cycles: 102961262 cumulative IPC: 1.942 (Simulation time: 00 hr 26 min 29 sec)

ChampSim completed all CPUs

=== Simulation ===
CPU 0 runs /local-ssd/ben/dpc4-traces/SPEC17/602.gcc_s-734B.champsimtrace.xz

Region of Interest Statistics

CPU 0 cumulative IPC: 1.942 instructions: 200000001 cycles: 102961262
CPU 0 Branch Prediction Accuracy: 99.52% MPKI: 1.161 Average ROB Occupancy at Mispredict: 44.04
Branch type MPKI
BRANCH_DIRECT_JUMP: 0.1592
BRANCH_INDIRECT: 0
BRANCH_CONDITIONAL: 0.892
BRANCH_DIRECT_CALL: 0.1092
BRANCH_INDIRECT_CALL: 3e-05
BRANCH_RETURN: 0.000135

cpu0->cpu0_STLB TOTAL        ACCESS:     208378 HIT:     155762 MISS:      52616 MSHR_MERGE:          0
cpu0->cpu0_STLB LOAD         ACCESS:     208378 HIT:     155762 MISS:      52616 MSHR_MERGE:          0
cpu0->cpu0_STLB RFO          ACCESS:          0 HIT:          0 MISS:          0 MSHR_MERGE:          0
cpu0->cpu0_STLB PREFETCH     ACCESS:          0 HIT:          0 MISS:          0 MSHR_MERGE:          0
cpu0->cpu0_STLB WRITE        ACCESS:          0 HIT:          0 MISS:          0 MSHR_MERGE:          0
cpu0->cpu0_STLB TRANSLATION  ACCESS:          0 HIT:          0 MISS:          0 MSHR_MERGE:          0
cpu0->cpu0_STLB PREFETCH REQUESTED:          0 ISSUED:          0 USEFUL:          0 USELESS:          0
cpu0->cpu0_STLB AVERAGE MISS LATENCY: 126.2 cycles
cpu0->cpu0_L2C TOTAL        ACCESS:   25340166 HIT:   20677145 MISS:    4663021 MSHR_MERGE:    2426972
cpu0->cpu0_L2C LOAD         ACCESS:     426505 HIT:     356247 MISS:      70258 MSHR_MERGE:       1870
cpu0->cpu0_L2C RFO          ACCESS:      10588 HIT:       8938 MISS:       1650 MSHR_MERGE:         35
cpu0->cpu0_L2C PREFETCH     ACCESS:   24827467 HIT:   20255777 MISS:    4571690 MSHR_MERGE:    2425067
cpu0->cpu0_L2C WRITE        ACCESS:      48425 HIT:      48413 MISS:         12 MSHR_MERGE:          0
cpu0->cpu0_L2C TRANSLATION  ACCESS:      27181 HIT:       7770 MISS:      19411 MSHR_MERGE:          0
cpu0->cpu0_L2C PREFETCH REQUESTED:   22638684 ISSUED:   20064729 USEFUL:    1573079 USELESS:     258611
cpu0->cpu0_L2C AVERAGE MISS LATENCY: 233.9 cycles
cpu0->cpu0_L1I TOTAL        ACCESS:   37266807 HIT:   37266714 MISS:         93 MSHR_MERGE:          4
cpu0->cpu0_L1I LOAD         ACCESS:   37266807 HIT:   37266714 MISS:         93 MSHR_MERGE:          4
cpu0->cpu0_L1I RFO          ACCESS:          0 HIT:          0 MISS:          0 MSHR_MERGE:          0
cpu0->cpu0_L1I PREFETCH     ACCESS:          0 HIT:          0 MISS:          0 MSHR_MERGE:          0
cpu0->cpu0_L1I WRITE        ACCESS:          0 HIT:          0 MISS:          0 MSHR_MERGE:          0
cpu0->cpu0_L1I TRANSLATION  ACCESS:          0 HIT:          0 MISS:          0 MSHR_MERGE:          0
cpu0->cpu0_L1I PREFETCH REQUESTED:          0 ISSUED:          0 USEFUL:          0 USELESS:          0
cpu0->cpu0_L1I AVERAGE MISS LATENCY: 268.8 cycles
cpu0->cpu0_L1D TOTAL        ACCESS:   86851309 HIT:   80142741 MISS:    6708568 MSHR_MERGE:    1480602
cpu0->cpu0_L1D LOAD         ACCESS:   28148695 HIT:   27443437 MISS:     705258 MSHR_MERGE:     278841
cpu0->cpu0_L1D RFO          ACCESS:          0 HIT:          0 MISS:          0 MSHR_MERGE:          0
cpu0->cpu0_L1D PREFETCH     ACCESS:   39054101 HIT:   33119041 MISS:    5935060 MSHR_MERGE:    1172317
cpu0->cpu0_L1D WRITE        ACCESS:   19539257 HIT:   19498265 MISS:      40992 MSHR_MERGE:      29367
cpu0->cpu0_L1D TRANSLATION  ACCESS:     109256 HIT:      81998 MISS:      27258 MSHR_MERGE:         77
cpu0->cpu0_L1D PREFETCH REQUESTED:   94400917 ISSUED:   39054101 USEFUL:    3290135 USELESS:    1472465
cpu0->cpu0_L1D AVERAGE MISS LATENCY: 57.27 cycles
cpu0->cpu0_ITLB TOTAL        ACCESS:   34912899 HIT:   34912886 MISS:         13 MSHR_MERGE:          3
cpu0->cpu0_ITLB LOAD         ACCESS:   34912899 HIT:   34912886 MISS:         13 MSHR_MERGE:          3
cpu0->cpu0_ITLB RFO          ACCESS:          0 HIT:          0 MISS:          0 MSHR_MERGE:          0
cpu0->cpu0_ITLB PREFETCH     ACCESS:          0 HIT:          0 MISS:          0 MSHR_MERGE:          0
cpu0->cpu0_ITLB WRITE        ACCESS:          0 HIT:          0 MISS:          0 MSHR_MERGE:          0
cpu0->cpu0_ITLB TRANSLATION  ACCESS:          0 HIT:          0 MISS:          0 MSHR_MERGE:          0
cpu0->cpu0_ITLB PREFETCH REQUESTED:          0 ISSUED:          0 USEFUL:          0 USELESS:          0
cpu0->cpu0_ITLB AVERAGE MISS LATENCY: 496.1 cycles
cpu0->cpu0_DTLB TOTAL        ACCESS:   68249311 HIT:   67932263 MISS:     317048 MSHR_MERGE:     108680
cpu0->cpu0_DTLB LOAD         ACCESS:   68249311 HIT:   67932263 MISS:     317048 MSHR_MERGE:     108680
cpu0->cpu0_DTLB RFO          ACCESS:          0 HIT:          0 MISS:          0 MSHR_MERGE:          0
cpu0->cpu0_DTLB PREFETCH     ACCESS:          0 HIT:          0 MISS:          0 MSHR_MERGE:          0
cpu0->cpu0_DTLB WRITE        ACCESS:          0 HIT:          0 MISS:          0 MSHR_MERGE:          0
cpu0->cpu0_DTLB TRANSLATION  ACCESS:          0 HIT:          0 MISS:          0 MSHR_MERGE:          0
cpu0->cpu0_DTLB PREFETCH REQUESTED:          0 ISSUED:          0 USEFUL:          0 USELESS:          0
cpu0->cpu0_DTLB AVERAGE MISS LATENCY: 37.09 cycles
cpu0->LLC TOTAL        ACCESS:    4321466 HIT:    1422703 MISS:    2898763 MSHR_MERGE:     493099
cpu0->LLC LOAD         ACCESS:      68388 HIT:       9670 MISS:      58718 MSHR_MERGE:        283
cpu0->LLC RFO          ACCESS:       1615 HIT:         84 MISS:       1531 MSHR_MERGE:          3
cpu0->LLC PREFETCH     ACCESS:    4211307 HIT:    1405145 MISS:    2806162 MSHR_MERGE:     492813
cpu0->LLC WRITE        ACCESS:      20745 HIT:       7701 MISS:      13044 MSHR_MERGE:          0
cpu0->LLC TRANSLATION  ACCESS:      19411 HIT:        103 MISS:      19308 MSHR_MERGE:          0
cpu0->LLC PREFETCH REQUESTED:    2072691 ISSUED:    2064685 USEFUL:    1285695 USELESS:     366758
cpu0->LLC AVERAGE MISS LATENCY: 209.8 cycles

DRAM Statistics

Channel 0 RQ ROW_BUFFER_HIT:     730000
  ROW_BUFFER_MISS:    1662620
  AVG DBUS CONGESTED CYCLE: 4.915
Channel 0 WQ ROW_BUFFER_HIT:       1374
  ROW_BUFFER_MISS:      18063
  FULL:          0
Channel 0 REFRESHES ISSUED:       8579
