[VMEM] WARNING: physical memory size is smaller than virtual memory size.

*** ChampSim Multicore Out-of-Order Simulator ***
Warmup Instructions: 50000000
Simulation Instructions: 200000000
Number of CPUs: 1
Page size: 4096
Core 0: /local-ssd/ben/dpc4-traces/SPEC17/605.mcf_s-484B.champsimtrace.xz
IPCP_AT_L1_CONFIG
NUM_IP_TABLE_L1_ENTRIES 1024
NUM_GHB_ENTRIES 16
NUM_IP_INDEX_BITS 10
NUM_IP_TAG_BITS 6
S_TYPE 1
CS_TYPE 2
CPLX_TYPE 3
NL_TYPE 4

Off-chip DRAM Size: 64 GiB Channels: 1 Width: 64-bit Data Rate: 4807 MT/s
Heartbeat CPU 0 instructions: 500002 cycles: 213895 heartbeat IPC: 2.338 cumulative IPC: 2.338 (Simulation time: 00 hr 00 min 03 sec)
Heartbeat CPU 0 instructions: 1000009 cycles: 425240 heartbeat IPC: 2.366 cumulative IPC: 2.352 (Simulation time: 00 hr 00 min 06 sec)
Heartbeat CPU 0 instructions: 1500014 cycles: 636555 heartbeat IPC: 2.366 cumulative IPC: 2.356 (Simulation time: 00 hr 00 min 09 sec)
Heartbeat CPU 0 instructions: 2000014 cycles: 842123 heartbeat IPC: 2.432 cumulative IPC: 2.375 (Simulation time: 00 hr 00 min 12 sec)
Heartbeat CPU 0 instructions: 2500020 cycles: 1058552 heartbeat IPC: 2.31 cumulative IPC: 2.362 (Simulation time: 00 hr 00 min 15 sec)
Heartbeat CPU 0 instructions: 3000020 cycles: 1286734 heartbeat IPC: 2.191 cumulative IPC: 2.331 (Simulation time: 00 hr 00 min 18 sec)
Heartbeat CPU 0 instructions: 3500024 cycles: 1500839 heartbeat IPC: 2.335 cumulative IPC: 2.332 (Simulation time: 00 hr 00 min 21 sec)
Heartbeat CPU 0 instructions: 4000026 cycles: 1723775 heartbeat IPC: 2.243 cumulative IPC: 2.321 (Simulation time: 00 hr 00 min 24 sec)
Heartbeat CPU 0 instructions: 4500027 cycles: 1940154 heartbeat IPC: 2.311 cumulative IPC: 2.319 (Simulation time: 00 hr 00 min 27 sec)
Heartbeat CPU 0 instructions: 5000029 cycles: 2174304 heartbeat IPC: 2.135 cumulative IPC: 2.3 (Simulation time: 00 hr 00 min 30 sec)
Heartbeat CPU 0 instructions: 5500029 cycles: 2415076 heartbeat IPC: 2.077 cumulative IPC: 2.277 (Simulation time: 00 hr 00 min 34 sec)
Heartbeat CPU 0 instructions: 6000033 cycles: 2633384 heartbeat IPC: 2.29 cumulative IPC: 2.278 (Simulation time: 00 hr 00 min 37 sec)
Heartbeat CPU 0 instructions: 6500037 cycles: 2870031 heartbeat IPC: 2.113 cumulative IPC: 2.265 (Simulation time: 00 hr 00 min 40 sec)
Heartbeat CPU 0 instructions: 7000041 cycles: 3124419 heartbeat IPC: 1.966 cumulative IPC: 2.24 (Simulation time: 00 hr 00 min 44 sec)
Heartbeat CPU 0 instructions: 7500048 cycles: 3373276 heartbeat IPC: 2.009 cumulative IPC: 2.223 (Simulation time: 00 hr 00 min 48 sec)
Heartbeat CPU 0 instructions: 8000049 cycles: 3574113 heartbeat IPC: 2.49 cumulative IPC: 2.238 (Simulation time: 00 hr 00 min 51 sec)
Heartbeat CPU 0 instructions: 8500055 cycles: 3775909 heartbeat IPC: 2.478 cumulative IPC: 2.251 (Simulation time: 00 hr 00 min 54 sec)
Heartbeat CPU 0 instructions: 9000062 cycles: 3989982 heartbeat IPC: 2.336 cumulative IPC: 2.256 (Simulation time: 00 hr 00 min 57 sec)
Heartbeat CPU 0 instructions: 9500068 cycles: 4200928 heartbeat IPC: 2.37 cumulative IPC: 2.261 (Simulation time: 00 hr 01 min 00 sec)
Heartbeat CPU 0 instructions: 10000073 cycles: 4410683 heartbeat IPC: 2.384 cumulative IPC: 2.267 (Simulation time: 00 hr 01 min 03 sec)
Heartbeat CPU 0 instructions: 10500076 cycles: 4620007 heartbeat IPC: 2.389 cumulative IPC: 2.273 (Simulation time: 00 hr 01 min 06 sec)
Heartbeat CPU 0 instructions: 11000078 cycles: 4851118 heartbeat IPC: 2.163 cumulative IPC: 2.268 (Simulation time: 00 hr 01 min 09 sec)
Heartbeat CPU 0 instructions: 11500085 cycles: 5068905 heartbeat IPC: 2.296 cumulative IPC: 2.269 (Simulation time: 00 hr 01 min 12 sec)
Heartbeat CPU 0 instructions: 12000090 cycles: 5270482 heartbeat IPC: 2.48 cumulative IPC: 2.277 (Simulation time: 00 hr 01 min 15 sec)
Heartbeat CPU 0 instructions: 12500096 cycles: 5473735 heartbeat IPC: 2.46 cumulative IPC: 2.284 (Simulation time: 00 hr 01 min 18 sec)
Heartbeat CPU 0 instructions: 13000101 cycles: 5676557 heartbeat IPC: 2.465 cumulative IPC: 2.29 (Simulation time: 00 hr 01 min 21 sec)
Heartbeat CPU 0 instructions: 13500106 cycles: 5880802 heartbeat IPC: 2.448 cumulative IPC: 2.296 (Simulation time: 00 hr 01 min 24 sec)
Heartbeat CPU 0 instructions: 14000107 cycles: 6080161 heartbeat IPC: 2.508 cumulative IPC: 2.303 (Simulation time: 00 hr 01 min 27 sec)
Heartbeat CPU 0 instructions: 14500114 cycles: 6235134 heartbeat IPC: 3.226 cumulative IPC: 2.326 (Simulation time: 00 hr 01 min 30 sec)
Heartbeat CPU 0 instructions: 15000114 cycles: 6395981 heartbeat IPC: 3.109 cumulative IPC: 2.345 (Simulation time: 00 hr 01 min 32 sec)
Heartbeat CPU 0 instructions: 15500121 cycles: 6566640 heartbeat IPC: 2.93 cumulative IPC: 2.36 (Simulation time: 00 hr 01 min 36 sec)
Heartbeat CPU 0 instructions: 16000126 cycles: 6793937 heartbeat IPC: 2.2 cumulative IPC: 2.355 (Simulation time: 00 hr 01 min 39 sec)
Heartbeat CPU 0 instructions: 16500130 cycles: 7040779 heartbeat IPC: 2.026 cumulative IPC: 2.344 (Simulation time: 00 hr 01 min 42 sec)
Heartbeat CPU 0 instructions: 17000133 cycles: 7264990 heartbeat IPC: 2.23 cumulative IPC: 2.34 (Simulation time: 00 hr 01 min 45 sec)
Heartbeat CPU 0 instructions: 17500138 cycles: 7504856 heartbeat IPC: 2.085 cumulative IPC: 2.332 (Simulation time: 00 hr 01 min 49 sec)
Heartbeat CPU 0 instructions: 18000141 cycles: 7721149 heartbeat IPC: 2.312 cumulative IPC: 2.331 (Simulation time: 00 hr 01 min 52 sec)
Heartbeat CPU 0 instructions: 18500143 cycles: 7929831 heartbeat IPC: 2.396 cumulative IPC: 2.333 (Simulation time: 00 hr 01 min 55 sec)
Heartbeat CPU 0 instructions: 19000144 cycles: 8139168 heartbeat IPC: 2.388 cumulative IPC: 2.334 (Simulation time: 00 hr 01 min 58 sec)
Heartbeat CPU 0 instructions: 19500151 cycles: 8347251 heartbeat IPC: 2.403 cumulative IPC: 2.336 (Simulation time: 00 hr 02 min 01 sec)
Heartbeat CPU 0 instructions: 20000152 cycles: 8576170 heartbeat IPC: 2.184 cumulative IPC: 2.332 (Simulation time: 00 hr 02 min 04 sec)
Heartbeat CPU 0 instructions: 20500158 cycles: 8794254 heartbeat IPC: 2.293 cumulative IPC: 2.331 (Simulation time: 00 hr 02 min 07 sec)
Heartbeat CPU 0 instructions: 21000165 cycles: 8997517 heartbeat IPC: 2.46 cumulative IPC: 2.334 (Simulation time: 00 hr 02 min 10 sec)
Heartbeat CPU 0 instructions: 21500167 cycles: 9199398 heartbeat IPC: 2.477 cumulative IPC: 2.337 (Simulation time: 00 hr 02 min 13 sec)
Heartbeat CPU 0 instructions: 22000174 cycles: 9399996 heartbeat IPC: 2.493 cumulative IPC: 2.34 (Simulation time: 00 hr 02 min 16 sec)
Heartbeat CPU 0 instructions: 22500181 cycles: 9566672 heartbeat IPC: 3 cumulative IPC: 2.352 (Simulation time: 00 hr 02 min 19 sec)
Heartbeat CPU 0 instructions: 23000187 cycles: 9722430 heartbeat IPC: 3.21 cumulative IPC: 2.366 (Simulation time: 00 hr 02 min 22 sec)
Heartbeat CPU 0 instructions: 23500187 cycles: 9885773 heartbeat IPC: 3.061 cumulative IPC: 2.377 (Simulation time: 00 hr 02 min 25 sec)
Heartbeat CPU 0 instructions: 24000188 cycles: 10084335 heartbeat IPC: 2.518 cumulative IPC: 2.38 (Simulation time: 00 hr 02 min 28 sec)
Heartbeat CPU 0 instructions: 24500195 cycles: 10283456 heartbeat IPC: 2.511 cumulative IPC: 2.382 (Simulation time: 00 hr 02 min 31 sec)
Heartbeat CPU 0 instructions: 25000202 cycles: 10483067 heartbeat IPC: 2.505 cumulative IPC: 2.385 (Simulation time: 00 hr 02 min 34 sec)
Heartbeat CPU 0 instructions: 25500208 cycles: 10682836 heartbeat IPC: 2.503 cumulative IPC: 2.387 (Simulation time: 00 hr 02 min 37 sec)
Heartbeat CPU 0 instructions: 26000215 cycles: 10884138 heartbeat IPC: 2.484 cumulative IPC: 2.389 (Simulation time: 00 hr 02 min 40 sec)
Heartbeat CPU 0 instructions: 26500221 cycles: 11087413 heartbeat IPC: 2.46 cumulative IPC: 2.39 (Simulation time: 00 hr 02 min 43 sec)
Heartbeat CPU 0 instructions: 27000227 cycles: 11291714 heartbeat IPC: 2.447 cumulative IPC: 2.391 (Simulation time: 00 hr 02 min 46 sec)
Heartbeat CPU 0 instructions: 27500228 cycles: 11495677 heartbeat IPC: 2.451 cumulative IPC: 2.392 (Simulation time: 00 hr 02 min 49 sec)
Heartbeat CPU 0 instructions: 28000230 cycles: 11699538 heartbeat IPC: 2.453 cumulative IPC: 2.393 (Simulation time: 00 hr 02 min 51 sec)
Heartbeat CPU 0 instructions: 28500237 cycles: 11901658 heartbeat IPC: 2.474 cumulative IPC: 2.395 (Simulation time: 00 hr 02 min 54 sec)
Heartbeat CPU 0 instructions: 29000242 cycles: 12104958 heartbeat IPC: 2.459 cumulative IPC: 2.396 (Simulation time: 00 hr 02 min 57 sec)
Heartbeat CPU 0 instructions: 29500245 cycles: 12268607 heartbeat IPC: 3.055 cumulative IPC: 2.405 (Simulation time: 00 hr 03 min 00 sec)
Heartbeat CPU 0 instructions: 30000252 cycles: 12452137 heartbeat IPC: 2.724 cumulative IPC: 2.409 (Simulation time: 00 hr 03 min 03 sec)
Heartbeat CPU 0 instructions: 30500253 cycles: 12653055 heartbeat IPC: 2.489 cumulative IPC: 2.411 (Simulation time: 00 hr 03 min 06 sec)
Heartbeat CPU 0 instructions: 31000258 cycles: 12856932 heartbeat IPC: 2.452 cumulative IPC: 2.411 (Simulation time: 00 hr 03 min 09 sec)
Heartbeat CPU 0 instructions: 31500264 cycles: 13079290 heartbeat IPC: 2.249 cumulative IPC: 2.408 (Simulation time: 00 hr 03 min 12 sec)
Heartbeat CPU 0 instructions: 32000271 cycles: 13293548 heartbeat IPC: 2.334 cumulative IPC: 2.407 (Simulation time: 00 hr 03 min 15 sec)
Heartbeat CPU 0 instructions: 32500274 cycles: 13512849 heartbeat IPC: 2.28 cumulative IPC: 2.405 (Simulation time: 00 hr 03 min 19 sec)
Heartbeat CPU 0 instructions: 33000276 cycles: 13719357 heartbeat IPC: 2.421 cumulative IPC: 2.405 (Simulation time: 00 hr 03 min 22 sec)
Heartbeat CPU 0 instructions: 33500277 cycles: 13924855 heartbeat IPC: 2.433 cumulative IPC: 2.406 (Simulation time: 00 hr 03 min 25 sec)
Heartbeat CPU 0 instructions: 34000284 cycles: 14130369 heartbeat IPC: 2.433 cumulative IPC: 2.406 (Simulation time: 00 hr 03 min 28 sec)
Heartbeat CPU 0 instructions: 34500289 cycles: 14342365 heartbeat IPC: 2.359 cumulative IPC: 2.405 (Simulation time: 00 hr 03 min 31 sec)
Heartbeat CPU 0 instructions: 35000294 cycles: 14549373 heartbeat IPC: 2.415 cumulative IPC: 2.406 (Simulation time: 00 hr 03 min 34 sec)
Heartbeat CPU 0 instructions: 35500301 cycles: 14769968 heartbeat IPC: 2.267 cumulative IPC: 2.404 (Simulation time: 00 hr 03 min 37 sec)
Heartbeat CPU 0 instructions: 36000305 cycles: 14985018 heartbeat IPC: 2.325 cumulative IPC: 2.402 (Simulation time: 00 hr 03 min 40 sec)
Heartbeat CPU 0 instructions: 36500305 cycles: 15198229 heartbeat IPC: 2.345 cumulative IPC: 2.402 (Simulation time: 00 hr 03 min 43 sec)
Heartbeat CPU 0 instructions: 37000308 cycles: 15353281 heartbeat IPC: 3.225 cumulative IPC: 2.41 (Simulation time: 00 hr 03 min 46 sec)
Heartbeat CPU 0 instructions: 37500308 cycles: 15567524 heartbeat IPC: 2.334 cumulative IPC: 2.409 (Simulation time: 00 hr 03 min 49 sec)
Heartbeat CPU 0 instructions: 38000314 cycles: 15772957 heartbeat IPC: 2.434 cumulative IPC: 2.409 (Simulation time: 00 hr 03 min 52 sec)
Heartbeat CPU 0 instructions: 38500318 cycles: 15976117 heartbeat IPC: 2.461 cumulative IPC: 2.41 (Simulation time: 00 hr 03 min 55 sec)
Heartbeat CPU 0 instructions: 39000321 cycles: 16177278 heartbeat IPC: 2.486 cumulative IPC: 2.411 (Simulation time: 00 hr 03 min 58 sec)
Heartbeat CPU 0 instructions: 39500322 cycles: 16384970 heartbeat IPC: 2.407 cumulative IPC: 2.411 (Simulation time: 00 hr 04 min 01 sec)
Heartbeat CPU 0 instructions: 40000323 cycles: 16618397 heartbeat IPC: 2.142 cumulative IPC: 2.407 (Simulation time: 00 hr 04 min 04 sec)
Heartbeat CPU 0 instructions: 40500327 cycles: 16821282 heartbeat IPC: 2.464 cumulative IPC: 2.408 (Simulation time: 00 hr 04 min 07 sec)
Heartbeat CPU 0 instructions: 41000333 cycles: 17024322 heartbeat IPC: 2.463 cumulative IPC: 2.408 (Simulation time: 00 hr 04 min 10 sec)
Heartbeat CPU 0 instructions: 41500333 cycles: 17227115 heartbeat IPC: 2.466 cumulative IPC: 2.409 (Simulation time: 00 hr 04 min 13 sec)
Heartbeat CPU 0 instructions: 42000335 cycles: 17429656 heartbeat IPC: 2.469 cumulative IPC: 2.41 (Simulation time: 00 hr 04 min 16 sec)
Heartbeat CPU 0 instructions: 42500339 cycles: 17632852 heartbeat IPC: 2.461 cumulative IPC: 2.41 (Simulation time: 00 hr 04 min 19 sec)
Heartbeat CPU 0 instructions: 43000342 cycles: 17834269 heartbeat IPC: 2.482 cumulative IPC: 2.411 (Simulation time: 00 hr 04 min 22 sec)
Heartbeat CPU 0 instructions: 43500347 cycles: 18034982 heartbeat IPC: 2.491 cumulative IPC: 2.412 (Simulation time: 00 hr 04 min 25 sec)
Heartbeat CPU 0 instructions: 44000353 cycles: 18229685 heartbeat IPC: 2.568 cumulative IPC: 2.414 (Simulation time: 00 hr 04 min 28 sec)
Heartbeat CPU 0 instructions: 44500359 cycles: 18386895 heartbeat IPC: 3.18 cumulative IPC: 2.42 (Simulation time: 00 hr 04 min 31 sec)
Heartbeat CPU 0 instructions: 45000361 cycles: 18550683 heartbeat IPC: 3.053 cumulative IPC: 2.426 (Simulation time: 00 hr 04 min 34 sec)
Heartbeat CPU 0 instructions: 45500362 cycles: 18738917 heartbeat IPC: 2.656 cumulative IPC: 2.428 (Simulation time: 00 hr 04 min 37 sec)
Heartbeat CPU 0 instructions: 46000367 cycles: 18945725 heartbeat IPC: 2.418 cumulative IPC: 2.428 (Simulation time: 00 hr 04 min 40 sec)
Heartbeat CPU 0 instructions: 46500371 cycles: 19164642 heartbeat IPC: 2.284 cumulative IPC: 2.426 (Simulation time: 00 hr 04 min 43 sec)
Heartbeat CPU 0 instructions: 47000371 cycles: 19385674 heartbeat IPC: 2.262 cumulative IPC: 2.424 (Simulation time: 00 hr 04 min 46 sec)
Heartbeat CPU 0 instructions: 47500371 cycles: 19614518 heartbeat IPC: 2.185 cumulative IPC: 2.422 (Simulation time: 00 hr 04 min 50 sec)
Heartbeat CPU 0 instructions: 48000375 cycles: 19841135 heartbeat IPC: 2.206 cumulative IPC: 2.419 (Simulation time: 00 hr 04 min 53 sec)
Heartbeat CPU 0 instructions: 48500377 cycles: 20077692 heartbeat IPC: 2.114 cumulative IPC: 2.416 (Simulation time: 00 hr 04 min 56 sec)
Heartbeat CPU 0 instructions: 49000383 cycles: 20278593 heartbeat IPC: 2.489 cumulative IPC: 2.416 (Simulation time: 00 hr 04 min 59 sec)
Heartbeat CPU 0 instructions: 49500390 cycles: 20481636 heartbeat IPC: 2.463 cumulative IPC: 2.417 (Simulation time: 00 hr 05 min 02 sec)
Warmup halting CPU 0 at instruction 50000003 cycle 20686893 for remainder of phase
Warmup finished CPU 0 instructions: 50000003 cycles: 20686893 cumulative IPC: 2.417 (Simulation time: 00 hr 05 min 05 sec)
Warmup complete CPU 0 instructions: 50000003 cycles: 20686893 cumulative IPC: 2.417 (Simulation time: 00 hr 05 min 05 sec)
Heartbeat CPU 0 instructions: 50000390 cycles: 20686980 heartbeat IPC: 2.435 cumulative IPC: 4.448 (Simulation time: 00 hr 05 min 05 sec)
Heartbeat CPU 0 instructions: 50500390 cycles: 21195203 heartbeat IPC: 0.9838 cumulative IPC: 0.9844 (Simulation time: 00 hr 05 min 11 sec)
Heartbeat CPU 0 instructions: 51000394 cycles: 21792491 heartbeat IPC: 0.8371 cumulative IPC: 0.9048 (Simulation time: 00 hr 05 min 17 sec)
Heartbeat CPU 0 instructions: 51500395 cycles: 22364338 heartbeat IPC: 0.8744 cumulative IPC: 0.8945 (Simulation time: 00 hr 05 min 23 sec)
Heartbeat CPU 0 instructions: 52000402 cycles: 22928557 heartbeat IPC: 0.8862 cumulative IPC: 0.8924 (Simulation time: 00 hr 05 min 29 sec)
Heartbeat CPU 0 instructions: 52500408 cycles: 24258707 heartbeat IPC: 0.3759 cumulative IPC: 0.7 (Simulation time: 00 hr 05 min 46 sec)
Heartbeat CPU 0 instructions: 53000410 cycles: 24654777 heartbeat IPC: 1.262 cumulative IPC: 0.7562 (Simulation time: 00 hr 05 min 51 sec)
Heartbeat CPU 0 instructions: 53500411 cycles: 25039175 heartbeat IPC: 1.301 cumulative IPC: 0.8043 (Simulation time: 00 hr 05 min 55 sec)
Heartbeat CPU 0 instructions: 54000412 cycles: 25425473 heartbeat IPC: 1.294 cumulative IPC: 0.8442 (Simulation time: 00 hr 06 min 00 sec)
Heartbeat CPU 0 instructions: 54500419 cycles: 25855617 heartbeat IPC: 1.162 cumulative IPC: 0.8707 (Simulation time: 00 hr 06 min 05 sec)
Heartbeat CPU 0 instructions: 55000420 cycles: 26271394 heartbeat IPC: 1.203 cumulative IPC: 0.8954 (Simulation time: 00 hr 06 min 10 sec)
Heartbeat CPU 0 instructions: 55500424 cycles: 26693821 heartbeat IPC: 1.184 cumulative IPC: 0.9157 (Simulation time: 00 hr 06 min 15 sec)
Heartbeat CPU 0 instructions: 56000424 cycles: 27087272 heartbeat IPC: 1.271 cumulative IPC: 0.9375 (Simulation time: 00 hr 06 min 19 sec)
Heartbeat CPU 0 instructions: 56500430 cycles: 27466318 heartbeat IPC: 1.319 cumulative IPC: 0.9588 (Simulation time: 00 hr 06 min 24 sec)
Heartbeat CPU 0 instructions: 57000436 cycles: 27875787 heartbeat IPC: 1.221 cumulative IPC: 0.9738 (Simulation time: 00 hr 06 min 29 sec)
Heartbeat CPU 0 instructions: 57500442 cycles: 28270211 heartbeat IPC: 1.268 cumulative IPC: 0.9891 (Simulation time: 00 hr 06 min 33 sec)
Heartbeat CPU 0 instructions: 58000443 cycles: 28648836 heartbeat IPC: 1.321 cumulative IPC: 1.005 (Simulation time: 00 hr 06 min 38 sec)
Heartbeat CPU 0 instructions: 58500446 cycles: 29171662 heartbeat IPC: 0.9563 cumulative IPC: 1.002 (Simulation time: 00 hr 06 min 43 sec)
Heartbeat CPU 0 instructions: 59000446 cycles: 29810051 heartbeat IPC: 0.7832 cumulative IPC: 0.9865 (Simulation time: 00 hr 06 min 50 sec)
Heartbeat CPU 0 instructions: 59500451 cycles: 30945619 heartbeat IPC: 0.4403 cumulative IPC: 0.9261 (Simulation time: 00 hr 07 min 02 sec)
Heartbeat CPU 0 instructions: 60000451 cycles: 32337000 heartbeat IPC: 0.3594 cumulative IPC: 0.8584 (Simulation time: 00 hr 07 min 19 sec)
Heartbeat CPU 0 instructions: 60500453 cycles: 33600309 heartbeat IPC: 0.3958 cumulative IPC: 0.8131 (Simulation time: 00 hr 07 min 34 sec)
Heartbeat CPU 0 instructions: 61000458 cycles: 34655489 heartbeat IPC: 0.4739 cumulative IPC: 0.7875 (Simulation time: 00 hr 07 min 47 sec)
Heartbeat CPU 0 instructions: 61500458 cycles: 36033752 heartbeat IPC: 0.3628 cumulative IPC: 0.7494 (Simulation time: 00 hr 08 min 03 sec)
Heartbeat CPU 0 instructions: 62000458 cycles: 36754519 heartbeat IPC: 0.6937 cumulative IPC: 0.7469 (Simulation time: 00 hr 08 min 10 sec)
Heartbeat CPU 0 instructions: 62500459 cycles: 37314540 heartbeat IPC: 0.8928 cumulative IPC: 0.7518 (Simulation time: 00 hr 08 min 16 sec)
Heartbeat CPU 0 instructions: 63000459 cycles: 37780586 heartbeat IPC: 1.073 cumulative IPC: 0.7605 (Simulation time: 00 hr 08 min 21 sec)
Heartbeat CPU 0 instructions: 63500462 cycles: 38171285 heartbeat IPC: 1.28 cumulative IPC: 0.7721 (Simulation time: 00 hr 08 min 26 sec)
Heartbeat CPU 0 instructions: 64000468 cycles: 38561838 heartbeat IPC: 1.28 cumulative IPC: 0.7832 (Simulation time: 00 hr 08 min 30 sec)
Heartbeat CPU 0 instructions: 64500469 cycles: 39036035 heartbeat IPC: 1.054 cumulative IPC: 0.7903 (Simulation time: 00 hr 08 min 35 sec)
Heartbeat CPU 0 instructions: 65000470 cycles: 39598831 heartbeat IPC: 0.8884 cumulative IPC: 0.7932 (Simulation time: 00 hr 08 min 41 sec)
Heartbeat CPU 0 instructions: 65500471 cycles: 40183288 heartbeat IPC: 0.8555 cumulative IPC: 0.795 (Simulation time: 00 hr 08 min 47 sec)
Heartbeat CPU 0 instructions: 66000474 cycles: 40918810 heartbeat IPC: 0.6798 cumulative IPC: 0.7909 (Simulation time: 00 hr 08 min 54 sec)
Heartbeat CPU 0 instructions: 66500476 cycles: 41648154 heartbeat IPC: 0.6856 cumulative IPC: 0.7872 (Simulation time: 00 hr 09 min 01 sec)
Heartbeat CPU 0 instructions: 67000481 cycles: 42358008 heartbeat IPC: 0.7044 cumulative IPC: 0.7845 (Simulation time: 00 hr 09 min 08 sec)
Heartbeat CPU 0 instructions: 67500483 cycles: 42816663 heartbeat IPC: 1.09 cumulative IPC: 0.7908 (Simulation time: 00 hr 09 min 13 sec)
Heartbeat CPU 0 instructions: 68000483 cycles: 43250158 heartbeat IPC: 1.153 cumulative IPC: 0.7978 (Simulation time: 00 hr 09 min 18 sec)
Heartbeat CPU 0 instructions: 68500483 cycles: 44090697 heartbeat IPC: 0.5949 cumulative IPC: 0.7905 (Simulation time: 00 hr 09 min 28 sec)
Heartbeat CPU 0 instructions: 69000486 cycles: 45407699 heartbeat IPC: 0.3797 cumulative IPC: 0.7686 (Simulation time: 00 hr 09 min 45 sec)
Heartbeat CPU 0 instructions: 69500488 cycles: 46627855 heartbeat IPC: 0.4098 cumulative IPC: 0.7517 (Simulation time: 00 hr 09 min 59 sec)
Heartbeat CPU 0 instructions: 70000493 cycles: 47351696 heartbeat IPC: 0.6908 cumulative IPC: 0.7501 (Simulation time: 00 hr 10 min 08 sec)
Heartbeat CPU 0 instructions: 70500498 cycles: 48190861 heartbeat IPC: 0.5958 cumulative IPC: 0.7454 (Simulation time: 00 hr 10 min 16 sec)
Heartbeat CPU 0 instructions: 71000498 cycles: 49175815 heartbeat IPC: 0.5076 cumulative IPC: 0.7371 (Simulation time: 00 hr 10 min 25 sec)
Heartbeat CPU 0 instructions: 71500498 cycles: 49791105 heartbeat IPC: 0.8126 cumulative IPC: 0.7387 (Simulation time: 00 hr 10 min 31 sec)
Heartbeat CPU 0 instructions: 72000501 cycles: 50596995 heartbeat IPC: 0.6204 cumulative IPC: 0.7356 (Simulation time: 00 hr 10 min 39 sec)
Heartbeat CPU 0 instructions: 72500501 cycles: 51478392 heartbeat IPC: 0.5673 cumulative IPC: 0.7307 (Simulation time: 00 hr 10 min 47 sec)
Heartbeat CPU 0 instructions: 73000501 cycles: 52424069 heartbeat IPC: 0.5287 cumulative IPC: 0.7247 (Simulation time: 00 hr 10 min 56 sec)
Heartbeat CPU 0 instructions: 73500501 cycles: 52933132 heartbeat IPC: 0.9822 cumulative IPC: 0.7288 (Simulation time: 00 hr 11 min 01 sec)
Heartbeat CPU 0 instructions: 74000505 cycles: 53733099 heartbeat IPC: 0.625 cumulative IPC: 0.7263 (Simulation time: 00 hr 11 min 09 sec)
Heartbeat CPU 0 instructions: 74500507 cycles: 54645314 heartbeat IPC: 0.5481 cumulative IPC: 0.7215 (Simulation time: 00 hr 11 min 17 sec)
Heartbeat CPU 0 instructions: 75000512 cycles: 55544224 heartbeat IPC: 0.5562 cumulative IPC: 0.7172 (Simulation time: 00 hr 11 min 26 sec)
Heartbeat CPU 0 instructions: 75500514 cycles: 56556436 heartbeat IPC: 0.494 cumulative IPC: 0.7109 (Simulation time: 00 hr 11 min 35 sec)
Heartbeat CPU 0 instructions: 76000519 cycles: 57437850 heartbeat IPC: 0.5673 cumulative IPC: 0.7075 (Simulation time: 00 hr 11 min 43 sec)
Heartbeat CPU 0 instructions: 76500519 cycles: 58262333 heartbeat IPC: 0.6064 cumulative IPC: 0.7053 (Simulation time: 00 hr 11 min 51 sec)
Heartbeat CPU 0 instructions: 77000524 cycles: 60056570 heartbeat IPC: 0.2787 cumulative IPC: 0.6858 (Simulation time: 00 hr 12 min 12 sec)
Heartbeat CPU 0 instructions: 77500524 cycles: 61028420 heartbeat IPC: 0.5145 cumulative IPC: 0.6817 (Simulation time: 00 hr 12 min 24 sec)
Heartbeat CPU 0 instructions: 78000524 cycles: 62145343 heartbeat IPC: 0.4477 cumulative IPC: 0.6754 (Simulation time: 00 hr 12 min 38 sec)
Heartbeat CPU 0 instructions: 78500527 cycles: 62589370 heartbeat IPC: 1.126 cumulative IPC: 0.6802 (Simulation time: 00 hr 12 min 42 sec)
Heartbeat CPU 0 instructions: 79000527 cycles: 63011280 heartbeat IPC: 1.185 cumulative IPC: 0.6852 (Simulation time: 00 hr 12 min 47 sec)
Heartbeat CPU 0 instructions: 79500528 cycles: 63439196 heartbeat IPC: 1.168 cumulative IPC: 0.69 (Simulation time: 00 hr 12 min 52 sec)
Heartbeat CPU 0 instructions: 80000530 cycles: 63873316 heartbeat IPC: 1.152 cumulative IPC: 0.6947 (Simulation time: 00 hr 12 min 57 sec)
Heartbeat CPU 0 instructions: 80500532 cycles: 64330258 heartbeat IPC: 1.094 cumulative IPC: 0.6989 (Simulation time: 00 hr 13 min 02 sec)
Heartbeat CPU 0 instructions: 81000536 cycles: 64755216 heartbeat IPC: 1.177 cumulative IPC: 0.7035 (Simulation time: 00 hr 13 min 07 sec)
Heartbeat CPU 0 instructions: 81500537 cycles: 65170058 heartbeat IPC: 1.205 cumulative IPC: 0.7081 (Simulation time: 00 hr 13 min 11 sec)
Heartbeat CPU 0 instructions: 82000538 cycles: 65572228 heartbeat IPC: 1.243 cumulative IPC: 0.7129 (Simulation time: 00 hr 13 min 16 sec)
Heartbeat CPU 0 instructions: 82500539 cycles: 65964195 heartbeat IPC: 1.276 cumulative IPC: 0.7178 (Simulation time: 00 hr 13 min 21 sec)
Heartbeat CPU 0 instructions: 83000543 cycles: 66353779 heartbeat IPC: 1.283 cumulative IPC: 0.7226 (Simulation time: 00 hr 13 min 25 sec)
Heartbeat CPU 0 instructions: 83500546 cycles: 67143014 heartbeat IPC: 0.6335 cumulative IPC: 0.7211 (Simulation time: 00 hr 13 min 35 sec)
Heartbeat CPU 0 instructions: 84000549 cycles: 68245716 heartbeat IPC: 0.4534 cumulative IPC: 0.7149 (Simulation time: 00 hr 13 min 49 sec)
Heartbeat CPU 0 instructions: 84500550 cycles: 69432634 heartbeat IPC: 0.4213 cumulative IPC: 0.7078 (Simulation time: 00 hr 14 min 03 sec)
Heartbeat CPU 0 instructions: 85000551 cycles: 70383230 heartbeat IPC: 0.526 cumulative IPC: 0.7043 (Simulation time: 00 hr 14 min 15 sec)
Heartbeat CPU 0 instructions: 85500554 cycles: 71670051 heartbeat IPC: 0.3886 cumulative IPC: 0.6963 (Simulation time: 00 hr 14 min 31 sec)
Heartbeat CPU 0 instructions: 86000556 cycles: 72083246 heartbeat IPC: 1.21 cumulative IPC: 0.7004 (Simulation time: 00 hr 14 min 36 sec)
Heartbeat CPU 0 instructions: 86500558 cycles: 72679373 heartbeat IPC: 0.8388 cumulative IPC: 0.702 (Simulation time: 00 hr 14 min 42 sec)
Heartbeat CPU 0 instructions: 87000564 cycles: 73528551 heartbeat IPC: 0.5888 cumulative IPC: 0.7002 (Simulation time: 00 hr 14 min 50 sec)
Heartbeat CPU 0 instructions: 87500565 cycles: 74129578 heartbeat IPC: 0.8319 cumulative IPC: 0.7017 (Simulation time: 00 hr 14 min 56 sec)
Heartbeat CPU 0 instructions: 88000567 cycles: 74562511 heartbeat IPC: 1.155 cumulative IPC: 0.7053 (Simulation time: 00 hr 15 min 01 sec)
Heartbeat CPU 0 instructions: 88500570 cycles: 75116536 heartbeat IPC: 0.9025 cumulative IPC: 0.7073 (Simulation time: 00 hr 15 min 07 sec)
Heartbeat CPU 0 instructions: 89000577 cycles: 75957048 heartbeat IPC: 0.5949 cumulative IPC: 0.7056 (Simulation time: 00 hr 15 min 15 sec)
Heartbeat CPU 0 instructions: 89500577 cycles: 76528316 heartbeat IPC: 0.8752 cumulative IPC: 0.7074 (Simulation time: 00 hr 15 min 21 sec)
Heartbeat CPU 0 instructions: 90000577 cycles: 76943106 heartbeat IPC: 1.205 cumulative IPC: 0.711 (Simulation time: 00 hr 15 min 26 sec)
Heartbeat CPU 0 instructions: 90500580 cycles: 77465144 heartbeat IPC: 0.9578 cumulative IPC: 0.7133 (Simulation time: 00 hr 15 min 31 sec)
Heartbeat CPU 0 instructions: 91000580 cycles: 77891272 heartbeat IPC: 1.173 cumulative IPC: 0.7167 (Simulation time: 00 hr 15 min 36 sec)
Heartbeat CPU 0 instructions: 91500581 cycles: 78453873 heartbeat IPC: 0.8887 cumulative IPC: 0.7184 (Simulation time: 00 hr 15 min 42 sec)
Heartbeat CPU 0 instructions: 92000583 cycles: 79024582 heartbeat IPC: 0.8761 cumulative IPC: 0.72 (Simulation time: 00 hr 15 min 48 sec)
Heartbeat CPU 0 instructions: 92500584 cycles: 79993515 heartbeat IPC: 0.516 cumulative IPC: 0.7166 (Simulation time: 00 hr 15 min 59 sec)
Heartbeat CPU 0 instructions: 93000585 cycles: 81215671 heartbeat IPC: 0.4091 cumulative IPC: 0.7104 (Simulation time: 00 hr 16 min 14 sec)
Heartbeat CPU 0 instructions: 93500588 cycles: 82503599 heartbeat IPC: 0.3882 cumulative IPC: 0.7037 (Simulation time: 00 hr 16 min 31 sec)
Heartbeat CPU 0 instructions: 94000591 cycles: 83222331 heartbeat IPC: 0.6957 cumulative IPC: 0.7036 (Simulation time: 00 hr 16 min 39 sec)
Heartbeat CPU 0 instructions: 94500593 cycles: 83678561 heartbeat IPC: 1.096 cumulative IPC: 0.7065 (Simulation time: 00 hr 16 min 44 sec)
Heartbeat CPU 0 instructions: 95000595 cycles: 84439039 heartbeat IPC: 0.6575 cumulative IPC: 0.7059 (Simulation time: 00 hr 16 min 51 sec)
Heartbeat CPU 0 instructions: 95500595 cycles: 85058898 heartbeat IPC: 0.8066 cumulative IPC: 0.7068 (Simulation time: 00 hr 16 min 57 sec)
Heartbeat CPU 0 instructions: 96000598 cycles: 85474705 heartbeat IPC: 1.202 cumulative IPC: 0.71 (Simulation time: 00 hr 17 min 02 sec)
Heartbeat CPU 0 instructions: 96500604 cycles: 85880784 heartbeat IPC: 1.231 cumulative IPC: 0.7133 (Simulation time: 00 hr 17 min 07 sec)
Heartbeat CPU 0 instructions: 97000604 cycles: 86274392 heartbeat IPC: 1.27 cumulative IPC: 0.7166 (Simulation time: 00 hr 17 min 11 sec)
Heartbeat CPU 0 instructions: 97500610 cycles: 86658056 heartbeat IPC: 1.303 cumulative IPC: 0.72 (Simulation time: 00 hr 17 min 16 sec)
Heartbeat CPU 0 instructions: 98000610 cycles: 87040860 heartbeat IPC: 1.306 cumulative IPC: 0.7234 (Simulation time: 00 hr 17 min 20 sec)
Heartbeat CPU 0 instructions: 98500611 cycles: 87419608 heartbeat IPC: 1.32 cumulative IPC: 0.7268 (Simulation time: 00 hr 17 min 25 sec)
Heartbeat CPU 0 instructions: 99000618 cycles: 87787062 heartbeat IPC: 1.361 cumulative IPC: 0.7303 (Simulation time: 00 hr 17 min 30 sec)
Heartbeat CPU 0 instructions: 99500619 cycles: 88154302 heartbeat IPC: 1.362 cumulative IPC: 0.7337 (Simulation time: 00 hr 17 min 34 sec)
Heartbeat CPU 0 instructions: 100000620 cycles: 88519954 heartbeat IPC: 1.367 cumulative IPC: 0.7371 (Simulation time: 00 hr 17 min 38 sec)
Heartbeat CPU 0 instructions: 100500624 cycles: 89078485 heartbeat IPC: 0.8952 cumulative IPC: 0.7384 (Simulation time: 00 hr 17 min 45 sec)
Heartbeat CPU 0 instructions: 101000625 cycles: 90386294 heartbeat IPC: 0.3823 cumulative IPC: 0.7317 (Simulation time: 00 hr 18 min 02 sec)
Heartbeat CPU 0 instructions: 101500629 cycles: 91536714 heartbeat IPC: 0.4346 cumulative IPC: 0.7269 (Simulation time: 00 hr 18 min 16 sec)
Heartbeat CPU 0 instructions: 102000632 cycles: 92311247 heartbeat IPC: 0.6456 cumulative IPC: 0.726 (Simulation time: 00 hr 18 min 26 sec)
Heartbeat CPU 0 instructions: 102500638 cycles: 92715668 heartbeat IPC: 1.236 cumulative IPC: 0.7289 (Simulation time: 00 hr 18 min 30 sec)
Heartbeat CPU 0 instructions: 103000640 cycles: 93139508 heartbeat IPC: 1.18 cumulative IPC: 0.7315 (Simulation time: 00 hr 18 min 35 sec)
Heartbeat CPU 0 instructions: 103500641 cycles: 93600981 heartbeat IPC: 1.083 cumulative IPC: 0.7337 (Simulation time: 00 hr 18 min 40 sec)
Heartbeat CPU 0 instructions: 104000641 cycles: 94072923 heartbeat IPC: 1.059 cumulative IPC: 0.7358 (Simulation time: 00 hr 18 min 45 sec)
Heartbeat CPU 0 instructions: 104500641 cycles: 94561754 heartbeat IPC: 1.023 cumulative IPC: 0.7377 (Simulation time: 00 hr 18 min 51 sec)
Heartbeat CPU 0 instructions: 105000641 cycles: 95061332 heartbeat IPC: 1.001 cumulative IPC: 0.7395 (Simulation time: 00 hr 18 min 56 sec)
Heartbeat CPU 0 instructions: 105500641 cycles: 95489836 heartbeat IPC: 1.167 cumulative IPC: 0.742 (Simulation time: 00 hr 19 min 01 sec)
Heartbeat CPU 0 instructions: 106000647 cycles: 95944045 heartbeat IPC: 1.101 cumulative IPC: 0.7441 (Simulation time: 00 hr 19 min 06 sec)
Heartbeat CPU 0 instructions: 106500654 cycles: 96376963 heartbeat IPC: 1.155 cumulative IPC: 0.7465 (Simulation time: 00 hr 19 min 11 sec)
Heartbeat CPU 0 instructions: 107000661 cycles: 96821963 heartbeat IPC: 1.124 cumulative IPC: 0.7487 (Simulation time: 00 hr 19 min 16 sec)
Heartbeat CPU 0 instructions: 107500663 cycles: 97200989 heartbeat IPC: 1.319 cumulative IPC: 0.7515 (Simulation time: 00 hr 19 min 20 sec)
Heartbeat CPU 0 instructions: 108000663 cycles: 97580949 heartbeat IPC: 1.316 cumulative IPC: 0.7543 (Simulation time: 00 hr 19 min 25 sec)
Heartbeat CPU 0 instructions: 108500669 cycles: 98078358 heartbeat IPC: 1.005 cumulative IPC: 0.7559 (Simulation time: 00 hr 19 min 30 sec)
Heartbeat CPU 0 instructions: 109000669 cycles: 99359011 heartbeat IPC: 0.3904 cumulative IPC: 0.75 (Simulation time: 00 hr 19 min 47 sec)
Heartbeat CPU 0 instructions: 109500671 cycles: 99944278 heartbeat IPC: 0.8543 cumulative IPC: 0.7507 (Simulation time: 00 hr 19 min 52 sec)
Heartbeat CPU 0 instructions: 110000676 cycles: 100378396 heartbeat IPC: 1.152 cumulative IPC: 0.7529 (Simulation time: 00 hr 19 min 57 sec)
Heartbeat CPU 0 instructions: 110500677 cycles: 100780102 heartbeat IPC: 1.245 cumulative IPC: 0.7554 (Simulation time: 00 hr 20 min 02 sec)
Heartbeat CPU 0 instructions: 111000677 cycles: 101156460 heartbeat IPC: 1.329 cumulative IPC: 0.7581 (Simulation time: 00 hr 20 min 06 sec)
Heartbeat CPU 0 instructions: 111500684 cycles: 101532311 heartbeat IPC: 1.33 cumulative IPC: 0.7607 (Simulation time: 00 hr 20 min 11 sec)
Heartbeat CPU 0 instructions: 112000689 cycles: 102009057 heartbeat IPC: 1.049 cumulative IPC: 0.7624 (Simulation time: 00 hr 20 min 16 sec)
Heartbeat CPU 0 instructions: 112500689 cycles: 102512276 heartbeat IPC: 0.9936 cumulative IPC: 0.7638 (Simulation time: 00 hr 20 min 21 sec)
Heartbeat CPU 0 instructions: 113000694 cycles: 103080138 heartbeat IPC: 0.8805 cumulative IPC: 0.7646 (Simulation time: 00 hr 20 min 27 sec)
Heartbeat CPU 0 instructions: 113500701 cycles: 103576973 heartbeat IPC: 1.006 cumulative IPC: 0.7661 (Simulation time: 00 hr 20 min 32 sec)
Heartbeat CPU 0 instructions: 114000706 cycles: 103960541 heartbeat IPC: 1.304 cumulative IPC: 0.7686 (Simulation time: 00 hr 20 min 37 sec)
Heartbeat CPU 0 instructions: 114500709 cycles: 104375224 heartbeat IPC: 1.206 cumulative IPC: 0.7707 (Simulation time: 00 hr 20 min 42 sec)
Heartbeat CPU 0 instructions: 115000709 cycles: 104753373 heartbeat IPC: 1.322 cumulative IPC: 0.7732 (Simulation time: 00 hr 20 min 46 sec)
Heartbeat CPU 0 instructions: 115500711 cycles: 105148043 heartbeat IPC: 1.267 cumulative IPC: 0.7755 (Simulation time: 00 hr 20 min 51 sec)
Heartbeat CPU 0 instructions: 116000712 cycles: 105939849 heartbeat IPC: 0.6315 cumulative IPC: 0.7742 (Simulation time: 00 hr 21 min 00 sec)
Heartbeat CPU 0 instructions: 116500718 cycles: 107009570 heartbeat IPC: 0.4674 cumulative IPC: 0.7704 (Simulation time: 00 hr 21 min 13 sec)
Heartbeat CPU 0 instructions: 117000719 cycles: 107438466 heartbeat IPC: 1.166 cumulative IPC: 0.7723 (Simulation time: 00 hr 21 min 18 sec)
Heartbeat CPU 0 instructions: 117500720 cycles: 107840496 heartbeat IPC: 1.244 cumulative IPC: 0.7745 (Simulation time: 00 hr 21 min 23 sec)
Heartbeat CPU 0 instructions: 118000725 cycles: 108247341 heartbeat IPC: 1.229 cumulative IPC: 0.7766 (Simulation time: 00 hr 21 min 27 sec)
Heartbeat CPU 0 instructions: 118500729 cycles: 108656333 heartbeat IPC: 1.223 cumulative IPC: 0.7787 (Simulation time: 00 hr 21 min 32 sec)
Heartbeat CPU 0 instructions: 119000734 cycles: 109166286 heartbeat IPC: 0.9805 cumulative IPC: 0.7799 (Simulation time: 00 hr 21 min 37 sec)
Heartbeat CPU 0 instructions: 119500735 cycles: 109711189 heartbeat IPC: 0.9176 cumulative IPC: 0.7807 (Simulation time: 00 hr 21 min 43 sec)
Heartbeat CPU 0 instructions: 120000737 cycles: 110153146 heartbeat IPC: 1.131 cumulative IPC: 0.7824 (Simulation time: 00 hr 21 min 48 sec)
Heartbeat CPU 0 instructions: 120500738 cycles: 110585832 heartbeat IPC: 1.156 cumulative IPC: 0.7842 (Simulation time: 00 hr 21 min 53 sec)
Heartbeat CPU 0 instructions: 121000742 cycles: 111042108 heartbeat IPC: 1.096 cumulative IPC: 0.7858 (Simulation time: 00 hr 21 min 58 sec)
Heartbeat CPU 0 instructions: 121500743 cycles: 111566041 heartbeat IPC: 0.9543 cumulative IPC: 0.7868 (Simulation time: 00 hr 22 min 03 sec)
Heartbeat CPU 0 instructions: 122000744 cycles: 112054279 heartbeat IPC: 1.024 cumulative IPC: 0.788 (Simulation time: 00 hr 22 min 08 sec)
Heartbeat CPU 0 instructions: 122500748 cycles: 112523526 heartbeat IPC: 1.066 cumulative IPC: 0.7895 (Simulation time: 00 hr 22 min 13 sec)
Heartbeat CPU 0 instructions: 123000749 cycles: 113110651 heartbeat IPC: 0.8516 cumulative IPC: 0.7898 (Simulation time: 00 hr 22 min 19 sec)
Heartbeat CPU 0 instructions: 123500750 cycles: 114191099 heartbeat IPC: 0.4628 cumulative IPC: 0.7861 (Simulation time: 00 hr 22 min 32 sec)
Heartbeat CPU 0 instructions: 124000755 cycles: 115009669 heartbeat IPC: 0.6108 cumulative IPC: 0.7845 (Simulation time: 00 hr 22 min 42 sec)
Heartbeat CPU 0 instructions: 124500758 cycles: 115486696 heartbeat IPC: 1.048 cumulative IPC: 0.7859 (Simulation time: 00 hr 22 min 47 sec)
Heartbeat CPU 0 instructions: 125000758 cycles: 116047191 heartbeat IPC: 0.8921 cumulative IPC: 0.7865 (Simulation time: 00 hr 22 min 52 sec)
Heartbeat CPU 0 instructions: 125500758 cycles: 116514124 heartbeat IPC: 1.071 cumulative IPC: 0.7879 (Simulation time: 00 hr 22 min 57 sec)
Heartbeat CPU 0 instructions: 126000760 cycles: 116948794 heartbeat IPC: 1.15 cumulative IPC: 0.7895 (Simulation time: 00 hr 23 min 02 sec)
Heartbeat CPU 0 instructions: 126500760 cycles: 117355620 heartbeat IPC: 1.229 cumulative IPC: 0.7914 (Simulation time: 00 hr 23 min 06 sec)
Heartbeat CPU 0 instructions: 127000762 cycles: 117747558 heartbeat IPC: 1.276 cumulative IPC: 0.7933 (Simulation time: 00 hr 23 min 11 sec)
Heartbeat CPU 0 instructions: 127500763 cycles: 118129078 heartbeat IPC: 1.311 cumulative IPC: 0.7954 (Simulation time: 00 hr 23 min 15 sec)
Heartbeat CPU 0 instructions: 128000765 cycles: 118504068 heartbeat IPC: 1.333 cumulative IPC: 0.7974 (Simulation time: 00 hr 23 min 19 sec)
Heartbeat CPU 0 instructions: 128500765 cycles: 118881123 heartbeat IPC: 1.326 cumulative IPC: 0.7994 (Simulation time: 00 hr 23 min 24 sec)
Heartbeat CPU 0 instructions: 129000772 cycles: 119253954 heartbeat IPC: 1.341 cumulative IPC: 0.8015 (Simulation time: 00 hr 23 min 28 sec)
Heartbeat CPU 0 instructions: 129500779 cycles: 119796238 heartbeat IPC: 0.922 cumulative IPC: 0.8022 (Simulation time: 00 hr 23 min 33 sec)
Heartbeat CPU 0 instructions: 130000781 cycles: 120407419 heartbeat IPC: 0.8181 cumulative IPC: 0.8022 (Simulation time: 00 hr 23 min 39 sec)
Heartbeat CPU 0 instructions: 130500787 cycles: 120901427 heartbeat IPC: 1.012 cumulative IPC: 0.8033 (Simulation time: 00 hr 23 min 44 sec)
Heartbeat CPU 0 instructions: 131000790 cycles: 122196895 heartbeat IPC: 0.386 cumulative IPC: 0.798 (Simulation time: 00 hr 24 min 00 sec)
Heartbeat CPU 0 instructions: 131500795 cycles: 123157564 heartbeat IPC: 0.5205 cumulative IPC: 0.7954 (Simulation time: 00 hr 24 min 11 sec)
Heartbeat CPU 0 instructions: 132000795 cycles: 124484138 heartbeat IPC: 0.3769 cumulative IPC: 0.79 (Simulation time: 00 hr 24 min 26 sec)
Heartbeat CPU 0 instructions: 132500799 cycles: 124981803 heartbeat IPC: 1.005 cumulative IPC: 0.791 (Simulation time: 00 hr 24 min 31 sec)
Heartbeat CPU 0 instructions: 133000805 cycles: 125481649 heartbeat IPC: 1 cumulative IPC: 0.792 (Simulation time: 00 hr 24 min 36 sec)
Heartbeat CPU 0 instructions: 133500805 cycles: 125964056 heartbeat IPC: 1.036 cumulative IPC: 0.7932 (Simulation time: 00 hr 24 min 41 sec)
Heartbeat CPU 0 instructions: 134000807 cycles: 126374057 heartbeat IPC: 1.22 cumulative IPC: 0.7948 (Simulation time: 00 hr 24 min 46 sec)
Heartbeat CPU 0 instructions: 134500807 cycles: 126739654 heartbeat IPC: 1.368 cumulative IPC: 0.7968 (Simulation time: 00 hr 24 min 50 sec)
Heartbeat CPU 0 instructions: 135000807 cycles: 127111334 heartbeat IPC: 1.345 cumulative IPC: 0.7987 (Simulation time: 00 hr 24 min 54 sec)
Heartbeat CPU 0 instructions: 135500810 cycles: 127483908 heartbeat IPC: 1.342 cumulative IPC: 0.8006 (Simulation time: 00 hr 24 min 58 sec)
Heartbeat CPU 0 instructions: 136000815 cycles: 127863669 heartbeat IPC: 1.317 cumulative IPC: 0.8024 (Simulation time: 00 hr 25 min 02 sec)
Heartbeat CPU 0 instructions: 136500818 cycles: 128287976 heartbeat IPC: 1.178 cumulative IPC: 0.8039 (Simulation time: 00 hr 25 min 07 sec)
Heartbeat CPU 0 instructions: 137000819 cycles: 128704355 heartbeat IPC: 1.201 cumulative IPC: 0.8054 (Simulation time: 00 hr 25 min 12 sec)
Heartbeat CPU 0 instructions: 137500819 cycles: 129126741 heartbeat IPC: 1.184 cumulative IPC: 0.8069 (Simulation time: 00 hr 25 min 16 sec)
Heartbeat CPU 0 instructions: 138000820 cycles: 129524458 heartbeat IPC: 1.257 cumulative IPC: 0.8086 (Simulation time: 00 hr 25 min 21 sec)
Heartbeat CPU 0 instructions: 138500820 cycles: 129917001 heartbeat IPC: 1.274 cumulative IPC: 0.8102 (Simulation time: 00 hr 25 min 25 sec)
Heartbeat CPU 0 instructions: 139000821 cycles: 130767296 heartbeat IPC: 0.588 cumulative IPC: 0.8085 (Simulation time: 00 hr 25 min 34 sec)
Heartbeat CPU 0 instructions: 139500826 cycles: 131768756 heartbeat IPC: 0.4993 cumulative IPC: 0.8057 (Simulation time: 00 hr 25 min 46 sec)
Heartbeat CPU 0 instructions: 140000829 cycles: 132197918 heartbeat IPC: 1.165 cumulative IPC: 0.8071 (Simulation time: 00 hr 25 min 50 sec)
Heartbeat CPU 0 instructions: 140500829 cycles: 132603254 heartbeat IPC: 1.234 cumulative IPC: 0.8086 (Simulation time: 00 hr 25 min 55 sec)
Heartbeat CPU 0 instructions: 141000832 cycles: 132998705 heartbeat IPC: 1.264 cumulative IPC: 0.8103 (Simulation time: 00 hr 25 min 59 sec)
Heartbeat CPU 0 instructions: 141500832 cycles: 133379590 heartbeat IPC: 1.313 cumulative IPC: 0.8119 (Simulation time: 00 hr 26 min 03 sec)
Heartbeat CPU 0 instructions: 142000834 cycles: 133765821 heartbeat IPC: 1.295 cumulative IPC: 0.8136 (Simulation time: 00 hr 26 min 07 sec)
Heartbeat CPU 0 instructions: 142500838 cycles: 134356719 heartbeat IPC: 0.8462 cumulative IPC: 0.8138 (Simulation time: 00 hr 26 min 13 sec)
Heartbeat CPU 0 instructions: 143000840 cycles: 134877524 heartbeat IPC: 0.9601 cumulative IPC: 0.8144 (Simulation time: 00 hr 26 min 18 sec)
Heartbeat CPU 0 instructions: 143500845 cycles: 135261733 heartbeat IPC: 1.301 cumulative IPC: 0.8161 (Simulation time: 00 hr 26 min 22 sec)
Heartbeat CPU 0 instructions: 144000845 cycles: 135726972 heartbeat IPC: 1.075 cumulative IPC: 0.8171 (Simulation time: 00 hr 26 min 27 sec)
Heartbeat CPU 0 instructions: 144500847 cycles: 136431384 heartbeat IPC: 0.7098 cumulative IPC: 0.8165 (Simulation time: 00 hr 26 min 33 sec)
Heartbeat CPU 0 instructions: 145000854 cycles: 136972607 heartbeat IPC: 0.9238 cumulative IPC: 0.817 (Simulation time: 00 hr 26 min 38 sec)
Heartbeat CPU 0 instructions: 145500854 cycles: 137412456 heartbeat IPC: 1.137 cumulative IPC: 0.8182 (Simulation time: 00 hr 26 min 42 sec)
Heartbeat CPU 0 instructions: 146000855 cycles: 137851705 heartbeat IPC: 1.138 cumulative IPC: 0.8194 (Simulation time: 00 hr 26 min 47 sec)
Heartbeat CPU 0 instructions: 146500855 cycles: 139035279 heartbeat IPC: 0.4224 cumulative IPC: 0.8154 (Simulation time: 00 hr 27 min 00 sec)
Heartbeat CPU 0 instructions: 147000858 cycles: 139682579 heartbeat IPC: 0.7724 cumulative IPC: 0.8152 (Simulation time: 00 hr 27 min 07 sec)
Heartbeat CPU 0 instructions: 147500858 cycles: 140086619 heartbeat IPC: 1.238 cumulative IPC: 0.8166 (Simulation time: 00 hr 27 min 11 sec)
Heartbeat CPU 0 instructions: 148000863 cycles: 140467130 heartbeat IPC: 1.314 cumulative IPC: 0.8182 (Simulation time: 00 hr 27 min 15 sec)
Heartbeat CPU 0 instructions: 148500870 cycles: 140837390 heartbeat IPC: 1.35 cumulative IPC: 0.8198 (Simulation time: 00 hr 27 min 19 sec)
Heartbeat CPU 0 instructions: 149000870 cycles: 141281469 heartbeat IPC: 1.126 cumulative IPC: 0.8209 (Simulation time: 00 hr 27 min 23 sec)
Heartbeat CPU 0 instructions: 149500870 cycles: 141861227 heartbeat IPC: 0.8624 cumulative IPC: 0.8211 (Simulation time: 00 hr 27 min 29 sec)
Heartbeat CPU 0 instructions: 150000870 cycles: 142330221 heartbeat IPC: 1.066 cumulative IPC: 0.8221 (Simulation time: 00 hr 27 min 33 sec)
Heartbeat CPU 0 instructions: 150500870 cycles: 142778547 heartbeat IPC: 1.115 cumulative IPC: 0.8232 (Simulation time: 00 hr 27 min 38 sec)
Heartbeat CPU 0 instructions: 151000871 cycles: 143224108 heartbeat IPC: 1.122 cumulative IPC: 0.8242 (Simulation time: 00 hr 27 min 42 sec)
Heartbeat CPU 0 instructions: 151500871 cycles: 143641649 heartbeat IPC: 1.197 cumulative IPC: 0.8255 (Simulation time: 00 hr 27 min 46 sec)
Heartbeat CPU 0 instructions: 152000874 cycles: 144071591 heartbeat IPC: 1.163 cumulative IPC: 0.8267 (Simulation time: 00 hr 27 min 51 sec)
Heartbeat CPU 0 instructions: 152500874 cycles: 144516971 heartbeat IPC: 1.123 cumulative IPC: 0.8278 (Simulation time: 00 hr 27 min 55 sec)
Heartbeat CPU 0 instructions: 153000879 cycles: 145052108 heartbeat IPC: 0.9343 cumulative IPC: 0.8282 (Simulation time: 00 hr 28 min 00 sec)
Heartbeat CPU 0 instructions: 153500881 cycles: 145785306 heartbeat IPC: 0.6819 cumulative IPC: 0.8274 (Simulation time: 00 hr 28 min 07 sec)
Heartbeat CPU 0 instructions: 154000883 cycles: 147245092 heartbeat IPC: 0.3425 cumulative IPC: 0.8218 (Simulation time: 00 hr 28 min 23 sec)
Heartbeat CPU 0 instructions: 154500883 cycles: 147707351 heartbeat IPC: 1.082 cumulative IPC: 0.8227 (Simulation time: 00 hr 28 min 27 sec)
Heartbeat CPU 0 instructions: 155000884 cycles: 148421841 heartbeat IPC: 0.6998 cumulative IPC: 0.822 (Simulation time: 00 hr 28 min 33 sec)
Heartbeat CPU 0 instructions: 155500885 cycles: 148824309 heartbeat IPC: 1.242 cumulative IPC: 0.8233 (Simulation time: 00 hr 28 min 37 sec)
Heartbeat CPU 0 instructions: 156000887 cycles: 149269571 heartbeat IPC: 1.123 cumulative IPC: 0.8244 (Simulation time: 00 hr 28 min 42 sec)
Heartbeat CPU 0 instructions: 156500890 cycles: 150000830 heartbeat IPC: 0.6838 cumulative IPC: 0.8236 (Simulation time: 00 hr 28 min 48 sec)
Heartbeat CPU 0 instructions: 157000890 cycles: 150775919 heartbeat IPC: 0.6451 cumulative IPC: 0.8225 (Simulation time: 00 hr 28 min 54 sec)
Heartbeat CPU 0 instructions: 157500890 cycles: 151319171 heartbeat IPC: 0.9204 cumulative IPC: 0.8229 (Simulation time: 00 hr 29 min 00 sec)
Heartbeat CPU 0 instructions: 158000890 cycles: 151736219 heartbeat IPC: 1.199 cumulative IPC: 0.8241 (Simulation time: 00 hr 29 min 04 sec)
Heartbeat CPU 0 instructions: 158500890 cycles: 152202587 heartbeat IPC: 1.072 cumulative IPC: 0.825 (Simulation time: 00 hr 29 min 08 sec)
Heartbeat CPU 0 instructions: 159000890 cycles: 152793305 heartbeat IPC: 0.8464 cumulative IPC: 0.8251 (Simulation time: 00 hr 29 min 14 sec)
Heartbeat CPU 0 instructions: 159500891 cycles: 153414620 heartbeat IPC: 0.8047 cumulative IPC: 0.825 (Simulation time: 00 hr 29 min 19 sec)
Heartbeat CPU 0 instructions: 160000896 cycles: 153896171 heartbeat IPC: 1.038 cumulative IPC: 0.8258 (Simulation time: 00 hr 29 min 24 sec)
Heartbeat CPU 0 instructions: 160500897 cycles: 154744758 heartbeat IPC: 0.5892 cumulative IPC: 0.8243 (Simulation time: 00 hr 29 min 31 sec)
Heartbeat CPU 0 instructions: 161000901 cycles: 155732524 heartbeat IPC: 0.5062 cumulative IPC: 0.822 (Simulation time: 00 hr 29 min 41 sec)
Heartbeat CPU 0 instructions: 161500908 cycles: 157000399 heartbeat IPC: 0.3944 cumulative IPC: 0.818 (Simulation time: 00 hr 29 min 55 sec)
Heartbeat CPU 0 instructions: 162000910 cycles: 158274557 heartbeat IPC: 0.3924 cumulative IPC: 0.814 (Simulation time: 00 hr 30 min 09 sec)
Heartbeat CPU 0 instructions: 162500917 cycles: 158982008 heartbeat IPC: 0.7068 cumulative IPC: 0.8135 (Simulation time: 00 hr 30 min 16 sec)
Heartbeat CPU 0 instructions: 163000917 cycles: 159434204 heartbeat IPC: 1.106 cumulative IPC: 0.8144 (Simulation time: 00 hr 30 min 20 sec)
Heartbeat CPU 0 instructions: 163500919 cycles: 159841388 heartbeat IPC: 1.228 cumulative IPC: 0.8156 (Simulation time: 00 hr 30 min 24 sec)
Heartbeat CPU 0 instructions: 164000919 cycles: 160245229 heartbeat IPC: 1.238 cumulative IPC: 0.8169 (Simulation time: 00 hr 30 min 29 sec)
Heartbeat CPU 0 instructions: 164500920 cycles: 160634909 heartbeat IPC: 1.283 cumulative IPC: 0.8182 (Simulation time: 00 hr 30 min 33 sec)
Heartbeat CPU 0 instructions: 165000926 cycles: 161039099 heartbeat IPC: 1.237 cumulative IPC: 0.8194 (Simulation time: 00 hr 30 min 37 sec)
Heartbeat CPU 0 instructions: 165500927 cycles: 161461915 heartbeat IPC: 1.183 cumulative IPC: 0.8205 (Simulation time: 00 hr 30 min 41 sec)
Heartbeat CPU 0 instructions: 166000929 cycles: 162133692 heartbeat IPC: 0.7443 cumulative IPC: 0.8201 (Simulation time: 00 hr 30 min 47 sec)
Heartbeat CPU 0 instructions: 166500929 cycles: 162550832 heartbeat IPC: 1.199 cumulative IPC: 0.8212 (Simulation time: 00 hr 30 min 51 sec)
Heartbeat CPU 0 instructions: 167000929 cycles: 162958025 heartbeat IPC: 1.228 cumulative IPC: 0.8224 (Simulation time: 00 hr 30 min 55 sec)
Heartbeat CPU 0 instructions: 167500935 cycles: 163378080 heartbeat IPC: 1.19 cumulative IPC: 0.8235 (Simulation time: 00 hr 31 min 00 sec)
Heartbeat CPU 0 instructions: 168000938 cycles: 163792812 heartbeat IPC: 1.206 cumulative IPC: 0.8246 (Simulation time: 00 hr 31 min 04 sec)
Heartbeat CPU 0 instructions: 168500941 cycles: 164201454 heartbeat IPC: 1.224 cumulative IPC: 0.8257 (Simulation time: 00 hr 31 min 08 sec)
Heartbeat CPU 0 instructions: 169000941 cycles: 164761258 heartbeat IPC: 0.8932 cumulative IPC: 0.826 (Simulation time: 00 hr 31 min 14 sec)
Heartbeat CPU 0 instructions: 169500943 cycles: 166050071 heartbeat IPC: 0.388 cumulative IPC: 0.8221 (Simulation time: 00 hr 31 min 28 sec)
Heartbeat CPU 0 instructions: 170000945 cycles: 166492123 heartbeat IPC: 1.131 cumulative IPC: 0.823 (Simulation time: 00 hr 31 min 33 sec)
Heartbeat CPU 0 instructions: 170500950 cycles: 166970850 heartbeat IPC: 1.044 cumulative IPC: 0.8237 (Simulation time: 00 hr 31 min 37 sec)
Heartbeat CPU 0 instructions: 171000956 cycles: 167444193 heartbeat IPC: 1.056 cumulative IPC: 0.8245 (Simulation time: 00 hr 31 min 41 sec)
Heartbeat CPU 0 instructions: 171500961 cycles: 167896571 heartbeat IPC: 1.105 cumulative IPC: 0.8254 (Simulation time: 00 hr 31 min 46 sec)
Heartbeat CPU 0 instructions: 172000961 cycles: 168322200 heartbeat IPC: 1.175 cumulative IPC: 0.8264 (Simulation time: 00 hr 31 min 50 sec)
Heartbeat CPU 0 instructions: 172500964 cycles: 168739642 heartbeat IPC: 1.198 cumulative IPC: 0.8274 (Simulation time: 00 hr 31 min 54 sec)
Heartbeat CPU 0 instructions: 173000964 cycles: 169155154 heartbeat IPC: 1.203 cumulative IPC: 0.8285 (Simulation time: 00 hr 31 min 58 sec)
Heartbeat CPU 0 instructions: 173500964 cycles: 169644742 heartbeat IPC: 1.021 cumulative IPC: 0.8291 (Simulation time: 00 hr 32 min 03 sec)
Heartbeat CPU 0 instructions: 174000968 cycles: 170357109 heartbeat IPC: 0.7019 cumulative IPC: 0.8285 (Simulation time: 00 hr 32 min 09 sec)
Heartbeat CPU 0 instructions: 174500975 cycles: 170960187 heartbeat IPC: 0.8291 cumulative IPC: 0.8285 (Simulation time: 00 hr 32 min 14 sec)
Heartbeat CPU 0 instructions: 175000977 cycles: 171444719 heartbeat IPC: 1.032 cumulative IPC: 0.8292 (Simulation time: 00 hr 32 min 19 sec)
Heartbeat CPU 0 instructions: 175500978 cycles: 172119611 heartbeat IPC: 0.7409 cumulative IPC: 0.8288 (Simulation time: 00 hr 32 min 26 sec)
Heartbeat CPU 0 instructions: 176000983 cycles: 173475807 heartbeat IPC: 0.3687 cumulative IPC: 0.8247 (Simulation time: 00 hr 32 min 41 sec)
Heartbeat CPU 0 instructions: 176500984 cycles: 174564619 heartbeat IPC: 0.4592 cumulative IPC: 0.8221 (Simulation time: 00 hr 32 min 52 sec)
Heartbeat CPU 0 instructions: 177000987 cycles: 175505178 heartbeat IPC: 0.5316 cumulative IPC: 0.8203 (Simulation time: 00 hr 33 min 03 sec)
Heartbeat CPU 0 instructions: 177500993 cycles: 175968965 heartbeat IPC: 1.078 cumulative IPC: 0.8211 (Simulation time: 00 hr 33 min 07 sec)
Heartbeat CPU 0 instructions: 178000993 cycles: 176508912 heartbeat IPC: 0.926 cumulative IPC: 0.8215 (Simulation time: 00 hr 33 min 12 sec)
Heartbeat CPU 0 instructions: 178500998 cycles: 176928799 heartbeat IPC: 1.191 cumulative IPC: 0.8224 (Simulation time: 00 hr 33 min 16 sec)
Heartbeat CPU 0 instructions: 179000999 cycles: 177334891 heartbeat IPC: 1.231 cumulative IPC: 0.8235 (Simulation time: 00 hr 33 min 20 sec)
Heartbeat CPU 0 instructions: 179501000 cycles: 177752728 heartbeat IPC: 1.197 cumulative IPC: 0.8245 (Simulation time: 00 hr 33 min 24 sec)
Heartbeat CPU 0 instructions: 180001001 cycles: 178149852 heartbeat IPC: 1.259 cumulative IPC: 0.8256 (Simulation time: 00 hr 33 min 29 sec)
Heartbeat CPU 0 instructions: 180501001 cycles: 178543935 heartbeat IPC: 1.269 cumulative IPC: 0.8267 (Simulation time: 00 hr 33 min 33 sec)
Heartbeat CPU 0 instructions: 181001001 cycles: 178933376 heartbeat IPC: 1.284 cumulative IPC: 0.8278 (Simulation time: 00 hr 33 min 37 sec)
Heartbeat CPU 0 instructions: 181501008 cycles: 179333841 heartbeat IPC: 1.249 cumulative IPC: 0.8289 (Simulation time: 00 hr 33 min 41 sec)
Heartbeat CPU 0 instructions: 182001015 cycles: 179755192 heartbeat IPC: 1.187 cumulative IPC: 0.8298 (Simulation time: 00 hr 33 min 45 sec)
Heartbeat CPU 0 instructions: 182501019 cycles: 180308417 heartbeat IPC: 0.9038 cumulative IPC: 0.8301 (Simulation time: 00 hr 33 min 50 sec)
Heartbeat CPU 0 instructions: 183001019 cycles: 181354643 heartbeat IPC: 0.4779 cumulative IPC: 0.8278 (Simulation time: 00 hr 34 min 01 sec)
Heartbeat CPU 0 instructions: 183501021 cycles: 182570610 heartbeat IPC: 0.4112 cumulative IPC: 0.8247 (Simulation time: 00 hr 34 min 14 sec)
Heartbeat CPU 0 instructions: 184001024 cycles: 183866538 heartbeat IPC: 0.3858 cumulative IPC: 0.8212 (Simulation time: 00 hr 34 min 28 sec)
Heartbeat CPU 0 instructions: 184501025 cycles: 184459457 heartbeat IPC: 0.8433 cumulative IPC: 0.8213 (Simulation time: 00 hr 34 min 34 sec)
Heartbeat CPU 0 instructions: 185001025 cycles: 184887719 heartbeat IPC: 1.168 cumulative IPC: 0.8222 (Simulation time: 00 hr 34 min 39 sec)
Heartbeat CPU 0 instructions: 185501026 cycles: 185283251 heartbeat IPC: 1.264 cumulative IPC: 0.8232 (Simulation time: 00 hr 34 min 43 sec)
Heartbeat CPU 0 instructions: 186001029 cycles: 185744081 heartbeat IPC: 1.085 cumulative IPC: 0.824 (Simulation time: 00 hr 34 min 47 sec)
Heartbeat CPU 0 instructions: 186501029 cycles: 186286497 heartbeat IPC: 0.9218 cumulative IPC: 0.8243 (Simulation time: 00 hr 34 min 52 sec)
Heartbeat CPU 0 instructions: 187001030 cycles: 186738768 heartbeat IPC: 1.106 cumulative IPC: 0.825 (Simulation time: 00 hr 34 min 56 sec)
Heartbeat CPU 0 instructions: 187501030 cycles: 187352941 heartbeat IPC: 0.8141 cumulative IPC: 0.825 (Simulation time: 00 hr 35 min 02 sec)
Heartbeat CPU 0 instructions: 188001030 cycles: 187839586 heartbeat IPC: 1.027 cumulative IPC: 0.8256 (Simulation time: 00 hr 35 min 06 sec)
Heartbeat CPU 0 instructions: 188501037 cycles: 188396939 heartbeat IPC: 0.8971 cumulative IPC: 0.8258 (Simulation time: 00 hr 35 min 12 sec)
Heartbeat CPU 0 instructions: 189001037 cycles: 188824286 heartbeat IPC: 1.17 cumulative IPC: 0.8267 (Simulation time: 00 hr 35 min 16 sec)
Heartbeat CPU 0 instructions: 189501037 cycles: 189246914 heartbeat IPC: 1.183 cumulative IPC: 0.8276 (Simulation time: 00 hr 35 min 20 sec)
Heartbeat CPU 0 instructions: 190001038 cycles: 189672966 heartbeat IPC: 1.174 cumulative IPC: 0.8285 (Simulation time: 00 hr 35 min 24 sec)
Heartbeat CPU 0 instructions: 190501040 cycles: 190576708 heartbeat IPC: 0.5533 cumulative IPC: 0.827 (Simulation time: 00 hr 35 min 34 sec)
Heartbeat CPU 0 instructions: 191001045 cycles: 191829042 heartbeat IPC: 0.3993 cumulative IPC: 0.8239 (Simulation time: 00 hr 35 min 47 sec)
Heartbeat CPU 0 instructions: 191501047 cycles: 193120755 heartbeat IPC: 0.3871 cumulative IPC: 0.8206 (Simulation time: 00 hr 36 min 02 sec)
Heartbeat CPU 0 instructions: 192001048 cycles: 194073615 heartbeat IPC: 0.5247 cumulative IPC: 0.819 (Simulation time: 00 hr 36 min 12 sec)
Heartbeat CPU 0 instructions: 192501050 cycles: 195473168 heartbeat IPC: 0.3573 cumulative IPC: 0.8153 (Simulation time: 00 hr 36 min 27 sec)
Heartbeat CPU 0 instructions: 193001051 cycles: 196536111 heartbeat IPC: 0.4704 cumulative IPC: 0.8132 (Simulation time: 00 hr 36 min 38 sec)
Heartbeat CPU 0 instructions: 193501058 cycles: 197448755 heartbeat IPC: 0.5479 cumulative IPC: 0.8118 (Simulation time: 00 hr 36 min 48 sec)
Heartbeat CPU 0 instructions: 194001064 cycles: 197908755 heartbeat IPC: 1.087 cumulative IPC: 0.8125 (Simulation time: 00 hr 36 min 53 sec)
Heartbeat CPU 0 instructions: 194501070 cycles: 198318798 heartbeat IPC: 1.219 cumulative IPC: 0.8135 (Simulation time: 00 hr 36 min 57 sec)
Heartbeat CPU 0 instructions: 195001073 cycles: 198710616 heartbeat IPC: 1.276 cumulative IPC: 0.8145 (Simulation time: 00 hr 37 min 01 sec)
Heartbeat CPU 0 instructions: 195501076 cycles: 199092091 heartbeat IPC: 1.311 cumulative IPC: 0.8156 (Simulation time: 00 hr 37 min 05 sec)
Heartbeat CPU 0 instructions: 196001082 cycles: 199481161 heartbeat IPC: 1.285 cumulative IPC: 0.8166 (Simulation time: 00 hr 37 min 09 sec)
Heartbeat CPU 0 instructions: 196501083 cycles: 199871534 heartbeat IPC: 1.281 cumulative IPC: 0.8176 (Simulation time: 00 hr 37 min 13 sec)
Heartbeat CPU 0 instructions: 197001084 cycles: 200272782 heartbeat IPC: 1.246 cumulative IPC: 0.8186 (Simulation time: 00 hr 37 min 17 sec)
Heartbeat CPU 0 instructions: 197501087 cycles: 200667629 heartbeat IPC: 1.266 cumulative IPC: 0.8195 (Simulation time: 00 hr 37 min 21 sec)
Heartbeat CPU 0 instructions: 198001087 cycles: 201073163 heartbeat IPC: 1.233 cumulative IPC: 0.8205 (Simulation time: 00 hr 37 min 26 sec)
Heartbeat CPU 0 instructions: 198501091 cycles: 201466979 heartbeat IPC: 1.27 cumulative IPC: 0.8214 (Simulation time: 00 hr 37 min 30 sec)
Heartbeat CPU 0 instructions: 199001091 cycles: 201892008 heartbeat IPC: 1.176 cumulative IPC: 0.8223 (Simulation time: 00 hr 37 min 34 sec)
Heartbeat CPU 0 instructions: 199501091 cycles: 203152505 heartbeat IPC: 0.3967 cumulative IPC: 0.8193 (Simulation time: 00 hr 37 min 48 sec)
Heartbeat CPU 0 instructions: 200001092 cycles: 204065159 heartbeat IPC: 0.5479 cumulative IPC: 0.818 (Simulation time: 00 hr 37 min 58 sec)
Heartbeat CPU 0 instructions: 200501095 cycles: 205317255 heartbeat IPC: 0.3993 cumulative IPC: 0.8151 (Simulation time: 00 hr 38 min 12 sec)
Heartbeat CPU 0 instructions: 201001095 cycles: 205905762 heartbeat IPC: 0.8496 cumulative IPC: 0.8153 (Simulation time: 00 hr 38 min 17 sec)
Heartbeat CPU 0 instructions: 201501095 cycles: 206832697 heartbeat IPC: 0.5394 cumulative IPC: 0.8139 (Simulation time: 00 hr 38 min 24 sec)
Heartbeat CPU 0 instructions: 202001095 cycles: 207390057 heartbeat IPC: 0.8971 cumulative IPC: 0.8141 (Simulation time: 00 hr 38 min 29 sec)
Heartbeat CPU 0 instructions: 202501096 cycles: 207839101 heartbeat IPC: 1.113 cumulative IPC: 0.8149 (Simulation time: 00 hr 38 min 33 sec)
Heartbeat CPU 0 instructions: 203001096 cycles: 208306595 heartbeat IPC: 1.07 cumulative IPC: 0.8155 (Simulation time: 00 hr 38 min 38 sec)
Heartbeat CPU 0 instructions: 203501097 cycles: 208795624 heartbeat IPC: 1.022 cumulative IPC: 0.816 (Simulation time: 00 hr 38 min 42 sec)
Heartbeat CPU 0 instructions: 204001097 cycles: 209430075 heartbeat IPC: 0.7881 cumulative IPC: 0.8159 (Simulation time: 00 hr 38 min 48 sec)
Heartbeat CPU 0 instructions: 204501097 cycles: 210261283 heartbeat IPC: 0.6015 cumulative IPC: 0.815 (Simulation time: 00 hr 38 min 55 sec)
Heartbeat CPU 0 instructions: 205001099 cycles: 210806256 heartbeat IPC: 0.9175 cumulative IPC: 0.8153 (Simulation time: 00 hr 39 min 00 sec)
Heartbeat CPU 0 instructions: 205501101 cycles: 211379047 heartbeat IPC: 0.8729 cumulative IPC: 0.8155 (Simulation time: 00 hr 39 min 05 sec)
Heartbeat CPU 0 instructions: 206001106 cycles: 212281303 heartbeat IPC: 0.5542 cumulative IPC: 0.8142 (Simulation time: 00 hr 39 min 13 sec)
Heartbeat CPU 0 instructions: 206501106 cycles: 213227452 heartbeat IPC: 0.5285 cumulative IPC: 0.8128 (Simulation time: 00 hr 39 min 20 sec)
Heartbeat CPU 0 instructions: 207001108 cycles: 213769698 heartbeat IPC: 0.9221 cumulative IPC: 0.8131 (Simulation time: 00 hr 39 min 25 sec)
Heartbeat CPU 0 instructions: 207501108 cycles: 215193544 heartbeat IPC: 0.3512 cumulative IPC: 0.8097 (Simulation time: 00 hr 39 min 41 sec)
Heartbeat CPU 0 instructions: 208001111 cycles: 216180103 heartbeat IPC: 0.5068 cumulative IPC: 0.8082 (Simulation time: 00 hr 39 min 51 sec)
Heartbeat CPU 0 instructions: 208501115 cycles: 217612280 heartbeat IPC: 0.3491 cumulative IPC: 0.8049 (Simulation time: 00 hr 40 min 07 sec)
Heartbeat CPU 0 instructions: 209001115 cycles: 218734169 heartbeat IPC: 0.4457 cumulative IPC: 0.8028 (Simulation time: 00 hr 40 min 19 sec)
Heartbeat CPU 0 instructions: 209501115 cycles: 219671529 heartbeat IPC: 0.5334 cumulative IPC: 0.8016 (Simulation time: 00 hr 40 min 29 sec)
Heartbeat CPU 0 instructions: 210001116 cycles: 220349551 heartbeat IPC: 0.7374 cumulative IPC: 0.8014 (Simulation time: 00 hr 40 min 35 sec)
Heartbeat CPU 0 instructions: 210501116 cycles: 220908344 heartbeat IPC: 0.8948 cumulative IPC: 0.8016 (Simulation time: 00 hr 40 min 40 sec)
Heartbeat CPU 0 instructions: 211001118 cycles: 221373379 heartbeat IPC: 1.075 cumulative IPC: 0.8023 (Simulation time: 00 hr 40 min 44 sec)
Heartbeat CPU 0 instructions: 211501120 cycles: 221803913 heartbeat IPC: 1.161 cumulative IPC: 0.803 (Simulation time: 00 hr 40 min 48 sec)
Heartbeat CPU 0 instructions: 212001122 cycles: 222202557 heartbeat IPC: 1.254 cumulative IPC: 0.8039 (Simulation time: 00 hr 40 min 53 sec)
Heartbeat CPU 0 instructions: 212501125 cycles: 222594608 heartbeat IPC: 1.275 cumulative IPC: 0.8048 (Simulation time: 00 hr 40 min 57 sec)
Heartbeat CPU 0 instructions: 213001125 cycles: 222981193 heartbeat IPC: 1.293 cumulative IPC: 0.8058 (Simulation time: 00 hr 41 min 01 sec)
Heartbeat CPU 0 instructions: 213501126 cycles: 223360639 heartbeat IPC: 1.318 cumulative IPC: 0.8067 (Simulation time: 00 hr 41 min 05 sec)
Heartbeat CPU 0 instructions: 214001128 cycles: 223735995 heartbeat IPC: 1.332 cumulative IPC: 0.8077 (Simulation time: 00 hr 41 min 09 sec)
Heartbeat CPU 0 instructions: 214501135 cycles: 224120749 heartbeat IPC: 1.3 cumulative IPC: 0.8086 (Simulation time: 00 hr 41 min 13 sec)
Heartbeat CPU 0 instructions: 215001137 cycles: 224560595 heartbeat IPC: 1.137 cumulative IPC: 0.8093 (Simulation time: 00 hr 41 min 17 sec)
Heartbeat CPU 0 instructions: 215501140 cycles: 224994841 heartbeat IPC: 1.151 cumulative IPC: 0.8101 (Simulation time: 00 hr 41 min 22 sec)
Heartbeat CPU 0 instructions: 216001142 cycles: 225453492 heartbeat IPC: 1.09 cumulative IPC: 0.8107 (Simulation time: 00 hr 41 min 26 sec)
Heartbeat CPU 0 instructions: 216501146 cycles: 226801695 heartbeat IPC: 0.3709 cumulative IPC: 0.8078 (Simulation time: 00 hr 41 min 41 sec)
Heartbeat CPU 0 instructions: 217001147 cycles: 227695614 heartbeat IPC: 0.5593 cumulative IPC: 0.8067 (Simulation time: 00 hr 41 min 51 sec)
Heartbeat CPU 0 instructions: 217501149 cycles: 228908774 heartbeat IPC: 0.4121 cumulative IPC: 0.8044 (Simulation time: 00 hr 42 min 04 sec)
Heartbeat CPU 0 instructions: 218001153 cycles: 229325932 heartbeat IPC: 1.199 cumulative IPC: 0.8052 (Simulation time: 00 hr 42 min 08 sec)
Heartbeat CPU 0 instructions: 218501153 cycles: 229725810 heartbeat IPC: 1.25 cumulative IPC: 0.8061 (Simulation time: 00 hr 42 min 12 sec)
Heartbeat CPU 0 instructions: 219001153 cycles: 230105122 heartbeat IPC: 1.318 cumulative IPC: 0.807 (Simulation time: 00 hr 42 min 16 sec)
Heartbeat CPU 0 instructions: 219501153 cycles: 230481669 heartbeat IPC: 1.328 cumulative IPC: 0.8079 (Simulation time: 00 hr 42 min 20 sec)
Heartbeat CPU 0 instructions: 220001158 cycles: 231055923 heartbeat IPC: 0.8707 cumulative IPC: 0.8081 (Simulation time: 00 hr 42 min 25 sec)
Heartbeat CPU 0 instructions: 220501158 cycles: 231731293 heartbeat IPC: 0.7403 cumulative IPC: 0.8079 (Simulation time: 00 hr 42 min 31 sec)
Heartbeat CPU 0 instructions: 221001160 cycles: 232365361 heartbeat IPC: 0.7886 cumulative IPC: 0.8078 (Simulation time: 00 hr 42 min 37 sec)
Heartbeat CPU 0 instructions: 221501166 cycles: 232766514 heartbeat IPC: 1.246 cumulative IPC: 0.8087 (Simulation time: 00 hr 42 min 41 sec)
Heartbeat CPU 0 instructions: 222001166 cycles: 233182826 heartbeat IPC: 1.201 cumulative IPC: 0.8094 (Simulation time: 00 hr 42 min 45 sec)
Heartbeat CPU 0 instructions: 222501171 cycles: 233621649 heartbeat IPC: 1.139 cumulative IPC: 0.8101 (Simulation time: 00 hr 42 min 50 sec)
Heartbeat CPU 0 instructions: 223001172 cycles: 234054348 heartbeat IPC: 1.156 cumulative IPC: 0.8108 (Simulation time: 00 hr 42 min 54 sec)
Heartbeat CPU 0 instructions: 223501172 cycles: 234555992 heartbeat IPC: 0.9967 cumulative IPC: 0.8112 (Simulation time: 00 hr 42 min 59 sec)
Heartbeat CPU 0 instructions: 224001173 cycles: 234956210 heartbeat IPC: 1.249 cumulative IPC: 0.8121 (Simulation time: 00 hr 43 min 03 sec)
Heartbeat CPU 0 instructions: 224501173 cycles: 236120005 heartbeat IPC: 0.4296 cumulative IPC: 0.81 (Simulation time: 00 hr 43 min 16 sec)
Heartbeat CPU 0 instructions: 225001173 cycles: 236936317 heartbeat IPC: 0.6125 cumulative IPC: 0.8093 (Simulation time: 00 hr 43 min 24 sec)
Heartbeat CPU 0 instructions: 225501178 cycles: 237517004 heartbeat IPC: 0.8611 cumulative IPC: 0.8094 (Simulation time: 00 hr 43 min 29 sec)
Heartbeat CPU 0 instructions: 226001184 cycles: 238236511 heartbeat IPC: 0.6949 cumulative IPC: 0.809 (Simulation time: 00 hr 43 min 35 sec)
Heartbeat CPU 0 instructions: 226501185 cycles: 238760796 heartbeat IPC: 0.9537 cumulative IPC: 0.8094 (Simulation time: 00 hr 43 min 40 sec)
Heartbeat CPU 0 instructions: 227001189 cycles: 239246007 heartbeat IPC: 1.03 cumulative IPC: 0.8099 (Simulation time: 00 hr 43 min 45 sec)
Heartbeat CPU 0 instructions: 227501193 cycles: 239789057 heartbeat IPC: 0.9207 cumulative IPC: 0.8101 (Simulation time: 00 hr 43 min 50 sec)
Heartbeat CPU 0 instructions: 228001193 cycles: 240347651 heartbeat IPC: 0.8951 cumulative IPC: 0.8103 (Simulation time: 00 hr 43 min 55 sec)
Heartbeat CPU 0 instructions: 228501193 cycles: 240978925 heartbeat IPC: 0.792 cumulative IPC: 0.8103 (Simulation time: 00 hr 44 min 01 sec)
Heartbeat CPU 0 instructions: 229001195 cycles: 241534256 heartbeat IPC: 0.9004 cumulative IPC: 0.8105 (Simulation time: 00 hr 44 min 06 sec)
Heartbeat CPU 0 instructions: 229501195 cycles: 242234033 heartbeat IPC: 0.7145 cumulative IPC: 0.8102 (Simulation time: 00 hr 44 min 12 sec)
Heartbeat CPU 0 instructions: 230001200 cycles: 242742883 heartbeat IPC: 0.9826 cumulative IPC: 0.8106 (Simulation time: 00 hr 44 min 17 sec)
Heartbeat CPU 0 instructions: 230501201 cycles: 243144342 heartbeat IPC: 1.245 cumulative IPC: 0.8114 (Simulation time: 00 hr 44 min 21 sec)
Heartbeat CPU 0 instructions: 231001202 cycles: 243773952 heartbeat IPC: 0.7941 cumulative IPC: 0.8113 (Simulation time: 00 hr 44 min 27 sec)
Heartbeat CPU 0 instructions: 231501207 cycles: 245157288 heartbeat IPC: 0.3614 cumulative IPC: 0.8086 (Simulation time: 00 hr 44 min 42 sec)
Heartbeat CPU 0 instructions: 232001207 cycles: 245652873 heartbeat IPC: 1.009 cumulative IPC: 0.809 (Simulation time: 00 hr 44 min 47 sec)
Heartbeat CPU 0 instructions: 232501213 cycles: 246127814 heartbeat IPC: 1.053 cumulative IPC: 0.8095 (Simulation time: 00 hr 44 min 52 sec)
Heartbeat CPU 0 instructions: 233001213 cycles: 246615453 heartbeat IPC: 1.025 cumulative IPC: 0.81 (Simulation time: 00 hr 44 min 56 sec)
Heartbeat CPU 0 instructions: 233501214 cycles: 247116500 heartbeat IPC: 0.9979 cumulative IPC: 0.8104 (Simulation time: 00 hr 45 min 01 sec)
Heartbeat CPU 0 instructions: 234001216 cycles: 247668683 heartbeat IPC: 0.9055 cumulative IPC: 0.8106 (Simulation time: 00 hr 45 min 06 sec)
Heartbeat CPU 0 instructions: 234501216 cycles: 248149996 heartbeat IPC: 1.039 cumulative IPC: 0.8111 (Simulation time: 00 hr 45 min 11 sec)
Heartbeat CPU 0 instructions: 235001218 cycles: 248823001 heartbeat IPC: 0.7429 cumulative IPC: 0.8109 (Simulation time: 00 hr 45 min 17 sec)
Heartbeat CPU 0 instructions: 235501222 cycles: 249853845 heartbeat IPC: 0.485 cumulative IPC: 0.8095 (Simulation time: 00 hr 45 min 25 sec)
Heartbeat CPU 0 instructions: 236001223 cycles: 250388376 heartbeat IPC: 0.9354 cumulative IPC: 0.8098 (Simulation time: 00 hr 45 min 30 sec)
Heartbeat CPU 0 instructions: 236501225 cycles: 250772423 heartbeat IPC: 1.302 cumulative IPC: 0.8106 (Simulation time: 00 hr 45 min 34 sec)
Heartbeat CPU 0 instructions: 237001226 cycles: 251150840 heartbeat IPC: 1.321 cumulative IPC: 0.8114 (Simulation time: 00 hr 45 min 38 sec)
Heartbeat CPU 0 instructions: 237501231 cycles: 251542094 heartbeat IPC: 1.278 cumulative IPC: 0.8122 (Simulation time: 00 hr 45 min 42 sec)
Heartbeat CPU 0 instructions: 238001231 cycles: 252122614 heartbeat IPC: 0.8613 cumulative IPC: 0.8123 (Simulation time: 00 hr 45 min 48 sec)
Heartbeat CPU 0 instructions: 238501231 cycles: 253658890 heartbeat IPC: 0.3255 cumulative IPC: 0.8091 (Simulation time: 00 hr 46 min 04 sec)
Heartbeat CPU 0 instructions: 239001233 cycles: 254350282 heartbeat IPC: 0.7232 cumulative IPC: 0.8089 (Simulation time: 00 hr 46 min 11 sec)
Heartbeat CPU 0 instructions: 239501236 cycles: 254764851 heartbeat IPC: 1.206 cumulative IPC: 0.8096 (Simulation time: 00 hr 46 min 15 sec)
Heartbeat CPU 0 instructions: 240001239 cycles: 255153685 heartbeat IPC: 1.286 cumulative IPC: 0.8104 (Simulation time: 00 hr 46 min 19 sec)
Heartbeat CPU 0 instructions: 240501239 cycles: 255532188 heartbeat IPC: 1.321 cumulative IPC: 0.8112 (Simulation time: 00 hr 46 min 23 sec)
Heartbeat CPU 0 instructions: 241001241 cycles: 255907349 heartbeat IPC: 1.333 cumulative IPC: 0.812 (Simulation time: 00 hr 46 min 27 sec)
Heartbeat CPU 0 instructions: 241501243 cycles: 256290974 heartbeat IPC: 1.303 cumulative IPC: 0.8128 (Simulation time: 00 hr 46 min 31 sec)
Heartbeat CPU 0 instructions: 242001247 cycles: 256714757 heartbeat IPC: 1.18 cumulative IPC: 0.8135 (Simulation time: 00 hr 46 min 35 sec)
Heartbeat CPU 0 instructions: 242501249 cycles: 257275786 heartbeat IPC: 0.8912 cumulative IPC: 0.8137 (Simulation time: 00 hr 46 min 40 sec)
Heartbeat CPU 0 instructions: 243001255 cycles: 257915242 heartbeat IPC: 0.7819 cumulative IPC: 0.8136 (Simulation time: 00 hr 46 min 46 sec)
Heartbeat CPU 0 instructions: 243501257 cycles: 258324164 heartbeat IPC: 1.223 cumulative IPC: 0.8143 (Simulation time: 00 hr 46 min 50 sec)
Heartbeat CPU 0 instructions: 244001259 cycles: 259304033 heartbeat IPC: 0.5103 cumulative IPC: 0.813 (Simulation time: 00 hr 46 min 58 sec)
Heartbeat CPU 0 instructions: 244501260 cycles: 259839143 heartbeat IPC: 0.9344 cumulative IPC: 0.8133 (Simulation time: 00 hr 47 min 03 sec)
Heartbeat CPU 0 instructions: 245001260 cycles: 260268939 heartbeat IPC: 1.163 cumulative IPC: 0.8139 (Simulation time: 00 hr 47 min 07 sec)
Heartbeat CPU 0 instructions: 245501263 cycles: 261399298 heartbeat IPC: 0.4423 cumulative IPC: 0.8122 (Simulation time: 00 hr 47 min 20 sec)
Heartbeat CPU 0 instructions: 246001267 cycles: 262477718 heartbeat IPC: 0.4636 cumulative IPC: 0.8106 (Simulation time: 00 hr 47 min 32 sec)
Heartbeat CPU 0 instructions: 246501267 cycles: 263758924 heartbeat IPC: 0.3903 cumulative IPC: 0.8084 (Simulation time: 00 hr 47 min 46 sec)
Heartbeat CPU 0 instructions: 247001272 cycles: 264658497 heartbeat IPC: 0.5558 cumulative IPC: 0.8075 (Simulation time: 00 hr 47 min 55 sec)
Heartbeat CPU 0 instructions: 247501277 cycles: 265922369 heartbeat IPC: 0.3956 cumulative IPC: 0.8054 (Simulation time: 00 hr 48 min 09 sec)
Heartbeat CPU 0 instructions: 248001279 cycles: 266418077 heartbeat IPC: 1.009 cumulative IPC: 0.8058 (Simulation time: 00 hr 48 min 14 sec)
Heartbeat CPU 0 instructions: 248501279 cycles: 266851863 heartbeat IPC: 1.153 cumulative IPC: 0.8064 (Simulation time: 00 hr 48 min 18 sec)
Heartbeat CPU 0 instructions: 249001281 cycles: 267264699 heartbeat IPC: 1.211 cumulative IPC: 0.8071 (Simulation time: 00 hr 48 min 22 sec)
Heartbeat CPU 0 instructions: 249501282 cycles: 267846690 heartbeat IPC: 0.8591 cumulative IPC: 0.8072 (Simulation time: 00 hr 48 min 27 sec)
Simulation finished CPU 0 instructions: 200000001 cycles: 247779765 cumulative IPC: 0.8072 (Simulation time: 00 hr 48 min 33 sec)
Simulation complete CPU 0 instructions: 200000001 cycles: 247779765 cumulative IPC: 0.8072 (Simulation time: 00 hr 48 min 33 sec)

ChampSim completed all CPUs

=== Simulation ===
CPU 0 runs /local-ssd/ben/dpc4-traces/SPEC17/605.mcf_s-484B.champsimtrace.xz

Region of Interest Statistics

CPU 0 cumulative IPC: 0.8072 instructions: 200000001 cycles: 247779765
CPU 0 Branch Prediction Accuracy: 98.59% MPKI: 1.402 Average ROB Occupancy at Mispredict: 281
Branch type MPKI
BRANCH_DIRECT_JUMP: 0
BRANCH_INDIRECT: 0
BRANCH_CONDITIONAL: 1.402
BRANCH_DIRECT_CALL: 0
BRANCH_INDIRECT_CALL: 0
BRANCH_RETURN: 0

cpu0->cpu0_STLB TOTAL        ACCESS:     479627 HIT:     333627 MISS:     146000 MSHR_MERGE:          0
cpu0->cpu0_STLB LOAD         ACCESS:     479627 HIT:     333627 MISS:     146000 MSHR_MERGE:          0
cpu0->cpu0_STLB RFO          ACCESS:          0 HIT:          0 MISS:          0 MSHR_MERGE:          0
cpu0->cpu0_STLB PREFETCH     ACCESS:          0 HIT:          0 MISS:          0 MSHR_MERGE:          0
cpu0->cpu0_STLB WRITE        ACCESS:          0 HIT:          0 MISS:          0 MSHR_MERGE:          0
cpu0->cpu0_STLB TRANSLATION  ACCESS:          0 HIT:          0 MISS:          0 MSHR_MERGE:          0
cpu0->cpu0_STLB PREFETCH REQUESTED:          0 ISSUED:          0 USEFUL:          0 USELESS:          0
cpu0->cpu0_STLB AVERAGE MISS LATENCY: 125.3 cycles
cpu0->cpu0_L2C TOTAL        ACCESS:   28014569 HIT:   15168578 MISS:   12845991 MSHR_MERGE:    4933142
cpu0->cpu0_L2C LOAD         ACCESS:    2590514 HIT:    1352544 MISS:    1237970 MSHR_MERGE:     304513
cpu0->cpu0_L2C RFO          ACCESS:     503266 HIT:      66812 MISS:     436454 MSHR_MERGE:       2876
cpu0->cpu0_L2C PREFETCH     ACCESS:   23589518 HIT:   12438390 MISS:   11151128 MSHR_MERGE:    4625753
cpu0->cpu0_L2C WRITE        ACCESS:    1293446 HIT:    1293302 MISS:        144 MSHR_MERGE:          0
cpu0->cpu0_L2C TRANSLATION  ACCESS:      37825 HIT:      17530 MISS:      20295 MSHR_MERGE:          0
cpu0->cpu0_L2C PREFETCH REQUESTED:   23218976 ISSUED:   19379736 USEFUL:    3183791 USELESS:    2163722
cpu0->cpu0_L2C AVERAGE MISS LATENCY: 272.3 cycles
cpu0->cpu0_L1I TOTAL        ACCESS:   33047794 HIT:   33047794 MISS:          0 MSHR_MERGE:          0
cpu0->cpu0_L1I LOAD         ACCESS:   33047794 HIT:   33047794 MISS:          0 MSHR_MERGE:          0
cpu0->cpu0_L1I RFO          ACCESS:          0 HIT:          0 MISS:          0 MSHR_MERGE:          0
cpu0->cpu0_L1I PREFETCH     ACCESS:          0 HIT:          0 MISS:          0 MSHR_MERGE:          0
cpu0->cpu0_L1I WRITE        ACCESS:          0 HIT:          0 MISS:          0 MSHR_MERGE:          0
cpu0->cpu0_L1I TRANSLATION  ACCESS:          0 HIT:          0 MISS:          0 MSHR_MERGE:          0
cpu0->cpu0_L1I PREFETCH REQUESTED:          0 ISSUED:          0 USEFUL:          0 USELESS:          0
cpu0->cpu0_L1I AVERAGE MISS LATENCY: - cycles
cpu0->cpu0_L1D TOTAL        ACCESS:  118419830 HIT:  106269113 MISS:   12150717 MSHR_MERGE:    4809286
cpu0->cpu0_L1D LOAD         ACCESS:   46575653 HIT:   43127014 MISS:    3448639 MSHR_MERGE:     858120
cpu0->cpu0_L1D RFO          ACCESS:          0 HIT:          0 MISS:          0 MSHR_MERGE:          0
cpu0->cpu0_L1D PREFETCH     ACCESS:   15120461 HIT:    8708405 MISS:    6412056 MSHR_MERGE:    2202281
cpu0->cpu0_L1D WRITE        ACCESS:   56431489 HIT:   54179340 MISS:    2252149 MSHR_MERGE:    1748837
cpu0->cpu0_L1D TRANSLATION  ACCESS:     292227 HIT:     254354 MISS:      37873 MSHR_MERGE:         48
cpu0->cpu0_L1D PREFETCH REQUESTED:   30467644 ISSUED:   15120453 USEFUL:    2392621 USELESS:    1816960
cpu0->cpu0_L1D AVERAGE MISS LATENCY: 172.9 cycles
cpu0->cpu0_ITLB TOTAL        ACCESS:   27166877 HIT:   27166877 MISS:          0 MSHR_MERGE:          0
cpu0->cpu0_ITLB LOAD         ACCESS:   27166877 HIT:   27166877 MISS:          0 MSHR_MERGE:          0
cpu0->cpu0_ITLB RFO          ACCESS:          0 HIT:          0 MISS:          0 MSHR_MERGE:          0
cpu0->cpu0_ITLB PREFETCH     ACCESS:          0 HIT:          0 MISS:          0 MSHR_MERGE:          0
cpu0->cpu0_ITLB WRITE        ACCESS:          0 HIT:          0 MISS:          0 MSHR_MERGE:          0
cpu0->cpu0_ITLB TRANSLATION  ACCESS:          0 HIT:          0 MISS:          0 MSHR_MERGE:          0
cpu0->cpu0_ITLB PREFETCH REQUESTED:          0 ISSUED:          0 USEFUL:          0 USELESS:          0
cpu0->cpu0_ITLB AVERAGE MISS LATENCY: - cycles
cpu0->cpu0_DTLB TOTAL        ACCESS:  105003216 HIT:  104264416 MISS:     738800 MSHR_MERGE:     259173
cpu0->cpu0_DTLB LOAD         ACCESS:  105003216 HIT:  104264416 MISS:     738800 MSHR_MERGE:     259173
cpu0->cpu0_DTLB RFO          ACCESS:          0 HIT:          0 MISS:          0 MSHR_MERGE:          0
cpu0->cpu0_DTLB PREFETCH     ACCESS:          0 HIT:          0 MISS:          0 MSHR_MERGE:          0
cpu0->cpu0_DTLB WRITE        ACCESS:          0 HIT:          0 MISS:          0 MSHR_MERGE:          0
cpu0->cpu0_DTLB TRANSLATION  ACCESS:          0 HIT:          0 MISS:          0 MSHR_MERGE:          0
cpu0->cpu0_DTLB PREFETCH REQUESTED:          0 ISSUED:          0 USEFUL:          0 USELESS:          0
cpu0->cpu0_DTLB AVERAGE MISS LATENCY: 43.43 cycles
cpu0->LLC TOTAL        ACCESS:   16325695 HIT:    4484592 MISS:   11841103 MSHR_MERGE:    2616761
cpu0->LLC LOAD         ACCESS:     933457 HIT:     310106 MISS:     623351 MSHR_MERGE:     119481
cpu0->LLC RFO          ACCESS:     433578 HIT:       1557 MISS:     432021 MSHR_MERGE:         28
cpu0->LLC PREFETCH     ACCESS:   13775565 HIT:    3720925 MISS:   10054640 MSHR_MERGE:    2497252
cpu0->LLC WRITE        ACCESS:    1162800 HIT:     451975 MISS:     710825 MSHR_MERGE:          0
cpu0->LLC TRANSLATION  ACCESS:      20295 HIT:         29 MISS:      20266 MSHR_MERGE:          0
cpu0->LLC PREFETCH REQUESTED:    7976503 ISSUED:    7250190 USEFUL:    3568208 USELESS:    2105094
cpu0->LLC AVERAGE MISS LATENCY: 209.2 cycles

DRAM Statistics

Channel 0 RQ ROW_BUFFER_HIT:    1153627
  ROW_BUFFER_MISS:    7359782
  AVG DBUS CONGESTED CYCLE: 7.878
Channel 0 WQ ROW_BUFFER_HIT:     132080
  ROW_BUFFER_MISS:    1034089
  FULL:        982
Channel 0 REFRESHES ISSUED:      20647
