[VMEM] WARNING: physical memory size is smaller than virtual memory size.

*** ChampSim Multicore Out-of-Order Simulator ***
Warmup Instructions: 50000000
Simulation Instructions: 200000000
Number of CPUs: 1
Page size: 4096
Core 0: /local-ssd/ben/dpc4-traces/ai-ml/stable-diffusion.cpp-v2-1_768-nonema-pruned.2.champsimtrace.gz
sBerti (Smart Stride + Berti) Prefetcher Initialized
Off-chip DRAM Size: 64 GiB Channels: 1 Width: 64-bit Data Rate: 4807 MT/s
Heartbeat CPU 0 instructions: 500004 cycles: 223897 heartbeat IPC: 2.233 cumulative IPC: 2.233 (Simulation time: 00 hr 00 min 05 sec)
Heartbeat CPU 0 instructions: 1000006 cycles: 415146 heartbeat IPC: 2.614 cumulative IPC: 2.409 (Simulation time: 00 hr 00 min 09 sec)
Heartbeat CPU 0 instructions: 1500010 cycles: 573655 heartbeat IPC: 3.154 cumulative IPC: 2.615 (Simulation time: 00 hr 00 min 13 sec)
Heartbeat CPU 0 instructions: 2000014 cycles: 756688 heartbeat IPC: 2.732 cumulative IPC: 2.643 (Simulation time: 00 hr 00 min 18 sec)
Heartbeat CPU 0 instructions: 2500016 cycles: 938901 heartbeat IPC: 2.744 cumulative IPC: 2.663 (Simulation time: 00 hr 00 min 22 sec)
Heartbeat CPU 0 instructions: 3000022 cycles: 1097346 heartbeat IPC: 3.156 cumulative IPC: 2.734 (Simulation time: 00 hr 00 min 26 sec)
Heartbeat CPU 0 instructions: 3500025 cycles: 1279216 heartbeat IPC: 2.749 cumulative IPC: 2.736 (Simulation time: 00 hr 00 min 30 sec)
Heartbeat CPU 0 instructions: 4000031 cycles: 1460966 heartbeat IPC: 2.751 cumulative IPC: 2.738 (Simulation time: 00 hr 00 min 35 sec)
Heartbeat CPU 0 instructions: 4500033 cycles: 1619302 heartbeat IPC: 3.158 cumulative IPC: 2.779 (Simulation time: 00 hr 00 min 39 sec)
Heartbeat CPU 0 instructions: 5000039 cycles: 1801793 heartbeat IPC: 2.74 cumulative IPC: 2.775 (Simulation time: 00 hr 00 min 43 sec)
Heartbeat CPU 0 instructions: 5500045 cycles: 1983250 heartbeat IPC: 2.756 cumulative IPC: 2.773 (Simulation time: 00 hr 00 min 47 sec)
Heartbeat CPU 0 instructions: 6000052 cycles: 2141499 heartbeat IPC: 3.16 cumulative IPC: 2.802 (Simulation time: 00 hr 00 min 51 sec)
Heartbeat CPU 0 instructions: 6500057 cycles: 2322786 heartbeat IPC: 2.758 cumulative IPC: 2.798 (Simulation time: 00 hr 00 min 56 sec)
Heartbeat CPU 0 instructions: 7000057 cycles: 2505688 heartbeat IPC: 2.734 cumulative IPC: 2.794 (Simulation time: 00 hr 01 min 00 sec)
Heartbeat CPU 0 instructions: 7500057 cycles: 2663712 heartbeat IPC: 3.164 cumulative IPC: 2.816 (Simulation time: 00 hr 01 min 04 sec)
Heartbeat CPU 0 instructions: 8000059 cycles: 2846303 heartbeat IPC: 2.738 cumulative IPC: 2.811 (Simulation time: 00 hr 01 min 08 sec)
Heartbeat CPU 0 instructions: 8500062 cycles: 3027192 heartbeat IPC: 2.764 cumulative IPC: 2.808 (Simulation time: 00 hr 01 min 13 sec)
Heartbeat CPU 0 instructions: 9000067 cycles: 3185686 heartbeat IPC: 3.155 cumulative IPC: 2.825 (Simulation time: 00 hr 01 min 17 sec)
Heartbeat CPU 0 instructions: 9500069 cycles: 3367921 heartbeat IPC: 2.744 cumulative IPC: 2.821 (Simulation time: 00 hr 01 min 21 sec)
Heartbeat CPU 0 instructions: 10000069 cycles: 3550197 heartbeat IPC: 2.743 cumulative IPC: 2.817 (Simulation time: 00 hr 01 min 25 sec)
Heartbeat CPU 0 instructions: 10500069 cycles: 3708557 heartbeat IPC: 3.157 cumulative IPC: 2.831 (Simulation time: 00 hr 01 min 29 sec)
Heartbeat CPU 0 instructions: 11000073 cycles: 3888658 heartbeat IPC: 2.776 cumulative IPC: 2.829 (Simulation time: 00 hr 01 min 34 sec)
Heartbeat CPU 0 instructions: 11500079 cycles: 4072433 heartbeat IPC: 2.721 cumulative IPC: 2.824 (Simulation time: 00 hr 01 min 38 sec)
Heartbeat CPU 0 instructions: 12000079 cycles: 4230467 heartbeat IPC: 3.164 cumulative IPC: 2.837 (Simulation time: 00 hr 01 min 42 sec)
Heartbeat CPU 0 instructions: 12500080 cycles: 4412473 heartbeat IPC: 2.747 cumulative IPC: 2.833 (Simulation time: 00 hr 01 min 47 sec)
Heartbeat CPU 0 instructions: 13000082 cycles: 4597254 heartbeat IPC: 2.706 cumulative IPC: 2.828 (Simulation time: 00 hr 01 min 51 sec)
Heartbeat CPU 0 instructions: 13500082 cycles: 4755641 heartbeat IPC: 3.157 cumulative IPC: 2.839 (Simulation time: 00 hr 01 min 55 sec)
Heartbeat CPU 0 instructions: 14000082 cycles: 4936711 heartbeat IPC: 2.761 cumulative IPC: 2.836 (Simulation time: 00 hr 01 min 59 sec)
Heartbeat CPU 0 instructions: 14500084 cycles: 5119412 heartbeat IPC: 2.737 cumulative IPC: 2.832 (Simulation time: 00 hr 02 min 04 sec)
Heartbeat CPU 0 instructions: 15000088 cycles: 5277705 heartbeat IPC: 3.159 cumulative IPC: 2.842 (Simulation time: 00 hr 02 min 08 sec)
Heartbeat CPU 0 instructions: 15500092 cycles: 5460106 heartbeat IPC: 2.741 cumulative IPC: 2.839 (Simulation time: 00 hr 02 min 12 sec)
Heartbeat CPU 0 instructions: 16000098 cycles: 5642096 heartbeat IPC: 2.747 cumulative IPC: 2.836 (Simulation time: 00 hr 02 min 17 sec)
Heartbeat CPU 0 instructions: 16500100 cycles: 5800791 heartbeat IPC: 3.151 cumulative IPC: 2.844 (Simulation time: 00 hr 02 min 21 sec)
Heartbeat CPU 0 instructions: 17000107 cycles: 5983379 heartbeat IPC: 2.738 cumulative IPC: 2.841 (Simulation time: 00 hr 02 min 25 sec)
Heartbeat CPU 0 instructions: 17500108 cycles: 6166161 heartbeat IPC: 2.736 cumulative IPC: 2.838 (Simulation time: 00 hr 02 min 29 sec)
Heartbeat CPU 0 instructions: 18000115 cycles: 6324215 heartbeat IPC: 3.164 cumulative IPC: 2.846 (Simulation time: 00 hr 02 min 34 sec)
Heartbeat CPU 0 instructions: 18500120 cycles: 6506849 heartbeat IPC: 2.738 cumulative IPC: 2.843 (Simulation time: 00 hr 02 min 38 sec)
Heartbeat CPU 0 instructions: 19000122 cycles: 6689242 heartbeat IPC: 2.741 cumulative IPC: 2.84 (Simulation time: 00 hr 02 min 42 sec)
Heartbeat CPU 0 instructions: 19500127 cycles: 6847621 heartbeat IPC: 3.157 cumulative IPC: 2.848 (Simulation time: 00 hr 02 min 46 sec)
Heartbeat CPU 0 instructions: 20000130 cycles: 7029540 heartbeat IPC: 2.748 cumulative IPC: 2.845 (Simulation time: 00 hr 02 min 51 sec)
Heartbeat CPU 0 instructions: 20500130 cycles: 7209848 heartbeat IPC: 2.773 cumulative IPC: 2.843 (Simulation time: 00 hr 02 min 55 sec)
Heartbeat CPU 0 instructions: 21000134 cycles: 7393926 heartbeat IPC: 2.716 cumulative IPC: 2.84 (Simulation time: 00 hr 03 min 00 sec)
Heartbeat CPU 0 instructions: 21500141 cycles: 7590851 heartbeat IPC: 2.539 cumulative IPC: 2.832 (Simulation time: 00 hr 03 min 04 sec)
Heartbeat CPU 0 instructions: 22000141 cycles: 7767925 heartbeat IPC: 2.824 cumulative IPC: 2.832 (Simulation time: 00 hr 03 min 09 sec)
Heartbeat CPU 0 instructions: 22500141 cycles: 7934207 heartbeat IPC: 3.007 cumulative IPC: 2.836 (Simulation time: 00 hr 03 min 13 sec)
Heartbeat CPU 0 instructions: 23000143 cycles: 8116700 heartbeat IPC: 2.74 cumulative IPC: 2.834 (Simulation time: 00 hr 03 min 17 sec)
Heartbeat CPU 0 instructions: 23500143 cycles: 8291293 heartbeat IPC: 2.864 cumulative IPC: 2.834 (Simulation time: 00 hr 03 min 21 sec)
Heartbeat CPU 0 instructions: 24000143 cycles: 8457826 heartbeat IPC: 3.002 cumulative IPC: 2.838 (Simulation time: 00 hr 03 min 26 sec)
Heartbeat CPU 0 instructions: 24500143 cycles: 8640109 heartbeat IPC: 2.743 cumulative IPC: 2.836 (Simulation time: 00 hr 03 min 30 sec)
Heartbeat CPU 0 instructions: 25000149 cycles: 8812858 heartbeat IPC: 2.894 cumulative IPC: 2.837 (Simulation time: 00 hr 03 min 34 sec)
Heartbeat CPU 0 instructions: 25500149 cycles: 8980831 heartbeat IPC: 2.977 cumulative IPC: 2.839 (Simulation time: 00 hr 03 min 38 sec)
Heartbeat CPU 0 instructions: 26000149 cycles: 9163004 heartbeat IPC: 2.745 cumulative IPC: 2.838 (Simulation time: 00 hr 03 min 43 sec)
Heartbeat CPU 0 instructions: 26500155 cycles: 9331982 heartbeat IPC: 2.959 cumulative IPC: 2.84 (Simulation time: 00 hr 03 min 47 sec)
Heartbeat CPU 0 instructions: 27000158 cycles: 9503725 heartbeat IPC: 2.911 cumulative IPC: 2.841 (Simulation time: 00 hr 03 min 51 sec)
Heartbeat CPU 0 instructions: 27500159 cycles: 9686041 heartbeat IPC: 2.742 cumulative IPC: 2.839 (Simulation time: 00 hr 03 min 56 sec)
Heartbeat CPU 0 instructions: 28000161 cycles: 9852492 heartbeat IPC: 3.004 cumulative IPC: 2.842 (Simulation time: 00 hr 04 min 00 sec)
Heartbeat CPU 0 instructions: 28500163 cycles: 10026003 heartbeat IPC: 2.882 cumulative IPC: 2.843 (Simulation time: 00 hr 04 min 04 sec)
Heartbeat CPU 0 instructions: 29000165 cycles: 10208924 heartbeat IPC: 2.733 cumulative IPC: 2.841 (Simulation time: 00 hr 04 min 09 sec)
Heartbeat CPU 0 instructions: 29500167 cycles: 10372620 heartbeat IPC: 3.054 cumulative IPC: 2.844 (Simulation time: 00 hr 04 min 13 sec)
Heartbeat CPU 0 instructions: 30000170 cycles: 10548910 heartbeat IPC: 2.836 cumulative IPC: 2.844 (Simulation time: 00 hr 04 min 17 sec)
Heartbeat CPU 0 instructions: 30500176 cycles: 10731183 heartbeat IPC: 2.743 cumulative IPC: 2.842 (Simulation time: 00 hr 04 min 21 sec)
Heartbeat CPU 0 instructions: 31000178 cycles: 10891855 heartbeat IPC: 3.112 cumulative IPC: 2.846 (Simulation time: 00 hr 04 min 25 sec)
Heartbeat CPU 0 instructions: 31500185 cycles: 11071793 heartbeat IPC: 2.779 cumulative IPC: 2.845 (Simulation time: 00 hr 04 min 30 sec)
Heartbeat CPU 0 instructions: 32000190 cycles: 11253746 heartbeat IPC: 2.748 cumulative IPC: 2.844 (Simulation time: 00 hr 04 min 34 sec)
Heartbeat CPU 0 instructions: 32500196 cycles: 11412173 heartbeat IPC: 3.156 cumulative IPC: 2.848 (Simulation time: 00 hr 04 min 39 sec)
Heartbeat CPU 0 instructions: 33000202 cycles: 11593825 heartbeat IPC: 2.753 cumulative IPC: 2.846 (Simulation time: 00 hr 04 min 43 sec)
Heartbeat CPU 0 instructions: 33500204 cycles: 11775304 heartbeat IPC: 2.755 cumulative IPC: 2.845 (Simulation time: 00 hr 04 min 48 sec)
Heartbeat CPU 0 instructions: 34000205 cycles: 11933590 heartbeat IPC: 3.159 cumulative IPC: 2.849 (Simulation time: 00 hr 04 min 52 sec)
Heartbeat CPU 0 instructions: 34500212 cycles: 12115226 heartbeat IPC: 2.753 cumulative IPC: 2.848 (Simulation time: 00 hr 04 min 56 sec)
Heartbeat CPU 0 instructions: 35000217 cycles: 12295227 heartbeat IPC: 2.778 cumulative IPC: 2.847 (Simulation time: 00 hr 05 min 00 sec)
Heartbeat CPU 0 instructions: 35500224 cycles: 12453430 heartbeat IPC: 3.161 cumulative IPC: 2.851 (Simulation time: 00 hr 05 min 04 sec)
Heartbeat CPU 0 instructions: 36000226 cycles: 12634947 heartbeat IPC: 2.755 cumulative IPC: 2.849 (Simulation time: 00 hr 05 min 09 sec)
Heartbeat CPU 0 instructions: 36500232 cycles: 12818118 heartbeat IPC: 2.73 cumulative IPC: 2.848 (Simulation time: 00 hr 05 min 13 sec)
Heartbeat CPU 0 instructions: 37000234 cycles: 12976559 heartbeat IPC: 3.156 cumulative IPC: 2.851 (Simulation time: 00 hr 05 min 17 sec)
Heartbeat CPU 0 instructions: 37500235 cycles: 13158858 heartbeat IPC: 2.743 cumulative IPC: 2.85 (Simulation time: 00 hr 05 min 22 sec)
Heartbeat CPU 0 instructions: 38000240 cycles: 13340989 heartbeat IPC: 2.745 cumulative IPC: 2.848 (Simulation time: 00 hr 05 min 26 sec)
Heartbeat CPU 0 instructions: 38500240 cycles: 13499336 heartbeat IPC: 3.158 cumulative IPC: 2.852 (Simulation time: 00 hr 05 min 30 sec)
Heartbeat CPU 0 instructions: 39000242 cycles: 13681610 heartbeat IPC: 2.743 cumulative IPC: 2.851 (Simulation time: 00 hr 05 min 35 sec)
Heartbeat CPU 0 instructions: 39500242 cycles: 13864513 heartbeat IPC: 2.734 cumulative IPC: 2.849 (Simulation time: 00 hr 05 min 39 sec)
Heartbeat CPU 0 instructions: 40000243 cycles: 14022723 heartbeat IPC: 3.16 cumulative IPC: 2.853 (Simulation time: 00 hr 05 min 43 sec)
Heartbeat CPU 0 instructions: 40500249 cycles: 14204487 heartbeat IPC: 2.751 cumulative IPC: 2.851 (Simulation time: 00 hr 05 min 47 sec)
Heartbeat CPU 0 instructions: 41000253 cycles: 14387059 heartbeat IPC: 2.739 cumulative IPC: 2.85 (Simulation time: 00 hr 05 min 52 sec)
Heartbeat CPU 0 instructions: 41500253 cycles: 14545575 heartbeat IPC: 3.154 cumulative IPC: 2.853 (Simulation time: 00 hr 05 min 56 sec)
Heartbeat CPU 0 instructions: 42000254 cycles: 14727298 heartbeat IPC: 2.751 cumulative IPC: 2.852 (Simulation time: 00 hr 06 min 00 sec)
Heartbeat CPU 0 instructions: 42500259 cycles: 14911090 heartbeat IPC: 2.72 cumulative IPC: 2.85 (Simulation time: 00 hr 06 min 05 sec)
Heartbeat CPU 0 instructions: 43000259 cycles: 15069584 heartbeat IPC: 3.155 cumulative IPC: 2.853 (Simulation time: 00 hr 06 min 09 sec)
Heartbeat CPU 0 instructions: 43500259 cycles: 15252038 heartbeat IPC: 2.74 cumulative IPC: 2.852 (Simulation time: 00 hr 06 min 13 sec)
Heartbeat CPU 0 instructions: 44000261 cycles: 15434056 heartbeat IPC: 2.747 cumulative IPC: 2.851 (Simulation time: 00 hr 06 min 18 sec)
Heartbeat CPU 0 instructions: 44500261 cycles: 15592260 heartbeat IPC: 3.16 cumulative IPC: 2.854 (Simulation time: 00 hr 06 min 22 sec)
Heartbeat CPU 0 instructions: 45000261 cycles: 15774106 heartbeat IPC: 2.75 cumulative IPC: 2.853 (Simulation time: 00 hr 06 min 26 sec)
Heartbeat CPU 0 instructions: 45500267 cycles: 15956684 heartbeat IPC: 2.739 cumulative IPC: 2.851 (Simulation time: 00 hr 06 min 30 sec)
Heartbeat CPU 0 instructions: 46000269 cycles: 16115089 heartbeat IPC: 3.156 cumulative IPC: 2.854 (Simulation time: 00 hr 06 min 34 sec)
Heartbeat CPU 0 instructions: 46500275 cycles: 16296834 heartbeat IPC: 2.751 cumulative IPC: 2.853 (Simulation time: 00 hr 06 min 39 sec)
Heartbeat CPU 0 instructions: 47000282 cycles: 16479041 heartbeat IPC: 2.744 cumulative IPC: 2.852 (Simulation time: 00 hr 06 min 43 sec)
Heartbeat CPU 0 instructions: 47500287 cycles: 16637241 heartbeat IPC: 3.161 cumulative IPC: 2.855 (Simulation time: 00 hr 06 min 47 sec)
Heartbeat CPU 0 instructions: 48000289 cycles: 16795192 heartbeat IPC: 3.166 cumulative IPC: 2.858 (Simulation time: 00 hr 06 min 51 sec)
Heartbeat CPU 0 instructions: 48500296 cycles: 16953469 heartbeat IPC: 3.159 cumulative IPC: 2.861 (Simulation time: 00 hr 06 min 55 sec)
Heartbeat CPU 0 instructions: 49000302 cycles: 17111519 heartbeat IPC: 3.164 cumulative IPC: 2.864 (Simulation time: 00 hr 06 min 59 sec)
Heartbeat CPU 0 instructions: 49500308 cycles: 17269726 heartbeat IPC: 3.16 cumulative IPC: 2.866 (Simulation time: 00 hr 07 min 03 sec)
Warmup halting CPU 0 at instruction 50000007 cycle 17427449 for remainder of phase
Warmup finished CPU 0 instructions: 50000007 cycles: 17427449 cumulative IPC: 2.869 (Simulation time: 00 hr 07 min 07 sec)
Warmup complete CPU 0 instructions: 50000007 cycles: 17427449 cumulative IPC: 2.869 (Simulation time: 00 hr 07 min 07 sec)
Heartbeat CPU 0 instructions: 50000314 cycles: 17427680 heartbeat IPC: 3.166 cumulative IPC: 1.329 (Simulation time: 00 hr 07 min 07 sec)
Heartbeat CPU 0 instructions: 50500315 cycles: 17602011 heartbeat IPC: 2.868 cumulative IPC: 2.866 (Simulation time: 00 hr 07 min 11 sec)
Heartbeat CPU 0 instructions: 51000317 cycles: 17798978 heartbeat IPC: 2.539 cumulative IPC: 2.692 (Simulation time: 00 hr 07 min 16 sec)
Heartbeat CPU 0 instructions: 51500319 cycles: 18002513 heartbeat IPC: 2.457 cumulative IPC: 2.609 (Simulation time: 00 hr 07 min 20 sec)
Heartbeat CPU 0 instructions: 52000320 cycles: 18172603 heartbeat IPC: 2.94 cumulative IPC: 2.684 (Simulation time: 00 hr 07 min 24 sec)
Heartbeat CPU 0 instructions: 52500327 cycles: 18380975 heartbeat IPC: 2.4 cumulative IPC: 2.622 (Simulation time: 00 hr 07 min 28 sec)
Heartbeat CPU 0 instructions: 53000334 cycles: 18583396 heartbeat IPC: 2.47 cumulative IPC: 2.596 (Simulation time: 00 hr 07 min 33 sec)
Heartbeat CPU 0 instructions: 53500341 cycles: 18755424 heartbeat IPC: 2.907 cumulative IPC: 2.636 (Simulation time: 00 hr 07 min 37 sec)
Heartbeat CPU 0 instructions: 54000347 cycles: 18963666 heartbeat IPC: 2.401 cumulative IPC: 2.604 (Simulation time: 00 hr 07 min 41 sec)
Heartbeat CPU 0 instructions: 54500351 cycles: 19175774 heartbeat IPC: 2.357 cumulative IPC: 2.574 (Simulation time: 00 hr 07 min 45 sec)
Heartbeat CPU 0 instructions: 55000351 cycles: 19343067 heartbeat IPC: 2.989 cumulative IPC: 2.61 (Simulation time: 00 hr 07 min 49 sec)
Heartbeat CPU 0 instructions: 55500357 cycles: 19551561 heartbeat IPC: 2.398 cumulative IPC: 2.589 (Simulation time: 00 hr 07 min 54 sec)
Heartbeat CPU 0 instructions: 56000357 cycles: 19764905 heartbeat IPC: 2.344 cumulative IPC: 2.567 (Simulation time: 00 hr 07 min 58 sec)
Heartbeat CPU 0 instructions: 56500364 cycles: 19939676 heartbeat IPC: 2.861 cumulative IPC: 2.587 (Simulation time: 00 hr 08 min 02 sec)
Heartbeat CPU 0 instructions: 57000369 cycles: 20149404 heartbeat IPC: 2.384 cumulative IPC: 2.572 (Simulation time: 00 hr 08 min 07 sec)
Heartbeat CPU 0 instructions: 57500371 cycles: 20368357 heartbeat IPC: 2.284 cumulative IPC: 2.55 (Simulation time: 00 hr 08 min 11 sec)
Heartbeat CPU 0 instructions: 58000372 cycles: 20541318 heartbeat IPC: 2.891 cumulative IPC: 2.569 (Simulation time: 00 hr 08 min 15 sec)
Heartbeat CPU 0 instructions: 58500374 cycles: 20754419 heartbeat IPC: 2.346 cumulative IPC: 2.555 (Simulation time: 00 hr 08 min 20 sec)
Heartbeat CPU 0 instructions: 59000374 cycles: 20971389 heartbeat IPC: 2.304 cumulative IPC: 2.54 (Simulation time: 00 hr 08 min 24 sec)
Heartbeat CPU 0 instructions: 59500378 cycles: 21144920 heartbeat IPC: 2.881 cumulative IPC: 2.556 (Simulation time: 00 hr 08 min 28 sec)
Heartbeat CPU 0 instructions: 60000382 cycles: 21354703 heartbeat IPC: 2.383 cumulative IPC: 2.546 (Simulation time: 00 hr 08 min 33 sec)
Heartbeat CPU 0 instructions: 60500384 cycles: 21569167 heartbeat IPC: 2.331 cumulative IPC: 2.535 (Simulation time: 00 hr 08 min 37 sec)
Heartbeat CPU 0 instructions: 61000384 cycles: 21737913 heartbeat IPC: 2.963 cumulative IPC: 2.552 (Simulation time: 00 hr 08 min 41 sec)
Heartbeat CPU 0 instructions: 61500386 cycles: 21952097 heartbeat IPC: 2.334 cumulative IPC: 2.542 (Simulation time: 00 hr 08 min 46 sec)
Heartbeat CPU 0 instructions: 62000386 cycles: 22162575 heartbeat IPC: 2.376 cumulative IPC: 2.534 (Simulation time: 00 hr 08 min 50 sec)
Heartbeat CPU 0 instructions: 62500389 cycles: 22333675 heartbeat IPC: 2.922 cumulative IPC: 2.548 (Simulation time: 00 hr 08 min 54 sec)
Heartbeat CPU 0 instructions: 63000394 cycles: 22546331 heartbeat IPC: 2.351 cumulative IPC: 2.54 (Simulation time: 00 hr 08 min 59 sec)
Heartbeat CPU 0 instructions: 63500400 cycles: 22762222 heartbeat IPC: 2.316 cumulative IPC: 2.531 (Simulation time: 00 hr 09 min 03 sec)
Heartbeat CPU 0 instructions: 64000401 cycles: 22931212 heartbeat IPC: 2.959 cumulative IPC: 2.544 (Simulation time: 00 hr 09 min 07 sec)
Heartbeat CPU 0 instructions: 64500406 cycles: 23143804 heartbeat IPC: 2.352 cumulative IPC: 2.537 (Simulation time: 00 hr 09 min 12 sec)
Heartbeat CPU 0 instructions: 65000410 cycles: 23360967 heartbeat IPC: 2.302 cumulative IPC: 2.528 (Simulation time: 00 hr 09 min 16 sec)
Heartbeat CPU 0 instructions: 65500415 cycles: 23527140 heartbeat IPC: 3.009 cumulative IPC: 2.541 (Simulation time: 00 hr 09 min 20 sec)
Heartbeat CPU 0 instructions: 66000418 cycles: 23739400 heartbeat IPC: 2.356 cumulative IPC: 2.535 (Simulation time: 00 hr 09 min 25 sec)
Heartbeat CPU 0 instructions: 66500425 cycles: 23959449 heartbeat IPC: 2.272 cumulative IPC: 2.526 (Simulation time: 00 hr 09 min 30 sec)
Heartbeat CPU 0 instructions: 67000429 cycles: 24132543 heartbeat IPC: 2.889 cumulative IPC: 2.535 (Simulation time: 00 hr 09 min 34 sec)
Heartbeat CPU 0 instructions: 67500429 cycles: 24347128 heartbeat IPC: 2.33 cumulative IPC: 2.529 (Simulation time: 00 hr 09 min 38 sec)
Heartbeat CPU 0 instructions: 68000433 cycles: 24564637 heartbeat IPC: 2.299 cumulative IPC: 2.522 (Simulation time: 00 hr 09 min 43 sec)
Heartbeat CPU 0 instructions: 68500437 cycles: 24735176 heartbeat IPC: 2.932 cumulative IPC: 2.532 (Simulation time: 00 hr 09 min 47 sec)
Heartbeat CPU 0 instructions: 69000443 cycles: 24979692 heartbeat IPC: 2.045 cumulative IPC: 2.516 (Simulation time: 00 hr 09 min 52 sec)
Heartbeat CPU 0 instructions: 69500443 cycles: 25223576 heartbeat IPC: 2.05 cumulative IPC: 2.501 (Simulation time: 00 hr 09 min 57 sec)
Heartbeat CPU 0 instructions: 70000444 cycles: 25390413 heartbeat IPC: 2.997 cumulative IPC: 2.512 (Simulation time: 00 hr 10 min 00 sec)
Heartbeat CPU 0 instructions: 70500451 cycles: 25605306 heartbeat IPC: 2.327 cumulative IPC: 2.507 (Simulation time: 00 hr 10 min 05 sec)
Heartbeat CPU 0 instructions: 71000455 cycles: 25821672 heartbeat IPC: 2.311 cumulative IPC: 2.502 (Simulation time: 00 hr 10 min 10 sec)
Heartbeat CPU 0 instructions: 71500461 cycles: 25994107 heartbeat IPC: 2.9 cumulative IPC: 2.51 (Simulation time: 00 hr 10 min 14 sec)
Heartbeat CPU 0 instructions: 72000461 cycles: 26205588 heartbeat IPC: 2.364 cumulative IPC: 2.506 (Simulation time: 00 hr 10 min 18 sec)
Heartbeat CPU 0 instructions: 72500463 cycles: 26424162 heartbeat IPC: 2.288 cumulative IPC: 2.501 (Simulation time: 00 hr 10 min 23 sec)
Heartbeat CPU 0 instructions: 73000466 cycles: 26590948 heartbeat IPC: 2.998 cumulative IPC: 2.51 (Simulation time: 00 hr 10 min 27 sec)
Heartbeat CPU 0 instructions: 73500468 cycles: 26803785 heartbeat IPC: 2.349 cumulative IPC: 2.506 (Simulation time: 00 hr 10 min 31 sec)
Heartbeat CPU 0 instructions: 74000475 cycles: 27019281 heartbeat IPC: 2.32 cumulative IPC: 2.502 (Simulation time: 00 hr 10 min 36 sec)
Heartbeat CPU 0 instructions: 74500482 cycles: 27191187 heartbeat IPC: 2.909 cumulative IPC: 2.509 (Simulation time: 00 hr 10 min 40 sec)
Heartbeat CPU 0 instructions: 75000488 cycles: 27408248 heartbeat IPC: 2.304 cumulative IPC: 2.505 (Simulation time: 00 hr 10 min 44 sec)
Heartbeat CPU 0 instructions: 75500490 cycles: 27625634 heartbeat IPC: 2.3 cumulative IPC: 2.5 (Simulation time: 00 hr 10 min 49 sec)
Heartbeat CPU 0 instructions: 76000496 cycles: 27798762 heartbeat IPC: 2.888 cumulative IPC: 2.507 (Simulation time: 00 hr 10 min 53 sec)
Heartbeat CPU 0 instructions: 76500498 cycles: 28014213 heartbeat IPC: 2.321 cumulative IPC: 2.503 (Simulation time: 00 hr 10 min 58 sec)
Heartbeat CPU 0 instructions: 77000499 cycles: 28229688 heartbeat IPC: 2.32 cumulative IPC: 2.5 (Simulation time: 00 hr 11 min 02 sec)
Heartbeat CPU 0 instructions: 77500501 cycles: 28398316 heartbeat IPC: 2.965 cumulative IPC: 2.507 (Simulation time: 00 hr 11 min 06 sec)
Heartbeat CPU 0 instructions: 78000506 cycles: 28614542 heartbeat IPC: 2.312 cumulative IPC: 2.503 (Simulation time: 00 hr 11 min 11 sec)
Heartbeat CPU 0 instructions: 78500510 cycles: 28836609 heartbeat IPC: 2.252 cumulative IPC: 2.498 (Simulation time: 00 hr 11 min 15 sec)
Heartbeat CPU 0 instructions: 79000514 cycles: 29008594 heartbeat IPC: 2.907 cumulative IPC: 2.504 (Simulation time: 00 hr 11 min 19 sec)
Heartbeat CPU 0 instructions: 79500520 cycles: 29223911 heartbeat IPC: 2.322 cumulative IPC: 2.501 (Simulation time: 00 hr 11 min 24 sec)
Heartbeat CPU 0 instructions: 80000522 cycles: 29444999 heartbeat IPC: 2.262 cumulative IPC: 2.496 (Simulation time: 00 hr 11 min 29 sec)
Heartbeat CPU 0 instructions: 80500524 cycles: 29612166 heartbeat IPC: 2.991 cumulative IPC: 2.503 (Simulation time: 00 hr 11 min 33 sec)
Heartbeat CPU 0 instructions: 81000525 cycles: 29826170 heartbeat IPC: 2.336 cumulative IPC: 2.5 (Simulation time: 00 hr 11 min 37 sec)
Heartbeat CPU 0 instructions: 81500527 cycles: 30036929 heartbeat IPC: 2.372 cumulative IPC: 2.498 (Simulation time: 00 hr 11 min 42 sec)
Heartbeat CPU 0 instructions: 82000534 cycles: 30205354 heartbeat IPC: 2.969 cumulative IPC: 2.504 (Simulation time: 00 hr 11 min 46 sec)
Heartbeat CPU 0 instructions: 82500535 cycles: 30421376 heartbeat IPC: 2.315 cumulative IPC: 2.501 (Simulation time: 00 hr 11 min 50 sec)
Heartbeat CPU 0 instructions: 83000540 cycles: 30634966 heartbeat IPC: 2.341 cumulative IPC: 2.499 (Simulation time: 00 hr 11 min 55 sec)
Heartbeat CPU 0 instructions: 83500541 cycles: 30803065 heartbeat IPC: 2.974 cumulative IPC: 2.505 (Simulation time: 00 hr 11 min 59 sec)
Heartbeat CPU 0 instructions: 84000544 cycles: 31017336 heartbeat IPC: 2.334 cumulative IPC: 2.502 (Simulation time: 00 hr 12 min 03 sec)
Heartbeat CPU 0 instructions: 84500546 cycles: 31228387 heartbeat IPC: 2.369 cumulative IPC: 2.5 (Simulation time: 00 hr 12 min 08 sec)
Heartbeat CPU 0 instructions: 85000553 cycles: 31399500 heartbeat IPC: 2.922 cumulative IPC: 2.505 (Simulation time: 00 hr 12 min 12 sec)
Heartbeat CPU 0 instructions: 85500554 cycles: 31621771 heartbeat IPC: 2.25 cumulative IPC: 2.501 (Simulation time: 00 hr 12 min 16 sec)
Heartbeat CPU 0 instructions: 86000556 cycles: 31834568 heartbeat IPC: 2.35 cumulative IPC: 2.499 (Simulation time: 00 hr 12 min 21 sec)
Heartbeat CPU 0 instructions: 86500563 cycles: 32004861 heartbeat IPC: 2.936 cumulative IPC: 2.504 (Simulation time: 00 hr 12 min 25 sec)
Heartbeat CPU 0 instructions: 87000565 cycles: 32221384 heartbeat IPC: 2.309 cumulative IPC: 2.501 (Simulation time: 00 hr 12 min 29 sec)
Heartbeat CPU 0 instructions: 87500572 cycles: 32436263 heartbeat IPC: 2.327 cumulative IPC: 2.499 (Simulation time: 00 hr 12 min 34 sec)
Heartbeat CPU 0 instructions: 88000575 cycles: 32608992 heartbeat IPC: 2.895 cumulative IPC: 2.503 (Simulation time: 00 hr 12 min 38 sec)
Heartbeat CPU 0 instructions: 88500575 cycles: 32822847 heartbeat IPC: 2.338 cumulative IPC: 2.501 (Simulation time: 00 hr 12 min 43 sec)
Heartbeat CPU 0 instructions: 89000582 cycles: 33035911 heartbeat IPC: 2.347 cumulative IPC: 2.499 (Simulation time: 00 hr 12 min 47 sec)
Heartbeat CPU 0 instructions: 89500585 cycles: 33201933 heartbeat IPC: 3.012 cumulative IPC: 2.504 (Simulation time: 00 hr 12 min 51 sec)
Heartbeat CPU 0 instructions: 90000590 cycles: 33414981 heartbeat IPC: 2.347 cumulative IPC: 2.502 (Simulation time: 00 hr 12 min 56 sec)
Heartbeat CPU 0 instructions: 90500597 cycles: 33623921 heartbeat IPC: 2.393 cumulative IPC: 2.501 (Simulation time: 00 hr 13 min 00 sec)
Heartbeat CPU 0 instructions: 91000601 cycles: 33796734 heartbeat IPC: 2.893 cumulative IPC: 2.505 (Simulation time: 00 hr 13 min 04 sec)
Heartbeat CPU 0 instructions: 91500602 cycles: 34014649 heartbeat IPC: 2.294 cumulative IPC: 2.502 (Simulation time: 00 hr 13 min 09 sec)
Heartbeat CPU 0 instructions: 92000604 cycles: 34220157 heartbeat IPC: 2.433 cumulative IPC: 2.501 (Simulation time: 00 hr 13 min 13 sec)
Heartbeat CPU 0 instructions: 92500605 cycles: 34400172 heartbeat IPC: 2.778 cumulative IPC: 2.504 (Simulation time: 00 hr 13 min 17 sec)
Heartbeat CPU 0 instructions: 93000610 cycles: 34620648 heartbeat IPC: 2.268 cumulative IPC: 2.501 (Simulation time: 00 hr 13 min 21 sec)
Heartbeat CPU 0 instructions: 93500614 cycles: 34822981 heartbeat IPC: 2.471 cumulative IPC: 2.501 (Simulation time: 00 hr 13 min 26 sec)
Heartbeat CPU 0 instructions: 94000617 cycles: 35007055 heartbeat IPC: 2.716 cumulative IPC: 2.503 (Simulation time: 00 hr 13 min 30 sec)
Heartbeat CPU 0 instructions: 94500622 cycles: 35227338 heartbeat IPC: 2.27 cumulative IPC: 2.5 (Simulation time: 00 hr 13 min 34 sec)
Heartbeat CPU 0 instructions: 95000624 cycles: 35421804 heartbeat IPC: 2.571 cumulative IPC: 2.501 (Simulation time: 00 hr 13 min 38 sec)
Heartbeat CPU 0 instructions: 95500628 cycles: 35611564 heartbeat IPC: 2.635 cumulative IPC: 2.502 (Simulation time: 00 hr 13 min 42 sec)
Heartbeat CPU 0 instructions: 96000632 cycles: 35812777 heartbeat IPC: 2.485 cumulative IPC: 2.502 (Simulation time: 00 hr 13 min 47 sec)
Heartbeat CPU 0 instructions: 96500636 cycles: 36004264 heartbeat IPC: 2.611 cumulative IPC: 2.503 (Simulation time: 00 hr 13 min 51 sec)
Heartbeat CPU 0 instructions: 97000638 cycles: 36194209 heartbeat IPC: 2.632 cumulative IPC: 2.504 (Simulation time: 00 hr 13 min 55 sec)
Heartbeat CPU 0 instructions: 97500641 cycles: 36391843 heartbeat IPC: 2.53 cumulative IPC: 2.505 (Simulation time: 00 hr 13 min 59 sec)
Heartbeat CPU 0 instructions: 98000644 cycles: 36577237 heartbeat IPC: 2.697 cumulative IPC: 2.507 (Simulation time: 00 hr 14 min 03 sec)
Heartbeat CPU 0 instructions: 98500644 cycles: 36770860 heartbeat IPC: 2.582 cumulative IPC: 2.507 (Simulation time: 00 hr 14 min 07 sec)
Heartbeat CPU 0 instructions: 99000644 cycles: 36968825 heartbeat IPC: 2.526 cumulative IPC: 2.508 (Simulation time: 00 hr 14 min 11 sec)
Heartbeat CPU 0 instructions: 99500646 cycles: 37148596 heartbeat IPC: 2.781 cumulative IPC: 2.51 (Simulation time: 00 hr 14 min 15 sec)
Heartbeat CPU 0 instructions: 100000647 cycles: 37346418 heartbeat IPC: 2.528 cumulative IPC: 2.51 (Simulation time: 00 hr 14 min 19 sec)
Heartbeat CPU 0 instructions: 100500654 cycles: 37553990 heartbeat IPC: 2.409 cumulative IPC: 2.509 (Simulation time: 00 hr 14 min 24 sec)
Heartbeat CPU 0 instructions: 101000658 cycles: 37727360 heartbeat IPC: 2.884 cumulative IPC: 2.512 (Simulation time: 00 hr 14 min 28 sec)
Heartbeat CPU 0 instructions: 101500662 cycles: 37929125 heartbeat IPC: 2.478 cumulative IPC: 2.512 (Simulation time: 00 hr 14 min 32 sec)
Heartbeat CPU 0 instructions: 102000666 cycles: 38144250 heartbeat IPC: 2.324 cumulative IPC: 2.51 (Simulation time: 00 hr 14 min 36 sec)
Heartbeat CPU 0 instructions: 102500670 cycles: 38312829 heartbeat IPC: 2.966 cumulative IPC: 2.514 (Simulation time: 00 hr 14 min 40 sec)
Heartbeat CPU 0 instructions: 103000677 cycles: 38524771 heartbeat IPC: 2.359 cumulative IPC: 2.512 (Simulation time: 00 hr 14 min 44 sec)
Heartbeat CPU 0 instructions: 103500679 cycles: 38735547 heartbeat IPC: 2.372 cumulative IPC: 2.511 (Simulation time: 00 hr 14 min 49 sec)
Heartbeat CPU 0 instructions: 104000685 cycles: 38904879 heartbeat IPC: 2.953 cumulative IPC: 2.514 (Simulation time: 00 hr 14 min 53 sec)
Heartbeat CPU 0 instructions: 104500687 cycles: 39120954 heartbeat IPC: 2.314 cumulative IPC: 2.512 (Simulation time: 00 hr 14 min 57 sec)
Heartbeat CPU 0 instructions: 105000688 cycles: 39335370 heartbeat IPC: 2.332 cumulative IPC: 2.511 (Simulation time: 00 hr 15 min 01 sec)
Heartbeat CPU 0 instructions: 105500695 cycles: 39506351 heartbeat IPC: 2.924 cumulative IPC: 2.514 (Simulation time: 00 hr 15 min 05 sec)
Heartbeat CPU 0 instructions: 106000697 cycles: 39724434 heartbeat IPC: 2.293 cumulative IPC: 2.512 (Simulation time: 00 hr 15 min 10 sec)
Heartbeat CPU 0 instructions: 106500701 cycles: 39940731 heartbeat IPC: 2.312 cumulative IPC: 2.51 (Simulation time: 00 hr 15 min 14 sec)
Heartbeat CPU 0 instructions: 107000707 cycles: 40109831 heartbeat IPC: 2.957 cumulative IPC: 2.513 (Simulation time: 00 hr 15 min 18 sec)
Heartbeat CPU 0 instructions: 107500712 cycles: 40326300 heartbeat IPC: 2.31 cumulative IPC: 2.511 (Simulation time: 00 hr 15 min 23 sec)
Heartbeat CPU 0 instructions: 108000715 cycles: 40547543 heartbeat IPC: 2.26 cumulative IPC: 2.509 (Simulation time: 00 hr 15 min 27 sec)
Heartbeat CPU 0 instructions: 108500715 cycles: 40716426 heartbeat IPC: 2.961 cumulative IPC: 2.512 (Simulation time: 00 hr 15 min 31 sec)
Heartbeat CPU 0 instructions: 109000717 cycles: 40935247 heartbeat IPC: 2.285 cumulative IPC: 2.51 (Simulation time: 00 hr 15 min 35 sec)
Heartbeat CPU 0 instructions: 109500721 cycles: 41155821 heartbeat IPC: 2.267 cumulative IPC: 2.508 (Simulation time: 00 hr 15 min 40 sec)
Heartbeat CPU 0 instructions: 110000725 cycles: 41327094 heartbeat IPC: 2.919 cumulative IPC: 2.511 (Simulation time: 00 hr 15 min 44 sec)
Heartbeat CPU 0 instructions: 110500731 cycles: 41544973 heartbeat IPC: 2.295 cumulative IPC: 2.509 (Simulation time: 00 hr 15 min 48 sec)
Heartbeat CPU 0 instructions: 111000734 cycles: 41763633 heartbeat IPC: 2.287 cumulative IPC: 2.507 (Simulation time: 00 hr 15 min 53 sec)
Heartbeat CPU 0 instructions: 111500739 cycles: 41934364 heartbeat IPC: 2.929 cumulative IPC: 2.51 (Simulation time: 00 hr 15 min 57 sec)
Heartbeat CPU 0 instructions: 112000743 cycles: 42153788 heartbeat IPC: 2.279 cumulative IPC: 2.507 (Simulation time: 00 hr 16 min 01 sec)
Heartbeat CPU 0 instructions: 112500748 cycles: 42366920 heartbeat IPC: 2.346 cumulative IPC: 2.506 (Simulation time: 00 hr 16 min 06 sec)
Heartbeat CPU 0 instructions: 113000750 cycles: 42538455 heartbeat IPC: 2.915 cumulative IPC: 2.509 (Simulation time: 00 hr 16 min 09 sec)
Heartbeat CPU 0 instructions: 113500754 cycles: 42757855 heartbeat IPC: 2.279 cumulative IPC: 2.507 (Simulation time: 00 hr 16 min 14 sec)
Heartbeat CPU 0 instructions: 114000756 cycles: 42975705 heartbeat IPC: 2.295 cumulative IPC: 2.505 (Simulation time: 00 hr 16 min 18 sec)
Heartbeat CPU 0 instructions: 114500762 cycles: 43142128 heartbeat IPC: 3.004 cumulative IPC: 2.508 (Simulation time: 00 hr 16 min 22 sec)
Heartbeat CPU 0 instructions: 115000764 cycles: 43359463 heartbeat IPC: 2.301 cumulative IPC: 2.507 (Simulation time: 00 hr 16 min 26 sec)
Heartbeat CPU 0 instructions: 115500768 cycles: 43577946 heartbeat IPC: 2.289 cumulative IPC: 2.505 (Simulation time: 00 hr 16 min 31 sec)
Heartbeat CPU 0 instructions: 116000771 cycles: 43753129 heartbeat IPC: 2.854 cumulative IPC: 2.507 (Simulation time: 00 hr 16 min 35 sec)
Heartbeat CPU 0 instructions: 116500773 cycles: 43971175 heartbeat IPC: 2.293 cumulative IPC: 2.505 (Simulation time: 00 hr 16 min 39 sec)
Heartbeat CPU 0 instructions: 117000776 cycles: 44207697 heartbeat IPC: 2.114 cumulative IPC: 2.502 (Simulation time: 00 hr 16 min 44 sec)
Heartbeat CPU 0 instructions: 117500779 cycles: 44416441 heartbeat IPC: 2.395 cumulative IPC: 2.501 (Simulation time: 00 hr 16 min 48 sec)
Heartbeat CPU 0 instructions: 118000779 cycles: 44640617 heartbeat IPC: 2.23 cumulative IPC: 2.499 (Simulation time: 00 hr 16 min 53 sec)
Heartbeat CPU 0 instructions: 118500780 cycles: 44859147 heartbeat IPC: 2.288 cumulative IPC: 2.497 (Simulation time: 00 hr 16 min 57 sec)
Heartbeat CPU 0 instructions: 119000780 cycles: 45032649 heartbeat IPC: 2.882 cumulative IPC: 2.5 (Simulation time: 00 hr 17 min 01 sec)
Heartbeat CPU 0 instructions: 119500782 cycles: 45248838 heartbeat IPC: 2.313 cumulative IPC: 2.498 (Simulation time: 00 hr 17 min 05 sec)
Heartbeat CPU 0 instructions: 120000782 cycles: 45467591 heartbeat IPC: 2.286 cumulative IPC: 2.496 (Simulation time: 00 hr 17 min 10 sec)
Heartbeat CPU 0 instructions: 120500783 cycles: 45636440 heartbeat IPC: 2.961 cumulative IPC: 2.499 (Simulation time: 00 hr 17 min 14 sec)
Heartbeat CPU 0 instructions: 121000785 cycles: 45856890 heartbeat IPC: 2.268 cumulative IPC: 2.497 (Simulation time: 00 hr 17 min 18 sec)
Heartbeat CPU 0 instructions: 121500789 cycles: 46073267 heartbeat IPC: 2.311 cumulative IPC: 2.496 (Simulation time: 00 hr 17 min 23 sec)
Heartbeat CPU 0 instructions: 122000790 cycles: 46248041 heartbeat IPC: 2.861 cumulative IPC: 2.498 (Simulation time: 00 hr 17 min 27 sec)
Heartbeat CPU 0 instructions: 122500795 cycles: 46469914 heartbeat IPC: 2.254 cumulative IPC: 2.496 (Simulation time: 00 hr 17 min 31 sec)
Heartbeat CPU 0 instructions: 123000801 cycles: 46688937 heartbeat IPC: 2.283 cumulative IPC: 2.495 (Simulation time: 00 hr 17 min 36 sec)
Heartbeat CPU 0 instructions: 123500805 cycles: 46858385 heartbeat IPC: 2.951 cumulative IPC: 2.497 (Simulation time: 00 hr 17 min 39 sec)
Heartbeat CPU 0 instructions: 124000810 cycles: 47077755 heartbeat IPC: 2.279 cumulative IPC: 2.496 (Simulation time: 00 hr 17 min 44 sec)
Heartbeat CPU 0 instructions: 124500811 cycles: 47298201 heartbeat IPC: 2.268 cumulative IPC: 2.494 (Simulation time: 00 hr 17 min 48 sec)
Heartbeat CPU 0 instructions: 125000813 cycles: 47466010 heartbeat IPC: 2.98 cumulative IPC: 2.497 (Simulation time: 00 hr 17 min 52 sec)
Heartbeat CPU 0 instructions: 125500817 cycles: 47682338 heartbeat IPC: 2.311 cumulative IPC: 2.495 (Simulation time: 00 hr 17 min 57 sec)
Heartbeat CPU 0 instructions: 126000824 cycles: 47897425 heartbeat IPC: 2.325 cumulative IPC: 2.494 (Simulation time: 00 hr 18 min 01 sec)
Heartbeat CPU 0 instructions: 126500831 cycles: 48063732 heartbeat IPC: 3.007 cumulative IPC: 2.497 (Simulation time: 00 hr 18 min 05 sec)
Heartbeat CPU 0 instructions: 127000835 cycles: 48279082 heartbeat IPC: 2.322 cumulative IPC: 2.496 (Simulation time: 00 hr 18 min 09 sec)
Heartbeat CPU 0 instructions: 127500842 cycles: 48500614 heartbeat IPC: 2.257 cumulative IPC: 2.494 (Simulation time: 00 hr 18 min 14 sec)
Heartbeat CPU 0 instructions: 128000849 cycles: 48669426 heartbeat IPC: 2.962 cumulative IPC: 2.497 (Simulation time: 00 hr 18 min 17 sec)
Heartbeat CPU 0 instructions: 128500855 cycles: 48895145 heartbeat IPC: 2.215 cumulative IPC: 2.495 (Simulation time: 00 hr 18 min 22 sec)
Heartbeat CPU 0 instructions: 129000857 cycles: 49116257 heartbeat IPC: 2.261 cumulative IPC: 2.493 (Simulation time: 00 hr 18 min 26 sec)
Heartbeat CPU 0 instructions: 129500860 cycles: 49282432 heartbeat IPC: 3.009 cumulative IPC: 2.496 (Simulation time: 00 hr 18 min 30 sec)
Heartbeat CPU 0 instructions: 130000860 cycles: 49500615 heartbeat IPC: 2.292 cumulative IPC: 2.494 (Simulation time: 00 hr 18 min 35 sec)
Heartbeat CPU 0 instructions: 130500862 cycles: 49715082 heartbeat IPC: 2.331 cumulative IPC: 2.493 (Simulation time: 00 hr 18 min 39 sec)
Heartbeat CPU 0 instructions: 131000864 cycles: 49881097 heartbeat IPC: 3.012 cumulative IPC: 2.496 (Simulation time: 00 hr 18 min 43 sec)
Heartbeat CPU 0 instructions: 131500864 cycles: 50099522 heartbeat IPC: 2.289 cumulative IPC: 2.495 (Simulation time: 00 hr 18 min 47 sec)
Heartbeat CPU 0 instructions: 132000864 cycles: 50317282 heartbeat IPC: 2.296 cumulative IPC: 2.493 (Simulation time: 00 hr 18 min 52 sec)
Heartbeat CPU 0 instructions: 132500869 cycles: 50488939 heartbeat IPC: 2.913 cumulative IPC: 2.495 (Simulation time: 00 hr 18 min 56 sec)
Heartbeat CPU 0 instructions: 133000872 cycles: 50706900 heartbeat IPC: 2.294 cumulative IPC: 2.494 (Simulation time: 00 hr 19 min 00 sec)
Heartbeat CPU 0 instructions: 133500876 cycles: 50925042 heartbeat IPC: 2.292 cumulative IPC: 2.493 (Simulation time: 00 hr 19 min 05 sec)
Heartbeat CPU 0 instructions: 134000876 cycles: 51096817 heartbeat IPC: 2.911 cumulative IPC: 2.495 (Simulation time: 00 hr 19 min 09 sec)
Heartbeat CPU 0 instructions: 134500881 cycles: 51319799 heartbeat IPC: 2.242 cumulative IPC: 2.493 (Simulation time: 00 hr 19 min 13 sec)
Heartbeat CPU 0 instructions: 135000886 cycles: 51540606 heartbeat IPC: 2.264 cumulative IPC: 2.492 (Simulation time: 00 hr 19 min 18 sec)
Heartbeat CPU 0 instructions: 135500892 cycles: 51706560 heartbeat IPC: 3.013 cumulative IPC: 2.494 (Simulation time: 00 hr 19 min 21 sec)
Heartbeat CPU 0 instructions: 136000896 cycles: 51924903 heartbeat IPC: 2.29 cumulative IPC: 2.493 (Simulation time: 00 hr 19 min 26 sec)
Heartbeat CPU 0 instructions: 136500898 cycles: 52141583 heartbeat IPC: 2.308 cumulative IPC: 2.492 (Simulation time: 00 hr 19 min 30 sec)
Heartbeat CPU 0 instructions: 137000900 cycles: 52315137 heartbeat IPC: 2.881 cumulative IPC: 2.494 (Simulation time: 00 hr 19 min 34 sec)
Heartbeat CPU 0 instructions: 137500901 cycles: 52531974 heartbeat IPC: 2.306 cumulative IPC: 2.493 (Simulation time: 00 hr 19 min 39 sec)
Heartbeat CPU 0 instructions: 138000904 cycles: 52750762 heartbeat IPC: 2.285 cumulative IPC: 2.491 (Simulation time: 00 hr 19 min 43 sec)
Heartbeat CPU 0 instructions: 138500907 cycles: 52918348 heartbeat IPC: 2.984 cumulative IPC: 2.494 (Simulation time: 00 hr 19 min 47 sec)
Heartbeat CPU 0 instructions: 139000910 cycles: 53139497 heartbeat IPC: 2.261 cumulative IPC: 2.492 (Simulation time: 00 hr 19 min 51 sec)
Heartbeat CPU 0 instructions: 139500913 cycles: 53357948 heartbeat IPC: 2.289 cumulative IPC: 2.491 (Simulation time: 00 hr 19 min 56 sec)
Heartbeat CPU 0 instructions: 140000919 cycles: 53526897 heartbeat IPC: 2.96 cumulative IPC: 2.493 (Simulation time: 00 hr 20 min 00 sec)
Heartbeat CPU 0 instructions: 140500926 cycles: 53743739 heartbeat IPC: 2.306 cumulative IPC: 2.492 (Simulation time: 00 hr 20 min 04 sec)
Heartbeat CPU 0 instructions: 141000930 cycles: 53962575 heartbeat IPC: 2.285 cumulative IPC: 2.491 (Simulation time: 00 hr 20 min 08 sec)
Heartbeat CPU 0 instructions: 141500931 cycles: 54136765 heartbeat IPC: 2.87 cumulative IPC: 2.493 (Simulation time: 00 hr 20 min 12 sec)
Heartbeat CPU 0 instructions: 142000931 cycles: 54356331 heartbeat IPC: 2.277 cumulative IPC: 2.491 (Simulation time: 00 hr 20 min 17 sec)
Heartbeat CPU 0 instructions: 142500935 cycles: 54575738 heartbeat IPC: 2.279 cumulative IPC: 2.49 (Simulation time: 00 hr 20 min 21 sec)
Heartbeat CPU 0 instructions: 143000939 cycles: 54753590 heartbeat IPC: 2.811 cumulative IPC: 2.492 (Simulation time: 00 hr 20 min 25 sec)
Heartbeat CPU 0 instructions: 143500946 cycles: 54971070 heartbeat IPC: 2.299 cumulative IPC: 2.49 (Simulation time: 00 hr 20 min 30 sec)
Heartbeat CPU 0 instructions: 144000953 cycles: 55182719 heartbeat IPC: 2.362 cumulative IPC: 2.49 (Simulation time: 00 hr 20 min 34 sec)
Heartbeat CPU 0 instructions: 144500959 cycles: 55360707 heartbeat IPC: 2.809 cumulative IPC: 2.491 (Simulation time: 00 hr 20 min 38 sec)
Heartbeat CPU 0 instructions: 145000961 cycles: 55571210 heartbeat IPC: 2.375 cumulative IPC: 2.491 (Simulation time: 00 hr 20 min 42 sec)
Heartbeat CPU 0 instructions: 145500966 cycles: 55766996 heartbeat IPC: 2.554 cumulative IPC: 2.491 (Simulation time: 00 hr 20 min 46 sec)
Heartbeat CPU 0 instructions: 146000969 cycles: 55936444 heartbeat IPC: 2.951 cumulative IPC: 2.493 (Simulation time: 00 hr 20 min 50 sec)
Heartbeat CPU 0 instructions: 146500971 cycles: 56142166 heartbeat IPC: 2.43 cumulative IPC: 2.493 (Simulation time: 00 hr 20 min 55 sec)
Heartbeat CPU 0 instructions: 147000973 cycles: 56338508 heartbeat IPC: 2.547 cumulative IPC: 2.493 (Simulation time: 00 hr 20 min 59 sec)
Heartbeat CPU 0 instructions: 147500974 cycles: 56506874 heartbeat IPC: 2.97 cumulative IPC: 2.495 (Simulation time: 00 hr 21 min 02 sec)
Heartbeat CPU 0 instructions: 148000975 cycles: 56715209 heartbeat IPC: 2.4 cumulative IPC: 2.494 (Simulation time: 00 hr 21 min 07 sec)
Heartbeat CPU 0 instructions: 148500980 cycles: 56924581 heartbeat IPC: 2.388 cumulative IPC: 2.494 (Simulation time: 00 hr 21 min 11 sec)
Heartbeat CPU 0 instructions: 149000984 cycles: 57097973 heartbeat IPC: 2.884 cumulative IPC: 2.496 (Simulation time: 00 hr 21 min 15 sec)
Heartbeat CPU 0 instructions: 149500986 cycles: 57303615 heartbeat IPC: 2.431 cumulative IPC: 2.495 (Simulation time: 00 hr 21 min 19 sec)
Heartbeat CPU 0 instructions: 150000990 cycles: 57519211 heartbeat IPC: 2.319 cumulative IPC: 2.494 (Simulation time: 00 hr 21 min 24 sec)
Heartbeat CPU 0 instructions: 150500994 cycles: 57693831 heartbeat IPC: 2.863 cumulative IPC: 2.496 (Simulation time: 00 hr 21 min 27 sec)
Heartbeat CPU 0 instructions: 151000995 cycles: 57906579 heartbeat IPC: 2.35 cumulative IPC: 2.495 (Simulation time: 00 hr 21 min 32 sec)
Heartbeat CPU 0 instructions: 151500997 cycles: 58128881 heartbeat IPC: 2.249 cumulative IPC: 2.494 (Simulation time: 00 hr 21 min 36 sec)
Heartbeat CPU 0 instructions: 152001001 cycles: 58300987 heartbeat IPC: 2.905 cumulative IPC: 2.496 (Simulation time: 00 hr 21 min 40 sec)
Heartbeat CPU 0 instructions: 152501008 cycles: 58520757 heartbeat IPC: 2.275 cumulative IPC: 2.494 (Simulation time: 00 hr 21 min 45 sec)
Heartbeat CPU 0 instructions: 153001010 cycles: 58742631 heartbeat IPC: 2.254 cumulative IPC: 2.493 (Simulation time: 00 hr 21 min 49 sec)
Heartbeat CPU 0 instructions: 153501010 cycles: 58913412 heartbeat IPC: 2.928 cumulative IPC: 2.495 (Simulation time: 00 hr 21 min 53 sec)
Heartbeat CPU 0 instructions: 154001010 cycles: 59132939 heartbeat IPC: 2.278 cumulative IPC: 2.494 (Simulation time: 00 hr 21 min 57 sec)
Heartbeat CPU 0 instructions: 154501014 cycles: 59349561 heartbeat IPC: 2.308 cumulative IPC: 2.493 (Simulation time: 00 hr 22 min 02 sec)
Heartbeat CPU 0 instructions: 155001015 cycles: 59521362 heartbeat IPC: 2.91 cumulative IPC: 2.494 (Simulation time: 00 hr 22 min 06 sec)
Heartbeat CPU 0 instructions: 155501020 cycles: 59743876 heartbeat IPC: 2.247 cumulative IPC: 2.493 (Simulation time: 00 hr 22 min 10 sec)
Heartbeat CPU 0 instructions: 156001021 cycles: 59964259 heartbeat IPC: 2.269 cumulative IPC: 2.492 (Simulation time: 00 hr 22 min 15 sec)
Heartbeat CPU 0 instructions: 156501025 cycles: 60136338 heartbeat IPC: 2.906 cumulative IPC: 2.494 (Simulation time: 00 hr 22 min 19 sec)
Heartbeat CPU 0 instructions: 157001026 cycles: 60350727 heartbeat IPC: 2.332 cumulative IPC: 2.493 (Simulation time: 00 hr 22 min 23 sec)
Heartbeat CPU 0 instructions: 157501029 cycles: 60567921 heartbeat IPC: 2.302 cumulative IPC: 2.492 (Simulation time: 00 hr 22 min 27 sec)
Heartbeat CPU 0 instructions: 158001031 cycles: 60737091 heartbeat IPC: 2.956 cumulative IPC: 2.494 (Simulation time: 00 hr 22 min 31 sec)
Heartbeat CPU 0 instructions: 158501031 cycles: 60957931 heartbeat IPC: 2.264 cumulative IPC: 2.493 (Simulation time: 00 hr 22 min 36 sec)
Heartbeat CPU 0 instructions: 159001031 cycles: 61175855 heartbeat IPC: 2.294 cumulative IPC: 2.492 (Simulation time: 00 hr 22 min 40 sec)
Heartbeat CPU 0 instructions: 159501037 cycles: 61350270 heartbeat IPC: 2.867 cumulative IPC: 2.493 (Simulation time: 00 hr 22 min 44 sec)
Heartbeat CPU 0 instructions: 160001044 cycles: 61569720 heartbeat IPC: 2.278 cumulative IPC: 2.492 (Simulation time: 00 hr 22 min 48 sec)
Heartbeat CPU 0 instructions: 160501051 cycles: 61782941 heartbeat IPC: 2.345 cumulative IPC: 2.491 (Simulation time: 00 hr 22 min 53 sec)
Heartbeat CPU 0 instructions: 161001052 cycles: 61957003 heartbeat IPC: 2.873 cumulative IPC: 2.493 (Simulation time: 00 hr 22 min 57 sec)
Heartbeat CPU 0 instructions: 161501056 cycles: 62180231 heartbeat IPC: 2.24 cumulative IPC: 2.491 (Simulation time: 00 hr 23 min 01 sec)
Heartbeat CPU 0 instructions: 162001061 cycles: 62388111 heartbeat IPC: 2.405 cumulative IPC: 2.491 (Simulation time: 00 hr 23 min 05 sec)
Heartbeat CPU 0 instructions: 162501062 cycles: 62570697 heartbeat IPC: 2.738 cumulative IPC: 2.492 (Simulation time: 00 hr 23 min 09 sec)
Heartbeat CPU 0 instructions: 163001069 cycles: 62793801 heartbeat IPC: 2.241 cumulative IPC: 2.491 (Simulation time: 00 hr 23 min 14 sec)
Heartbeat CPU 0 instructions: 163501071 cycles: 62994967 heartbeat IPC: 2.486 cumulative IPC: 2.491 (Simulation time: 00 hr 23 min 18 sec)
Heartbeat CPU 0 instructions: 164001077 cycles: 63181333 heartbeat IPC: 2.683 cumulative IPC: 2.492 (Simulation time: 00 hr 23 min 22 sec)
Heartbeat CPU 0 instructions: 164501084 cycles: 63399582 heartbeat IPC: 2.291 cumulative IPC: 2.491 (Simulation time: 00 hr 23 min 27 sec)
Heartbeat CPU 0 instructions: 165001088 cycles: 63605358 heartbeat IPC: 2.43 cumulative IPC: 2.49 (Simulation time: 00 hr 23 min 31 sec)
Heartbeat CPU 0 instructions: 165501090 cycles: 63836482 heartbeat IPC: 2.163 cumulative IPC: 2.489 (Simulation time: 00 hr 23 min 35 sec)
Heartbeat CPU 0 instructions: 166001091 cycles: 64067847 heartbeat IPC: 2.161 cumulative IPC: 2.487 (Simulation time: 00 hr 23 min 40 sec)
Heartbeat CPU 0 instructions: 166501098 cycles: 64260615 heartbeat IPC: 2.594 cumulative IPC: 2.488 (Simulation time: 00 hr 23 min 44 sec)
Heartbeat CPU 0 instructions: 167001102 cycles: 64456472 heartbeat IPC: 2.553 cumulative IPC: 2.488 (Simulation time: 00 hr 23 min 48 sec)
Heartbeat CPU 0 instructions: 167501104 cycles: 64675415 heartbeat IPC: 2.284 cumulative IPC: 2.487 (Simulation time: 00 hr 23 min 53 sec)
Heartbeat CPU 0 instructions: 168001105 cycles: 64859662 heartbeat IPC: 2.714 cumulative IPC: 2.488 (Simulation time: 00 hr 23 min 57 sec)
Heartbeat CPU 0 instructions: 168501112 cycles: 65063691 heartbeat IPC: 2.451 cumulative IPC: 2.488 (Simulation time: 00 hr 24 min 01 sec)
Heartbeat CPU 0 instructions: 169001116 cycles: 65284141 heartbeat IPC: 2.268 cumulative IPC: 2.487 (Simulation time: 00 hr 24 min 06 sec)
Heartbeat CPU 0 instructions: 169501116 cycles: 65462213 heartbeat IPC: 2.808 cumulative IPC: 2.488 (Simulation time: 00 hr 24 min 09 sec)
Heartbeat CPU 0 instructions: 170001122 cycles: 65674865 heartbeat IPC: 2.351 cumulative IPC: 2.487 (Simulation time: 00 hr 24 min 14 sec)
Heartbeat CPU 0 instructions: 170501123 cycles: 65892209 heartbeat IPC: 2.301 cumulative IPC: 2.486 (Simulation time: 00 hr 24 min 18 sec)
Heartbeat CPU 0 instructions: 171001128 cycles: 66069127 heartbeat IPC: 2.826 cumulative IPC: 2.488 (Simulation time: 00 hr 24 min 22 sec)
Heartbeat CPU 0 instructions: 171501134 cycles: 66281954 heartbeat IPC: 2.349 cumulative IPC: 2.487 (Simulation time: 00 hr 24 min 27 sec)
Heartbeat CPU 0 instructions: 172001134 cycles: 66503744 heartbeat IPC: 2.254 cumulative IPC: 2.486 (Simulation time: 00 hr 24 min 31 sec)
Heartbeat CPU 0 instructions: 172501140 cycles: 66676583 heartbeat IPC: 2.893 cumulative IPC: 2.487 (Simulation time: 00 hr 24 min 35 sec)
Heartbeat CPU 0 instructions: 173001144 cycles: 66894794 heartbeat IPC: 2.291 cumulative IPC: 2.487 (Simulation time: 00 hr 24 min 39 sec)
Heartbeat CPU 0 instructions: 173501146 cycles: 67109439 heartbeat IPC: 2.329 cumulative IPC: 2.486 (Simulation time: 00 hr 24 min 44 sec)
Heartbeat CPU 0 instructions: 174001153 cycles: 67279506 heartbeat IPC: 2.94 cumulative IPC: 2.487 (Simulation time: 00 hr 24 min 48 sec)
Heartbeat CPU 0 instructions: 174501159 cycles: 67496538 heartbeat IPC: 2.304 cumulative IPC: 2.487 (Simulation time: 00 hr 24 min 52 sec)
Heartbeat CPU 0 instructions: 175001159 cycles: 67715769 heartbeat IPC: 2.281 cumulative IPC: 2.486 (Simulation time: 00 hr 24 min 56 sec)
Heartbeat CPU 0 instructions: 175501159 cycles: 67886526 heartbeat IPC: 2.928 cumulative IPC: 2.487 (Simulation time: 00 hr 25 min 00 sec)
Heartbeat CPU 0 instructions: 176001163 cycles: 68105675 heartbeat IPC: 2.282 cumulative IPC: 2.486 (Simulation time: 00 hr 25 min 05 sec)
Heartbeat CPU 0 instructions: 176501165 cycles: 68322248 heartbeat IPC: 2.309 cumulative IPC: 2.486 (Simulation time: 00 hr 25 min 09 sec)
Heartbeat CPU 0 instructions: 177001166 cycles: 68492739 heartbeat IPC: 2.933 cumulative IPC: 2.487 (Simulation time: 00 hr 25 min 13 sec)
Heartbeat CPU 0 instructions: 177501171 cycles: 68715383 heartbeat IPC: 2.246 cumulative IPC: 2.486 (Simulation time: 00 hr 25 min 17 sec)
Heartbeat CPU 0 instructions: 178001172 cycles: 68932548 heartbeat IPC: 2.302 cumulative IPC: 2.485 (Simulation time: 00 hr 25 min 22 sec)
Heartbeat CPU 0 instructions: 178501174 cycles: 69101703 heartbeat IPC: 2.956 cumulative IPC: 2.487 (Simulation time: 00 hr 25 min 26 sec)
Heartbeat CPU 0 instructions: 179001178 cycles: 69321092 heartbeat IPC: 2.279 cumulative IPC: 2.486 (Simulation time: 00 hr 25 min 30 sec)
Heartbeat CPU 0 instructions: 179501183 cycles: 69537780 heartbeat IPC: 2.307 cumulative IPC: 2.485 (Simulation time: 00 hr 25 min 35 sec)
Heartbeat CPU 0 instructions: 180001189 cycles: 69708622 heartbeat IPC: 2.927 cumulative IPC: 2.487 (Simulation time: 00 hr 25 min 39 sec)
Heartbeat CPU 0 instructions: 180501191 cycles: 69928960 heartbeat IPC: 2.269 cumulative IPC: 2.486 (Simulation time: 00 hr 25 min 43 sec)
Heartbeat CPU 0 instructions: 181001193 cycles: 70148028 heartbeat IPC: 2.282 cumulative IPC: 2.485 (Simulation time: 00 hr 25 min 47 sec)
Heartbeat CPU 0 instructions: 181501199 cycles: 70318015 heartbeat IPC: 2.941 cumulative IPC: 2.486 (Simulation time: 00 hr 25 min 51 sec)
Heartbeat CPU 0 instructions: 182001201 cycles: 70535127 heartbeat IPC: 2.303 cumulative IPC: 2.486 (Simulation time: 00 hr 25 min 56 sec)
Heartbeat CPU 0 instructions: 182501207 cycles: 70760355 heartbeat IPC: 2.22 cumulative IPC: 2.484 (Simulation time: 00 hr 26 min 00 sec)
Heartbeat CPU 0 instructions: 183001207 cycles: 70931522 heartbeat IPC: 2.921 cumulative IPC: 2.486 (Simulation time: 00 hr 26 min 04 sec)
Heartbeat CPU 0 instructions: 183501214 cycles: 71148714 heartbeat IPC: 2.302 cumulative IPC: 2.485 (Simulation time: 00 hr 26 min 08 sec)
Heartbeat CPU 0 instructions: 184001215 cycles: 71366422 heartbeat IPC: 2.297 cumulative IPC: 2.484 (Simulation time: 00 hr 26 min 13 sec)
Heartbeat CPU 0 instructions: 184501216 cycles: 71534989 heartbeat IPC: 2.966 cumulative IPC: 2.486 (Simulation time: 00 hr 26 min 17 sec)
Heartbeat CPU 0 instructions: 185001223 cycles: 71755051 heartbeat IPC: 2.272 cumulative IPC: 2.485 (Simulation time: 00 hr 26 min 21 sec)
Heartbeat CPU 0 instructions: 185501228 cycles: 71969133 heartbeat IPC: 2.336 cumulative IPC: 2.484 (Simulation time: 00 hr 26 min 26 sec)
Heartbeat CPU 0 instructions: 186001234 cycles: 72138176 heartbeat IPC: 2.958 cumulative IPC: 2.486 (Simulation time: 00 hr 26 min 29 sec)
Heartbeat CPU 0 instructions: 186501238 cycles: 72355628 heartbeat IPC: 2.299 cumulative IPC: 2.485 (Simulation time: 00 hr 26 min 34 sec)
Heartbeat CPU 0 instructions: 187001238 cycles: 72573142 heartbeat IPC: 2.299 cumulative IPC: 2.484 (Simulation time: 00 hr 26 min 38 sec)
Heartbeat CPU 0 instructions: 187501238 cycles: 72744615 heartbeat IPC: 2.916 cumulative IPC: 2.486 (Simulation time: 00 hr 26 min 42 sec)
Heartbeat CPU 0 instructions: 188001243 cycles: 72965522 heartbeat IPC: 2.263 cumulative IPC: 2.485 (Simulation time: 00 hr 26 min 47 sec)
Heartbeat CPU 0 instructions: 188501244 cycles: 73183947 heartbeat IPC: 2.289 cumulative IPC: 2.484 (Simulation time: 00 hr 26 min 51 sec)
Heartbeat CPU 0 instructions: 189001250 cycles: 73358681 heartbeat IPC: 2.862 cumulative IPC: 2.485 (Simulation time: 00 hr 26 min 55 sec)
Heartbeat CPU 0 instructions: 189501250 cycles: 73577508 heartbeat IPC: 2.285 cumulative IPC: 2.484 (Simulation time: 00 hr 27 min 00 sec)
Heartbeat CPU 0 instructions: 190001252 cycles: 73798546 heartbeat IPC: 2.262 cumulative IPC: 2.484 (Simulation time: 00 hr 27 min 04 sec)
Heartbeat CPU 0 instructions: 190501252 cycles: 73965078 heartbeat IPC: 3.002 cumulative IPC: 2.485 (Simulation time: 00 hr 27 min 08 sec)
Heartbeat CPU 0 instructions: 191001254 cycles: 74183841 heartbeat IPC: 2.286 cumulative IPC: 2.484 (Simulation time: 00 hr 27 min 12 sec)
Heartbeat CPU 0 instructions: 191501254 cycles: 74397546 heartbeat IPC: 2.34 cumulative IPC: 2.484 (Simulation time: 00 hr 27 min 17 sec)
Heartbeat CPU 0 instructions: 192001258 cycles: 74565842 heartbeat IPC: 2.971 cumulative IPC: 2.485 (Simulation time: 00 hr 27 min 21 sec)
Heartbeat CPU 0 instructions: 192501265 cycles: 74769241 heartbeat IPC: 2.458 cumulative IPC: 2.485 (Simulation time: 00 hr 27 min 25 sec)
Heartbeat CPU 0 instructions: 193001269 cycles: 74979814 heartbeat IPC: 2.374 cumulative IPC: 2.485 (Simulation time: 00 hr 27 min 29 sec)
Heartbeat CPU 0 instructions: 193501270 cycles: 75148747 heartbeat IPC: 2.96 cumulative IPC: 2.486 (Simulation time: 00 hr 27 min 33 sec)
Heartbeat CPU 0 instructions: 194001277 cycles: 75347196 heartbeat IPC: 2.52 cumulative IPC: 2.486 (Simulation time: 00 hr 27 min 37 sec)
Heartbeat CPU 0 instructions: 194501279 cycles: 75554284 heartbeat IPC: 2.414 cumulative IPC: 2.486 (Simulation time: 00 hr 27 min 41 sec)
Heartbeat CPU 0 instructions: 195001285 cycles: 75726775 heartbeat IPC: 2.899 cumulative IPC: 2.487 (Simulation time: 00 hr 27 min 45 sec)
Heartbeat CPU 0 instructions: 195501287 cycles: 75923033 heartbeat IPC: 2.548 cumulative IPC: 2.487 (Simulation time: 00 hr 27 min 49 sec)
Heartbeat CPU 0 instructions: 196001289 cycles: 76128044 heartbeat IPC: 2.439 cumulative IPC: 2.487 (Simulation time: 00 hr 27 min 54 sec)
Heartbeat CPU 0 instructions: 196501293 cycles: 76294939 heartbeat IPC: 2.996 cumulative IPC: 2.489 (Simulation time: 00 hr 27 min 57 sec)
Heartbeat CPU 0 instructions: 197001297 cycles: 76502657 heartbeat IPC: 2.407 cumulative IPC: 2.488 (Simulation time: 00 hr 28 min 02 sec)
Heartbeat CPU 0 instructions: 197501298 cycles: 76704778 heartbeat IPC: 2.474 cumulative IPC: 2.488 (Simulation time: 00 hr 28 min 06 sec)
Heartbeat CPU 0 instructions: 198001303 cycles: 76871285 heartbeat IPC: 3.003 cumulative IPC: 2.49 (Simulation time: 00 hr 28 min 10 sec)
Heartbeat CPU 0 instructions: 198501304 cycles: 77083911 heartbeat IPC: 2.352 cumulative IPC: 2.489 (Simulation time: 00 hr 28 min 14 sec)
Heartbeat CPU 0 instructions: 199001309 cycles: 77296327 heartbeat IPC: 2.354 cumulative IPC: 2.489 (Simulation time: 00 hr 28 min 18 sec)
Heartbeat CPU 0 instructions: 199501309 cycles: 77465430 heartbeat IPC: 2.957 cumulative IPC: 2.49 (Simulation time: 00 hr 28 min 22 sec)
Heartbeat CPU 0 instructions: 200001311 cycles: 77684943 heartbeat IPC: 2.278 cumulative IPC: 2.489 (Simulation time: 00 hr 28 min 27 sec)
Heartbeat CPU 0 instructions: 200501315 cycles: 77901411 heartbeat IPC: 2.31 cumulative IPC: 2.489 (Simulation time: 00 hr 28 min 31 sec)
Heartbeat CPU 0 instructions: 201001317 cycles: 78068425 heartbeat IPC: 2.994 cumulative IPC: 2.49 (Simulation time: 00 hr 28 min 35 sec)
Heartbeat CPU 0 instructions: 201501321 cycles: 78287617 heartbeat IPC: 2.281 cumulative IPC: 2.489 (Simulation time: 00 hr 28 min 39 sec)
Heartbeat CPU 0 instructions: 202001324 cycles: 78504838 heartbeat IPC: 2.302 cumulative IPC: 2.489 (Simulation time: 00 hr 28 min 44 sec)
Heartbeat CPU 0 instructions: 202501324 cycles: 78677753 heartbeat IPC: 2.892 cumulative IPC: 2.49 (Simulation time: 00 hr 28 min 48 sec)
Heartbeat CPU 0 instructions: 203001326 cycles: 78897204 heartbeat IPC: 2.278 cumulative IPC: 2.489 (Simulation time: 00 hr 28 min 52 sec)
Heartbeat CPU 0 instructions: 203501330 cycles: 79117885 heartbeat IPC: 2.266 cumulative IPC: 2.488 (Simulation time: 00 hr 28 min 57 sec)
Heartbeat CPU 0 instructions: 204001330 cycles: 79284225 heartbeat IPC: 3.006 cumulative IPC: 2.49 (Simulation time: 00 hr 29 min 00 sec)
Heartbeat CPU 0 instructions: 204501330 cycles: 79500360 heartbeat IPC: 2.313 cumulative IPC: 2.489 (Simulation time: 00 hr 29 min 05 sec)
Heartbeat CPU 0 instructions: 205001332 cycles: 79718816 heartbeat IPC: 2.289 cumulative IPC: 2.488 (Simulation time: 00 hr 29 min 09 sec)
Heartbeat CPU 0 instructions: 205501335 cycles: 79887822 heartbeat IPC: 2.958 cumulative IPC: 2.49 (Simulation time: 00 hr 29 min 13 sec)
Heartbeat CPU 0 instructions: 206001335 cycles: 80102100 heartbeat IPC: 2.333 cumulative IPC: 2.489 (Simulation time: 00 hr 29 min 18 sec)
Heartbeat CPU 0 instructions: 206501336 cycles: 80317629 heartbeat IPC: 2.32 cumulative IPC: 2.488 (Simulation time: 00 hr 29 min 22 sec)
Heartbeat CPU 0 instructions: 207001342 cycles: 80487091 heartbeat IPC: 2.951 cumulative IPC: 2.49 (Simulation time: 00 hr 29 min 26 sec)
Heartbeat CPU 0 instructions: 207501346 cycles: 80701478 heartbeat IPC: 2.332 cumulative IPC: 2.489 (Simulation time: 00 hr 29 min 30 sec)
Heartbeat CPU 0 instructions: 208001352 cycles: 80922347 heartbeat IPC: 2.264 cumulative IPC: 2.488 (Simulation time: 00 hr 29 min 35 sec)
Heartbeat CPU 0 instructions: 208501358 cycles: 81088997 heartbeat IPC: 3 cumulative IPC: 2.49 (Simulation time: 00 hr 29 min 38 sec)
Heartbeat CPU 0 instructions: 209001364 cycles: 81306045 heartbeat IPC: 2.304 cumulative IPC: 2.489 (Simulation time: 00 hr 29 min 43 sec)
Heartbeat CPU 0 instructions: 209501370 cycles: 81526340 heartbeat IPC: 2.27 cumulative IPC: 2.488 (Simulation time: 00 hr 29 min 47 sec)
Heartbeat CPU 0 instructions: 210001370 cycles: 81697476 heartbeat IPC: 2.922 cumulative IPC: 2.49 (Simulation time: 00 hr 29 min 51 sec)
Heartbeat CPU 0 instructions: 210501372 cycles: 81916635 heartbeat IPC: 2.281 cumulative IPC: 2.489 (Simulation time: 00 hr 29 min 56 sec)
Heartbeat CPU 0 instructions: 211001375 cycles: 82137430 heartbeat IPC: 2.265 cumulative IPC: 2.488 (Simulation time: 00 hr 30 min 00 sec)
Heartbeat CPU 0 instructions: 211501375 cycles: 82304059 heartbeat IPC: 3.001 cumulative IPC: 2.489 (Simulation time: 00 hr 30 min 04 sec)
Heartbeat CPU 0 instructions: 212001377 cycles: 82520936 heartbeat IPC: 2.305 cumulative IPC: 2.489 (Simulation time: 00 hr 30 min 08 sec)
Heartbeat CPU 0 instructions: 212501381 cycles: 82736654 heartbeat IPC: 2.318 cumulative IPC: 2.488 (Simulation time: 00 hr 30 min 13 sec)
Heartbeat CPU 0 instructions: 213001385 cycles: 82909488 heartbeat IPC: 2.893 cumulative IPC: 2.489 (Simulation time: 00 hr 30 min 17 sec)
Heartbeat CPU 0 instructions: 213501392 cycles: 83158197 heartbeat IPC: 2.01 cumulative IPC: 2.487 (Simulation time: 00 hr 30 min 21 sec)
Heartbeat CPU 0 instructions: 214001397 cycles: 83408066 heartbeat IPC: 2.001 cumulative IPC: 2.486 (Simulation time: 00 hr 30 min 26 sec)
Heartbeat CPU 0 instructions: 214501397 cycles: 83578622 heartbeat IPC: 2.932 cumulative IPC: 2.487 (Simulation time: 00 hr 30 min 30 sec)
Heartbeat CPU 0 instructions: 215001401 cycles: 83797560 heartbeat IPC: 2.284 cumulative IPC: 2.486 (Simulation time: 00 hr 30 min 35 sec)
Heartbeat CPU 0 instructions: 215501403 cycles: 84015040 heartbeat IPC: 2.299 cumulative IPC: 2.485 (Simulation time: 00 hr 30 min 39 sec)
Heartbeat CPU 0 instructions: 216001410 cycles: 84185830 heartbeat IPC: 2.928 cumulative IPC: 2.487 (Simulation time: 00 hr 30 min 43 sec)
Heartbeat CPU 0 instructions: 216501411 cycles: 84402292 heartbeat IPC: 2.31 cumulative IPC: 2.486 (Simulation time: 00 hr 30 min 47 sec)
Heartbeat CPU 0 instructions: 217001415 cycles: 84617794 heartbeat IPC: 2.32 cumulative IPC: 2.485 (Simulation time: 00 hr 30 min 52 sec)
Heartbeat CPU 0 instructions: 217501415 cycles: 84784704 heartbeat IPC: 2.996 cumulative IPC: 2.487 (Simulation time: 00 hr 30 min 56 sec)
Heartbeat CPU 0 instructions: 218001421 cycles: 85002416 heartbeat IPC: 2.297 cumulative IPC: 2.486 (Simulation time: 00 hr 31 min 00 sec)
Heartbeat CPU 0 instructions: 218501421 cycles: 85220092 heartbeat IPC: 2.297 cumulative IPC: 2.486 (Simulation time: 00 hr 31 min 04 sec)
Heartbeat CPU 0 instructions: 219001422 cycles: 85392373 heartbeat IPC: 2.902 cumulative IPC: 2.487 (Simulation time: 00 hr 31 min 08 sec)
Heartbeat CPU 0 instructions: 219501423 cycles: 85607340 heartbeat IPC: 2.326 cumulative IPC: 2.486 (Simulation time: 00 hr 31 min 13 sec)
Heartbeat CPU 0 instructions: 220001423 cycles: 85826577 heartbeat IPC: 2.281 cumulative IPC: 2.485 (Simulation time: 00 hr 31 min 17 sec)
Heartbeat CPU 0 instructions: 220501426 cycles: 85995150 heartbeat IPC: 2.966 cumulative IPC: 2.487 (Simulation time: 00 hr 31 min 21 sec)
Heartbeat CPU 0 instructions: 221001428 cycles: 86211408 heartbeat IPC: 2.312 cumulative IPC: 2.486 (Simulation time: 00 hr 31 min 25 sec)
Heartbeat CPU 0 instructions: 221501430 cycles: 86425576 heartbeat IPC: 2.335 cumulative IPC: 2.486 (Simulation time: 00 hr 31 min 30 sec)
Heartbeat CPU 0 instructions: 222001433 cycles: 86595139 heartbeat IPC: 2.949 cumulative IPC: 2.487 (Simulation time: 00 hr 31 min 34 sec)
Heartbeat CPU 0 instructions: 222501440 cycles: 86812597 heartbeat IPC: 2.299 cumulative IPC: 2.486 (Simulation time: 00 hr 31 min 38 sec)
Heartbeat CPU 0 instructions: 223001442 cycles: 87031944 heartbeat IPC: 2.28 cumulative IPC: 2.485 (Simulation time: 00 hr 31 min 43 sec)
Heartbeat CPU 0 instructions: 223501446 cycles: 87200450 heartbeat IPC: 2.967 cumulative IPC: 2.487 (Simulation time: 00 hr 31 min 46 sec)
Heartbeat CPU 0 instructions: 224001452 cycles: 87419213 heartbeat IPC: 2.286 cumulative IPC: 2.486 (Simulation time: 00 hr 31 min 51 sec)
Heartbeat CPU 0 instructions: 224501452 cycles: 87638597 heartbeat IPC: 2.279 cumulative IPC: 2.485 (Simulation time: 00 hr 31 min 55 sec)
Heartbeat CPU 0 instructions: 225001458 cycles: 87806870 heartbeat IPC: 2.971 cumulative IPC: 2.487 (Simulation time: 00 hr 31 min 59 sec)
Heartbeat CPU 0 instructions: 225501458 cycles: 88023014 heartbeat IPC: 2.313 cumulative IPC: 2.486 (Simulation time: 00 hr 32 min 04 sec)
Heartbeat CPU 0 instructions: 226001459 cycles: 88238039 heartbeat IPC: 2.325 cumulative IPC: 2.486 (Simulation time: 00 hr 32 min 08 sec)
Heartbeat CPU 0 instructions: 226501463 cycles: 88406346 heartbeat IPC: 2.971 cumulative IPC: 2.487 (Simulation time: 00 hr 32 min 12 sec)
Heartbeat CPU 0 instructions: 227001470 cycles: 88619220 heartbeat IPC: 2.349 cumulative IPC: 2.486 (Simulation time: 00 hr 32 min 16 sec)
Heartbeat CPU 0 instructions: 227501475 cycles: 88833817 heartbeat IPC: 2.33 cumulative IPC: 2.486 (Simulation time: 00 hr 32 min 21 sec)
Heartbeat CPU 0 instructions: 228001476 cycles: 89001623 heartbeat IPC: 2.98 cumulative IPC: 2.487 (Simulation time: 00 hr 32 min 24 sec)
Heartbeat CPU 0 instructions: 228501482 cycles: 89219582 heartbeat IPC: 2.294 cumulative IPC: 2.486 (Simulation time: 00 hr 32 min 29 sec)
Heartbeat CPU 0 instructions: 229001484 cycles: 89437675 heartbeat IPC: 2.293 cumulative IPC: 2.486 (Simulation time: 00 hr 32 min 33 sec)
Heartbeat CPU 0 instructions: 229501491 cycles: 89605798 heartbeat IPC: 2.974 cumulative IPC: 2.487 (Simulation time: 00 hr 32 min 37 sec)
Heartbeat CPU 0 instructions: 230001495 cycles: 89822637 heartbeat IPC: 2.306 cumulative IPC: 2.486 (Simulation time: 00 hr 32 min 42 sec)
Heartbeat CPU 0 instructions: 230501497 cycles: 90034065 heartbeat IPC: 2.365 cumulative IPC: 2.486 (Simulation time: 00 hr 32 min 46 sec)
Heartbeat CPU 0 instructions: 231001501 cycles: 90209366 heartbeat IPC: 2.852 cumulative IPC: 2.487 (Simulation time: 00 hr 32 min 50 sec)
Heartbeat CPU 0 instructions: 231501508 cycles: 90423895 heartbeat IPC: 2.331 cumulative IPC: 2.486 (Simulation time: 00 hr 32 min 54 sec)
Heartbeat CPU 0 instructions: 232001514 cycles: 90631506 heartbeat IPC: 2.408 cumulative IPC: 2.486 (Simulation time: 00 hr 32 min 59 sec)
Heartbeat CPU 0 instructions: 232501516 cycles: 90811456 heartbeat IPC: 2.779 cumulative IPC: 2.487 (Simulation time: 00 hr 33 min 02 sec)
Heartbeat CPU 0 instructions: 233001517 cycles: 91028869 heartbeat IPC: 2.3 cumulative IPC: 2.486 (Simulation time: 00 hr 33 min 07 sec)
Heartbeat CPU 0 instructions: 233501517 cycles: 91226387 heartbeat IPC: 2.531 cumulative IPC: 2.487 (Simulation time: 00 hr 33 min 11 sec)
Heartbeat CPU 0 instructions: 234001523 cycles: 91416520 heartbeat IPC: 2.63 cumulative IPC: 2.487 (Simulation time: 00 hr 33 min 15 sec)
Heartbeat CPU 0 instructions: 234501530 cycles: 91632754 heartbeat IPC: 2.312 cumulative IPC: 2.486 (Simulation time: 00 hr 33 min 20 sec)
Heartbeat CPU 0 instructions: 235001535 cycles: 91828288 heartbeat IPC: 2.557 cumulative IPC: 2.487 (Simulation time: 00 hr 33 min 24 sec)
Heartbeat CPU 0 instructions: 235501539 cycles: 92019643 heartbeat IPC: 2.613 cumulative IPC: 2.487 (Simulation time: 00 hr 33 min 28 sec)
Heartbeat CPU 0 instructions: 236001545 cycles: 92239495 heartbeat IPC: 2.274 cumulative IPC: 2.486 (Simulation time: 00 hr 33 min 32 sec)
Heartbeat CPU 0 instructions: 236501545 cycles: 92428947 heartbeat IPC: 2.639 cumulative IPC: 2.487 (Simulation time: 00 hr 33 min 36 sec)
Heartbeat CPU 0 instructions: 237001545 cycles: 92627547 heartbeat IPC: 2.518 cumulative IPC: 2.487 (Simulation time: 00 hr 33 min 41 sec)
Heartbeat CPU 0 instructions: 237501545 cycles: 92844930 heartbeat IPC: 2.3 cumulative IPC: 2.486 (Simulation time: 00 hr 33 min 45 sec)
Heartbeat CPU 0 instructions: 238001551 cycles: 93033453 heartbeat IPC: 2.652 cumulative IPC: 2.487 (Simulation time: 00 hr 33 min 49 sec)
Heartbeat CPU 0 instructions: 238501558 cycles: 93236458 heartbeat IPC: 2.463 cumulative IPC: 2.487 (Simulation time: 00 hr 33 min 54 sec)
Heartbeat CPU 0 instructions: 239001564 cycles: 93455353 heartbeat IPC: 2.284 cumulative IPC: 2.486 (Simulation time: 00 hr 33 min 58 sec)
Heartbeat CPU 0 instructions: 239501570 cycles: 93633858 heartbeat IPC: 2.801 cumulative IPC: 2.487 (Simulation time: 00 hr 34 min 02 sec)
Heartbeat CPU 0 instructions: 240001576 cycles: 93839980 heartbeat IPC: 2.426 cumulative IPC: 2.487 (Simulation time: 00 hr 34 min 06 sec)
Heartbeat CPU 0 instructions: 240501578 cycles: 94045047 heartbeat IPC: 2.438 cumulative IPC: 2.486 (Simulation time: 00 hr 34 min 10 sec)
Heartbeat CPU 0 instructions: 241001580 cycles: 94217902 heartbeat IPC: 2.893 cumulative IPC: 2.487 (Simulation time: 00 hr 34 min 14 sec)
Heartbeat CPU 0 instructions: 241501580 cycles: 94425277 heartbeat IPC: 2.411 cumulative IPC: 2.487 (Simulation time: 00 hr 34 min 19 sec)
Heartbeat CPU 0 instructions: 242001584 cycles: 94622566 heartbeat IPC: 2.534 cumulative IPC: 2.487 (Simulation time: 00 hr 34 min 23 sec)
Heartbeat CPU 0 instructions: 242501590 cycles: 94790435 heartbeat IPC: 2.979 cumulative IPC: 2.488 (Simulation time: 00 hr 34 min 27 sec)
Heartbeat CPU 0 instructions: 243001596 cycles: 94996198 heartbeat IPC: 2.43 cumulative IPC: 2.488 (Simulation time: 00 hr 34 min 31 sec)
Heartbeat CPU 0 instructions: 243501603 cycles: 95189815 heartbeat IPC: 2.582 cumulative IPC: 2.488 (Simulation time: 00 hr 34 min 35 sec)
Heartbeat CPU 0 instructions: 244001604 cycles: 95356345 heartbeat IPC: 3.002 cumulative IPC: 2.489 (Simulation time: 00 hr 34 min 39 sec)
Heartbeat CPU 0 instructions: 244501610 cycles: 95563062 heartbeat IPC: 2.419 cumulative IPC: 2.489 (Simulation time: 00 hr 34 min 43 sec)
Heartbeat CPU 0 instructions: 245001616 cycles: 95765686 heartbeat IPC: 2.468 cumulative IPC: 2.489 (Simulation time: 00 hr 34 min 47 sec)
Heartbeat CPU 0 instructions: 245501618 cycles: 95936713 heartbeat IPC: 2.924 cumulative IPC: 2.49 (Simulation time: 00 hr 34 min 51 sec)
Heartbeat CPU 0 instructions: 246001624 cycles: 96140846 heartbeat IPC: 2.449 cumulative IPC: 2.49 (Simulation time: 00 hr 34 min 55 sec)
Heartbeat CPU 0 instructions: 246501628 cycles: 96348154 heartbeat IPC: 2.412 cumulative IPC: 2.49 (Simulation time: 00 hr 35 min 00 sec)
Heartbeat CPU 0 instructions: 247001628 cycles: 96517147 heartbeat IPC: 2.959 cumulative IPC: 2.491 (Simulation time: 00 hr 35 min 03 sec)
Heartbeat CPU 0 instructions: 247501631 cycles: 96732545 heartbeat IPC: 2.321 cumulative IPC: 2.49 (Simulation time: 00 hr 35 min 08 sec)
Heartbeat CPU 0 instructions: 248001635 cycles: 96942176 heartbeat IPC: 2.385 cumulative IPC: 2.49 (Simulation time: 00 hr 35 min 12 sec)
Heartbeat CPU 0 instructions: 248501639 cycles: 97109962 heartbeat IPC: 2.98 cumulative IPC: 2.491 (Simulation time: 00 hr 35 min 16 sec)
Heartbeat CPU 0 instructions: 249001641 cycles: 97327419 heartbeat IPC: 2.299 cumulative IPC: 2.491 (Simulation time: 00 hr 35 min 20 sec)
Heartbeat CPU 0 instructions: 249501644 cycles: 97545935 heartbeat IPC: 2.288 cumulative IPC: 2.49 (Simulation time: 00 hr 35 min 25 sec)
Simulation finished CPU 0 instructions: 200000002 cycles: 80286714 cumulative IPC: 2.491 (Simulation time: 00 hr 35 min 29 sec)
Simulation complete CPU 0 instructions: 200000002 cycles: 80286714 cumulative IPC: 2.491 (Simulation time: 00 hr 35 min 29 sec)

ChampSim completed all CPUs

=== Simulation ===
CPU 0 runs /local-ssd/ben/dpc4-traces/ai-ml/stable-diffusion.cpp-v2-1_768-nonema-pruned.2.champsimtrace.gz

Region of Interest Statistics

CPU 0 cumulative IPC: 2.491 instructions: 200000002 cycles: 80286714
CPU 0 Branch Prediction Accuracy: 99.43% MPKI: 0.3627 Average ROB Occupancy at Mispredict: 522.5
Branch type MPKI
BRANCH_DIRECT_JUMP: 0
BRANCH_INDIRECT: 0
BRANCH_CONDITIONAL: 0.3627
BRANCH_DIRECT_CALL: 0
BRANCH_INDIRECT_CALL: 0
BRANCH_RETURN: 0

cpu0->cpu0_STLB TOTAL        ACCESS:     428817 HIT:     404528 MISS:      24289 MSHR_MERGE:          0
cpu0->cpu0_STLB LOAD         ACCESS:     428817 HIT:     404528 MISS:      24289 MSHR_MERGE:          0
cpu0->cpu0_STLB RFO          ACCESS:          0 HIT:          0 MISS:          0 MSHR_MERGE:          0
cpu0->cpu0_STLB PREFETCH     ACCESS:          0 HIT:          0 MISS:          0 MSHR_MERGE:          0
cpu0->cpu0_STLB WRITE        ACCESS:          0 HIT:          0 MISS:          0 MSHR_MERGE:          0
cpu0->cpu0_STLB TRANSLATION  ACCESS:          0 HIT:          0 MISS:          0 MSHR_MERGE:          0
cpu0->cpu0_STLB PREFETCH REQUESTED:          0 ISSUED:          0 USEFUL:          0 USELESS:          0
cpu0->cpu0_STLB AVERAGE MISS LATENCY: 50.07 cycles
cpu0->cpu0_L2C TOTAL        ACCESS:   54957075 HIT:   51177382 MISS:    3779693 MSHR_MERGE:    2208639
cpu0->cpu0_L2C LOAD         ACCESS:   21105128 HIT:   20316665 MISS:     788463 MSHR_MERGE:     535661
cpu0->cpu0_L2C RFO          ACCESS:      45253 HIT:      41002 MISS:       4251 MSHR_MERGE:          0
cpu0->cpu0_L2C PREFETCH     ACCESS:   33722597 HIT:   30738674 MISS:    2983923 MSHR_MERGE:    1672978
cpu0->cpu0_L2C WRITE        ACCESS:      80739 HIT:      80739 MISS:          0 MSHR_MERGE:          0
cpu0->cpu0_L2C TRANSLATION  ACCESS:       3358 HIT:        302 MISS:       3056 MSHR_MERGE:          0
cpu0->cpu0_L2C PREFETCH REQUESTED:   48454927 ISSUED:   28074039 USEFUL:    1033440 USELESS:       1096
cpu0->cpu0_L2C AVERAGE MISS LATENCY: 156 cycles
cpu0->cpu0_L1I TOTAL        ACCESS:   47220486 HIT:   47220486 MISS:          0 MSHR_MERGE:          0
cpu0->cpu0_L1I LOAD         ACCESS:   47220486 HIT:   47220486 MISS:          0 MSHR_MERGE:          0
cpu0->cpu0_L1I RFO          ACCESS:          0 HIT:          0 MISS:          0 MSHR_MERGE:          0
cpu0->cpu0_L1I PREFETCH     ACCESS:          0 HIT:          0 MISS:          0 MSHR_MERGE:          0
cpu0->cpu0_L1I WRITE        ACCESS:          0 HIT:          0 MISS:          0 MSHR_MERGE:          0
cpu0->cpu0_L1I TRANSLATION  ACCESS:          0 HIT:          0 MISS:          0 MSHR_MERGE:          0
cpu0->cpu0_L1I PREFETCH REQUESTED:          0 ISSUED:          0 USEFUL:          0 USELESS:          0
cpu0->cpu0_L1I AVERAGE MISS LATENCY: - cycles
cpu0->cpu0_L1D TOTAL        ACCESS:   80957018 HIT:   50446485 MISS:   30510533 MSHR_MERGE:    3707460
cpu0->cpu0_L1D LOAD         ACCESS:   58553957 HIT:   35204261 MISS:   23349696 MSHR_MERGE:    2244138
cpu0->cpu0_L1D RFO          ACCESS:          0 HIT:          0 MISS:          0 MSHR_MERGE:          0
cpu0->cpu0_L1D PREFETCH     ACCESS:   22035140 HIT:   14927897 MISS:    7107243 MSHR_MERGE:    1458697
cpu0->cpu0_L1D WRITE        ACCESS:     319345 HIT:     269113 MISS:      50232 MSHR_MERGE:       4621
cpu0->cpu0_L1D TRANSLATION  ACCESS:      48576 HIT:      45214 MISS:       3362 MSHR_MERGE:          4
cpu0->cpu0_L1D PREFETCH REQUESTED:  635733672 ISSUED:   22035141 USEFUL:    5504817 USELESS:     143736
cpu0->cpu0_L1D AVERAGE MISS LATENCY: 14.82 cycles
cpu0->cpu0_ITLB TOTAL        ACCESS:   30786508 HIT:   30786508 MISS:          0 MSHR_MERGE:          0
cpu0->cpu0_ITLB LOAD         ACCESS:   30786508 HIT:   30786508 MISS:          0 MSHR_MERGE:          0
cpu0->cpu0_ITLB RFO          ACCESS:          0 HIT:          0 MISS:          0 MSHR_MERGE:          0
cpu0->cpu0_ITLB PREFETCH     ACCESS:          0 HIT:          0 MISS:          0 MSHR_MERGE:          0
cpu0->cpu0_ITLB WRITE        ACCESS:          0 HIT:          0 MISS:          0 MSHR_MERGE:          0
cpu0->cpu0_ITLB TRANSLATION  ACCESS:          0 HIT:          0 MISS:          0 MSHR_MERGE:          0
cpu0->cpu0_ITLB PREFETCH REQUESTED:          0 ISSUED:          0 USEFUL:          0 USELESS:          0
cpu0->cpu0_ITLB AVERAGE MISS LATENCY: - cycles
cpu0->cpu0_DTLB TOTAL        ACCESS:   64741579 HIT:   63829028 MISS:     912551 MSHR_MERGE:     483734
cpu0->cpu0_DTLB LOAD         ACCESS:   64741579 HIT:   63829028 MISS:     912551 MSHR_MERGE:     483734
cpu0->cpu0_DTLB RFO          ACCESS:          0 HIT:          0 MISS:          0 MSHR_MERGE:          0
cpu0->cpu0_DTLB PREFETCH     ACCESS:          0 HIT:          0 MISS:          0 MSHR_MERGE:          0
cpu0->cpu0_DTLB WRITE        ACCESS:          0 HIT:          0 MISS:          0 MSHR_MERGE:          0
cpu0->cpu0_DTLB TRANSLATION  ACCESS:          0 HIT:          0 MISS:          0 MSHR_MERGE:          0
cpu0->cpu0_DTLB PREFETCH REQUESTED:          0 ISSUED:          0 USEFUL:          0 USELESS:          0
cpu0->cpu0_DTLB AVERAGE MISS LATENCY: 7.893 cycles
cpu0->LLC TOTAL        ACCESS:    1575289 HIT:     151453 MISS:    1423836 MSHR_MERGE:          0
cpu0->LLC LOAD         ACCESS:     252802 HIT:      28219 MISS:     224583 MSHR_MERGE:          0
cpu0->LLC RFO          ACCESS:       4251 HIT:          0 MISS:       4251 MSHR_MERGE:          0
cpu0->LLC PREFETCH     ACCESS:    1310945 HIT:     122232 MISS:    1188713 MSHR_MERGE:          0
cpu0->LLC WRITE        ACCESS:       4235 HIT:        694 MISS:       3541 MSHR_MERGE:          0
cpu0->LLC TRANSLATION  ACCESS:       3056 HIT:        308 MISS:       2748 MSHR_MERGE:          0
cpu0->LLC PREFETCH REQUESTED:          0 ISSUED:          0 USEFUL:          0 USELESS:          0
cpu0->LLC AVERAGE MISS LATENCY: 214 cycles

DRAM Statistics

Channel 0 RQ ROW_BUFFER_HIT:     608406
  ROW_BUFFER_MISS:     811889
  AVG DBUS CONGESTED CYCLE: 4.627
Channel 0 WQ ROW_BUFFER_HIT:        621
  ROW_BUFFER_MISS:       3937
  FULL:          0
Channel 0 REFRESHES ISSUED:       6690
