[VMEM] WARNING: physical memory size is smaller than virtual memory size.

*** ChampSim Multicore Out-of-Order Simulator ***
Warmup Instructions: 50000000
Simulation Instructions: 200000000
Number of CPUs: 1
Page size: 4096
Core 0: /local-ssd/ben/dpc4-traces/ai-ml/stable-diffusion.cpp-v2-1_768-nonema-pruned.1.champsimtrace.gz
sBerti (Smart Stride + Berti) Prefetcher Initialized
Off-chip DRAM Size: 64 GiB Channels: 1 Width: 64-bit Data Rate: 4807 MT/s
Heartbeat CPU 0 instructions: 500002 cycles: 317771 heartbeat IPC: 1.573 cumulative IPC: 1.573 (Simulation time: 00 hr 00 min 07 sec)
Heartbeat CPU 0 instructions: 1000003 cycles: 622274 heartbeat IPC: 1.642 cumulative IPC: 1.607 (Simulation time: 00 hr 00 min 14 sec)
Heartbeat CPU 0 instructions: 1500008 cycles: 924658 heartbeat IPC: 1.654 cumulative IPC: 1.622 (Simulation time: 00 hr 00 min 21 sec)
Heartbeat CPU 0 instructions: 2000010 cycles: 1229054 heartbeat IPC: 1.643 cumulative IPC: 1.627 (Simulation time: 00 hr 00 min 27 sec)
Heartbeat CPU 0 instructions: 2500015 cycles: 1536677 heartbeat IPC: 1.625 cumulative IPC: 1.627 (Simulation time: 00 hr 00 min 34 sec)
Heartbeat CPU 0 instructions: 3000015 cycles: 1837559 heartbeat IPC: 1.662 cumulative IPC: 1.633 (Simulation time: 00 hr 00 min 41 sec)
Heartbeat CPU 0 instructions: 3500015 cycles: 2144116 heartbeat IPC: 1.631 cumulative IPC: 1.632 (Simulation time: 00 hr 00 min 48 sec)
Heartbeat CPU 0 instructions: 4000016 cycles: 2445842 heartbeat IPC: 1.657 cumulative IPC: 1.635 (Simulation time: 00 hr 00 min 55 sec)
Heartbeat CPU 0 instructions: 4500019 cycles: 2749661 heartbeat IPC: 1.646 cumulative IPC: 1.637 (Simulation time: 00 hr 01 min 01 sec)
Heartbeat CPU 0 instructions: 5000019 cycles: 3063180 heartbeat IPC: 1.595 cumulative IPC: 1.632 (Simulation time: 00 hr 01 min 08 sec)
Heartbeat CPU 0 instructions: 5500020 cycles: 3366818 heartbeat IPC: 1.647 cumulative IPC: 1.634 (Simulation time: 00 hr 01 min 15 sec)
Heartbeat CPU 0 instructions: 6000020 cycles: 3672393 heartbeat IPC: 1.636 cumulative IPC: 1.634 (Simulation time: 00 hr 01 min 22 sec)
Heartbeat CPU 0 instructions: 6500021 cycles: 3954497 heartbeat IPC: 1.772 cumulative IPC: 1.644 (Simulation time: 00 hr 01 min 29 sec)
Heartbeat CPU 0 instructions: 7000023 cycles: 4231757 heartbeat IPC: 1.803 cumulative IPC: 1.654 (Simulation time: 00 hr 01 min 35 sec)
Heartbeat CPU 0 instructions: 7500029 cycles: 4508977 heartbeat IPC: 1.804 cumulative IPC: 1.663 (Simulation time: 00 hr 01 min 42 sec)
Heartbeat CPU 0 instructions: 8000029 cycles: 4786376 heartbeat IPC: 1.802 cumulative IPC: 1.671 (Simulation time: 00 hr 01 min 48 sec)
Heartbeat CPU 0 instructions: 8500029 cycles: 5063592 heartbeat IPC: 1.804 cumulative IPC: 1.679 (Simulation time: 00 hr 01 min 55 sec)
Heartbeat CPU 0 instructions: 9000029 cycles: 5344573 heartbeat IPC: 1.779 cumulative IPC: 1.684 (Simulation time: 00 hr 02 min 02 sec)
Heartbeat CPU 0 instructions: 9500034 cycles: 5621756 heartbeat IPC: 1.804 cumulative IPC: 1.69 (Simulation time: 00 hr 02 min 08 sec)
Heartbeat CPU 0 instructions: 10000038 cycles: 5898861 heartbeat IPC: 1.804 cumulative IPC: 1.695 (Simulation time: 00 hr 02 min 15 sec)
Heartbeat CPU 0 instructions: 10500042 cycles: 6176312 heartbeat IPC: 1.802 cumulative IPC: 1.7 (Simulation time: 00 hr 02 min 21 sec)
Heartbeat CPU 0 instructions: 11000044 cycles: 6475437 heartbeat IPC: 1.672 cumulative IPC: 1.699 (Simulation time: 00 hr 02 min 28 sec)
Heartbeat CPU 0 instructions: 11500044 cycles: 6752686 heartbeat IPC: 1.803 cumulative IPC: 1.703 (Simulation time: 00 hr 02 min 35 sec)
Heartbeat CPU 0 instructions: 12000044 cycles: 7029954 heartbeat IPC: 1.803 cumulative IPC: 1.707 (Simulation time: 00 hr 02 min 41 sec)
Heartbeat CPU 0 instructions: 12500045 cycles: 7309415 heartbeat IPC: 1.789 cumulative IPC: 1.71 (Simulation time: 00 hr 02 min 48 sec)
Heartbeat CPU 0 instructions: 13000045 cycles: 7586395 heartbeat IPC: 1.805 cumulative IPC: 1.714 (Simulation time: 00 hr 02 min 55 sec)
Heartbeat CPU 0 instructions: 13500046 cycles: 7863824 heartbeat IPC: 1.802 cumulative IPC: 1.717 (Simulation time: 00 hr 03 min 01 sec)
Heartbeat CPU 0 instructions: 14000046 cycles: 8141136 heartbeat IPC: 1.803 cumulative IPC: 1.72 (Simulation time: 00 hr 03 min 08 sec)
Heartbeat CPU 0 instructions: 14500047 cycles: 8418414 heartbeat IPC: 1.803 cumulative IPC: 1.722 (Simulation time: 00 hr 03 min 14 sec)
Heartbeat CPU 0 instructions: 15000049 cycles: 8695433 heartbeat IPC: 1.805 cumulative IPC: 1.725 (Simulation time: 00 hr 03 min 21 sec)
Heartbeat CPU 0 instructions: 15500049 cycles: 8972744 heartbeat IPC: 1.803 cumulative IPC: 1.727 (Simulation time: 00 hr 03 min 27 sec)
Heartbeat CPU 0 instructions: 16000053 cycles: 9249730 heartbeat IPC: 1.805 cumulative IPC: 1.73 (Simulation time: 00 hr 03 min 34 sec)
Heartbeat CPU 0 instructions: 16500058 cycles: 9526746 heartbeat IPC: 1.805 cumulative IPC: 1.732 (Simulation time: 00 hr 03 min 41 sec)
Heartbeat CPU 0 instructions: 17000062 cycles: 9822411 heartbeat IPC: 1.691 cumulative IPC: 1.731 (Simulation time: 00 hr 03 min 47 sec)
Heartbeat CPU 0 instructions: 17500067 cycles: 10099673 heartbeat IPC: 1.803 cumulative IPC: 1.733 (Simulation time: 00 hr 03 min 54 sec)
Heartbeat CPU 0 instructions: 18000074 cycles: 10376767 heartbeat IPC: 1.804 cumulative IPC: 1.735 (Simulation time: 00 hr 04 min 00 sec)
Heartbeat CPU 0 instructions: 18500078 cycles: 10659608 heartbeat IPC: 1.768 cumulative IPC: 1.736 (Simulation time: 00 hr 04 min 07 sec)
Heartbeat CPU 0 instructions: 19000080 cycles: 10936820 heartbeat IPC: 1.804 cumulative IPC: 1.737 (Simulation time: 00 hr 04 min 14 sec)
Heartbeat CPU 0 instructions: 19500085 cycles: 11214024 heartbeat IPC: 1.804 cumulative IPC: 1.739 (Simulation time: 00 hr 04 min 20 sec)
Heartbeat CPU 0 instructions: 20000091 cycles: 11494290 heartbeat IPC: 1.784 cumulative IPC: 1.74 (Simulation time: 00 hr 04 min 27 sec)
Heartbeat CPU 0 instructions: 20500098 cycles: 11771491 heartbeat IPC: 1.804 cumulative IPC: 1.742 (Simulation time: 00 hr 04 min 33 sec)
Heartbeat CPU 0 instructions: 21000100 cycles: 12052481 heartbeat IPC: 1.779 cumulative IPC: 1.742 (Simulation time: 00 hr 04 min 40 sec)
Heartbeat CPU 0 instructions: 21500103 cycles: 12329899 heartbeat IPC: 1.802 cumulative IPC: 1.744 (Simulation time: 00 hr 04 min 47 sec)
Heartbeat CPU 0 instructions: 22000107 cycles: 12607164 heartbeat IPC: 1.803 cumulative IPC: 1.745 (Simulation time: 00 hr 04 min 53 sec)
Heartbeat CPU 0 instructions: 22500114 cycles: 12884283 heartbeat IPC: 1.804 cumulative IPC: 1.746 (Simulation time: 00 hr 05 min 00 sec)
Heartbeat CPU 0 instructions: 23000118 cycles: 13180014 heartbeat IPC: 1.691 cumulative IPC: 1.745 (Simulation time: 00 hr 05 min 07 sec)
Heartbeat CPU 0 instructions: 23500120 cycles: 13457415 heartbeat IPC: 1.802 cumulative IPC: 1.746 (Simulation time: 00 hr 05 min 13 sec)
Heartbeat CPU 0 instructions: 24000121 cycles: 13734352 heartbeat IPC: 1.805 cumulative IPC: 1.747 (Simulation time: 00 hr 05 min 20 sec)
Heartbeat CPU 0 instructions: 24500125 cycles: 14013345 heartbeat IPC: 1.792 cumulative IPC: 1.748 (Simulation time: 00 hr 05 min 26 sec)
Heartbeat CPU 0 instructions: 25000126 cycles: 14290646 heartbeat IPC: 1.803 cumulative IPC: 1.749 (Simulation time: 00 hr 05 min 33 sec)
Heartbeat CPU 0 instructions: 25500126 cycles: 14567868 heartbeat IPC: 1.804 cumulative IPC: 1.75 (Simulation time: 00 hr 05 min 40 sec)
Heartbeat CPU 0 instructions: 26000133 cycles: 14845005 heartbeat IPC: 1.804 cumulative IPC: 1.751 (Simulation time: 00 hr 05 min 46 sec)
Heartbeat CPU 0 instructions: 26500140 cycles: 15121998 heartbeat IPC: 1.805 cumulative IPC: 1.752 (Simulation time: 00 hr 05 min 53 sec)
Heartbeat CPU 0 instructions: 27000147 cycles: 15399348 heartbeat IPC: 1.803 cumulative IPC: 1.753 (Simulation time: 00 hr 05 min 59 sec)
Heartbeat CPU 0 instructions: 27500147 cycles: 15676581 heartbeat IPC: 1.804 cumulative IPC: 1.754 (Simulation time: 00 hr 06 min 06 sec)
Heartbeat CPU 0 instructions: 28000151 cycles: 15953871 heartbeat IPC: 1.803 cumulative IPC: 1.755 (Simulation time: 00 hr 06 min 13 sec)
Heartbeat CPU 0 instructions: 28500151 cycles: 16230961 heartbeat IPC: 1.804 cumulative IPC: 1.756 (Simulation time: 00 hr 06 min 19 sec)
Heartbeat CPU 0 instructions: 29000156 cycles: 16511284 heartbeat IPC: 1.784 cumulative IPC: 1.756 (Simulation time: 00 hr 06 min 26 sec)
Heartbeat CPU 0 instructions: 29500157 cycles: 16804726 heartbeat IPC: 1.704 cumulative IPC: 1.755 (Simulation time: 00 hr 06 min 33 sec)
Heartbeat CPU 0 instructions: 30000159 cycles: 17081753 heartbeat IPC: 1.805 cumulative IPC: 1.756 (Simulation time: 00 hr 06 min 39 sec)
Heartbeat CPU 0 instructions: 30500164 cycles: 17359094 heartbeat IPC: 1.803 cumulative IPC: 1.757 (Simulation time: 00 hr 06 min 46 sec)
Heartbeat CPU 0 instructions: 31000167 cycles: 17645738 heartbeat IPC: 1.744 cumulative IPC: 1.757 (Simulation time: 00 hr 06 min 53 sec)
Heartbeat CPU 0 instructions: 31500174 cycles: 17922843 heartbeat IPC: 1.804 cumulative IPC: 1.758 (Simulation time: 00 hr 06 min 59 sec)
Heartbeat CPU 0 instructions: 32000176 cycles: 18199982 heartbeat IPC: 1.804 cumulative IPC: 1.758 (Simulation time: 00 hr 07 min 06 sec)
Heartbeat CPU 0 instructions: 32500176 cycles: 18477439 heartbeat IPC: 1.802 cumulative IPC: 1.759 (Simulation time: 00 hr 07 min 12 sec)
Heartbeat CPU 0 instructions: 33000176 cycles: 18754477 heartbeat IPC: 1.805 cumulative IPC: 1.76 (Simulation time: 00 hr 07 min 19 sec)
Heartbeat CPU 0 instructions: 33500176 cycles: 19031746 heartbeat IPC: 1.803 cumulative IPC: 1.76 (Simulation time: 00 hr 07 min 25 sec)
Heartbeat CPU 0 instructions: 34000181 cycles: 19309128 heartbeat IPC: 1.803 cumulative IPC: 1.761 (Simulation time: 00 hr 07 min 32 sec)
Heartbeat CPU 0 instructions: 34500181 cycles: 19586201 heartbeat IPC: 1.805 cumulative IPC: 1.761 (Simulation time: 00 hr 07 min 39 sec)
Heartbeat CPU 0 instructions: 35000183 cycles: 19863463 heartbeat IPC: 1.803 cumulative IPC: 1.762 (Simulation time: 00 hr 07 min 45 sec)
Heartbeat CPU 0 instructions: 35500186 cycles: 20158772 heartbeat IPC: 1.693 cumulative IPC: 1.761 (Simulation time: 00 hr 07 min 52 sec)
Heartbeat CPU 0 instructions: 36000193 cycles: 20435937 heartbeat IPC: 1.804 cumulative IPC: 1.762 (Simulation time: 00 hr 07 min 59 sec)
Heartbeat CPU 0 instructions: 36500194 cycles: 20713146 heartbeat IPC: 1.804 cumulative IPC: 1.762 (Simulation time: 00 hr 08 min 05 sec)
Heartbeat CPU 0 instructions: 37000194 cycles: 20993981 heartbeat IPC: 1.78 cumulative IPC: 1.762 (Simulation time: 00 hr 08 min 12 sec)
Heartbeat CPU 0 instructions: 37500196 cycles: 21271172 heartbeat IPC: 1.804 cumulative IPC: 1.763 (Simulation time: 00 hr 08 min 19 sec)
Heartbeat CPU 0 instructions: 38000200 cycles: 21548313 heartbeat IPC: 1.804 cumulative IPC: 1.763 (Simulation time: 00 hr 08 min 25 sec)
Heartbeat CPU 0 instructions: 38500202 cycles: 21825599 heartbeat IPC: 1.803 cumulative IPC: 1.764 (Simulation time: 00 hr 08 min 32 sec)
Heartbeat CPU 0 instructions: 39000205 cycles: 22102844 heartbeat IPC: 1.803 cumulative IPC: 1.764 (Simulation time: 00 hr 08 min 39 sec)
Heartbeat CPU 0 instructions: 39500206 cycles: 22380173 heartbeat IPC: 1.803 cumulative IPC: 1.765 (Simulation time: 00 hr 08 min 45 sec)
Heartbeat CPU 0 instructions: 40000208 cycles: 22661039 heartbeat IPC: 1.78 cumulative IPC: 1.765 (Simulation time: 00 hr 08 min 52 sec)
Heartbeat CPU 0 instructions: 40500211 cycles: 22938278 heartbeat IPC: 1.804 cumulative IPC: 1.766 (Simulation time: 00 hr 08 min 58 sec)
Heartbeat CPU 0 instructions: 41000212 cycles: 23215557 heartbeat IPC: 1.803 cumulative IPC: 1.766 (Simulation time: 00 hr 09 min 05 sec)
Heartbeat CPU 0 instructions: 41500212 cycles: 23513457 heartbeat IPC: 1.678 cumulative IPC: 1.765 (Simulation time: 00 hr 09 min 12 sec)
Heartbeat CPU 0 instructions: 42000216 cycles: 23790697 heartbeat IPC: 1.804 cumulative IPC: 1.765 (Simulation time: 00 hr 09 min 19 sec)
Heartbeat CPU 0 instructions: 42500216 cycles: 24067747 heartbeat IPC: 1.805 cumulative IPC: 1.766 (Simulation time: 00 hr 09 min 25 sec)
Heartbeat CPU 0 instructions: 43000216 cycles: 24350359 heartbeat IPC: 1.769 cumulative IPC: 1.766 (Simulation time: 00 hr 09 min 32 sec)
Heartbeat CPU 0 instructions: 43500216 cycles: 24627587 heartbeat IPC: 1.804 cumulative IPC: 1.766 (Simulation time: 00 hr 09 min 38 sec)
Heartbeat CPU 0 instructions: 44000222 cycles: 24904776 heartbeat IPC: 1.804 cumulative IPC: 1.767 (Simulation time: 00 hr 09 min 45 sec)
Heartbeat CPU 0 instructions: 44500225 cycles: 25181842 heartbeat IPC: 1.805 cumulative IPC: 1.767 (Simulation time: 00 hr 09 min 52 sec)
Heartbeat CPU 0 instructions: 45000226 cycles: 25459034 heartbeat IPC: 1.804 cumulative IPC: 1.768 (Simulation time: 00 hr 09 min 58 sec)
Heartbeat CPU 0 instructions: 45500228 cycles: 25736256 heartbeat IPC: 1.804 cumulative IPC: 1.768 (Simulation time: 00 hr 10 min 05 sec)
Heartbeat CPU 0 instructions: 46000231 cycles: 26013306 heartbeat IPC: 1.805 cumulative IPC: 1.768 (Simulation time: 00 hr 10 min 11 sec)
Heartbeat CPU 0 instructions: 46500235 cycles: 26290808 heartbeat IPC: 1.802 cumulative IPC: 1.769 (Simulation time: 00 hr 10 min 18 sec)
Heartbeat CPU 0 instructions: 47000235 cycles: 26567874 heartbeat IPC: 1.805 cumulative IPC: 1.769 (Simulation time: 00 hr 10 min 25 sec)
Heartbeat CPU 0 instructions: 47500237 cycles: 26861643 heartbeat IPC: 1.702 cumulative IPC: 1.768 (Simulation time: 00 hr 10 min 31 sec)
Heartbeat CPU 0 instructions: 48000241 cycles: 27138930 heartbeat IPC: 1.803 cumulative IPC: 1.769 (Simulation time: 00 hr 10 min 38 sec)
Heartbeat CPU 0 instructions: 48500241 cycles: 27416276 heartbeat IPC: 1.803 cumulative IPC: 1.769 (Simulation time: 00 hr 10 min 45 sec)
Heartbeat CPU 0 instructions: 49000241 cycles: 27697517 heartbeat IPC: 1.778 cumulative IPC: 1.769 (Simulation time: 00 hr 10 min 51 sec)
Heartbeat CPU 0 instructions: 49500247 cycles: 27974641 heartbeat IPC: 1.804 cumulative IPC: 1.769 (Simulation time: 00 hr 10 min 58 sec)
Warmup halting CPU 0 at instruction 50000002 cycle 28251807 for remainder of phase
Warmup finished CPU 0 instructions: 50000002 cycles: 28251807 cumulative IPC: 1.77 (Simulation time: 00 hr 11 min 04 sec)
Warmup complete CPU 0 instructions: 50000002 cycles: 28251807 cumulative IPC: 1.77 (Simulation time: 00 hr 11 min 04 sec)
Heartbeat CPU 0 instructions: 50000252 cycles: 28252047 heartbeat IPC: 1.802 cumulative IPC: 1.042 (Simulation time: 00 hr 11 min 04 sec)
Heartbeat CPU 0 instructions: 50500256 cycles: 28616871 heartbeat IPC: 1.371 cumulative IPC: 1.37 (Simulation time: 00 hr 11 min 11 sec)
Heartbeat CPU 0 instructions: 51000260 cycles: 28992951 heartbeat IPC: 1.33 cumulative IPC: 1.35 (Simulation time: 00 hr 11 min 17 sec)
Heartbeat CPU 0 instructions: 51500261 cycles: 29367551 heartbeat IPC: 1.335 cumulative IPC: 1.345 (Simulation time: 00 hr 11 min 23 sec)
Heartbeat CPU 0 instructions: 52000262 cycles: 29742203 heartbeat IPC: 1.335 cumulative IPC: 1.342 (Simulation time: 00 hr 11 min 29 sec)
Heartbeat CPU 0 instructions: 52500264 cycles: 30104815 heartbeat IPC: 1.379 cumulative IPC: 1.349 (Simulation time: 00 hr 11 min 36 sec)
Heartbeat CPU 0 instructions: 53000267 cycles: 30462288 heartbeat IPC: 1.399 cumulative IPC: 1.357 (Simulation time: 00 hr 11 min 42 sec)
Heartbeat CPU 0 instructions: 53500272 cycles: 30825181 heartbeat IPC: 1.378 cumulative IPC: 1.36 (Simulation time: 00 hr 11 min 48 sec)
Heartbeat CPU 0 instructions: 54000273 cycles: 31164960 heartbeat IPC: 1.472 cumulative IPC: 1.373 (Simulation time: 00 hr 11 min 54 sec)
Heartbeat CPU 0 instructions: 54500273 cycles: 31505721 heartbeat IPC: 1.467 cumulative IPC: 1.383 (Simulation time: 00 hr 12 min 00 sec)
Heartbeat CPU 0 instructions: 55000275 cycles: 31849667 heartbeat IPC: 1.454 cumulative IPC: 1.39 (Simulation time: 00 hr 12 min 06 sec)
Heartbeat CPU 0 instructions: 55500277 cycles: 32235942 heartbeat IPC: 1.294 cumulative IPC: 1.381 (Simulation time: 00 hr 12 min 12 sec)
Heartbeat CPU 0 instructions: 56000277 cycles: 32605568 heartbeat IPC: 1.353 cumulative IPC: 1.378 (Simulation time: 00 hr 12 min 18 sec)
Heartbeat CPU 0 instructions: 56500280 cycles: 32985294 heartbeat IPC: 1.317 cumulative IPC: 1.373 (Simulation time: 00 hr 12 min 25 sec)
Heartbeat CPU 0 instructions: 57000280 cycles: 33355475 heartbeat IPC: 1.351 cumulative IPC: 1.372 (Simulation time: 00 hr 12 min 31 sec)
Heartbeat CPU 0 instructions: 57500281 cycles: 33736879 heartbeat IPC: 1.311 cumulative IPC: 1.367 (Simulation time: 00 hr 12 min 37 sec)
Heartbeat CPU 0 instructions: 58000283 cycles: 34107404 heartbeat IPC: 1.349 cumulative IPC: 1.366 (Simulation time: 00 hr 12 min 43 sec)
Heartbeat CPU 0 instructions: 58500285 cycles: 34474353 heartbeat IPC: 1.363 cumulative IPC: 1.366 (Simulation time: 00 hr 12 min 50 sec)
Heartbeat CPU 0 instructions: 59000290 cycles: 34834153 heartbeat IPC: 1.39 cumulative IPC: 1.367 (Simulation time: 00 hr 12 min 56 sec)
Heartbeat CPU 0 instructions: 59500293 cycles: 35179151 heartbeat IPC: 1.449 cumulative IPC: 1.371 (Simulation time: 00 hr 13 min 02 sec)
Heartbeat CPU 0 instructions: 60000295 cycles: 35539387 heartbeat IPC: 1.388 cumulative IPC: 1.372 (Simulation time: 00 hr 13 min 08 sec)
Heartbeat CPU 0 instructions: 60500300 cycles: 35876970 heartbeat IPC: 1.481 cumulative IPC: 1.377 (Simulation time: 00 hr 13 min 14 sec)
Heartbeat CPU 0 instructions: 61000303 cycles: 36216600 heartbeat IPC: 1.472 cumulative IPC: 1.381 (Simulation time: 00 hr 13 min 20 sec)
Heartbeat CPU 0 instructions: 61500303 cycles: 36594284 heartbeat IPC: 1.324 cumulative IPC: 1.379 (Simulation time: 00 hr 13 min 26 sec)
Heartbeat CPU 0 instructions: 62000307 cycles: 36975845 heartbeat IPC: 1.31 cumulative IPC: 1.376 (Simulation time: 00 hr 13 min 32 sec)
Heartbeat CPU 0 instructions: 62500308 cycles: 37347104 heartbeat IPC: 1.347 cumulative IPC: 1.374 (Simulation time: 00 hr 13 min 39 sec)
Heartbeat CPU 0 instructions: 63000312 cycles: 37727393 heartbeat IPC: 1.315 cumulative IPC: 1.372 (Simulation time: 00 hr 13 min 45 sec)
Heartbeat CPU 0 instructions: 63500313 cycles: 38106438 heartbeat IPC: 1.319 cumulative IPC: 1.37 (Simulation time: 00 hr 13 min 51 sec)
Heartbeat CPU 0 instructions: 64000313 cycles: 38475808 heartbeat IPC: 1.354 cumulative IPC: 1.369 (Simulation time: 00 hr 13 min 58 sec)
Heartbeat CPU 0 instructions: 64500316 cycles: 38846624 heartbeat IPC: 1.348 cumulative IPC: 1.369 (Simulation time: 00 hr 14 min 04 sec)
Heartbeat CPU 0 instructions: 65000316 cycles: 39199798 heartbeat IPC: 1.416 cumulative IPC: 1.37 (Simulation time: 00 hr 14 min 10 sec)
Heartbeat CPU 0 instructions: 65500320 cycles: 39554741 heartbeat IPC: 1.409 cumulative IPC: 1.371 (Simulation time: 00 hr 14 min 16 sec)
Heartbeat CPU 0 instructions: 66000320 cycles: 39914223 heartbeat IPC: 1.391 cumulative IPC: 1.372 (Simulation time: 00 hr 14 min 22 sec)
Heartbeat CPU 0 instructions: 66500323 cycles: 40258287 heartbeat IPC: 1.453 cumulative IPC: 1.374 (Simulation time: 00 hr 14 min 28 sec)
Heartbeat CPU 0 instructions: 67000323 cycles: 40594784 heartbeat IPC: 1.486 cumulative IPC: 1.377 (Simulation time: 00 hr 14 min 34 sec)
Heartbeat CPU 0 instructions: 67500324 cycles: 40966019 heartbeat IPC: 1.347 cumulative IPC: 1.376 (Simulation time: 00 hr 14 min 40 sec)
Heartbeat CPU 0 instructions: 68000324 cycles: 41336985 heartbeat IPC: 1.348 cumulative IPC: 1.376 (Simulation time: 00 hr 14 min 46 sec)
Heartbeat CPU 0 instructions: 68500325 cycles: 41717680 heartbeat IPC: 1.313 cumulative IPC: 1.374 (Simulation time: 00 hr 14 min 53 sec)
Heartbeat CPU 0 instructions: 69000328 cycles: 42099598 heartbeat IPC: 1.309 cumulative IPC: 1.372 (Simulation time: 00 hr 14 min 59 sec)
Heartbeat CPU 0 instructions: 69500329 cycles: 42470363 heartbeat IPC: 1.349 cumulative IPC: 1.371 (Simulation time: 00 hr 15 min 05 sec)
Heartbeat CPU 0 instructions: 70000332 cycles: 42848368 heartbeat IPC: 1.323 cumulative IPC: 1.37 (Simulation time: 00 hr 15 min 12 sec)
Heartbeat CPU 0 instructions: 70500332 cycles: 43210086 heartbeat IPC: 1.382 cumulative IPC: 1.371 (Simulation time: 00 hr 15 min 18 sec)
Heartbeat CPU 0 instructions: 71000334 cycles: 43575890 heartbeat IPC: 1.367 cumulative IPC: 1.37 (Simulation time: 00 hr 15 min 24 sec)
Heartbeat CPU 0 instructions: 71500336 cycles: 43928938 heartbeat IPC: 1.416 cumulative IPC: 1.371 (Simulation time: 00 hr 15 min 30 sec)
Heartbeat CPU 0 instructions: 72000336 cycles: 44291454 heartbeat IPC: 1.379 cumulative IPC: 1.372 (Simulation time: 00 hr 15 min 36 sec)
Heartbeat CPU 0 instructions: 72500339 cycles: 44627985 heartbeat IPC: 1.486 cumulative IPC: 1.374 (Simulation time: 00 hr 15 min 42 sec)
Heartbeat CPU 0 instructions: 73000341 cycles: 44970437 heartbeat IPC: 1.46 cumulative IPC: 1.376 (Simulation time: 00 hr 15 min 48 sec)
Heartbeat CPU 0 instructions: 73500342 cycles: 45333848 heartbeat IPC: 1.376 cumulative IPC: 1.376 (Simulation time: 00 hr 15 min 54 sec)
Heartbeat CPU 0 instructions: 74000343 cycles: 45710302 heartbeat IPC: 1.328 cumulative IPC: 1.375 (Simulation time: 00 hr 16 min 00 sec)
Heartbeat CPU 0 instructions: 74500345 cycles: 46090989 heartbeat IPC: 1.313 cumulative IPC: 1.373 (Simulation time: 00 hr 16 min 07 sec)
Heartbeat CPU 0 instructions: 75000347 cycles: 46460873 heartbeat IPC: 1.352 cumulative IPC: 1.373 (Simulation time: 00 hr 16 min 13 sec)
Heartbeat CPU 0 instructions: 75500347 cycles: 46840798 heartbeat IPC: 1.316 cumulative IPC: 1.372 (Simulation time: 00 hr 16 min 19 sec)
Heartbeat CPU 0 instructions: 76000347 cycles: 47213570 heartbeat IPC: 1.341 cumulative IPC: 1.371 (Simulation time: 00 hr 16 min 26 sec)
Heartbeat CPU 0 instructions: 76500351 cycles: 47583118 heartbeat IPC: 1.353 cumulative IPC: 1.371 (Simulation time: 00 hr 16 min 32 sec)
Heartbeat CPU 0 instructions: 77000352 cycles: 47944034 heartbeat IPC: 1.385 cumulative IPC: 1.371 (Simulation time: 00 hr 16 min 38 sec)
Heartbeat CPU 0 instructions: 77500352 cycles: 48300177 heartbeat IPC: 1.404 cumulative IPC: 1.372 (Simulation time: 00 hr 16 min 44 sec)
Heartbeat CPU 0 instructions: 78000352 cycles: 48658463 heartbeat IPC: 1.396 cumulative IPC: 1.372 (Simulation time: 00 hr 16 min 50 sec)
Heartbeat CPU 0 instructions: 78500355 cycles: 49000518 heartbeat IPC: 1.462 cumulative IPC: 1.374 (Simulation time: 00 hr 16 min 56 sec)
Heartbeat CPU 0 instructions: 79000360 cycles: 49343061 heartbeat IPC: 1.46 cumulative IPC: 1.375 (Simulation time: 00 hr 17 min 02 sec)
Heartbeat CPU 0 instructions: 79500367 cycles: 49693043 heartbeat IPC: 1.429 cumulative IPC: 1.376 (Simulation time: 00 hr 17 min 08 sec)
Heartbeat CPU 0 instructions: 80000369 cycles: 50077170 heartbeat IPC: 1.302 cumulative IPC: 1.375 (Simulation time: 00 hr 17 min 14 sec)
Heartbeat CPU 0 instructions: 80500371 cycles: 50448692 heartbeat IPC: 1.346 cumulative IPC: 1.374 (Simulation time: 00 hr 17 min 21 sec)
Heartbeat CPU 0 instructions: 81000376 cycles: 50828004 heartbeat IPC: 1.318 cumulative IPC: 1.373 (Simulation time: 00 hr 17 min 27 sec)
Heartbeat CPU 0 instructions: 81500378 cycles: 51200854 heartbeat IPC: 1.341 cumulative IPC: 1.373 (Simulation time: 00 hr 17 min 33 sec)
Heartbeat CPU 0 instructions: 82000381 cycles: 51579719 heartbeat IPC: 1.32 cumulative IPC: 1.372 (Simulation time: 00 hr 17 min 40 sec)
Heartbeat CPU 0 instructions: 82500384 cycles: 51943673 heartbeat IPC: 1.374 cumulative IPC: 1.372 (Simulation time: 00 hr 17 min 46 sec)
Heartbeat CPU 0 instructions: 83000386 cycles: 52313267 heartbeat IPC: 1.353 cumulative IPC: 1.372 (Simulation time: 00 hr 17 min 52 sec)
Heartbeat CPU 0 instructions: 83500390 cycles: 52668602 heartbeat IPC: 1.407 cumulative IPC: 1.372 (Simulation time: 00 hr 17 min 58 sec)
Heartbeat CPU 0 instructions: 84000392 cycles: 53130296 heartbeat IPC: 1.083 cumulative IPC: 1.367 (Simulation time: 00 hr 18 min 06 sec)
Heartbeat CPU 0 instructions: 84500395 cycles: 53746617 heartbeat IPC: 0.8113 cumulative IPC: 1.353 (Simulation time: 00 hr 18 min 15 sec)
Heartbeat CPU 0 instructions: 85000395 cycles: 53871410 heartbeat IPC: 4.007 cumulative IPC: 1.366 (Simulation time: 00 hr 18 min 17 sec)
Heartbeat CPU 0 instructions: 85500399 cycles: 53996263 heartbeat IPC: 4.005 cumulative IPC: 1.379 (Simulation time: 00 hr 18 min 19 sec)
Heartbeat CPU 0 instructions: 86000399 cycles: 54124821 heartbeat IPC: 3.889 cumulative IPC: 1.391 (Simulation time: 00 hr 18 min 21 sec)
Heartbeat CPU 0 instructions: 86500401 cycles: 54249757 heartbeat IPC: 4.002 cumulative IPC: 1.404 (Simulation time: 00 hr 18 min 24 sec)
Heartbeat CPU 0 instructions: 87000401 cycles: 54377433 heartbeat IPC: 3.916 cumulative IPC: 1.416 (Simulation time: 00 hr 18 min 26 sec)
Heartbeat CPU 0 instructions: 87500404 cycles: 54504317 heartbeat IPC: 3.941 cumulative IPC: 1.428 (Simulation time: 00 hr 18 min 28 sec)
Heartbeat CPU 0 instructions: 88000410 cycles: 54630025 heartbeat IPC: 3.978 cumulative IPC: 1.441 (Simulation time: 00 hr 18 min 31 sec)
Heartbeat CPU 0 instructions: 88500410 cycles: 54757740 heartbeat IPC: 3.915 cumulative IPC: 1.453 (Simulation time: 00 hr 18 min 33 sec)
Heartbeat CPU 0 instructions: 89000412 cycles: 54884565 heartbeat IPC: 3.942 cumulative IPC: 1.464 (Simulation time: 00 hr 18 min 35 sec)
Heartbeat CPU 0 instructions: 89500412 cycles: 55010987 heartbeat IPC: 3.955 cumulative IPC: 1.476 (Simulation time: 00 hr 18 min 38 sec)
Heartbeat CPU 0 instructions: 90000414 cycles: 55137442 heartbeat IPC: 3.954 cumulative IPC: 1.488 (Simulation time: 00 hr 18 min 40 sec)
Heartbeat CPU 0 instructions: 90500414 cycles: 55262151 heartbeat IPC: 4.009 cumulative IPC: 1.499 (Simulation time: 00 hr 18 min 42 sec)
Heartbeat CPU 0 instructions: 91000418 cycles: 55386810 heartbeat IPC: 4.011 cumulative IPC: 1.511 (Simulation time: 00 hr 18 min 45 sec)
Heartbeat CPU 0 instructions: 91500418 cycles: 55513170 heartbeat IPC: 3.957 cumulative IPC: 1.522 (Simulation time: 00 hr 18 min 47 sec)
Heartbeat CPU 0 instructions: 92000423 cycles: 55639312 heartbeat IPC: 3.964 cumulative IPC: 1.534 (Simulation time: 00 hr 18 min 49 sec)
Heartbeat CPU 0 instructions: 92500423 cycles: 55765007 heartbeat IPC: 3.978 cumulative IPC: 1.545 (Simulation time: 00 hr 18 min 52 sec)
Heartbeat CPU 0 instructions: 93000424 cycles: 55891612 heartbeat IPC: 3.949 cumulative IPC: 1.556 (Simulation time: 00 hr 18 min 54 sec)
Heartbeat CPU 0 instructions: 93500424 cycles: 56016983 heartbeat IPC: 3.988 cumulative IPC: 1.567 (Simulation time: 00 hr 18 min 56 sec)
Heartbeat CPU 0 instructions: 94000429 cycles: 56143570 heartbeat IPC: 3.95 cumulative IPC: 1.578 (Simulation time: 00 hr 18 min 59 sec)
Heartbeat CPU 0 instructions: 94500434 cycles: 56268070 heartbeat IPC: 4.016 cumulative IPC: 1.588 (Simulation time: 00 hr 19 min 01 sec)
Heartbeat CPU 0 instructions: 95000435 cycles: 56393054 heartbeat IPC: 4.001 cumulative IPC: 1.599 (Simulation time: 00 hr 19 min 03 sec)
Heartbeat CPU 0 instructions: 95500437 cycles: 56521325 heartbeat IPC: 3.898 cumulative IPC: 1.61 (Simulation time: 00 hr 19 min 06 sec)
Heartbeat CPU 0 instructions: 96000443 cycles: 56646470 heartbeat IPC: 3.995 cumulative IPC: 1.62 (Simulation time: 00 hr 19 min 08 sec)
Heartbeat CPU 0 instructions: 96500448 cycles: 56770233 heartbeat IPC: 4.04 cumulative IPC: 1.631 (Simulation time: 00 hr 19 min 10 sec)
Heartbeat CPU 0 instructions: 97000452 cycles: 56899409 heartbeat IPC: 3.871 cumulative IPC: 1.641 (Simulation time: 00 hr 19 min 13 sec)
Heartbeat CPU 0 instructions: 97500457 cycles: 57024308 heartbeat IPC: 4.003 cumulative IPC: 1.651 (Simulation time: 00 hr 19 min 15 sec)
Heartbeat CPU 0 instructions: 98000457 cycles: 57148683 heartbeat IPC: 4.02 cumulative IPC: 1.661 (Simulation time: 00 hr 19 min 17 sec)
Heartbeat CPU 0 instructions: 98500462 cycles: 57275865 heartbeat IPC: 3.931 cumulative IPC: 1.671 (Simulation time: 00 hr 19 min 19 sec)
Heartbeat CPU 0 instructions: 99000463 cycles: 57400982 heartbeat IPC: 3.996 cumulative IPC: 1.681 (Simulation time: 00 hr 19 min 22 sec)
Heartbeat CPU 0 instructions: 99500463 cycles: 57526325 heartbeat IPC: 3.989 cumulative IPC: 1.691 (Simulation time: 00 hr 19 min 24 sec)
Heartbeat CPU 0 instructions: 100000468 cycles: 57651646 heartbeat IPC: 3.99 cumulative IPC: 1.701 (Simulation time: 00 hr 19 min 26 sec)
Heartbeat CPU 0 instructions: 100500468 cycles: 57775320 heartbeat IPC: 4.043 cumulative IPC: 1.711 (Simulation time: 00 hr 19 min 29 sec)
Heartbeat CPU 0 instructions: 101000473 cycles: 57901029 heartbeat IPC: 3.977 cumulative IPC: 1.72 (Simulation time: 00 hr 19 min 31 sec)
Heartbeat CPU 0 instructions: 101500477 cycles: 58027095 heartbeat IPC: 3.966 cumulative IPC: 1.73 (Simulation time: 00 hr 19 min 33 sec)
Heartbeat CPU 0 instructions: 102000478 cycles: 58151728 heartbeat IPC: 4.012 cumulative IPC: 1.739 (Simulation time: 00 hr 19 min 36 sec)
Heartbeat CPU 0 instructions: 102500479 cycles: 58278476 heartbeat IPC: 3.945 cumulative IPC: 1.748 (Simulation time: 00 hr 19 min 38 sec)
Heartbeat CPU 0 instructions: 103000479 cycles: 58402730 heartbeat IPC: 4.024 cumulative IPC: 1.758 (Simulation time: 00 hr 19 min 40 sec)
Heartbeat CPU 0 instructions: 103500483 cycles: 58527028 heartbeat IPC: 4.023 cumulative IPC: 1.767 (Simulation time: 00 hr 19 min 42 sec)
Heartbeat CPU 0 instructions: 104000488 cycles: 58655319 heartbeat IPC: 3.897 cumulative IPC: 1.776 (Simulation time: 00 hr 19 min 45 sec)
Heartbeat CPU 0 instructions: 104500489 cycles: 58779186 heartbeat IPC: 4.037 cumulative IPC: 1.785 (Simulation time: 00 hr 19 min 47 sec)
Heartbeat CPU 0 instructions: 105000493 cycles: 58903479 heartbeat IPC: 4.023 cumulative IPC: 1.794 (Simulation time: 00 hr 19 min 49 sec)
Heartbeat CPU 0 instructions: 105500494 cycles: 59029741 heartbeat IPC: 3.96 cumulative IPC: 1.803 (Simulation time: 00 hr 19 min 52 sec)
Heartbeat CPU 0 instructions: 106000494 cycles: 59155536 heartbeat IPC: 3.975 cumulative IPC: 1.812 (Simulation time: 00 hr 19 min 54 sec)
Heartbeat CPU 0 instructions: 106500494 cycles: 59281125 heartbeat IPC: 3.981 cumulative IPC: 1.821 (Simulation time: 00 hr 19 min 56 sec)
Heartbeat CPU 0 instructions: 107000496 cycles: 59405856 heartbeat IPC: 4.009 cumulative IPC: 1.83 (Simulation time: 00 hr 19 min 59 sec)
Heartbeat CPU 0 instructions: 107500496 cycles: 59530649 heartbeat IPC: 4.007 cumulative IPC: 1.838 (Simulation time: 00 hr 20 min 01 sec)
Heartbeat CPU 0 instructions: 108000500 cycles: 59657470 heartbeat IPC: 3.943 cumulative IPC: 1.847 (Simulation time: 00 hr 20 min 03 sec)
Heartbeat CPU 0 instructions: 108500501 cycles: 59780640 heartbeat IPC: 4.059 cumulative IPC: 1.855 (Simulation time: 00 hr 20 min 06 sec)
Heartbeat CPU 0 instructions: 109000505 cycles: 59904140 heartbeat IPC: 4.049 cumulative IPC: 1.864 (Simulation time: 00 hr 20 min 08 sec)
Heartbeat CPU 0 instructions: 109500505 cycles: 60030822 heartbeat IPC: 3.947 cumulative IPC: 1.872 (Simulation time: 00 hr 20 min 10 sec)
Heartbeat CPU 0 instructions: 110000511 cycles: 60156458 heartbeat IPC: 3.98 cumulative IPC: 1.881 (Simulation time: 00 hr 20 min 13 sec)
Heartbeat CPU 0 instructions: 110500512 cycles: 60280920 heartbeat IPC: 4.017 cumulative IPC: 1.889 (Simulation time: 00 hr 20 min 15 sec)
Heartbeat CPU 0 instructions: 111000519 cycles: 60408448 heartbeat IPC: 3.921 cumulative IPC: 1.897 (Simulation time: 00 hr 20 min 17 sec)
Heartbeat CPU 0 instructions: 111500524 cycles: 60532463 heartbeat IPC: 4.032 cumulative IPC: 1.905 (Simulation time: 00 hr 20 min 19 sec)
Heartbeat CPU 0 instructions: 112000529 cycles: 60663496 heartbeat IPC: 3.816 cumulative IPC: 1.913 (Simulation time: 00 hr 20 min 22 sec)
Heartbeat CPU 0 instructions: 112500529 cycles: 60895343 heartbeat IPC: 2.157 cumulative IPC: 1.915 (Simulation time: 00 hr 20 min 26 sec)
Heartbeat CPU 0 instructions: 113000530 cycles: 61227793 heartbeat IPC: 1.504 cumulative IPC: 1.91 (Simulation time: 00 hr 20 min 29 sec)
Heartbeat CPU 0 instructions: 113500530 cycles: 61560183 heartbeat IPC: 1.504 cumulative IPC: 1.906 (Simulation time: 00 hr 20 min 33 sec)
Heartbeat CPU 0 instructions: 114000533 cycles: 61892725 heartbeat IPC: 1.504 cumulative IPC: 1.902 (Simulation time: 00 hr 20 min 37 sec)
Heartbeat CPU 0 instructions: 114500537 cycles: 62225139 heartbeat IPC: 1.504 cumulative IPC: 1.899 (Simulation time: 00 hr 20 min 41 sec)
Heartbeat CPU 0 instructions: 115000544 cycles: 62557541 heartbeat IPC: 1.504 cumulative IPC: 1.895 (Simulation time: 00 hr 20 min 45 sec)
Heartbeat CPU 0 instructions: 115500545 cycles: 62890159 heartbeat IPC: 1.503 cumulative IPC: 1.891 (Simulation time: 00 hr 20 min 49 sec)
Heartbeat CPU 0 instructions: 116000545 cycles: 63222506 heartbeat IPC: 1.504 cumulative IPC: 1.887 (Simulation time: 00 hr 20 min 53 sec)
Heartbeat CPU 0 instructions: 116500547 cycles: 63555094 heartbeat IPC: 1.503 cumulative IPC: 1.884 (Simulation time: 00 hr 20 min 57 sec)
Heartbeat CPU 0 instructions: 117000548 cycles: 63887534 heartbeat IPC: 1.504 cumulative IPC: 1.88 (Simulation time: 00 hr 21 min 01 sec)
Heartbeat CPU 0 instructions: 117500549 cycles: 64219995 heartbeat IPC: 1.504 cumulative IPC: 1.877 (Simulation time: 00 hr 21 min 05 sec)
Heartbeat CPU 0 instructions: 118000551 cycles: 64552472 heartbeat IPC: 1.504 cumulative IPC: 1.873 (Simulation time: 00 hr 21 min 08 sec)
Heartbeat CPU 0 instructions: 118500551 cycles: 64884972 heartbeat IPC: 1.504 cumulative IPC: 1.87 (Simulation time: 00 hr 21 min 12 sec)
Heartbeat CPU 0 instructions: 119000557 cycles: 65217612 heartbeat IPC: 1.503 cumulative IPC: 1.867 (Simulation time: 00 hr 21 min 16 sec)
Heartbeat CPU 0 instructions: 119500559 cycles: 65439143 heartbeat IPC: 2.257 cumulative IPC: 1.869 (Simulation time: 00 hr 21 min 19 sec)
Heartbeat CPU 0 instructions: 120000566 cycles: 65542918 heartbeat IPC: 4.818 cumulative IPC: 1.877 (Simulation time: 00 hr 21 min 21 sec)
Heartbeat CPU 0 instructions: 120500572 cycles: 65646671 heartbeat IPC: 4.819 cumulative IPC: 1.885 (Simulation time: 00 hr 21 min 23 sec)
Heartbeat CPU 0 instructions: 121000578 cycles: 65750433 heartbeat IPC: 4.819 cumulative IPC: 1.893 (Simulation time: 00 hr 21 min 25 sec)
Heartbeat CPU 0 instructions: 121500582 cycles: 65854204 heartbeat IPC: 4.818 cumulative IPC: 1.901 (Simulation time: 00 hr 21 min 27 sec)
Heartbeat CPU 0 instructions: 122000586 cycles: 65960388 heartbeat IPC: 4.709 cumulative IPC: 1.909 (Simulation time: 00 hr 21 min 29 sec)
Heartbeat CPU 0 instructions: 122500592 cycles: 66064290 heartbeat IPC: 4.812 cumulative IPC: 1.917 (Simulation time: 00 hr 21 min 31 sec)
Heartbeat CPU 0 instructions: 123000599 cycles: 66167973 heartbeat IPC: 4.822 cumulative IPC: 1.925 (Simulation time: 00 hr 21 min 33 sec)
Heartbeat CPU 0 instructions: 123500603 cycles: 66271695 heartbeat IPC: 4.821 cumulative IPC: 1.933 (Simulation time: 00 hr 21 min 35 sec)
Heartbeat CPU 0 instructions: 124000603 cycles: 66378123 heartbeat IPC: 4.698 cumulative IPC: 1.941 (Simulation time: 00 hr 21 min 36 sec)
Heartbeat CPU 0 instructions: 124500605 cycles: 66481991 heartbeat IPC: 4.814 cumulative IPC: 1.949 (Simulation time: 00 hr 21 min 38 sec)
Heartbeat CPU 0 instructions: 125000609 cycles: 66585775 heartbeat IPC: 4.818 cumulative IPC: 1.957 (Simulation time: 00 hr 21 min 40 sec)
Heartbeat CPU 0 instructions: 125500615 cycles: 66689583 heartbeat IPC: 4.817 cumulative IPC: 1.964 (Simulation time: 00 hr 21 min 42 sec)
Heartbeat CPU 0 instructions: 126000622 cycles: 66793273 heartbeat IPC: 4.822 cumulative IPC: 1.972 (Simulation time: 00 hr 21 min 44 sec)
Heartbeat CPU 0 instructions: 126500626 cycles: 66900587 heartbeat IPC: 4.659 cumulative IPC: 1.979 (Simulation time: 00 hr 21 min 46 sec)
Heartbeat CPU 0 instructions: 127000632 cycles: 67004342 heartbeat IPC: 4.819 cumulative IPC: 1.987 (Simulation time: 00 hr 21 min 48 sec)
Heartbeat CPU 0 instructions: 127500638 cycles: 67108182 heartbeat IPC: 4.815 cumulative IPC: 1.995 (Simulation time: 00 hr 21 min 50 sec)
Heartbeat CPU 0 instructions: 128000640 cycles: 67212021 heartbeat IPC: 4.815 cumulative IPC: 2.002 (Simulation time: 00 hr 21 min 52 sec)
Heartbeat CPU 0 instructions: 128500645 cycles: 67315818 heartbeat IPC: 4.817 cumulative IPC: 2.01 (Simulation time: 00 hr 21 min 54 sec)
Heartbeat CPU 0 instructions: 129000645 cycles: 67423562 heartbeat IPC: 4.641 cumulative IPC: 2.017 (Simulation time: 00 hr 21 min 56 sec)
Heartbeat CPU 0 instructions: 129500651 cycles: 67527329 heartbeat IPC: 4.819 cumulative IPC: 2.024 (Simulation time: 00 hr 21 min 58 sec)
Heartbeat CPU 0 instructions: 130000653 cycles: 67631255 heartbeat IPC: 4.811 cumulative IPC: 2.032 (Simulation time: 00 hr 22 min 00 sec)
Heartbeat CPU 0 instructions: 130500659 cycles: 67735167 heartbeat IPC: 4.812 cumulative IPC: 2.039 (Simulation time: 00 hr 22 min 02 sec)
Heartbeat CPU 0 instructions: 131000665 cycles: 67841972 heartbeat IPC: 4.681 cumulative IPC: 2.046 (Simulation time: 00 hr 22 min 03 sec)
Heartbeat CPU 0 instructions: 131500672 cycles: 67946196 heartbeat IPC: 4.797 cumulative IPC: 2.053 (Simulation time: 00 hr 22 min 05 sec)
Heartbeat CPU 0 instructions: 132000676 cycles: 68049963 heartbeat IPC: 4.819 cumulative IPC: 2.06 (Simulation time: 00 hr 22 min 07 sec)
Heartbeat CPU 0 instructions: 132500678 cycles: 68154586 heartbeat IPC: 4.779 cumulative IPC: 2.068 (Simulation time: 00 hr 22 min 09 sec)
Heartbeat CPU 0 instructions: 133000678 cycles: 68258453 heartbeat IPC: 4.814 cumulative IPC: 2.075 (Simulation time: 00 hr 22 min 11 sec)
Heartbeat CPU 0 instructions: 133500682 cycles: 68364704 heartbeat IPC: 4.706 cumulative IPC: 2.082 (Simulation time: 00 hr 22 min 13 sec)
Heartbeat CPU 0 instructions: 134000683 cycles: 68468432 heartbeat IPC: 4.82 cumulative IPC: 2.089 (Simulation time: 00 hr 22 min 15 sec)
Heartbeat CPU 0 instructions: 134500687 cycles: 68572245 heartbeat IPC: 4.816 cumulative IPC: 2.096 (Simulation time: 00 hr 22 min 17 sec)
Heartbeat CPU 0 instructions: 135000687 cycles: 68676213 heartbeat IPC: 4.809 cumulative IPC: 2.103 (Simulation time: 00 hr 22 min 19 sec)
Heartbeat CPU 0 instructions: 135500689 cycles: 68782061 heartbeat IPC: 4.724 cumulative IPC: 2.11 (Simulation time: 00 hr 22 min 21 sec)
Heartbeat CPU 0 instructions: 136000693 cycles: 68887041 heartbeat IPC: 4.763 cumulative IPC: 2.116 (Simulation time: 00 hr 22 min 23 sec)
Heartbeat CPU 0 instructions: 136500694 cycles: 68990836 heartbeat IPC: 4.817 cumulative IPC: 2.123 (Simulation time: 00 hr 22 min 25 sec)
Heartbeat CPU 0 instructions: 137000695 cycles: 69094643 heartbeat IPC: 4.817 cumulative IPC: 2.13 (Simulation time: 00 hr 22 min 27 sec)
Heartbeat CPU 0 instructions: 137500702 cycles: 69198489 heartbeat IPC: 4.815 cumulative IPC: 2.137 (Simulation time: 00 hr 22 min 29 sec)
Heartbeat CPU 0 instructions: 138000708 cycles: 69305564 heartbeat IPC: 4.67 cumulative IPC: 2.144 (Simulation time: 00 hr 22 min 31 sec)
Heartbeat CPU 0 instructions: 138500712 cycles: 69409388 heartbeat IPC: 4.816 cumulative IPC: 2.15 (Simulation time: 00 hr 22 min 32 sec)
Heartbeat CPU 0 instructions: 139000712 cycles: 69513226 heartbeat IPC: 4.815 cumulative IPC: 2.157 (Simulation time: 00 hr 22 min 34 sec)
Heartbeat CPU 0 instructions: 139500714 cycles: 69617104 heartbeat IPC: 4.813 cumulative IPC: 2.164 (Simulation time: 00 hr 22 min 36 sec)
Heartbeat CPU 0 instructions: 140000718 cycles: 69721112 heartbeat IPC: 4.807 cumulative IPC: 2.17 (Simulation time: 00 hr 22 min 38 sec)
Heartbeat CPU 0 instructions: 140500722 cycles: 69828110 heartbeat IPC: 4.673 cumulative IPC: 2.177 (Simulation time: 00 hr 22 min 40 sec)
Heartbeat CPU 0 instructions: 141000723 cycles: 69932195 heartbeat IPC: 4.804 cumulative IPC: 2.183 (Simulation time: 00 hr 22 min 42 sec)
Heartbeat CPU 0 instructions: 141500727 cycles: 70036038 heartbeat IPC: 4.815 cumulative IPC: 2.19 (Simulation time: 00 hr 22 min 44 sec)
Heartbeat CPU 0 instructions: 142000733 cycles: 70139801 heartbeat IPC: 4.819 cumulative IPC: 2.196 (Simulation time: 00 hr 22 min 46 sec)
Heartbeat CPU 0 instructions: 142500735 cycles: 70246606 heartbeat IPC: 4.681 cumulative IPC: 2.203 (Simulation time: 00 hr 22 min 48 sec)
Heartbeat CPU 0 instructions: 143000741 cycles: 70350487 heartbeat IPC: 4.813 cumulative IPC: 2.209 (Simulation time: 00 hr 22 min 50 sec)
Heartbeat CPU 0 instructions: 143500745 cycles: 70454408 heartbeat IPC: 4.811 cumulative IPC: 2.216 (Simulation time: 00 hr 22 min 52 sec)
Heartbeat CPU 0 instructions: 144000746 cycles: 70558486 heartbeat IPC: 4.804 cumulative IPC: 2.222 (Simulation time: 00 hr 22 min 54 sec)
Heartbeat CPU 0 instructions: 144500750 cycles: 70662248 heartbeat IPC: 4.819 cumulative IPC: 2.228 (Simulation time: 00 hr 22 min 56 sec)
Heartbeat CPU 0 instructions: 145000753 cycles: 70768210 heartbeat IPC: 4.719 cumulative IPC: 2.234 (Simulation time: 00 hr 22 min 58 sec)
Heartbeat CPU 0 instructions: 145500760 cycles: 70872033 heartbeat IPC: 4.816 cumulative IPC: 2.241 (Simulation time: 00 hr 23 min 00 sec)
Heartbeat CPU 0 instructions: 146000764 cycles: 70975909 heartbeat IPC: 4.813 cumulative IPC: 2.247 (Simulation time: 00 hr 23 min 02 sec)
Heartbeat CPU 0 instructions: 146500765 cycles: 71080166 heartbeat IPC: 4.796 cumulative IPC: 2.253 (Simulation time: 00 hr 23 min 03 sec)
Heartbeat CPU 0 instructions: 147000769 cycles: 71184304 heartbeat IPC: 4.801 cumulative IPC: 2.259 (Simulation time: 00 hr 23 min 05 sec)
Heartbeat CPU 0 instructions: 147500770 cycles: 71290994 heartbeat IPC: 4.686 cumulative IPC: 2.265 (Simulation time: 00 hr 23 min 07 sec)
Heartbeat CPU 0 instructions: 148000771 cycles: 71395308 heartbeat IPC: 4.793 cumulative IPC: 2.272 (Simulation time: 00 hr 23 min 09 sec)
Heartbeat CPU 0 instructions: 148500775 cycles: 71499153 heartbeat IPC: 4.815 cumulative IPC: 2.278 (Simulation time: 00 hr 23 min 11 sec)
Heartbeat CPU 0 instructions: 149000782 cycles: 71603301 heartbeat IPC: 4.801 cumulative IPC: 2.284 (Simulation time: 00 hr 23 min 13 sec)
Heartbeat CPU 0 instructions: 149500788 cycles: 71711246 heartbeat IPC: 4.632 cumulative IPC: 2.29 (Simulation time: 00 hr 23 min 15 sec)
Heartbeat CPU 0 instructions: 150000792 cycles: 71815422 heartbeat IPC: 4.8 cumulative IPC: 2.296 (Simulation time: 00 hr 23 min 17 sec)
Heartbeat CPU 0 instructions: 150500798 cycles: 71919308 heartbeat IPC: 4.813 cumulative IPC: 2.302 (Simulation time: 00 hr 23 min 19 sec)
Heartbeat CPU 0 instructions: 151000804 cycles: 72023294 heartbeat IPC: 4.808 cumulative IPC: 2.307 (Simulation time: 00 hr 23 min 21 sec)
Heartbeat CPU 0 instructions: 151500806 cycles: 72127910 heartbeat IPC: 4.779 cumulative IPC: 2.313 (Simulation time: 00 hr 23 min 23 sec)
Heartbeat CPU 0 instructions: 152000811 cycles: 72234326 heartbeat IPC: 4.699 cumulative IPC: 2.319 (Simulation time: 00 hr 23 min 25 sec)
Heartbeat CPU 0 instructions: 152500811 cycles: 72338316 heartbeat IPC: 4.808 cumulative IPC: 2.325 (Simulation time: 00 hr 23 min 27 sec)
Heartbeat CPU 0 instructions: 153000817 cycles: 72442449 heartbeat IPC: 4.802 cumulative IPC: 2.331 (Simulation time: 00 hr 23 min 29 sec)
Heartbeat CPU 0 instructions: 153500819 cycles: 72546221 heartbeat IPC: 4.818 cumulative IPC: 2.337 (Simulation time: 00 hr 23 min 31 sec)
Heartbeat CPU 0 instructions: 154000825 cycles: 72651943 heartbeat IPC: 4.729 cumulative IPC: 2.342 (Simulation time: 00 hr 23 min 33 sec)
Heartbeat CPU 0 instructions: 154500831 cycles: 72757257 heartbeat IPC: 4.748 cumulative IPC: 2.348 (Simulation time: 00 hr 23 min 35 sec)
Heartbeat CPU 0 instructions: 155000836 cycles: 72861505 heartbeat IPC: 4.796 cumulative IPC: 2.354 (Simulation time: 00 hr 23 min 37 sec)
Heartbeat CPU 0 instructions: 155500842 cycles: 72966219 heartbeat IPC: 4.775 cumulative IPC: 2.359 (Simulation time: 00 hr 23 min 38 sec)
Heartbeat CPU 0 instructions: 156000842 cycles: 73070222 heartbeat IPC: 4.808 cumulative IPC: 2.365 (Simulation time: 00 hr 23 min 40 sec)
Heartbeat CPU 0 instructions: 156500844 cycles: 73178613 heartbeat IPC: 4.613 cumulative IPC: 2.371 (Simulation time: 00 hr 23 min 42 sec)
Heartbeat CPU 0 instructions: 157000848 cycles: 73283992 heartbeat IPC: 4.745 cumulative IPC: 2.376 (Simulation time: 00 hr 23 min 44 sec)
Heartbeat CPU 0 instructions: 157500855 cycles: 73389048 heartbeat IPC: 4.759 cumulative IPC: 2.382 (Simulation time: 00 hr 23 min 46 sec)
Heartbeat CPU 0 instructions: 158000861 cycles: 73493180 heartbeat IPC: 4.802 cumulative IPC: 2.387 (Simulation time: 00 hr 23 min 48 sec)
Heartbeat CPU 0 instructions: 158500865 cycles: 73597311 heartbeat IPC: 4.802 cumulative IPC: 2.393 (Simulation time: 00 hr 23 min 50 sec)
Heartbeat CPU 0 instructions: 159000871 cycles: 73703189 heartbeat IPC: 4.722 cumulative IPC: 2.398 (Simulation time: 00 hr 23 min 52 sec)
Heartbeat CPU 0 instructions: 159500875 cycles: 73807275 heartbeat IPC: 4.804 cumulative IPC: 2.404 (Simulation time: 00 hr 23 min 54 sec)
Heartbeat CPU 0 instructions: 160000879 cycles: 73912318 heartbeat IPC: 4.76 cumulative IPC: 2.409 (Simulation time: 00 hr 23 min 56 sec)
Heartbeat CPU 0 instructions: 160500886 cycles: 74016436 heartbeat IPC: 4.802 cumulative IPC: 2.415 (Simulation time: 00 hr 23 min 58 sec)
Heartbeat CPU 0 instructions: 161000892 cycles: 74121686 heartbeat IPC: 4.751 cumulative IPC: 2.42 (Simulation time: 00 hr 24 min 00 sec)
Heartbeat CPU 0 instructions: 161500894 cycles: 74227337 heartbeat IPC: 4.733 cumulative IPC: 2.425 (Simulation time: 00 hr 24 min 02 sec)
Heartbeat CPU 0 instructions: 162000894 cycles: 74333016 heartbeat IPC: 4.731 cumulative IPC: 2.431 (Simulation time: 00 hr 24 min 04 sec)
Heartbeat CPU 0 instructions: 162500898 cycles: 74437153 heartbeat IPC: 4.801 cumulative IPC: 2.436 (Simulation time: 00 hr 24 min 06 sec)
Heartbeat CPU 0 instructions: 163000904 cycles: 74542157 heartbeat IPC: 4.762 cumulative IPC: 2.441 (Simulation time: 00 hr 24 min 08 sec)
Heartbeat CPU 0 instructions: 163500911 cycles: 74648450 heartbeat IPC: 4.704 cumulative IPC: 2.446 (Simulation time: 00 hr 24 min 10 sec)
Heartbeat CPU 0 instructions: 164000915 cycles: 74752297 heartbeat IPC: 4.815 cumulative IPC: 2.452 (Simulation time: 00 hr 24 min 12 sec)
Heartbeat CPU 0 instructions: 164500917 cycles: 74857067 heartbeat IPC: 4.772 cumulative IPC: 2.457 (Simulation time: 00 hr 24 min 13 sec)
Heartbeat CPU 0 instructions: 165000917 cycles: 74961497 heartbeat IPC: 4.788 cumulative IPC: 2.462 (Simulation time: 00 hr 24 min 15 sec)
Heartbeat CPU 0 instructions: 165500921 cycles: 75065389 heartbeat IPC: 4.813 cumulative IPC: 2.467 (Simulation time: 00 hr 24 min 17 sec)
Heartbeat CPU 0 instructions: 166000925 cycles: 76054472 heartbeat IPC: 0.5055 cumulative IPC: 2.427 (Simulation time: 00 hr 24 min 32 sec)
Heartbeat CPU 0 instructions: 166500926 cycles: 76504147 heartbeat IPC: 1.112 cumulative IPC: 2.414 (Simulation time: 00 hr 24 min 39 sec)
Heartbeat CPU 0 instructions: 167000927 cycles: 76967679 heartbeat IPC: 1.079 cumulative IPC: 2.402 (Simulation time: 00 hr 24 min 46 sec)
Heartbeat CPU 0 instructions: 167500933 cycles: 77413559 heartbeat IPC: 1.121 cumulative IPC: 2.39 (Simulation time: 00 hr 24 min 54 sec)
Heartbeat CPU 0 instructions: 168000933 cycles: 77853449 heartbeat IPC: 1.137 cumulative IPC: 2.379 (Simulation time: 00 hr 25 min 01 sec)
Heartbeat CPU 0 instructions: 168500938 cycles: 78259742 heartbeat IPC: 1.231 cumulative IPC: 2.37 (Simulation time: 00 hr 25 min 07 sec)
Heartbeat CPU 0 instructions: 169000942 cycles: 78674610 heartbeat IPC: 1.205 cumulative IPC: 2.36 (Simulation time: 00 hr 25 min 14 sec)
Heartbeat CPU 0 instructions: 169500943 cycles: 79068732 heartbeat IPC: 1.269 cumulative IPC: 2.352 (Simulation time: 00 hr 25 min 20 sec)
Heartbeat CPU 0 instructions: 170000945 cycles: 79478100 heartbeat IPC: 1.221 cumulative IPC: 2.343 (Simulation time: 00 hr 25 min 27 sec)
Heartbeat CPU 0 instructions: 170500949 cycles: 79887381 heartbeat IPC: 1.222 cumulative IPC: 2.334 (Simulation time: 00 hr 25 min 33 sec)
Heartbeat CPU 0 instructions: 171000950 cycles: 80283114 heartbeat IPC: 1.263 cumulative IPC: 2.326 (Simulation time: 00 hr 25 min 40 sec)
Heartbeat CPU 0 instructions: 171500951 cycles: 80689778 heartbeat IPC: 1.23 cumulative IPC: 2.317 (Simulation time: 00 hr 25 min 46 sec)
Heartbeat CPU 0 instructions: 172000952 cycles: 81091116 heartbeat IPC: 1.246 cumulative IPC: 2.309 (Simulation time: 00 hr 25 min 52 sec)
Heartbeat CPU 0 instructions: 172500953 cycles: 81476994 heartbeat IPC: 1.296 cumulative IPC: 2.302 (Simulation time: 00 hr 25 min 59 sec)
Heartbeat CPU 0 instructions: 173000954 cycles: 81852877 heartbeat IPC: 1.33 cumulative IPC: 2.295 (Simulation time: 00 hr 26 min 05 sec)
Heartbeat CPU 0 instructions: 173500959 cycles: 82246019 heartbeat IPC: 1.272 cumulative IPC: 2.287 (Simulation time: 00 hr 26 min 11 sec)
Heartbeat CPU 0 instructions: 174000966 cycles: 82622858 heartbeat IPC: 1.327 cumulative IPC: 2.281 (Simulation time: 00 hr 26 min 18 sec)
Heartbeat CPU 0 instructions: 174500969 cycles: 83011910 heartbeat IPC: 1.285 cumulative IPC: 2.274 (Simulation time: 00 hr 26 min 24 sec)
Heartbeat CPU 0 instructions: 175000971 cycles: 83392205 heartbeat IPC: 1.315 cumulative IPC: 2.267 (Simulation time: 00 hr 26 min 30 sec)
Heartbeat CPU 0 instructions: 175500974 cycles: 83776282 heartbeat IPC: 1.302 cumulative IPC: 2.26 (Simulation time: 00 hr 26 min 37 sec)
Heartbeat CPU 0 instructions: 176000981 cycles: 84165699 heartbeat IPC: 1.284 cumulative IPC: 2.253 (Simulation time: 00 hr 26 min 43 sec)
Heartbeat CPU 0 instructions: 176500984 cycles: 84541508 heartbeat IPC: 1.33 cumulative IPC: 2.247 (Simulation time: 00 hr 26 min 49 sec)
Heartbeat CPU 0 instructions: 177000988 cycles: 84928779 heartbeat IPC: 1.291 cumulative IPC: 2.241 (Simulation time: 00 hr 26 min 55 sec)
Heartbeat CPU 0 instructions: 177500989 cycles: 85305564 heartbeat IPC: 1.327 cumulative IPC: 2.235 (Simulation time: 00 hr 27 min 02 sec)
Heartbeat CPU 0 instructions: 178000993 cycles: 85699139 heartbeat IPC: 1.27 cumulative IPC: 2.228 (Simulation time: 00 hr 27 min 08 sec)
Heartbeat CPU 0 instructions: 178500994 cycles: 86081888 heartbeat IPC: 1.306 cumulative IPC: 2.222 (Simulation time: 00 hr 27 min 14 sec)
Heartbeat CPU 0 instructions: 179000996 cycles: 86468843 heartbeat IPC: 1.292 cumulative IPC: 2.216 (Simulation time: 00 hr 27 min 21 sec)
Heartbeat CPU 0 instructions: 179501001 cycles: 86843207 heartbeat IPC: 1.336 cumulative IPC: 2.21 (Simulation time: 00 hr 27 min 27 sec)
Heartbeat CPU 0 instructions: 180001003 cycles: 87229744 heartbeat IPC: 1.294 cumulative IPC: 2.204 (Simulation time: 00 hr 27 min 33 sec)
Heartbeat CPU 0 instructions: 180501004 cycles: 87613130 heartbeat IPC: 1.304 cumulative IPC: 2.198 (Simulation time: 00 hr 27 min 39 sec)
Heartbeat CPU 0 instructions: 181001004 cycles: 87988581 heartbeat IPC: 1.332 cumulative IPC: 2.193 (Simulation time: 00 hr 27 min 46 sec)
Heartbeat CPU 0 instructions: 181501004 cycles: 88377344 heartbeat IPC: 1.286 cumulative IPC: 2.187 (Simulation time: 00 hr 27 min 52 sec)
Heartbeat CPU 0 instructions: 182001005 cycles: 88751428 heartbeat IPC: 1.337 cumulative IPC: 2.182 (Simulation time: 00 hr 27 min 58 sec)
Heartbeat CPU 0 instructions: 182501010 cycles: 89137412 heartbeat IPC: 1.295 cumulative IPC: 2.176 (Simulation time: 00 hr 28 min 04 sec)
Heartbeat CPU 0 instructions: 183001017 cycles: 89513822 heartbeat IPC: 1.328 cumulative IPC: 2.171 (Simulation time: 00 hr 28 min 11 sec)
Heartbeat CPU 0 instructions: 183501021 cycles: 89903303 heartbeat IPC: 1.284 cumulative IPC: 2.165 (Simulation time: 00 hr 28 min 17 sec)
Heartbeat CPU 0 instructions: 184001022 cycles: 90285431 heartbeat IPC: 1.308 cumulative IPC: 2.16 (Simulation time: 00 hr 28 min 23 sec)
Heartbeat CPU 0 instructions: 184501024 cycles: 90679824 heartbeat IPC: 1.268 cumulative IPC: 2.154 (Simulation time: 00 hr 28 min 30 sec)
Heartbeat CPU 0 instructions: 185001030 cycles: 91055045 heartbeat IPC: 1.333 cumulative IPC: 2.15 (Simulation time: 00 hr 28 min 36 sec)
Heartbeat CPU 0 instructions: 185501030 cycles: 91439277 heartbeat IPC: 1.301 cumulative IPC: 2.144 (Simulation time: 00 hr 28 min 42 sec)
Heartbeat CPU 0 instructions: 186001031 cycles: 91824297 heartbeat IPC: 1.299 cumulative IPC: 2.139 (Simulation time: 00 hr 28 min 49 sec)
Heartbeat CPU 0 instructions: 186501032 cycles: 92198553 heartbeat IPC: 1.336 cumulative IPC: 2.135 (Simulation time: 00 hr 28 min 55 sec)
Heartbeat CPU 0 instructions: 187001032 cycles: 92587464 heartbeat IPC: 1.286 cumulative IPC: 2.129 (Simulation time: 00 hr 29 min 01 sec)
Heartbeat CPU 0 instructions: 187501037 cycles: 92964026 heartbeat IPC: 1.328 cumulative IPC: 2.125 (Simulation time: 00 hr 29 min 07 sec)
Heartbeat CPU 0 instructions: 188001037 cycles: 93353125 heartbeat IPC: 1.285 cumulative IPC: 2.12 (Simulation time: 00 hr 29 min 14 sec)
Heartbeat CPU 0 instructions: 188501044 cycles: 93730180 heartbeat IPC: 1.326 cumulative IPC: 2.115 (Simulation time: 00 hr 29 min 20 sec)
Heartbeat CPU 0 instructions: 189001048 cycles: 94114240 heartbeat IPC: 1.302 cumulative IPC: 2.11 (Simulation time: 00 hr 29 min 26 sec)
Heartbeat CPU 0 instructions: 189501049 cycles: 94490685 heartbeat IPC: 1.328 cumulative IPC: 2.106 (Simulation time: 00 hr 29 min 32 sec)
Heartbeat CPU 0 instructions: 190001051 cycles: 94876264 heartbeat IPC: 1.297 cumulative IPC: 2.101 (Simulation time: 00 hr 29 min 39 sec)
Heartbeat CPU 0 instructions: 190501056 cycles: 95270678 heartbeat IPC: 1.268 cumulative IPC: 2.096 (Simulation time: 00 hr 29 min 45 sec)
Heartbeat CPU 0 instructions: 191001056 cycles: 95649829 heartbeat IPC: 1.319 cumulative IPC: 2.092 (Simulation time: 00 hr 29 min 51 sec)
Heartbeat CPU 0 instructions: 191501060 cycles: 96036374 heartbeat IPC: 1.294 cumulative IPC: 2.088 (Simulation time: 00 hr 29 min 58 sec)
Heartbeat CPU 0 instructions: 192001062 cycles: 96410406 heartbeat IPC: 1.337 cumulative IPC: 2.083 (Simulation time: 00 hr 30 min 04 sec)
Heartbeat CPU 0 instructions: 192501062 cycles: 96789399 heartbeat IPC: 1.319 cumulative IPC: 2.079 (Simulation time: 00 hr 30 min 10 sec)
Heartbeat CPU 0 instructions: 193001063 cycles: 97162277 heartbeat IPC: 1.341 cumulative IPC: 2.075 (Simulation time: 00 hr 30 min 16 sec)
Heartbeat CPU 0 instructions: 193501065 cycles: 97546088 heartbeat IPC: 1.303 cumulative IPC: 2.071 (Simulation time: 00 hr 30 min 23 sec)
Heartbeat CPU 0 instructions: 194001066 cycles: 97921659 heartbeat IPC: 1.331 cumulative IPC: 2.067 (Simulation time: 00 hr 30 min 29 sec)
Heartbeat CPU 0 instructions: 194501066 cycles: 98305787 heartbeat IPC: 1.302 cumulative IPC: 2.063 (Simulation time: 00 hr 30 min 35 sec)
Heartbeat CPU 0 instructions: 195001067 cycles: 98680072 heartbeat IPC: 1.336 cumulative IPC: 2.059 (Simulation time: 00 hr 30 min 41 sec)
Heartbeat CPU 0 instructions: 195501070 cycles: 99066638 heartbeat IPC: 1.293 cumulative IPC: 2.055 (Simulation time: 00 hr 30 min 48 sec)
Heartbeat CPU 0 instructions: 196001073 cycles: 99451014 heartbeat IPC: 1.301 cumulative IPC: 2.051 (Simulation time: 00 hr 30 min 54 sec)
Heartbeat CPU 0 instructions: 196501075 cycles: 99836643 heartbeat IPC: 1.297 cumulative IPC: 2.047 (Simulation time: 00 hr 31 min 00 sec)
Heartbeat CPU 0 instructions: 197001078 cycles: 100220584 heartbeat IPC: 1.302 cumulative IPC: 2.043 (Simulation time: 00 hr 31 min 06 sec)
Heartbeat CPU 0 instructions: 197501081 cycles: 100593672 heartbeat IPC: 1.34 cumulative IPC: 2.039 (Simulation time: 00 hr 31 min 13 sec)
Heartbeat CPU 0 instructions: 198001083 cycles: 100978365 heartbeat IPC: 1.3 cumulative IPC: 2.035 (Simulation time: 00 hr 31 min 19 sec)
Heartbeat CPU 0 instructions: 198501090 cycles: 101349136 heartbeat IPC: 1.349 cumulative IPC: 2.032 (Simulation time: 00 hr 31 min 25 sec)
Heartbeat CPU 0 instructions: 199001091 cycles: 101732685 heartbeat IPC: 1.304 cumulative IPC: 2.028 (Simulation time: 00 hr 31 min 31 sec)
Heartbeat CPU 0 instructions: 199501091 cycles: 102108195 heartbeat IPC: 1.332 cumulative IPC: 2.024 (Simulation time: 00 hr 31 min 38 sec)
Heartbeat CPU 0 instructions: 200001095 cycles: 102495411 heartbeat IPC: 1.291 cumulative IPC: 2.02 (Simulation time: 00 hr 31 min 44 sec)
Heartbeat CPU 0 instructions: 200501099 cycles: 102874439 heartbeat IPC: 1.319 cumulative IPC: 2.017 (Simulation time: 00 hr 31 min 50 sec)
Heartbeat CPU 0 instructions: 201001100 cycles: 103256863 heartbeat IPC: 1.307 cumulative IPC: 2.013 (Simulation time: 00 hr 31 min 56 sec)
Heartbeat CPU 0 instructions: 201501103 cycles: 103640767 heartbeat IPC: 1.302 cumulative IPC: 2.01 (Simulation time: 00 hr 32 min 03 sec)
Heartbeat CPU 0 instructions: 202001103 cycles: 104017756 heartbeat IPC: 1.326 cumulative IPC: 2.006 (Simulation time: 00 hr 32 min 09 sec)
Heartbeat CPU 0 instructions: 202501103 cycles: 104412160 heartbeat IPC: 1.268 cumulative IPC: 2.002 (Simulation time: 00 hr 32 min 15 sec)
Heartbeat CPU 0 instructions: 203001104 cycles: 104783638 heartbeat IPC: 1.346 cumulative IPC: 1.999 (Simulation time: 00 hr 32 min 21 sec)
Heartbeat CPU 0 instructions: 203501104 cycles: 105170440 heartbeat IPC: 1.293 cumulative IPC: 1.996 (Simulation time: 00 hr 32 min 28 sec)
Heartbeat CPU 0 instructions: 204001106 cycles: 105543979 heartbeat IPC: 1.339 cumulative IPC: 1.992 (Simulation time: 00 hr 32 min 34 sec)
Heartbeat CPU 0 instructions: 204501107 cycles: 105927123 heartbeat IPC: 1.305 cumulative IPC: 1.989 (Simulation time: 00 hr 32 min 40 sec)
Heartbeat CPU 0 instructions: 205001108 cycles: 106297884 heartbeat IPC: 1.349 cumulative IPC: 1.986 (Simulation time: 00 hr 32 min 46 sec)
Heartbeat CPU 0 instructions: 205501112 cycles: 106683060 heartbeat IPC: 1.298 cumulative IPC: 1.983 (Simulation time: 00 hr 32 min 53 sec)
Heartbeat CPU 0 instructions: 206001112 cycles: 107066267 heartbeat IPC: 1.305 cumulative IPC: 1.979 (Simulation time: 00 hr 32 min 59 sec)
Heartbeat CPU 0 instructions: 206501113 cycles: 107443312 heartbeat IPC: 1.326 cumulative IPC: 1.976 (Simulation time: 00 hr 33 min 05 sec)
Heartbeat CPU 0 instructions: 207001115 cycles: 107829998 heartbeat IPC: 1.293 cumulative IPC: 1.973 (Simulation time: 00 hr 33 min 11 sec)
Heartbeat CPU 0 instructions: 207501116 cycles: 108206220 heartbeat IPC: 1.329 cumulative IPC: 1.97 (Simulation time: 00 hr 33 min 18 sec)
Heartbeat CPU 0 instructions: 208001123 cycles: 108589111 heartbeat IPC: 1.306 cumulative IPC: 1.967 (Simulation time: 00 hr 33 min 24 sec)
Heartbeat CPU 0 instructions: 208501123 cycles: 108960733 heartbeat IPC: 1.345 cumulative IPC: 1.964 (Simulation time: 00 hr 33 min 30 sec)
Heartbeat CPU 0 instructions: 209001130 cycles: 109353544 heartbeat IPC: 1.273 cumulative IPC: 1.961 (Simulation time: 00 hr 33 min 36 sec)
Heartbeat CPU 0 instructions: 209501133 cycles: 109729108 heartbeat IPC: 1.331 cumulative IPC: 1.958 (Simulation time: 00 hr 33 min 43 sec)
Heartbeat CPU 0 instructions: 210001135 cycles: 110108029 heartbeat IPC: 1.32 cumulative IPC: 1.955 (Simulation time: 00 hr 33 min 49 sec)
Heartbeat CPU 0 instructions: 210501138 cycles: 110482086 heartbeat IPC: 1.337 cumulative IPC: 1.952 (Simulation time: 00 hr 33 min 55 sec)
Heartbeat CPU 0 instructions: 211001138 cycles: 110862074 heartbeat IPC: 1.316 cumulative IPC: 1.949 (Simulation time: 00 hr 34 min 01 sec)
Heartbeat CPU 0 instructions: 211501143 cycles: 111240074 heartbeat IPC: 1.323 cumulative IPC: 1.946 (Simulation time: 00 hr 34 min 08 sec)
Heartbeat CPU 0 instructions: 212001147 cycles: 111613123 heartbeat IPC: 1.34 cumulative IPC: 1.943 (Simulation time: 00 hr 34 min 14 sec)
Heartbeat CPU 0 instructions: 212501148 cycles: 111994483 heartbeat IPC: 1.311 cumulative IPC: 1.94 (Simulation time: 00 hr 34 min 20 sec)
Heartbeat CPU 0 instructions: 213001154 cycles: 112367100 heartbeat IPC: 1.342 cumulative IPC: 1.938 (Simulation time: 00 hr 34 min 26 sec)
Heartbeat CPU 0 instructions: 213501158 cycles: 112747477 heartbeat IPC: 1.314 cumulative IPC: 1.935 (Simulation time: 00 hr 34 min 32 sec)
Heartbeat CPU 0 instructions: 214001159 cycles: 113121661 heartbeat IPC: 1.336 cumulative IPC: 1.932 (Simulation time: 00 hr 34 min 39 sec)
Heartbeat CPU 0 instructions: 214501163 cycles: 113503178 heartbeat IPC: 1.311 cumulative IPC: 1.93 (Simulation time: 00 hr 34 min 45 sec)
Heartbeat CPU 0 instructions: 215001163 cycles: 113888341 heartbeat IPC: 1.298 cumulative IPC: 1.927 (Simulation time: 00 hr 34 min 51 sec)
Heartbeat CPU 0 instructions: 215501163 cycles: 114267667 heartbeat IPC: 1.318 cumulative IPC: 1.924 (Simulation time: 00 hr 34 min 57 sec)
Heartbeat CPU 0 instructions: 216001166 cycles: 114642126 heartbeat IPC: 1.335 cumulative IPC: 1.922 (Simulation time: 00 hr 35 min 04 sec)
Heartbeat CPU 0 instructions: 216501167 cycles: 115016472 heartbeat IPC: 1.336 cumulative IPC: 1.919 (Simulation time: 00 hr 35 min 10 sec)
Heartbeat CPU 0 instructions: 217001172 cycles: 115398118 heartbeat IPC: 1.31 cumulative IPC: 1.916 (Simulation time: 00 hr 35 min 16 sec)
Heartbeat CPU 0 instructions: 217501177 cycles: 115768893 heartbeat IPC: 1.349 cumulative IPC: 1.914 (Simulation time: 00 hr 35 min 22 sec)
Heartbeat CPU 0 instructions: 218001178 cycles: 116147266 heartbeat IPC: 1.321 cumulative IPC: 1.911 (Simulation time: 00 hr 35 min 29 sec)
Heartbeat CPU 0 instructions: 218501184 cycles: 116519656 heartbeat IPC: 1.343 cumulative IPC: 1.909 (Simulation time: 00 hr 35 min 35 sec)
Heartbeat CPU 0 instructions: 219001188 cycles: 116900191 heartbeat IPC: 1.314 cumulative IPC: 1.906 (Simulation time: 00 hr 35 min 41 sec)
Heartbeat CPU 0 instructions: 219501188 cycles: 117272031 heartbeat IPC: 1.345 cumulative IPC: 1.904 (Simulation time: 00 hr 35 min 47 sec)
Heartbeat CPU 0 instructions: 220001193 cycles: 117653028 heartbeat IPC: 1.312 cumulative IPC: 1.902 (Simulation time: 00 hr 35 min 53 sec)
Heartbeat CPU 0 instructions: 220501194 cycles: 118025425 heartbeat IPC: 1.343 cumulative IPC: 1.899 (Simulation time: 00 hr 36 min 00 sec)
Heartbeat CPU 0 instructions: 221001198 cycles: 118418219 heartbeat IPC: 1.273 cumulative IPC: 1.897 (Simulation time: 00 hr 36 min 06 sec)
Heartbeat CPU 0 instructions: 221501202 cycles: 118795819 heartbeat IPC: 1.324 cumulative IPC: 1.894 (Simulation time: 00 hr 36 min 12 sec)
Heartbeat CPU 0 instructions: 222001205 cycles: 119165416 heartbeat IPC: 1.353 cumulative IPC: 1.892 (Simulation time: 00 hr 36 min 18 sec)
Heartbeat CPU 0 instructions: 222501209 cycles: 119544233 heartbeat IPC: 1.32 cumulative IPC: 1.89 (Simulation time: 00 hr 36 min 25 sec)
Heartbeat CPU 0 instructions: 223001210 cycles: 119917186 heartbeat IPC: 1.341 cumulative IPC: 1.887 (Simulation time: 00 hr 36 min 31 sec)
Heartbeat CPU 0 instructions: 223501214 cycles: 120294885 heartbeat IPC: 1.324 cumulative IPC: 1.885 (Simulation time: 00 hr 36 min 37 sec)
Heartbeat CPU 0 instructions: 224001216 cycles: 120667078 heartbeat IPC: 1.343 cumulative IPC: 1.883 (Simulation time: 00 hr 36 min 43 sec)
Heartbeat CPU 0 instructions: 224501216 cycles: 121045375 heartbeat IPC: 1.322 cumulative IPC: 1.881 (Simulation time: 00 hr 36 min 49 sec)
Heartbeat CPU 0 instructions: 225001216 cycles: 121415069 heartbeat IPC: 1.352 cumulative IPC: 1.878 (Simulation time: 00 hr 36 min 55 sec)
Heartbeat CPU 0 instructions: 225501217 cycles: 121793612 heartbeat IPC: 1.321 cumulative IPC: 1.876 (Simulation time: 00 hr 37 min 02 sec)
Heartbeat CPU 0 instructions: 226001223 cycles: 122167336 heartbeat IPC: 1.338 cumulative IPC: 1.874 (Simulation time: 00 hr 37 min 08 sec)
Heartbeat CPU 0 instructions: 226501229 cycles: 122544815 heartbeat IPC: 1.325 cumulative IPC: 1.872 (Simulation time: 00 hr 37 min 14 sec)
Heartbeat CPU 0 instructions: 227001233 cycles: 122933617 heartbeat IPC: 1.286 cumulative IPC: 1.869 (Simulation time: 00 hr 37 min 20 sec)
Heartbeat CPU 0 instructions: 227501235 cycles: 123302673 heartbeat IPC: 1.355 cumulative IPC: 1.867 (Simulation time: 00 hr 37 min 27 sec)
Heartbeat CPU 0 instructions: 228001238 cycles: 123679649 heartbeat IPC: 1.326 cumulative IPC: 1.865 (Simulation time: 00 hr 37 min 33 sec)
Heartbeat CPU 0 instructions: 228501240 cycles: 124048902 heartbeat IPC: 1.354 cumulative IPC: 1.863 (Simulation time: 00 hr 37 min 39 sec)
Heartbeat CPU 0 instructions: 229001244 cycles: 124425850 heartbeat IPC: 1.326 cumulative IPC: 1.861 (Simulation time: 00 hr 37 min 45 sec)
Heartbeat CPU 0 instructions: 229501248 cycles: 124794966 heartbeat IPC: 1.355 cumulative IPC: 1.859 (Simulation time: 00 hr 37 min 51 sec)
Heartbeat CPU 0 instructions: 230001249 cycles: 125171228 heartbeat IPC: 1.329 cumulative IPC: 1.857 (Simulation time: 00 hr 37 min 57 sec)
Heartbeat CPU 0 instructions: 230501255 cycles: 125540775 heartbeat IPC: 1.353 cumulative IPC: 1.855 (Simulation time: 00 hr 38 min 04 sec)
Heartbeat CPU 0 instructions: 231001255 cycles: 125919564 heartbeat IPC: 1.32 cumulative IPC: 1.853 (Simulation time: 00 hr 38 min 10 sec)
Heartbeat CPU 0 instructions: 231501259 cycles: 126293710 heartbeat IPC: 1.336 cumulative IPC: 1.851 (Simulation time: 00 hr 38 min 16 sec)
Heartbeat CPU 0 instructions: 232001261 cycles: 126665234 heartbeat IPC: 1.346 cumulative IPC: 1.849 (Simulation time: 00 hr 38 min 22 sec)
Heartbeat CPU 0 instructions: 232501264 cycles: 127040269 heartbeat IPC: 1.333 cumulative IPC: 1.847 (Simulation time: 00 hr 38 min 28 sec)
Heartbeat CPU 0 instructions: 233001266 cycles: 127417399 heartbeat IPC: 1.326 cumulative IPC: 1.845 (Simulation time: 00 hr 38 min 35 sec)
Heartbeat CPU 0 instructions: 233501268 cycles: 127794856 heartbeat IPC: 1.325 cumulative IPC: 1.843 (Simulation time: 00 hr 38 min 41 sec)
Heartbeat CPU 0 instructions: 234001269 cycles: 128160922 heartbeat IPC: 1.366 cumulative IPC: 1.842 (Simulation time: 00 hr 38 min 47 sec)
Heartbeat CPU 0 instructions: 234501269 cycles: 128536157 heartbeat IPC: 1.332 cumulative IPC: 1.84 (Simulation time: 00 hr 38 min 53 sec)
Heartbeat CPU 0 instructions: 235001270 cycles: 128903877 heartbeat IPC: 1.36 cumulative IPC: 1.838 (Simulation time: 00 hr 38 min 59 sec)
Heartbeat CPU 0 instructions: 235501271 cycles: 129277315 heartbeat IPC: 1.339 cumulative IPC: 1.836 (Simulation time: 00 hr 39 min 05 sec)
Heartbeat CPU 0 instructions: 236001273 cycles: 129640644 heartbeat IPC: 1.376 cumulative IPC: 1.835 (Simulation time: 00 hr 39 min 12 sec)
Heartbeat CPU 0 instructions: 236501275 cycles: 130016530 heartbeat IPC: 1.33 cumulative IPC: 1.833 (Simulation time: 00 hr 39 min 18 sec)
Heartbeat CPU 0 instructions: 237001276 cycles: 130389466 heartbeat IPC: 1.341 cumulative IPC: 1.831 (Simulation time: 00 hr 39 min 24 sec)
Heartbeat CPU 0 instructions: 237501278 cycles: 130757522 heartbeat IPC: 1.358 cumulative IPC: 1.829 (Simulation time: 00 hr 39 min 30 sec)
Heartbeat CPU 0 instructions: 238001278 cycles: 131133505 heartbeat IPC: 1.33 cumulative IPC: 1.827 (Simulation time: 00 hr 39 min 36 sec)
Heartbeat CPU 0 instructions: 238501279 cycles: 131500615 heartbeat IPC: 1.362 cumulative IPC: 1.826 (Simulation time: 00 hr 39 min 42 sec)
Heartbeat CPU 0 instructions: 239001281 cycles: 131876686 heartbeat IPC: 1.33 cumulative IPC: 1.824 (Simulation time: 00 hr 39 min 49 sec)
Heartbeat CPU 0 instructions: 239501283 cycles: 132254143 heartbeat IPC: 1.325 cumulative IPC: 1.822 (Simulation time: 00 hr 39 min 55 sec)
Heartbeat CPU 0 instructions: 240001289 cycles: 132630935 heartbeat IPC: 1.327 cumulative IPC: 1.82 (Simulation time: 00 hr 40 min 01 sec)
Heartbeat CPU 0 instructions: 240501289 cycles: 132996942 heartbeat IPC: 1.366 cumulative IPC: 1.819 (Simulation time: 00 hr 40 min 07 sec)
Heartbeat CPU 0 instructions: 241001296 cycles: 133373518 heartbeat IPC: 1.328 cumulative IPC: 1.817 (Simulation time: 00 hr 40 min 13 sec)
Heartbeat CPU 0 instructions: 241501300 cycles: 133741680 heartbeat IPC: 1.358 cumulative IPC: 1.815 (Simulation time: 00 hr 40 min 19 sec)
Heartbeat CPU 0 instructions: 242001301 cycles: 134111881 heartbeat IPC: 1.351 cumulative IPC: 1.814 (Simulation time: 00 hr 40 min 26 sec)
Heartbeat CPU 0 instructions: 242501303 cycles: 134485208 heartbeat IPC: 1.339 cumulative IPC: 1.812 (Simulation time: 00 hr 40 min 32 sec)
Heartbeat CPU 0 instructions: 243001304 cycles: 134852063 heartbeat IPC: 1.363 cumulative IPC: 1.811 (Simulation time: 00 hr 40 min 38 sec)
Heartbeat CPU 0 instructions: 243501308 cycles: 135227669 heartbeat IPC: 1.331 cumulative IPC: 1.809 (Simulation time: 00 hr 40 min 44 sec)
Heartbeat CPU 0 instructions: 244001313 cycles: 135591036 heartbeat IPC: 1.376 cumulative IPC: 1.807 (Simulation time: 00 hr 40 min 50 sec)
Heartbeat CPU 0 instructions: 244501313 cycles: 135966007 heartbeat IPC: 1.333 cumulative IPC: 1.806 (Simulation time: 00 hr 40 min 56 sec)
Heartbeat CPU 0 instructions: 245001320 cycles: 136330085 heartbeat IPC: 1.373 cumulative IPC: 1.804 (Simulation time: 00 hr 41 min 02 sec)
Heartbeat CPU 0 instructions: 245501324 cycles: 136717908 heartbeat IPC: 1.289 cumulative IPC: 1.802 (Simulation time: 00 hr 41 min 09 sec)
Heartbeat CPU 0 instructions: 246001325 cycles: 137082236 heartbeat IPC: 1.372 cumulative IPC: 1.801 (Simulation time: 00 hr 41 min 15 sec)
Heartbeat CPU 0 instructions: 246501329 cycles: 137458096 heartbeat IPC: 1.33 cumulative IPC: 1.799 (Simulation time: 00 hr 41 min 21 sec)
Heartbeat CPU 0 instructions: 247001330 cycles: 137830398 heartbeat IPC: 1.343 cumulative IPC: 1.798 (Simulation time: 00 hr 41 min 27 sec)
Heartbeat CPU 0 instructions: 247501330 cycles: 138194970 heartbeat IPC: 1.371 cumulative IPC: 1.796 (Simulation time: 00 hr 41 min 33 sec)
Heartbeat CPU 0 instructions: 248001333 cycles: 138567921 heartbeat IPC: 1.341 cumulative IPC: 1.795 (Simulation time: 00 hr 41 min 39 sec)
Heartbeat CPU 0 instructions: 248501334 cycles: 138934438 heartbeat IPC: 1.364 cumulative IPC: 1.793 (Simulation time: 00 hr 41 min 46 sec)
Heartbeat CPU 0 instructions: 249001338 cycles: 139311240 heartbeat IPC: 1.327 cumulative IPC: 1.792 (Simulation time: 00 hr 41 min 52 sec)
Heartbeat CPU 0 instructions: 249501344 cycles: 139678256 heartbeat IPC: 1.362 cumulative IPC: 1.79 (Simulation time: 00 hr 41 min 58 sec)
Simulation finished CPU 0 instructions: 200000002 cycles: 111798033 cumulative IPC: 1.789 (Simulation time: 00 hr 42 min 04 sec)
Simulation complete CPU 0 instructions: 200000002 cycles: 111798033 cumulative IPC: 1.789 (Simulation time: 00 hr 42 min 04 sec)

ChampSim completed all CPUs

=== Simulation ===
CPU 0 runs /local-ssd/ben/dpc4-traces/ai-ml/stable-diffusion.cpp-v2-1_768-nonema-pruned.1.champsimtrace.gz

Region of Interest Statistics

CPU 0 cumulative IPC: 1.789 instructions: 200000002 cycles: 111798033
CPU 0 Branch Prediction Accuracy: 97.48% MPKI: 2.438 Average ROB Occupancy at Mispredict: 307.5
Branch type MPKI
BRANCH_DIRECT_JUMP: 8e-05
BRANCH_INDIRECT: 5.5e-05
BRANCH_CONDITIONAL: 2.437
BRANCH_DIRECT_CALL: 0.000135
BRANCH_INDIRECT_CALL: 4.5e-05
BRANCH_RETURN: 0.00015

cpu0->cpu0_STLB TOTAL        ACCESS:     203867 HIT:     175059 MISS:      28808 MSHR_MERGE:          0
cpu0->cpu0_STLB LOAD         ACCESS:     203867 HIT:     175059 MISS:      28808 MSHR_MERGE:          0
cpu0->cpu0_STLB RFO          ACCESS:          0 HIT:          0 MISS:          0 MSHR_MERGE:          0
cpu0->cpu0_STLB PREFETCH     ACCESS:          0 HIT:          0 MISS:          0 MSHR_MERGE:          0
cpu0->cpu0_STLB WRITE        ACCESS:          0 HIT:          0 MISS:          0 MSHR_MERGE:          0
cpu0->cpu0_STLB TRANSLATION  ACCESS:          0 HIT:          0 MISS:          0 MSHR_MERGE:          0
cpu0->cpu0_STLB PREFETCH REQUESTED:          0 ISSUED:          0 USEFUL:          0 USELESS:          0
cpu0->cpu0_STLB AVERAGE MISS LATENCY: 79.7 cycles
cpu0->cpu0_L2C TOTAL        ACCESS:   60836294 HIT:   56574144 MISS:    4262150 MSHR_MERGE:    2021611
cpu0->cpu0_L2C LOAD         ACCESS:   28598005 HIT:   27067429 MISS:    1530576 MSHR_MERGE:    1031857
cpu0->cpu0_L2C RFO          ACCESS:     148779 HIT:      38573 MISS:     110206 MSHR_MERGE:          0
cpu0->cpu0_L2C PREFETCH     ACCESS:   31845060 HIT:   29228029 MISS:    2617031 MSHR_MERGE:     989754
cpu0->cpu0_L2C WRITE        ACCESS:     237880 HIT:     237860 MISS:         20 MSHR_MERGE:          0
cpu0->cpu0_L2C TRANSLATION  ACCESS:       6570 HIT:       2253 MISS:       4317 MSHR_MERGE:          0
cpu0->cpu0_L2C PREFETCH REQUESTED:   46530558 ISSUED:   25787311 USEFUL:    1446944 USELESS:      12739
cpu0->cpu0_L2C AVERAGE MISS LATENCY: 160.2 cycles
cpu0->cpu0_L1I TOTAL        ACCESS:   21383331 HIT:   21383176 MISS:        155 MSHR_MERGE:         16
cpu0->cpu0_L1I LOAD         ACCESS:   21383331 HIT:   21383176 MISS:        155 MSHR_MERGE:         16
cpu0->cpu0_L1I RFO          ACCESS:          0 HIT:          0 MISS:          0 MSHR_MERGE:          0
cpu0->cpu0_L1I PREFETCH     ACCESS:          0 HIT:          0 MISS:          0 MSHR_MERGE:          0
cpu0->cpu0_L1I WRITE        ACCESS:          0 HIT:          0 MISS:          0 MSHR_MERGE:          0
cpu0->cpu0_L1I TRANSLATION  ACCESS:          0 HIT:          0 MISS:          0 MSHR_MERGE:          0
cpu0->cpu0_L1I PREFETCH REQUESTED:          0 ISSUED:          0 USEFUL:          0 USELESS:          0
cpu0->cpu0_L1I AVERAGE MISS LATENCY: 235.4 cycles
cpu0->cpu0_L1D TOTAL        ACCESS:  103976979 HIT:   66825305 MISS:   37151674 MSHR_MERGE:    2339627
cpu0->cpu0_L1D LOAD         ACCESS:   78007462 HIT:   48027127 MISS:   29980335 MSHR_MERGE:    1382466
cpu0->cpu0_L1D RFO          ACCESS:          0 HIT:          0 MISS:          0 MSHR_MERGE:          0
cpu0->cpu0_L1D PREFETCH     ACCESS:   19445822 HIT:   12529297 MISS:    6916525 MSHR_MERGE:     858774
cpu0->cpu0_L1D WRITE        ACCESS:    6466206 HIT:    6218050 MISS:     248156 MSHR_MERGE:      98299
cpu0->cpu0_L1D TRANSLATION  ACCESS:      57489 HIT:      50831 MISS:       6658 MSHR_MERGE:         88
cpu0->cpu0_L1D PREFETCH REQUESTED:  369706940 ISSUED:   19445824 USEFUL:    5411333 USELESS:     646378
cpu0->cpu0_L1D AVERAGE MISS LATENCY: 17.55 cycles
cpu0->cpu0_ITLB TOTAL        ACCESS:   14546782 HIT:   14546757 MISS:         25 MSHR_MERGE:          8
cpu0->cpu0_ITLB LOAD         ACCESS:   14546782 HIT:   14546757 MISS:         25 MSHR_MERGE:          8
cpu0->cpu0_ITLB RFO          ACCESS:          0 HIT:          0 MISS:          0 MSHR_MERGE:          0
cpu0->cpu0_ITLB PREFETCH     ACCESS:          0 HIT:          0 MISS:          0 MSHR_MERGE:          0
cpu0->cpu0_ITLB WRITE        ACCESS:          0 HIT:          0 MISS:          0 MSHR_MERGE:          0
cpu0->cpu0_ITLB TRANSLATION  ACCESS:          0 HIT:          0 MISS:          0 MSHR_MERGE:          0
cpu0->cpu0_ITLB PREFETCH REQUESTED:          0 ISSUED:          0 USEFUL:          0 USELESS:          0
cpu0->cpu0_ITLB AVERAGE MISS LATENCY: 437.9 cycles
cpu0->cpu0_DTLB TOTAL        ACCESS:   87243992 HIT:   86834582 MISS:     409410 MSHR_MERGE:     205560
cpu0->cpu0_DTLB LOAD         ACCESS:   87243992 HIT:   86834582 MISS:     409410 MSHR_MERGE:     205560
cpu0->cpu0_DTLB RFO          ACCESS:          0 HIT:          0 MISS:          0 MSHR_MERGE:          0
cpu0->cpu0_DTLB PREFETCH     ACCESS:          0 HIT:          0 MISS:          0 MSHR_MERGE:          0
cpu0->cpu0_DTLB WRITE        ACCESS:          0 HIT:          0 MISS:          0 MSHR_MERGE:          0
cpu0->cpu0_DTLB TRANSLATION  ACCESS:          0 HIT:          0 MISS:          0 MSHR_MERGE:          0
cpu0->cpu0_DTLB PREFETCH REQUESTED:          0 ISSUED:          0 USEFUL:          0 USELESS:          0
cpu0->cpu0_DTLB AVERAGE MISS LATENCY: 16.37 cycles
cpu0->LLC TOTAL        ACCESS:    2372249 HIT:     561352 MISS:    1810897 MSHR_MERGE:          0
cpu0->LLC LOAD         ACCESS:     498719 HIT:     120115 MISS:     378604 MSHR_MERGE:          0
cpu0->LLC RFO          ACCESS:     110206 HIT:      20869 MISS:      89337 MSHR_MERGE:          0
cpu0->LLC PREFETCH     ACCESS:    1627277 HIT:     363432 MISS:    1263845 MSHR_MERGE:          0
cpu0->LLC WRITE        ACCESS:     131730 HIT:      56208 MISS:      75522 MSHR_MERGE:          0
cpu0->LLC TRANSLATION  ACCESS:       4317 HIT:        728 MISS:       3589 MSHR_MERGE:          0
cpu0->LLC PREFETCH REQUESTED:          0 ISSUED:          0 USEFUL:          0 USELESS:          0
cpu0->LLC AVERAGE MISS LATENCY: 199 cycles

DRAM Statistics

Channel 0 RQ ROW_BUFFER_HIT:     612346
  ROW_BUFFER_MISS:    1122890
  AVG DBUS CONGESTED CYCLE: 5.446
Channel 0 WQ ROW_BUFFER_HIT:       6315
  ROW_BUFFER_MISS:      76778
  FULL:        792
Channel 0 REFRESHES ISSUED:       9316
