[VMEM] WARNING: physical memory size is smaller than virtual memory size.

*** ChampSim Multicore Out-of-Order Simulator ***
Warmup Instructions: 50000000
Simulation Instructions: 200000000
Number of CPUs: 1
Page size: 4096
Core 0: /local-ssd/ben/dpc4-traces/ai-ml/rwkv_trace_1.champsimtrace.gz
sBerti (Smart Stride + Berti) Prefetcher Initialized
Off-chip DRAM Size: 64 GiB Channels: 1 Width: 64-bit Data Rate: 4807 MT/s
Heartbeat CPU 0 instructions: 500005 cycles: 127203 heartbeat IPC: 3.931 cumulative IPC: 3.931 (Simulation time: 00 hr 00 min 02 sec)
Heartbeat CPU 0 instructions: 1000010 cycles: 228432 heartbeat IPC: 4.939 cumulative IPC: 4.378 (Simulation time: 00 hr 00 min 04 sec)
Heartbeat CPU 0 instructions: 1500016 cycles: 330065 heartbeat IPC: 4.92 cumulative IPC: 4.545 (Simulation time: 00 hr 00 min 06 sec)
Heartbeat CPU 0 instructions: 2000019 cycles: 432258 heartbeat IPC: 4.893 cumulative IPC: 4.627 (Simulation time: 00 hr 00 min 07 sec)
Heartbeat CPU 0 instructions: 2500024 cycles: 535621 heartbeat IPC: 4.837 cumulative IPC: 4.668 (Simulation time: 00 hr 00 min 09 sec)
Heartbeat CPU 0 instructions: 3000026 cycles: 645975 heartbeat IPC: 4.531 cumulative IPC: 4.644 (Simulation time: 00 hr 00 min 11 sec)
Heartbeat CPU 0 instructions: 3500026 cycles: 745975 heartbeat IPC: 5 cumulative IPC: 4.692 (Simulation time: 00 hr 00 min 12 sec)
Heartbeat CPU 0 instructions: 4000027 cycles: 847855 heartbeat IPC: 4.908 cumulative IPC: 4.718 (Simulation time: 00 hr 00 min 13 sec)
Heartbeat CPU 0 instructions: 4500029 cycles: 947856 heartbeat IPC: 5 cumulative IPC: 4.748 (Simulation time: 00 hr 00 min 15 sec)
Heartbeat CPU 0 instructions: 5000032 cycles: 1047856 heartbeat IPC: 5 cumulative IPC: 4.772 (Simulation time: 00 hr 00 min 16 sec)
Heartbeat CPU 0 instructions: 5500037 cycles: 1147858 heartbeat IPC: 5 cumulative IPC: 4.792 (Simulation time: 00 hr 00 min 18 sec)
Heartbeat CPU 0 instructions: 6000042 cycles: 1247855 heartbeat IPC: 5 cumulative IPC: 4.808 (Simulation time: 00 hr 00 min 20 sec)
Heartbeat CPU 0 instructions: 6500049 cycles: 1347971 heartbeat IPC: 4.994 cumulative IPC: 4.822 (Simulation time: 00 hr 00 min 21 sec)
Heartbeat CPU 0 instructions: 7000050 cycles: 1462723 heartbeat IPC: 4.357 cumulative IPC: 4.786 (Simulation time: 00 hr 00 min 23 sec)
Heartbeat CPU 0 instructions: 7500053 cycles: 1583324 heartbeat IPC: 4.146 cumulative IPC: 4.737 (Simulation time: 00 hr 00 min 24 sec)
Heartbeat CPU 0 instructions: 8000056 cycles: 1683326 heartbeat IPC: 5 cumulative IPC: 4.753 (Simulation time: 00 hr 00 min 26 sec)
Heartbeat CPU 0 instructions: 8500063 cycles: 1783326 heartbeat IPC: 5 cumulative IPC: 4.766 (Simulation time: 00 hr 00 min 27 sec)
Heartbeat CPU 0 instructions: 9000066 cycles: 1883326 heartbeat IPC: 5 cumulative IPC: 4.779 (Simulation time: 00 hr 00 min 29 sec)
Heartbeat CPU 0 instructions: 9500067 cycles: 1983320 heartbeat IPC: 5 cumulative IPC: 4.79 (Simulation time: 00 hr 00 min 31 sec)
Heartbeat CPU 0 instructions: 10000067 cycles: 2083321 heartbeat IPC: 5 cumulative IPC: 4.8 (Simulation time: 00 hr 00 min 32 sec)
Heartbeat CPU 0 instructions: 10500071 cycles: 2184450 heartbeat IPC: 4.944 cumulative IPC: 4.807 (Simulation time: 00 hr 00 min 34 sec)
Heartbeat CPU 0 instructions: 11000071 cycles: 2296293 heartbeat IPC: 4.471 cumulative IPC: 4.79 (Simulation time: 00 hr 00 min 35 sec)
Heartbeat CPU 0 instructions: 11500076 cycles: 2411490 heartbeat IPC: 4.34 cumulative IPC: 4.769 (Simulation time: 00 hr 00 min 37 sec)
Heartbeat CPU 0 instructions: 12000079 cycles: 2526930 heartbeat IPC: 4.331 cumulative IPC: 4.749 (Simulation time: 00 hr 00 min 39 sec)
Heartbeat CPU 0 instructions: 12500084 cycles: 2643699 heartbeat IPC: 4.282 cumulative IPC: 4.728 (Simulation time: 00 hr 00 min 42 sec)
Heartbeat CPU 0 instructions: 13000084 cycles: 2794421 heartbeat IPC: 3.317 cumulative IPC: 4.652 (Simulation time: 00 hr 00 min 44 sec)
Heartbeat CPU 0 instructions: 13500088 cycles: 3244250 heartbeat IPC: 1.112 cumulative IPC: 4.161 (Simulation time: 00 hr 00 min 52 sec)
Heartbeat CPU 0 instructions: 14000088 cycles: 3694719 heartbeat IPC: 1.11 cumulative IPC: 3.789 (Simulation time: 00 hr 01 min 00 sec)
Heartbeat CPU 0 instructions: 14500088 cycles: 4144999 heartbeat IPC: 1.11 cumulative IPC: 3.498 (Simulation time: 00 hr 01 min 07 sec)
Heartbeat CPU 0 instructions: 15000091 cycles: 4596864 heartbeat IPC: 1.107 cumulative IPC: 3.263 (Simulation time: 00 hr 01 min 15 sec)
Heartbeat CPU 0 instructions: 15500095 cycles: 5046919 heartbeat IPC: 1.111 cumulative IPC: 3.071 (Simulation time: 00 hr 01 min 23 sec)
Heartbeat CPU 0 instructions: 16000101 cycles: 5496416 heartbeat IPC: 1.112 cumulative IPC: 2.911 (Simulation time: 00 hr 01 min 30 sec)
Heartbeat CPU 0 instructions: 16500103 cycles: 5946219 heartbeat IPC: 1.112 cumulative IPC: 2.775 (Simulation time: 00 hr 01 min 38 sec)
Heartbeat CPU 0 instructions: 17000103 cycles: 6397020 heartbeat IPC: 1.109 cumulative IPC: 2.658 (Simulation time: 00 hr 01 min 46 sec)
Heartbeat CPU 0 instructions: 17500107 cycles: 6847473 heartbeat IPC: 1.11 cumulative IPC: 2.556 (Simulation time: 00 hr 01 min 54 sec)
Heartbeat CPU 0 instructions: 18000113 cycles: 7298209 heartbeat IPC: 1.109 cumulative IPC: 2.466 (Simulation time: 00 hr 02 min 02 sec)
Heartbeat CPU 0 instructions: 18500115 cycles: 7748642 heartbeat IPC: 1.11 cumulative IPC: 2.388 (Simulation time: 00 hr 02 min 09 sec)
Heartbeat CPU 0 instructions: 19000120 cycles: 8199573 heartbeat IPC: 1.109 cumulative IPC: 2.317 (Simulation time: 00 hr 02 min 17 sec)
Heartbeat CPU 0 instructions: 19500123 cycles: 8650896 heartbeat IPC: 1.108 cumulative IPC: 2.254 (Simulation time: 00 hr 02 min 25 sec)
Heartbeat CPU 0 instructions: 20000128 cycles: 9101167 heartbeat IPC: 1.11 cumulative IPC: 2.198 (Simulation time: 00 hr 02 min 33 sec)
Heartbeat CPU 0 instructions: 20500134 cycles: 9551467 heartbeat IPC: 1.11 cumulative IPC: 2.146 (Simulation time: 00 hr 02 min 41 sec)
Heartbeat CPU 0 instructions: 21000134 cycles: 10002065 heartbeat IPC: 1.11 cumulative IPC: 2.1 (Simulation time: 00 hr 02 min 48 sec)
Heartbeat CPU 0 instructions: 21500134 cycles: 10452539 heartbeat IPC: 1.11 cumulative IPC: 2.057 (Simulation time: 00 hr 02 min 56 sec)
Heartbeat CPU 0 instructions: 22000139 cycles: 10902542 heartbeat IPC: 1.111 cumulative IPC: 2.018 (Simulation time: 00 hr 03 min 04 sec)
Heartbeat CPU 0 instructions: 22500141 cycles: 11353277 heartbeat IPC: 1.109 cumulative IPC: 1.982 (Simulation time: 00 hr 03 min 12 sec)
Heartbeat CPU 0 instructions: 23000146 cycles: 11803181 heartbeat IPC: 1.111 cumulative IPC: 1.949 (Simulation time: 00 hr 03 min 20 sec)
Heartbeat CPU 0 instructions: 23500150 cycles: 12253567 heartbeat IPC: 1.11 cumulative IPC: 1.918 (Simulation time: 00 hr 03 min 28 sec)
Heartbeat CPU 0 instructions: 24000150 cycles: 12702743 heartbeat IPC: 1.113 cumulative IPC: 1.889 (Simulation time: 00 hr 03 min 35 sec)
Heartbeat CPU 0 instructions: 24500153 cycles: 13154056 heartbeat IPC: 1.108 cumulative IPC: 1.863 (Simulation time: 00 hr 03 min 43 sec)
Heartbeat CPU 0 instructions: 25000159 cycles: 13605075 heartbeat IPC: 1.109 cumulative IPC: 1.838 (Simulation time: 00 hr 03 min 51 sec)
Heartbeat CPU 0 instructions: 25500160 cycles: 14054950 heartbeat IPC: 1.111 cumulative IPC: 1.814 (Simulation time: 00 hr 03 min 59 sec)
Heartbeat CPU 0 instructions: 26000165 cycles: 14504545 heartbeat IPC: 1.112 cumulative IPC: 1.793 (Simulation time: 00 hr 04 min 07 sec)
Heartbeat CPU 0 instructions: 26500168 cycles: 14954409 heartbeat IPC: 1.111 cumulative IPC: 1.772 (Simulation time: 00 hr 04 min 15 sec)
Heartbeat CPU 0 instructions: 27000170 cycles: 15405525 heartbeat IPC: 1.108 cumulative IPC: 1.753 (Simulation time: 00 hr 04 min 22 sec)
Heartbeat CPU 0 instructions: 27500171 cycles: 15854495 heartbeat IPC: 1.114 cumulative IPC: 1.735 (Simulation time: 00 hr 04 min 30 sec)
Heartbeat CPU 0 instructions: 28000177 cycles: 16305579 heartbeat IPC: 1.108 cumulative IPC: 1.717 (Simulation time: 00 hr 04 min 38 sec)
Heartbeat CPU 0 instructions: 28500180 cycles: 16754264 heartbeat IPC: 1.114 cumulative IPC: 1.701 (Simulation time: 00 hr 04 min 46 sec)
Heartbeat CPU 0 instructions: 29000183 cycles: 17204397 heartbeat IPC: 1.111 cumulative IPC: 1.686 (Simulation time: 00 hr 04 min 54 sec)
Heartbeat CPU 0 instructions: 29500187 cycles: 17654334 heartbeat IPC: 1.111 cumulative IPC: 1.671 (Simulation time: 00 hr 05 min 02 sec)
Heartbeat CPU 0 instructions: 30000192 cycles: 18105200 heartbeat IPC: 1.109 cumulative IPC: 1.657 (Simulation time: 00 hr 05 min 09 sec)
Heartbeat CPU 0 instructions: 30500196 cycles: 18554689 heartbeat IPC: 1.112 cumulative IPC: 1.644 (Simulation time: 00 hr 05 min 17 sec)
Heartbeat CPU 0 instructions: 31000196 cycles: 19004445 heartbeat IPC: 1.112 cumulative IPC: 1.631 (Simulation time: 00 hr 05 min 25 sec)
Heartbeat CPU 0 instructions: 31500202 cycles: 19452824 heartbeat IPC: 1.115 cumulative IPC: 1.619 (Simulation time: 00 hr 05 min 33 sec)
Heartbeat CPU 0 instructions: 32000204 cycles: 19902242 heartbeat IPC: 1.113 cumulative IPC: 1.608 (Simulation time: 00 hr 05 min 41 sec)
Heartbeat CPU 0 instructions: 32500206 cycles: 20351833 heartbeat IPC: 1.112 cumulative IPC: 1.597 (Simulation time: 00 hr 05 min 49 sec)
Heartbeat CPU 0 instructions: 33000211 cycles: 20801829 heartbeat IPC: 1.111 cumulative IPC: 1.586 (Simulation time: 00 hr 05 min 56 sec)
Heartbeat CPU 0 instructions: 33500215 cycles: 21252530 heartbeat IPC: 1.109 cumulative IPC: 1.576 (Simulation time: 00 hr 06 min 04 sec)
Heartbeat CPU 0 instructions: 34000220 cycles: 21702713 heartbeat IPC: 1.111 cumulative IPC: 1.567 (Simulation time: 00 hr 06 min 12 sec)
Heartbeat CPU 0 instructions: 34500226 cycles: 22154259 heartbeat IPC: 1.107 cumulative IPC: 1.557 (Simulation time: 00 hr 06 min 20 sec)
Heartbeat CPU 0 instructions: 35000226 cycles: 22604861 heartbeat IPC: 1.11 cumulative IPC: 1.548 (Simulation time: 00 hr 06 min 28 sec)
Heartbeat CPU 0 instructions: 35500227 cycles: 23054717 heartbeat IPC: 1.111 cumulative IPC: 1.54 (Simulation time: 00 hr 06 min 36 sec)
Heartbeat CPU 0 instructions: 36000230 cycles: 23504520 heartbeat IPC: 1.112 cumulative IPC: 1.532 (Simulation time: 00 hr 06 min 43 sec)
Heartbeat CPU 0 instructions: 36500237 cycles: 23941984 heartbeat IPC: 1.143 cumulative IPC: 1.525 (Simulation time: 00 hr 06 min 50 sec)
Heartbeat CPU 0 instructions: 37000237 cycles: 24383869 heartbeat IPC: 1.132 cumulative IPC: 1.517 (Simulation time: 00 hr 06 min 56 sec)
Heartbeat CPU 0 instructions: 37500244 cycles: 24768213 heartbeat IPC: 1.301 cumulative IPC: 1.514 (Simulation time: 00 hr 07 min 02 sec)
Heartbeat CPU 0 instructions: 38000244 cycles: 25150821 heartbeat IPC: 1.307 cumulative IPC: 1.511 (Simulation time: 00 hr 07 min 07 sec)
Heartbeat CPU 0 instructions: 38500247 cycles: 25535654 heartbeat IPC: 1.299 cumulative IPC: 1.508 (Simulation time: 00 hr 07 min 13 sec)
Heartbeat CPU 0 instructions: 39000247 cycles: 25916726 heartbeat IPC: 1.312 cumulative IPC: 1.505 (Simulation time: 00 hr 07 min 19 sec)
Heartbeat CPU 0 instructions: 39500249 cycles: 26301413 heartbeat IPC: 1.3 cumulative IPC: 1.502 (Simulation time: 00 hr 07 min 24 sec)
Heartbeat CPU 0 instructions: 40000249 cycles: 26732314 heartbeat IPC: 1.16 cumulative IPC: 1.496 (Simulation time: 00 hr 07 min 30 sec)
Heartbeat CPU 0 instructions: 40500252 cycles: 27183410 heartbeat IPC: 1.108 cumulative IPC: 1.49 (Simulation time: 00 hr 07 min 37 sec)
Heartbeat CPU 0 instructions: 41000257 cycles: 27639125 heartbeat IPC: 1.097 cumulative IPC: 1.483 (Simulation time: 00 hr 07 min 44 sec)
Heartbeat CPU 0 instructions: 41500264 cycles: 28099386 heartbeat IPC: 1.086 cumulative IPC: 1.477 (Simulation time: 00 hr 07 min 51 sec)
Heartbeat CPU 0 instructions: 42000264 cycles: 28556080 heartbeat IPC: 1.095 cumulative IPC: 1.471 (Simulation time: 00 hr 07 min 57 sec)
Heartbeat CPU 0 instructions: 42500267 cycles: 29004422 heartbeat IPC: 1.115 cumulative IPC: 1.465 (Simulation time: 00 hr 08 min 04 sec)
Heartbeat CPU 0 instructions: 43000273 cycles: 29395238 heartbeat IPC: 1.279 cumulative IPC: 1.463 (Simulation time: 00 hr 08 min 10 sec)
Heartbeat CPU 0 instructions: 43500274 cycles: 29781916 heartbeat IPC: 1.293 cumulative IPC: 1.461 (Simulation time: 00 hr 08 min 16 sec)
Heartbeat CPU 0 instructions: 44000276 cycles: 30236028 heartbeat IPC: 1.101 cumulative IPC: 1.455 (Simulation time: 00 hr 08 min 22 sec)
Heartbeat CPU 0 instructions: 44500276 cycles: 30684994 heartbeat IPC: 1.114 cumulative IPC: 1.45 (Simulation time: 00 hr 08 min 29 sec)
Heartbeat CPU 0 instructions: 45000278 cycles: 31129158 heartbeat IPC: 1.126 cumulative IPC: 1.446 (Simulation time: 00 hr 08 min 36 sec)
Heartbeat CPU 0 instructions: 45500278 cycles: 31579694 heartbeat IPC: 1.11 cumulative IPC: 1.441 (Simulation time: 00 hr 08 min 43 sec)
Heartbeat CPU 0 instructions: 46000279 cycles: 32040545 heartbeat IPC: 1.085 cumulative IPC: 1.436 (Simulation time: 00 hr 08 min 50 sec)
Heartbeat CPU 0 instructions: 46500280 cycles: 32464707 heartbeat IPC: 1.179 cumulative IPC: 1.432 (Simulation time: 00 hr 08 min 56 sec)
Heartbeat CPU 0 instructions: 47000280 cycles: 32849179 heartbeat IPC: 1.3 cumulative IPC: 1.431 (Simulation time: 00 hr 09 min 02 sec)
Heartbeat CPU 0 instructions: 47500287 cycles: 33231158 heartbeat IPC: 1.309 cumulative IPC: 1.429 (Simulation time: 00 hr 09 min 07 sec)
Heartbeat CPU 0 instructions: 48000293 cycles: 33615805 heartbeat IPC: 1.3 cumulative IPC: 1.428 (Simulation time: 00 hr 09 min 13 sec)
Heartbeat CPU 0 instructions: 48500298 cycles: 33999118 heartbeat IPC: 1.304 cumulative IPC: 1.427 (Simulation time: 00 hr 09 min 18 sec)
Heartbeat CPU 0 instructions: 49000305 cycles: 34383761 heartbeat IPC: 1.3 cumulative IPC: 1.425 (Simulation time: 00 hr 09 min 24 sec)
Heartbeat CPU 0 instructions: 49500310 cycles: 34767124 heartbeat IPC: 1.304 cumulative IPC: 1.424 (Simulation time: 00 hr 09 min 29 sec)
Warmup halting CPU 0 at instruction 50000002 cycle 35151413 for remainder of phase
Warmup finished CPU 0 instructions: 50000002 cycles: 35151413 cumulative IPC: 1.422 (Simulation time: 00 hr 09 min 35 sec)
Warmup complete CPU 0 instructions: 50000002 cycles: 35151413 cumulative IPC: 1.422 (Simulation time: 00 hr 09 min 35 sec)
Heartbeat CPU 0 instructions: 50000317 cycles: 35153344 heartbeat IPC: 1.295 cumulative IPC: 0.1631 (Simulation time: 00 hr 09 min 35 sec)
Heartbeat CPU 0 instructions: 50500324 cycles: 39852862 heartbeat IPC: 0.1064 cumulative IPC: 0.1064 (Simulation time: 00 hr 10 min 55 sec)
Heartbeat CPU 0 instructions: 51000327 cycles: 44870874 heartbeat IPC: 0.09964 cumulative IPC: 0.1029 (Simulation time: 00 hr 12 min 20 sec)
Heartbeat CPU 0 instructions: 51500330 cycles: 49897323 heartbeat IPC: 0.09947 cumulative IPC: 0.1017 (Simulation time: 00 hr 13 min 46 sec)
Heartbeat CPU 0 instructions: 52000331 cycles: 54930803 heartbeat IPC: 0.09934 cumulative IPC: 0.1011 (Simulation time: 00 hr 15 min 11 sec)
Heartbeat CPU 0 instructions: 52500333 cycles: 59933539 heartbeat IPC: 0.09995 cumulative IPC: 0.1009 (Simulation time: 00 hr 16 min 36 sec)
Heartbeat CPU 0 instructions: 53000338 cycles: 64957463 heartbeat IPC: 0.09952 cumulative IPC: 0.1007 (Simulation time: 00 hr 18 min 02 sec)
Heartbeat CPU 0 instructions: 53500338 cycles: 68936789 heartbeat IPC: 0.1256 cumulative IPC: 0.1036 (Simulation time: 00 hr 19 min 09 sec)
Heartbeat CPU 0 instructions: 54000339 cycles: 73007651 heartbeat IPC: 0.1228 cumulative IPC: 0.1057 (Simulation time: 00 hr 20 min 18 sec)
Heartbeat CPU 0 instructions: 54500341 cycles: 78008044 heartbeat IPC: 0.09999 cumulative IPC: 0.105 (Simulation time: 00 hr 21 min 43 sec)
Heartbeat CPU 0 instructions: 55000347 cycles: 83026537 heartbeat IPC: 0.09963 cumulative IPC: 0.1044 (Simulation time: 00 hr 23 min 08 sec)
Heartbeat CPU 0 instructions: 55500351 cycles: 88018994 heartbeat IPC: 0.1002 cumulative IPC: 0.104 (Simulation time: 00 hr 24 min 33 sec)
Heartbeat CPU 0 instructions: 56000358 cycles: 93021174 heartbeat IPC: 0.09996 cumulative IPC: 0.1037 (Simulation time: 00 hr 25 min 57 sec)
Heartbeat CPU 0 instructions: 56500365 cycles: 98024899 heartbeat IPC: 0.09993 cumulative IPC: 0.1034 (Simulation time: 00 hr 27 min 22 sec)
Heartbeat CPU 0 instructions: 57000368 cycles: 102477139 heartbeat IPC: 0.1123 cumulative IPC: 0.104 (Simulation time: 00 hr 28 min 37 sec)
Heartbeat CPU 0 instructions: 57500371 cycles: 106437229 heartbeat IPC: 0.1263 cumulative IPC: 0.1052 (Simulation time: 00 hr 29 min 45 sec)
Heartbeat CPU 0 instructions: 58000372 cycles: 110401157 heartbeat IPC: 0.1261 cumulative IPC: 0.1063 (Simulation time: 00 hr 30 min 52 sec)
Heartbeat CPU 0 instructions: 58500376 cycles: 114365568 heartbeat IPC: 0.1261 cumulative IPC: 0.1073 (Simulation time: 00 hr 31 min 59 sec)
Heartbeat CPU 0 instructions: 59000377 cycles: 118314353 heartbeat IPC: 0.1266 cumulative IPC: 0.1082 (Simulation time: 00 hr 33 min 06 sec)
Heartbeat CPU 0 instructions: 59500380 cycles: 122242058 heartbeat IPC: 0.1273 cumulative IPC: 0.1091 (Simulation time: 00 hr 34 min 13 sec)
Heartbeat CPU 0 instructions: 60000380 cycles: 126195239 heartbeat IPC: 0.1265 cumulative IPC: 0.1098 (Simulation time: 00 hr 35 min 20 sec)
Heartbeat CPU 0 instructions: 60500383 cycles: 130145603 heartbeat IPC: 0.1266 cumulative IPC: 0.1105 (Simulation time: 00 hr 36 min 27 sec)
Heartbeat CPU 0 instructions: 61000388 cycles: 134903014 heartbeat IPC: 0.1051 cumulative IPC: 0.1103 (Simulation time: 00 hr 37 min 47 sec)
Heartbeat CPU 0 instructions: 61500394 cycles: 139930790 heartbeat IPC: 0.09945 cumulative IPC: 0.1098 (Simulation time: 00 hr 39 min 13 sec)
Heartbeat CPU 0 instructions: 62000399 cycles: 144925454 heartbeat IPC: 0.1001 cumulative IPC: 0.1093 (Simulation time: 00 hr 40 min 38 sec)
Heartbeat CPU 0 instructions: 62500404 cycles: 149918724 heartbeat IPC: 0.1001 cumulative IPC: 0.1089 (Simulation time: 00 hr 42 min 03 sec)
Heartbeat CPU 0 instructions: 63000408 cycles: 154904085 heartbeat IPC: 0.1003 cumulative IPC: 0.1086 (Simulation time: 00 hr 43 min 28 sec)
Heartbeat CPU 0 instructions: 63500411 cycles: 159835576 heartbeat IPC: 0.1014 cumulative IPC: 0.1083 (Simulation time: 00 hr 44 min 52 sec)
Heartbeat CPU 0 instructions: 64000418 cycles: 163734361 heartbeat IPC: 0.1282 cumulative IPC: 0.1089 (Simulation time: 00 hr 45 min 59 sec)
Heartbeat CPU 0 instructions: 64500425 cycles: 167779820 heartbeat IPC: 0.1236 cumulative IPC: 0.1093 (Simulation time: 00 hr 47 min 09 sec)
Heartbeat CPU 0 instructions: 65000426 cycles: 172783070 heartbeat IPC: 0.09994 cumulative IPC: 0.109 (Simulation time: 00 hr 48 min 34 sec)
Heartbeat CPU 0 instructions: 65500433 cycles: 177769837 heartbeat IPC: 0.1003 cumulative IPC: 0.1087 (Simulation time: 00 hr 49 min 59 sec)
Heartbeat CPU 0 instructions: 66000439 cycles: 182778076 heartbeat IPC: 0.09984 cumulative IPC: 0.1084 (Simulation time: 00 hr 51 min 24 sec)
Heartbeat CPU 0 instructions: 66500444 cycles: 187774704 heartbeat IPC: 0.1001 cumulative IPC: 0.1081 (Simulation time: 00 hr 52 min 47 sec)
Heartbeat CPU 0 instructions: 67000448 cycles: 192778414 heartbeat IPC: 0.09993 cumulative IPC: 0.1079 (Simulation time: 00 hr 54 min 10 sec)
Heartbeat CPU 0 instructions: 67500450 cycles: 197127344 heartbeat IPC: 0.115 cumulative IPC: 0.108 (Simulation time: 00 hr 55 min 22 sec)
Heartbeat CPU 0 instructions: 68000456 cycles: 201007698 heartbeat IPC: 0.1289 cumulative IPC: 0.1085 (Simulation time: 00 hr 56 min 26 sec)
Heartbeat CPU 0 instructions: 68500459 cycles: 204884989 heartbeat IPC: 0.129 cumulative IPC: 0.109 (Simulation time: 00 hr 57 min 29 sec)
Heartbeat CPU 0 instructions: 69000462 cycles: 208759847 heartbeat IPC: 0.129 cumulative IPC: 0.1094 (Simulation time: 00 hr 58 min 31 sec)
Heartbeat CPU 0 instructions: 69500469 cycles: 212632956 heartbeat IPC: 0.1291 cumulative IPC: 0.1099 (Simulation time: 00 hr 59 min 33 sec)
Heartbeat CPU 0 instructions: 70000475 cycles: 216515868 heartbeat IPC: 0.1288 cumulative IPC: 0.1103 (Simulation time: 01 hr 00 min 34 sec)
Heartbeat CPU 0 instructions: 70500475 cycles: 220355118 heartbeat IPC: 0.1302 cumulative IPC: 0.1107 (Simulation time: 01 hr 01 min 34 sec)
Heartbeat CPU 0 instructions: 71000478 cycles: 224212093 heartbeat IPC: 0.1296 cumulative IPC: 0.1111 (Simulation time: 01 hr 02 min 34 sec)
Heartbeat CPU 0 instructions: 71500479 cycles: 229020224 heartbeat IPC: 0.104 cumulative IPC: 0.1109 (Simulation time: 01 hr 03 min 48 sec)
Heartbeat CPU 0 instructions: 72000481 cycles: 234008753 heartbeat IPC: 0.1002 cumulative IPC: 0.1106 (Simulation time: 01 hr 05 min 04 sec)
Heartbeat CPU 0 instructions: 72500482 cycles: 238998313 heartbeat IPC: 0.1002 cumulative IPC: 0.1104 (Simulation time: 01 hr 06 min 19 sec)
Heartbeat CPU 0 instructions: 73000485 cycles: 243963272 heartbeat IPC: 0.1007 cumulative IPC: 0.1101 (Simulation time: 01 hr 07 min 33 sec)
Heartbeat CPU 0 instructions: 73500487 cycles: 248914809 heartbeat IPC: 0.101 cumulative IPC: 0.1099 (Simulation time: 01 hr 08 min 46 sec)
Heartbeat CPU 0 instructions: 74000490 cycles: 253739035 heartbeat IPC: 0.1036 cumulative IPC: 0.1098 (Simulation time: 01 hr 09 min 56 sec)
Heartbeat CPU 0 instructions: 74500494 cycles: 257610472 heartbeat IPC: 0.1292 cumulative IPC: 0.1101 (Simulation time: 01 hr 10 min 53 sec)
Heartbeat CPU 0 instructions: 75000500 cycles: 261738951 heartbeat IPC: 0.1211 cumulative IPC: 0.1103 (Simulation time: 01 hr 11 min 52 sec)
Heartbeat CPU 0 instructions: 75500506 cycles: 266695397 heartbeat IPC: 0.1009 cumulative IPC: 0.1101 (Simulation time: 01 hr 13 min 03 sec)
Heartbeat CPU 0 instructions: 76000509 cycles: 271636898 heartbeat IPC: 0.1012 cumulative IPC: 0.1099 (Simulation time: 01 hr 14 min 13 sec)
Heartbeat CPU 0 instructions: 76500514 cycles: 276588435 heartbeat IPC: 0.101 cumulative IPC: 0.1098 (Simulation time: 01 hr 15 min 23 sec)
Heartbeat CPU 0 instructions: 77000517 cycles: 281572387 heartbeat IPC: 0.1003 cumulative IPC: 0.1096 (Simulation time: 01 hr 16 min 33 sec)
Heartbeat CPU 0 instructions: 77500519 cycles: 286517064 heartbeat IPC: 0.1011 cumulative IPC: 0.1094 (Simulation time: 01 hr 17 min 41 sec)
Heartbeat CPU 0 instructions: 78000520 cycles: 290741926 heartbeat IPC: 0.1183 cumulative IPC: 0.1096 (Simulation time: 01 hr 18 min 40 sec)
Heartbeat CPU 0 instructions: 78500520 cycles: 294621814 heartbeat IPC: 0.1289 cumulative IPC: 0.1098 (Simulation time: 01 hr 19 min 34 sec)
Heartbeat CPU 0 instructions: 79000521 cycles: 298498981 heartbeat IPC: 0.129 cumulative IPC: 0.1101 (Simulation time: 01 hr 20 min 27 sec)
Heartbeat CPU 0 instructions: 79500524 cycles: 302363641 heartbeat IPC: 0.1294 cumulative IPC: 0.1104 (Simulation time: 01 hr 21 min 18 sec)
Heartbeat CPU 0 instructions: 80000526 cycles: 306244665 heartbeat IPC: 0.1288 cumulative IPC: 0.1107 (Simulation time: 01 hr 22 min 09 sec)
Heartbeat CPU 0 instructions: 80500529 cycles: 310118715 heartbeat IPC: 0.1291 cumulative IPC: 0.1109 (Simulation time: 01 hr 23 min 00 sec)
Heartbeat CPU 0 instructions: 81000530 cycles: 313974425 heartbeat IPC: 0.1297 cumulative IPC: 0.1112 (Simulation time: 01 hr 23 min 51 sec)
Heartbeat CPU 0 instructions: 81500534 cycles: 317823713 heartbeat IPC: 0.1299 cumulative IPC: 0.1114 (Simulation time: 01 hr 24 min 42 sec)
Heartbeat CPU 0 instructions: 82000536 cycles: 322715599 heartbeat IPC: 0.1022 cumulative IPC: 0.1113 (Simulation time: 01 hr 25 min 46 sec)
Heartbeat CPU 0 instructions: 82500537 cycles: 327660223 heartbeat IPC: 0.1011 cumulative IPC: 0.1111 (Simulation time: 01 hr 26 min 50 sec)
Heartbeat CPU 0 instructions: 83000539 cycles: 332632696 heartbeat IPC: 0.1006 cumulative IPC: 0.1109 (Simulation time: 01 hr 27 min 55 sec)
Heartbeat CPU 0 instructions: 83500542 cycles: 337596432 heartbeat IPC: 0.1007 cumulative IPC: 0.1108 (Simulation time: 01 hr 29 min 00 sec)
Heartbeat CPU 0 instructions: 84000549 cycles: 342560372 heartbeat IPC: 0.1007 cumulative IPC: 0.1106 (Simulation time: 01 hr 30 min 05 sec)
Heartbeat CPU 0 instructions: 84500551 cycles: 347337689 heartbeat IPC: 0.1047 cumulative IPC: 0.1105 (Simulation time: 01 hr 31 min 07 sec)
Heartbeat CPU 0 instructions: 85000558 cycles: 351224389 heartbeat IPC: 0.1286 cumulative IPC: 0.1107 (Simulation time: 01 hr 31 min 58 sec)
Heartbeat CPU 0 instructions: 85500559 cycles: 355435606 heartbeat IPC: 0.1187 cumulative IPC: 0.1108 (Simulation time: 01 hr 32 min 54 sec)
Heartbeat CPU 0 instructions: 86000560 cycles: 360397009 heartbeat IPC: 0.1008 cumulative IPC: 0.1107 (Simulation time: 01 hr 33 min 58 sec)
Heartbeat CPU 0 instructions: 86500566 cycles: 365379609 heartbeat IPC: 0.1004 cumulative IPC: 0.1105 (Simulation time: 01 hr 35 min 03 sec)
Heartbeat CPU 0 instructions: 87000567 cycles: 370324363 heartbeat IPC: 0.1011 cumulative IPC: 0.1104 (Simulation time: 01 hr 36 min 08 sec)
Heartbeat CPU 0 instructions: 87500570 cycles: 375292707 heartbeat IPC: 0.1006 cumulative IPC: 0.1102 (Simulation time: 01 hr 37 min 13 sec)
Heartbeat CPU 0 instructions: 88000573 cycles: 380272565 heartbeat IPC: 0.1004 cumulative IPC: 0.1101 (Simulation time: 01 hr 38 min 18 sec)
Heartbeat CPU 0 instructions: 88500573 cycles: 384450169 heartbeat IPC: 0.1197 cumulative IPC: 0.1102 (Simulation time: 01 hr 39 min 12 sec)
Heartbeat CPU 0 instructions: 89000573 cycles: 388294397 heartbeat IPC: 0.1301 cumulative IPC: 0.1104 (Simulation time: 01 hr 40 min 03 sec)
Heartbeat CPU 0 instructions: 89500575 cycles: 392158796 heartbeat IPC: 0.1294 cumulative IPC: 0.1106 (Simulation time: 01 hr 40 min 54 sec)
Heartbeat CPU 0 instructions: 90000579 cycles: 395993970 heartbeat IPC: 0.1304 cumulative IPC: 0.1109 (Simulation time: 01 hr 41 min 45 sec)
Heartbeat CPU 0 instructions: 90500586 cycles: 399856777 heartbeat IPC: 0.1294 cumulative IPC: 0.1111 (Simulation time: 01 hr 42 min 36 sec)
Heartbeat CPU 0 instructions: 91000589 cycles: 403702236 heartbeat IPC: 0.13 cumulative IPC: 0.1112 (Simulation time: 01 hr 43 min 27 sec)
Heartbeat CPU 0 instructions: 91500595 cycles: 407558040 heartbeat IPC: 0.1297 cumulative IPC: 0.1114 (Simulation time: 01 hr 44 min 17 sec)
Heartbeat CPU 0 instructions: 92000596 cycles: 411407465 heartbeat IPC: 0.1299 cumulative IPC: 0.1116 (Simulation time: 01 hr 45 min 08 sec)
Heartbeat CPU 0 instructions: 92500600 cycles: 416364032 heartbeat IPC: 0.1009 cumulative IPC: 0.1115 (Simulation time: 01 hr 46 min 13 sec)
Heartbeat CPU 0 instructions: 93000600 cycles: 421309552 heartbeat IPC: 0.1011 cumulative IPC: 0.1114 (Simulation time: 01 hr 47 min 17 sec)
Heartbeat CPU 0 instructions: 93500601 cycles: 426287383 heartbeat IPC: 0.1004 cumulative IPC: 0.1112 (Simulation time: 01 hr 48 min 22 sec)
Heartbeat CPU 0 instructions: 94000604 cycles: 431245882 heartbeat IPC: 0.1008 cumulative IPC: 0.1111 (Simulation time: 01 hr 49 min 27 sec)
Heartbeat CPU 0 instructions: 94500606 cycles: 436214979 heartbeat IPC: 0.1006 cumulative IPC: 0.111 (Simulation time: 01 hr 50 min 32 sec)
Heartbeat CPU 0 instructions: 95000612 cycles: 440902605 heartbeat IPC: 0.1067 cumulative IPC: 0.1109 (Simulation time: 01 hr 51 min 33 sec)
Heartbeat CPU 0 instructions: 95500615 cycles: 444778789 heartbeat IPC: 0.129 cumulative IPC: 0.1111 (Simulation time: 01 hr 52 min 24 sec)
Heartbeat CPU 0 instructions: 96000615 cycles: 449038790 heartbeat IPC: 0.1174 cumulative IPC: 0.1111 (Simulation time: 01 hr 53 min 20 sec)
Heartbeat CPU 0 instructions: 96500616 cycles: 454007069 heartbeat IPC: 0.1006 cumulative IPC: 0.111 (Simulation time: 01 hr 54 min 25 sec)
Heartbeat CPU 0 instructions: 97000622 cycles: 458980905 heartbeat IPC: 0.1005 cumulative IPC: 0.1109 (Simulation time: 01 hr 55 min 30 sec)
Heartbeat CPU 0 instructions: 97500629 cycles: 463937819 heartbeat IPC: 0.1009 cumulative IPC: 0.1108 (Simulation time: 01 hr 56 min 35 sec)
Heartbeat CPU 0 instructions: 98000635 cycles: 468896113 heartbeat IPC: 0.1008 cumulative IPC: 0.1107 (Simulation time: 01 hr 57 min 40 sec)
Heartbeat CPU 0 instructions: 98500637 cycles: 473857675 heartbeat IPC: 0.1008 cumulative IPC: 0.1106 (Simulation time: 01 hr 58 min 44 sec)
Heartbeat CPU 0 instructions: 99000644 cycles: 477964363 heartbeat IPC: 0.1218 cumulative IPC: 0.1107 (Simulation time: 01 hr 59 min 38 sec)
Heartbeat CPU 0 instructions: 99500651 cycles: 481837601 heartbeat IPC: 0.1291 cumulative IPC: 0.1108 (Simulation time: 02 hr 00 min 30 sec)
Heartbeat CPU 0 instructions: 100000656 cycles: 485686853 heartbeat IPC: 0.1299 cumulative IPC: 0.111 (Simulation time: 02 hr 01 min 21 sec)
Heartbeat CPU 0 instructions: 100500659 cycles: 489573606 heartbeat IPC: 0.1286 cumulative IPC: 0.1111 (Simulation time: 02 hr 02 min 12 sec)
Heartbeat CPU 0 instructions: 101000659 cycles: 493433487 heartbeat IPC: 0.1295 cumulative IPC: 0.1113 (Simulation time: 02 hr 03 min 03 sec)
Heartbeat CPU 0 instructions: 101500662 cycles: 497292147 heartbeat IPC: 0.1296 cumulative IPC: 0.1114 (Simulation time: 02 hr 03 min 54 sec)
Heartbeat CPU 0 instructions: 102000665 cycles: 501148456 heartbeat IPC: 0.1297 cumulative IPC: 0.1116 (Simulation time: 02 hr 04 min 45 sec)
Heartbeat CPU 0 instructions: 102500665 cycles: 505057591 heartbeat IPC: 0.1279 cumulative IPC: 0.1117 (Simulation time: 02 hr 05 min 36 sec)
Heartbeat CPU 0 instructions: 103000671 cycles: 510032567 heartbeat IPC: 0.1005 cumulative IPC: 0.1116 (Simulation time: 02 hr 06 min 41 sec)
Heartbeat CPU 0 instructions: 103500673 cycles: 514996897 heartbeat IPC: 0.1007 cumulative IPC: 0.1115 (Simulation time: 02 hr 07 min 45 sec)
Heartbeat CPU 0 instructions: 104000675 cycles: 519950398 heartbeat IPC: 0.1009 cumulative IPC: 0.1114 (Simulation time: 02 hr 08 min 49 sec)
Heartbeat CPU 0 instructions: 104500675 cycles: 524933302 heartbeat IPC: 0.1003 cumulative IPC: 0.1113 (Simulation time: 02 hr 09 min 54 sec)
Heartbeat CPU 0 instructions: 105000678 cycles: 529887718 heartbeat IPC: 0.1009 cumulative IPC: 0.1112 (Simulation time: 02 hr 10 min 58 sec)
Heartbeat CPU 0 instructions: 105500685 cycles: 534528891 heartbeat IPC: 0.1077 cumulative IPC: 0.1111 (Simulation time: 02 hr 11 min 59 sec)
Heartbeat CPU 0 instructions: 106000689 cycles: 538379809 heartbeat IPC: 0.1298 cumulative IPC: 0.1113 (Simulation time: 02 hr 12 min 50 sec)
Heartbeat CPU 0 instructions: 106500694 cycles: 542724036 heartbeat IPC: 0.1151 cumulative IPC: 0.1113 (Simulation time: 02 hr 13 min 47 sec)
Heartbeat CPU 0 instructions: 107000696 cycles: 547668494 heartbeat IPC: 0.1011 cumulative IPC: 0.1112 (Simulation time: 02 hr 14 min 51 sec)
Heartbeat CPU 0 instructions: 107500702 cycles: 552641417 heartbeat IPC: 0.1005 cumulative IPC: 0.1111 (Simulation time: 02 hr 15 min 56 sec)
Heartbeat CPU 0 instructions: 108000707 cycles: 557613169 heartbeat IPC: 0.1006 cumulative IPC: 0.111 (Simulation time: 02 hr 17 min 00 sec)
Heartbeat CPU 0 instructions: 108500713 cycles: 562585555 heartbeat IPC: 0.1006 cumulative IPC: 0.1109 (Simulation time: 02 hr 18 min 05 sec)
Heartbeat CPU 0 instructions: 109000720 cycles: 567553585 heartbeat IPC: 0.1006 cumulative IPC: 0.1108 (Simulation time: 02 hr 19 min 10 sec)
Heartbeat CPU 0 instructions: 109500727 cycles: 571600961 heartbeat IPC: 0.1235 cumulative IPC: 0.1109 (Simulation time: 02 hr 20 min 02 sec)
Heartbeat CPU 0 instructions: 110000727 cycles: 575488431 heartbeat IPC: 0.1286 cumulative IPC: 0.111 (Simulation time: 02 hr 20 min 53 sec)
Heartbeat CPU 0 instructions: 110500731 cycles: 579356437 heartbeat IPC: 0.1293 cumulative IPC: 0.1112 (Simulation time: 02 hr 21 min 44 sec)
Heartbeat CPU 0 instructions: 111000738 cycles: 583252214 heartbeat IPC: 0.1283 cumulative IPC: 0.1113 (Simulation time: 02 hr 22 min 35 sec)
Heartbeat CPU 0 instructions: 111500743 cycles: 587113274 heartbeat IPC: 0.1295 cumulative IPC: 0.1114 (Simulation time: 02 hr 23 min 25 sec)
Heartbeat CPU 0 instructions: 112000744 cycles: 590945144 heartbeat IPC: 0.1305 cumulative IPC: 0.1116 (Simulation time: 02 hr 24 min 16 sec)
Heartbeat CPU 0 instructions: 112500747 cycles: 594795506 heartbeat IPC: 0.1299 cumulative IPC: 0.1117 (Simulation time: 02 hr 25 min 06 sec)
Heartbeat CPU 0 instructions: 113000752 cycles: 598793776 heartbeat IPC: 0.1251 cumulative IPC: 0.1118 (Simulation time: 02 hr 25 min 59 sec)
Heartbeat CPU 0 instructions: 113500754 cycles: 603690071 heartbeat IPC: 0.1021 cumulative IPC: 0.1117 (Simulation time: 02 hr 27 min 03 sec)
Heartbeat CPU 0 instructions: 114000760 cycles: 608584536 heartbeat IPC: 0.1022 cumulative IPC: 0.1116 (Simulation time: 02 hr 28 min 07 sec)
Heartbeat CPU 0 instructions: 114500762 cycles: 613478873 heartbeat IPC: 0.1022 cumulative IPC: 0.1115 (Simulation time: 02 hr 29 min 10 sec)
Heartbeat CPU 0 instructions: 115000763 cycles: 618382734 heartbeat IPC: 0.102 cumulative IPC: 0.1114 (Simulation time: 02 hr 30 min 14 sec)
Heartbeat CPU 0 instructions: 115500763 cycles: 623289789 heartbeat IPC: 0.1019 cumulative IPC: 0.1114 (Simulation time: 02 hr 31 min 18 sec)
Heartbeat CPU 0 instructions: 116000763 cycles: 627799616 heartbeat IPC: 0.1109 cumulative IPC: 0.1114 (Simulation time: 02 hr 32 min 17 sec)
Heartbeat CPU 0 instructions: 116500765 cycles: 631630678 heartbeat IPC: 0.1305 cumulative IPC: 0.1115 (Simulation time: 02 hr 33 min 07 sec)
Heartbeat CPU 0 instructions: 117000767 cycles: 636068958 heartbeat IPC: 0.1127 cumulative IPC: 0.1115 (Simulation time: 02 hr 34 min 05 sec)
Heartbeat CPU 0 instructions: 117500770 cycles: 640967506 heartbeat IPC: 0.1021 cumulative IPC: 0.1114 (Simulation time: 02 hr 35 min 09 sec)
Heartbeat CPU 0 instructions: 118000772 cycles: 645875512 heartbeat IPC: 0.1019 cumulative IPC: 0.1113 (Simulation time: 02 hr 36 min 13 sec)
Heartbeat CPU 0 instructions: 118500778 cycles: 650769623 heartbeat IPC: 0.1022 cumulative IPC: 0.1113 (Simulation time: 02 hr 37 min 16 sec)
Heartbeat CPU 0 instructions: 119000779 cycles: 655663307 heartbeat IPC: 0.1022 cumulative IPC: 0.1112 (Simulation time: 02 hr 38 min 20 sec)
Heartbeat CPU 0 instructions: 119500780 cycles: 660555234 heartbeat IPC: 0.1022 cumulative IPC: 0.1111 (Simulation time: 02 hr 39 min 23 sec)
Heartbeat CPU 0 instructions: 120000785 cycles: 664476956 heartbeat IPC: 0.1275 cumulative IPC: 0.1112 (Simulation time: 02 hr 40 min 15 sec)
Heartbeat CPU 0 instructions: 120500789 cycles: 668337668 heartbeat IPC: 0.1295 cumulative IPC: 0.1113 (Simulation time: 02 hr 41 min 05 sec)
Heartbeat CPU 0 instructions: 121000791 cycles: 672215780 heartbeat IPC: 0.1289 cumulative IPC: 0.1114 (Simulation time: 02 hr 41 min 56 sec)
Heartbeat CPU 0 instructions: 121500794 cycles: 676047125 heartbeat IPC: 0.1305 cumulative IPC: 0.1116 (Simulation time: 02 hr 42 min 47 sec)
Heartbeat CPU 0 instructions: 122000798 cycles: 679903648 heartbeat IPC: 0.1297 cumulative IPC: 0.1117 (Simulation time: 02 hr 43 min 37 sec)
Heartbeat CPU 0 instructions: 122500804 cycles: 683746093 heartbeat IPC: 0.1301 cumulative IPC: 0.1118 (Simulation time: 02 hr 44 min 28 sec)
Heartbeat CPU 0 instructions: 123000810 cycles: 687640199 heartbeat IPC: 0.1284 cumulative IPC: 0.1119 (Simulation time: 02 hr 45 min 19 sec)
Heartbeat CPU 0 instructions: 123500815 cycles: 691716611 heartbeat IPC: 0.1227 cumulative IPC: 0.1119 (Simulation time: 02 hr 46 min 11 sec)
Heartbeat CPU 0 instructions: 124000818 cycles: 696641913 heartbeat IPC: 0.1015 cumulative IPC: 0.1119 (Simulation time: 02 hr 47 min 15 sec)
Heartbeat CPU 0 instructions: 124500819 cycles: 701567973 heartbeat IPC: 0.1015 cumulative IPC: 0.1118 (Simulation time: 02 hr 48 min 20 sec)
Heartbeat CPU 0 instructions: 125000821 cycles: 706468685 heartbeat IPC: 0.102 cumulative IPC: 0.1117 (Simulation time: 02 hr 49 min 23 sec)
Heartbeat CPU 0 instructions: 125500826 cycles: 711388039 heartbeat IPC: 0.1016 cumulative IPC: 0.1116 (Simulation time: 02 hr 50 min 27 sec)
Heartbeat CPU 0 instructions: 126000826 cycles: 716300536 heartbeat IPC: 0.1018 cumulative IPC: 0.1116 (Simulation time: 02 hr 51 min 31 sec)
Heartbeat CPU 0 instructions: 126500828 cycles: 720737628 heartbeat IPC: 0.1127 cumulative IPC: 0.1116 (Simulation time: 02 hr 52 min 29 sec)
Heartbeat CPU 0 instructions: 127000831 cycles: 724591976 heartbeat IPC: 0.1297 cumulative IPC: 0.1117 (Simulation time: 02 hr 53 min 19 sec)
Heartbeat CPU 0 instructions: 127500835 cycles: 729072568 heartbeat IPC: 0.1116 cumulative IPC: 0.1117 (Simulation time: 02 hr 54 min 18 sec)
Heartbeat CPU 0 instructions: 128000837 cycles: 733977859 heartbeat IPC: 0.1019 cumulative IPC: 0.1116 (Simulation time: 02 hr 55 min 21 sec)
Heartbeat CPU 0 instructions: 128500839 cycles: 738901225 heartbeat IPC: 0.1016 cumulative IPC: 0.1115 (Simulation time: 02 hr 56 min 25 sec)
Heartbeat CPU 0 instructions: 129000845 cycles: 743792452 heartbeat IPC: 0.1022 cumulative IPC: 0.1115 (Simulation time: 02 hr 57 min 29 sec)
Heartbeat CPU 0 instructions: 129500850 cycles: 748708645 heartbeat IPC: 0.1017 cumulative IPC: 0.1114 (Simulation time: 02 hr 58 min 33 sec)
Heartbeat CPU 0 instructions: 130000853 cycles: 753615668 heartbeat IPC: 0.1019 cumulative IPC: 0.1113 (Simulation time: 02 hr 59 min 36 sec)
Heartbeat CPU 0 instructions: 130500856 cycles: 757487803 heartbeat IPC: 0.1291 cumulative IPC: 0.1114 (Simulation time: 03 hr 00 min 27 sec)
Heartbeat CPU 0 instructions: 131000859 cycles: 761339136 heartbeat IPC: 0.1298 cumulative IPC: 0.1115 (Simulation time: 03 hr 01 min 18 sec)
Heartbeat CPU 0 instructions: 131500862 cycles: 765190768 heartbeat IPC: 0.1298 cumulative IPC: 0.1116 (Simulation time: 03 hr 02 min 08 sec)
Heartbeat CPU 0 instructions: 132000866 cycles: 769051139 heartbeat IPC: 0.1295 cumulative IPC: 0.1117 (Simulation time: 03 hr 02 min 58 sec)
Heartbeat CPU 0 instructions: 132500873 cycles: 772899201 heartbeat IPC: 0.1299 cumulative IPC: 0.1118 (Simulation time: 03 hr 03 min 49 sec)
Heartbeat CPU 0 instructions: 133000874 cycles: 776754850 heartbeat IPC: 0.1297 cumulative IPC: 0.1119 (Simulation time: 03 hr 04 min 39 sec)
Heartbeat CPU 0 instructions: 133500877 cycles: 780633630 heartbeat IPC: 0.1289 cumulative IPC: 0.112 (Simulation time: 03 hr 05 min 30 sec)
Heartbeat CPU 0 instructions: 134000879 cycles: 784763447 heartbeat IPC: 0.1211 cumulative IPC: 0.1121 (Simulation time: 03 hr 06 min 24 sec)
Heartbeat CPU 0 instructions: 134500885 cycles: 789685135 heartbeat IPC: 0.1016 cumulative IPC: 0.112 (Simulation time: 03 hr 07 min 27 sec)
Heartbeat CPU 0 instructions: 135000887 cycles: 794577106 heartbeat IPC: 0.1022 cumulative IPC: 0.1119 (Simulation time: 03 hr 08 min 31 sec)
Heartbeat CPU 0 instructions: 135500889 cycles: 799454632 heartbeat IPC: 0.1025 cumulative IPC: 0.1119 (Simulation time: 03 hr 09 min 34 sec)
Heartbeat CPU 0 instructions: 136000895 cycles: 804351375 heartbeat IPC: 0.1021 cumulative IPC: 0.1118 (Simulation time: 03 hr 10 min 38 sec)
Heartbeat CPU 0 instructions: 136500897 cycles: 809283050 heartbeat IPC: 0.1014 cumulative IPC: 0.1117 (Simulation time: 03 hr 11 min 42 sec)
Heartbeat CPU 0 instructions: 137000897 cycles: 813648401 heartbeat IPC: 0.1145 cumulative IPC: 0.1118 (Simulation time: 03 hr 12 min 39 sec)
Heartbeat CPU 0 instructions: 137500899 cycles: 817514403 heartbeat IPC: 0.1293 cumulative IPC: 0.1118 (Simulation time: 03 hr 13 min 29 sec)
Heartbeat CPU 0 instructions: 138000899 cycles: 822037345 heartbeat IPC: 0.1105 cumulative IPC: 0.1118 (Simulation time: 03 hr 14 min 28 sec)
Heartbeat CPU 0 instructions: 138500902 cycles: 826932286 heartbeat IPC: 0.1021 cumulative IPC: 0.1118 (Simulation time: 03 hr 15 min 31 sec)
Heartbeat CPU 0 instructions: 139000904 cycles: 831860948 heartbeat IPC: 0.1014 cumulative IPC: 0.1117 (Simulation time: 03 hr 16 min 35 sec)
Heartbeat CPU 0 instructions: 139500910 cycles: 836769465 heartbeat IPC: 0.1019 cumulative IPC: 0.1117 (Simulation time: 03 hr 17 min 39 sec)
Heartbeat CPU 0 instructions: 140000915 cycles: 841660499 heartbeat IPC: 0.1022 cumulative IPC: 0.1116 (Simulation time: 03 hr 18 min 42 sec)
Heartbeat CPU 0 instructions: 140500920 cycles: 846567585 heartbeat IPC: 0.1019 cumulative IPC: 0.1115 (Simulation time: 03 hr 19 min 46 sec)
Heartbeat CPU 0 instructions: 141000922 cycles: 850367959 heartbeat IPC: 0.1316 cumulative IPC: 0.1116 (Simulation time: 03 hr 20 min 35 sec)
Heartbeat CPU 0 instructions: 141500929 cycles: 854226665 heartbeat IPC: 0.1296 cumulative IPC: 0.1117 (Simulation time: 03 hr 21 min 25 sec)
Heartbeat CPU 0 instructions: 142000932 cycles: 858101351 heartbeat IPC: 0.129 cumulative IPC: 0.1118 (Simulation time: 03 hr 22 min 15 sec)
Heartbeat CPU 0 instructions: 142500932 cycles: 861953056 heartbeat IPC: 0.1298 cumulative IPC: 0.1119 (Simulation time: 03 hr 23 min 06 sec)
Heartbeat CPU 0 instructions: 143000939 cycles: 865846950 heartbeat IPC: 0.1284 cumulative IPC: 0.112 (Simulation time: 03 hr 23 min 56 sec)
Heartbeat CPU 0 instructions: 143500946 cycles: 869724149 heartbeat IPC: 0.129 cumulative IPC: 0.112 (Simulation time: 03 hr 24 min 47 sec)
Heartbeat CPU 0 instructions: 144000949 cycles: 873590382 heartbeat IPC: 0.1293 cumulative IPC: 0.1121 (Simulation time: 03 hr 25 min 37 sec)
Heartbeat CPU 0 instructions: 144500950 cycles: 877822887 heartbeat IPC: 0.1181 cumulative IPC: 0.1121 (Simulation time: 03 hr 26 min 32 sec)
Heartbeat CPU 0 instructions: 145000954 cycles: 882744256 heartbeat IPC: 0.1016 cumulative IPC: 0.1121 (Simulation time: 03 hr 27 min 36 sec)
Heartbeat CPU 0 instructions: 145500956 cycles: 887668603 heartbeat IPC: 0.1015 cumulative IPC: 0.112 (Simulation time: 03 hr 28 min 39 sec)
Heartbeat CPU 0 instructions: 146000957 cycles: 892609234 heartbeat IPC: 0.1012 cumulative IPC: 0.112 (Simulation time: 03 hr 29 min 43 sec)
Heartbeat CPU 0 instructions: 146500962 cycles: 897509855 heartbeat IPC: 0.102 cumulative IPC: 0.1119 (Simulation time: 03 hr 30 min 46 sec)
Heartbeat CPU 0 instructions: 147000968 cycles: 902439404 heartbeat IPC: 0.1014 cumulative IPC: 0.1118 (Simulation time: 03 hr 31 min 50 sec)
Heartbeat CPU 0 instructions: 147500971 cycles: 906729197 heartbeat IPC: 0.1166 cumulative IPC: 0.1119 (Simulation time: 03 hr 32 min 46 sec)
Heartbeat CPU 0 instructions: 148000978 cycles: 910588043 heartbeat IPC: 0.1296 cumulative IPC: 0.1119 (Simulation time: 03 hr 33 min 36 sec)
Heartbeat CPU 0 instructions: 148500981 cycles: 915211091 heartbeat IPC: 0.1082 cumulative IPC: 0.1119 (Simulation time: 03 hr 34 min 36 sec)
Heartbeat CPU 0 instructions: 149000983 cycles: 920126807 heartbeat IPC: 0.1017 cumulative IPC: 0.1119 (Simulation time: 03 hr 35 min 39 sec)
Heartbeat CPU 0 instructions: 149500988 cycles: 925038943 heartbeat IPC: 0.1018 cumulative IPC: 0.1118 (Simulation time: 03 hr 36 min 43 sec)
Heartbeat CPU 0 instructions: 150000991 cycles: 929957430 heartbeat IPC: 0.1017 cumulative IPC: 0.1118 (Simulation time: 03 hr 37 min 46 sec)
Heartbeat CPU 0 instructions: 150500996 cycles: 934856835 heartbeat IPC: 0.1021 cumulative IPC: 0.1117 (Simulation time: 03 hr 38 min 49 sec)
Heartbeat CPU 0 instructions: 151000997 cycles: 939773592 heartbeat IPC: 0.1017 cumulative IPC: 0.1116 (Simulation time: 03 hr 39 min 53 sec)
Heartbeat CPU 0 instructions: 151501002 cycles: 943490300 heartbeat IPC: 0.1345 cumulative IPC: 0.1117 (Simulation time: 03 hr 40 min 41 sec)
Heartbeat CPU 0 instructions: 152001005 cycles: 947354157 heartbeat IPC: 0.1294 cumulative IPC: 0.1118 (Simulation time: 03 hr 41 min 31 sec)
Heartbeat CPU 0 instructions: 152501012 cycles: 951225357 heartbeat IPC: 0.1292 cumulative IPC: 0.1119 (Simulation time: 03 hr 42 min 21 sec)
Heartbeat CPU 0 instructions: 153001014 cycles: 955088593 heartbeat IPC: 0.1294 cumulative IPC: 0.112 (Simulation time: 03 hr 43 min 11 sec)
Heartbeat CPU 0 instructions: 153501021 cycles: 958956664 heartbeat IPC: 0.1293 cumulative IPC: 0.112 (Simulation time: 03 hr 44 min 01 sec)
Heartbeat CPU 0 instructions: 154001024 cycles: 962827943 heartbeat IPC: 0.1292 cumulative IPC: 0.1121 (Simulation time: 03 hr 44 min 51 sec)
Heartbeat CPU 0 instructions: 154501027 cycles: 966700277 heartbeat IPC: 0.1291 cumulative IPC: 0.1122 (Simulation time: 03 hr 45 min 42 sec)
Heartbeat CPU 0 instructions: 155001027 cycles: 970990377 heartbeat IPC: 0.1165 cumulative IPC: 0.1122 (Simulation time: 03 hr 46 min 37 sec)
Heartbeat CPU 0 instructions: 155501034 cycles: 975886327 heartbeat IPC: 0.1021 cumulative IPC: 0.1121 (Simulation time: 03 hr 47 min 41 sec)
Heartbeat CPU 0 instructions: 156001036 cycles: 980790628 heartbeat IPC: 0.102 cumulative IPC: 0.1121 (Simulation time: 03 hr 48 min 44 sec)
Heartbeat CPU 0 instructions: 156501042 cycles: 985690183 heartbeat IPC: 0.1021 cumulative IPC: 0.112 (Simulation time: 03 hr 49 min 47 sec)
Heartbeat CPU 0 instructions: 157001048 cycles: 990602416 heartbeat IPC: 0.1018 cumulative IPC: 0.112 (Simulation time: 03 hr 50 min 51 sec)
Heartbeat CPU 0 instructions: 157501053 cycles: 995508210 heartbeat IPC: 0.1019 cumulative IPC: 0.1119 (Simulation time: 03 hr 51 min 54 sec)
Heartbeat CPU 0 instructions: 158001055 cycles: 999715805 heartbeat IPC: 0.1188 cumulative IPC: 0.112 (Simulation time: 03 hr 52 min 49 sec)
Heartbeat CPU 0 instructions: 158501057 cycles: 1003569188 heartbeat IPC: 0.1298 cumulative IPC: 0.112 (Simulation time: 03 hr 53 min 39 sec)
Heartbeat CPU 0 instructions: 159001058 cycles: 1008251987 heartbeat IPC: 0.1068 cumulative IPC: 0.112 (Simulation time: 03 hr 54 min 39 sec)
Heartbeat CPU 0 instructions: 159501064 cycles: 1013172302 heartbeat IPC: 0.1016 cumulative IPC: 0.112 (Simulation time: 03 hr 55 min 43 sec)
Heartbeat CPU 0 instructions: 160001070 cycles: 1018082762 heartbeat IPC: 0.1018 cumulative IPC: 0.1119 (Simulation time: 03 hr 56 min 46 sec)
Heartbeat CPU 0 instructions: 160501072 cycles: 1022973686 heartbeat IPC: 0.1022 cumulative IPC: 0.1119 (Simulation time: 03 hr 57 min 49 sec)
Heartbeat CPU 0 instructions: 161001076 cycles: 1027871077 heartbeat IPC: 0.1021 cumulative IPC: 0.1118 (Simulation time: 03 hr 58 min 53 sec)
Heartbeat CPU 0 instructions: 161501080 cycles: 1032778490 heartbeat IPC: 0.1019 cumulative IPC: 0.1118 (Simulation time: 03 hr 59 min 56 sec)
Heartbeat CPU 0 instructions: 162001080 cycles: 1036422521 heartbeat IPC: 0.1372 cumulative IPC: 0.1119 (Simulation time: 04 hr 00 min 43 sec)
Heartbeat CPU 0 instructions: 162501085 cycles: 1040307032 heartbeat IPC: 0.1287 cumulative IPC: 0.1119 (Simulation time: 04 hr 01 min 33 sec)
Heartbeat CPU 0 instructions: 163001092 cycles: 1044166777 heartbeat IPC: 0.1295 cumulative IPC: 0.112 (Simulation time: 04 hr 02 min 24 sec)
Heartbeat CPU 0 instructions: 163501096 cycles: 1048018924 heartbeat IPC: 0.1298 cumulative IPC: 0.1121 (Simulation time: 04 hr 03 min 14 sec)
Heartbeat CPU 0 instructions: 164001097 cycles: 1051852603 heartbeat IPC: 0.1304 cumulative IPC: 0.1121 (Simulation time: 04 hr 04 min 03 sec)
Heartbeat CPU 0 instructions: 164501103 cycles: 1055659651 heartbeat IPC: 0.1313 cumulative IPC: 0.1122 (Simulation time: 04 hr 04 min 52 sec)
Heartbeat CPU 0 instructions: 165001106 cycles: 1059485397 heartbeat IPC: 0.1307 cumulative IPC: 0.1123 (Simulation time: 04 hr 05 min 42 sec)
Heartbeat CPU 0 instructions: 165501108 cycles: 1063816894 heartbeat IPC: 0.1154 cumulative IPC: 0.1123 (Simulation time: 04 hr 06 min 38 sec)
Heartbeat CPU 0 instructions: 166001113 cycles: 1068715226 heartbeat IPC: 0.1021 cumulative IPC: 0.1122 (Simulation time: 04 hr 07 min 41 sec)
Heartbeat CPU 0 instructions: 166501116 cycles: 1073630748 heartbeat IPC: 0.1017 cumulative IPC: 0.1122 (Simulation time: 04 hr 08 min 44 sec)
Heartbeat CPU 0 instructions: 167001117 cycles: 1078531565 heartbeat IPC: 0.102 cumulative IPC: 0.1121 (Simulation time: 04 hr 09 min 48 sec)
Heartbeat CPU 0 instructions: 167501119 cycles: 1083452235 heartbeat IPC: 0.1016 cumulative IPC: 0.1121 (Simulation time: 04 hr 10 min 51 sec)
Heartbeat CPU 0 instructions: 168001121 cycles: 1088385143 heartbeat IPC: 0.1014 cumulative IPC: 0.112 (Simulation time: 04 hr 11 min 55 sec)
Heartbeat CPU 0 instructions: 168501125 cycles: 1092503165 heartbeat IPC: 0.1214 cumulative IPC: 0.1121 (Simulation time: 04 hr 12 min 48 sec)
Heartbeat CPU 0 instructions: 169001129 cycles: 1096332867 heartbeat IPC: 0.1306 cumulative IPC: 0.1121 (Simulation time: 04 hr 13 min 38 sec)
Heartbeat CPU 0 instructions: 169501133 cycles: 1101080191 heartbeat IPC: 0.1053 cumulative IPC: 0.1121 (Simulation time: 04 hr 14 min 39 sec)
Heartbeat CPU 0 instructions: 170001135 cycles: 1106016102 heartbeat IPC: 0.1013 cumulative IPC: 0.1121 (Simulation time: 04 hr 15 min 43 sec)
Heartbeat CPU 0 instructions: 170501137 cycles: 1110916391 heartbeat IPC: 0.102 cumulative IPC: 0.112 (Simulation time: 04 hr 16 min 47 sec)
Heartbeat CPU 0 instructions: 171001139 cycles: 1115835295 heartbeat IPC: 0.1016 cumulative IPC: 0.112 (Simulation time: 04 hr 17 min 50 sec)
Heartbeat CPU 0 instructions: 171501141 cycles: 1120759151 heartbeat IPC: 0.1015 cumulative IPC: 0.1119 (Simulation time: 04 hr 18 min 54 sec)
Heartbeat CPU 0 instructions: 172001142 cycles: 1125359743 heartbeat IPC: 0.1087 cumulative IPC: 0.1119 (Simulation time: 04 hr 19 min 53 sec)
Heartbeat CPU 0 instructions: 172501148 cycles: 1129227347 heartbeat IPC: 0.1293 cumulative IPC: 0.112 (Simulation time: 04 hr 20 min 43 sec)
Heartbeat CPU 0 instructions: 173001149 cycles: 1133025777 heartbeat IPC: 0.1316 cumulative IPC: 0.112 (Simulation time: 04 hr 21 min 32 sec)
Heartbeat CPU 0 instructions: 173501152 cycles: 1136876568 heartbeat IPC: 0.1298 cumulative IPC: 0.1121 (Simulation time: 04 hr 22 min 21 sec)
Heartbeat CPU 0 instructions: 174001158 cycles: 1140722588 heartbeat IPC: 0.13 cumulative IPC: 0.1122 (Simulation time: 04 hr 23 min 11 sec)
Heartbeat CPU 0 instructions: 174501160 cycles: 1144553891 heartbeat IPC: 0.1305 cumulative IPC: 0.1122 (Simulation time: 04 hr 24 min 01 sec)
Heartbeat CPU 0 instructions: 175001162 cycles: 1148377298 heartbeat IPC: 0.1308 cumulative IPC: 0.1123 (Simulation time: 04 hr 24 min 50 sec)
Heartbeat CPU 0 instructions: 175501169 cycles: 1152199791 heartbeat IPC: 0.1308 cumulative IPC: 0.1124 (Simulation time: 04 hr 25 min 39 sec)
Heartbeat CPU 0 instructions: 176001169 cycles: 1156635647 heartbeat IPC: 0.1127 cumulative IPC: 0.1124 (Simulation time: 04 hr 26 min 36 sec)
Heartbeat CPU 0 instructions: 176501171 cycles: 1161519750 heartbeat IPC: 0.1024 cumulative IPC: 0.1123 (Simulation time: 04 hr 27 min 40 sec)
Heartbeat CPU 0 instructions: 177001173 cycles: 1166409917 heartbeat IPC: 0.1022 cumulative IPC: 0.1123 (Simulation time: 04 hr 28 min 43 sec)
Heartbeat CPU 0 instructions: 177501174 cycles: 1171284695 heartbeat IPC: 0.1026 cumulative IPC: 0.1122 (Simulation time: 04 hr 29 min 46 sec)
Heartbeat CPU 0 instructions: 178001180 cycles: 1176205793 heartbeat IPC: 0.1016 cumulative IPC: 0.1122 (Simulation time: 04 hr 30 min 49 sec)
Heartbeat CPU 0 instructions: 178501182 cycles: 1181121329 heartbeat IPC: 0.1017 cumulative IPC: 0.1121 (Simulation time: 04 hr 31 min 53 sec)
Heartbeat CPU 0 instructions: 179001184 cycles: 1185142470 heartbeat IPC: 0.1243 cumulative IPC: 0.1122 (Simulation time: 04 hr 32 min 45 sec)
Heartbeat CPU 0 instructions: 179501187 cycles: 1188968410 heartbeat IPC: 0.1307 cumulative IPC: 0.1122 (Simulation time: 04 hr 33 min 34 sec)
Heartbeat CPU 0 instructions: 180001188 cycles: 1193796392 heartbeat IPC: 0.1036 cumulative IPC: 0.1122 (Simulation time: 04 hr 34 min 36 sec)
Heartbeat CPU 0 instructions: 180501189 cycles: 1198690679 heartbeat IPC: 0.1022 cumulative IPC: 0.1122 (Simulation time: 04 hr 35 min 39 sec)
Heartbeat CPU 0 instructions: 181001190 cycles: 1203585013 heartbeat IPC: 0.1022 cumulative IPC: 0.1121 (Simulation time: 04 hr 36 min 43 sec)
Heartbeat CPU 0 instructions: 181501193 cycles: 1208507606 heartbeat IPC: 0.1016 cumulative IPC: 0.1121 (Simulation time: 04 hr 37 min 47 sec)
Heartbeat CPU 0 instructions: 182001199 cycles: 1213392974 heartbeat IPC: 0.1023 cumulative IPC: 0.112 (Simulation time: 04 hr 38 min 50 sec)
Heartbeat CPU 0 instructions: 182501200 cycles: 1217917298 heartbeat IPC: 0.1105 cumulative IPC: 0.112 (Simulation time: 04 hr 39 min 48 sec)
Heartbeat CPU 0 instructions: 183001202 cycles: 1221748867 heartbeat IPC: 0.1305 cumulative IPC: 0.1121 (Simulation time: 04 hr 40 min 37 sec)
Heartbeat CPU 0 instructions: 183501204 cycles: 1225574962 heartbeat IPC: 0.1307 cumulative IPC: 0.1121 (Simulation time: 04 hr 41 min 27 sec)
Heartbeat CPU 0 instructions: 184001210 cycles: 1229411422 heartbeat IPC: 0.1303 cumulative IPC: 0.1122 (Simulation time: 04 hr 42 min 17 sec)
Heartbeat CPU 0 instructions: 184501214 cycles: 1233240320 heartbeat IPC: 0.1306 cumulative IPC: 0.1123 (Simulation time: 04 hr 43 min 06 sec)
Heartbeat CPU 0 instructions: 185001221 cycles: 1237082086 heartbeat IPC: 0.1302 cumulative IPC: 0.1123 (Simulation time: 04 hr 43 min 56 sec)
Heartbeat CPU 0 instructions: 185501223 cycles: 1240920896 heartbeat IPC: 0.1302 cumulative IPC: 0.1124 (Simulation time: 04 hr 44 min 45 sec)
Heartbeat CPU 0 instructions: 186001225 cycles: 1244755875 heartbeat IPC: 0.1304 cumulative IPC: 0.1124 (Simulation time: 04 hr 45 min 34 sec)
Heartbeat CPU 0 instructions: 186501228 cycles: 1249216896 heartbeat IPC: 0.1121 cumulative IPC: 0.1124 (Simulation time: 04 hr 46 min 32 sec)
Heartbeat CPU 0 instructions: 187001233 cycles: 1254144177 heartbeat IPC: 0.1015 cumulative IPC: 0.1124 (Simulation time: 04 hr 47 min 35 sec)
Heartbeat CPU 0 instructions: 187501236 cycles: 1259060245 heartbeat IPC: 0.1017 cumulative IPC: 0.1123 (Simulation time: 04 hr 48 min 39 sec)
Heartbeat CPU 0 instructions: 188001241 cycles: 1263999802 heartbeat IPC: 0.1012 cumulative IPC: 0.1123 (Simulation time: 04 hr 49 min 42 sec)
Heartbeat CPU 0 instructions: 188501244 cycles: 1268910440 heartbeat IPC: 0.1018 cumulative IPC: 0.1123 (Simulation time: 04 hr 50 min 46 sec)
Heartbeat CPU 0 instructions: 189001249 cycles: 1273830216 heartbeat IPC: 0.1016 cumulative IPC: 0.1122 (Simulation time: 04 hr 51 min 49 sec)
Heartbeat CPU 0 instructions: 189501249 cycles: 1277799827 heartbeat IPC: 0.126 cumulative IPC: 0.1123 (Simulation time: 04 hr 52 min 41 sec)
Heartbeat CPU 0 instructions: 190001250 cycles: 1281631295 heartbeat IPC: 0.1305 cumulative IPC: 0.1123 (Simulation time: 04 hr 53 min 30 sec)
Heartbeat CPU 0 instructions: 190501252 cycles: 1286515222 heartbeat IPC: 0.1024 cumulative IPC: 0.1123 (Simulation time: 04 hr 54 min 33 sec)
Heartbeat CPU 0 instructions: 191001259 cycles: 1291416831 heartbeat IPC: 0.102 cumulative IPC: 0.1122 (Simulation time: 04 hr 55 min 36 sec)
Heartbeat CPU 0 instructions: 191501263 cycles: 1296340589 heartbeat IPC: 0.1015 cumulative IPC: 0.1122 (Simulation time: 04 hr 56 min 39 sec)
Heartbeat CPU 0 instructions: 192001265 cycles: 1301266880 heartbeat IPC: 0.1015 cumulative IPC: 0.1122 (Simulation time: 04 hr 57 min 43 sec)
Heartbeat CPU 0 instructions: 192501271 cycles: 1306199534 heartbeat IPC: 0.1014 cumulative IPC: 0.1121 (Simulation time: 04 hr 58 min 46 sec)
Heartbeat CPU 0 instructions: 193001272 cycles: 1310627675 heartbeat IPC: 0.1129 cumulative IPC: 0.1121 (Simulation time: 04 hr 59 min 43 sec)
Heartbeat CPU 0 instructions: 193501275 cycles: 1314465198 heartbeat IPC: 0.1303 cumulative IPC: 0.1122 (Simulation time: 05 hr 00 min 33 sec)
Heartbeat CPU 0 instructions: 194001282 cycles: 1318281948 heartbeat IPC: 0.131 cumulative IPC: 0.1122 (Simulation time: 05 hr 01 min 22 sec)
Heartbeat CPU 0 instructions: 194501285 cycles: 1322135549 heartbeat IPC: 0.1297 cumulative IPC: 0.1123 (Simulation time: 05 hr 02 min 12 sec)
Heartbeat CPU 0 instructions: 195001288 cycles: 1325969616 heartbeat IPC: 0.1304 cumulative IPC: 0.1123 (Simulation time: 05 hr 03 min 01 sec)
Heartbeat CPU 0 instructions: 195501295 cycles: 1329810020 heartbeat IPC: 0.1302 cumulative IPC: 0.1124 (Simulation time: 05 hr 03 min 51 sec)
Heartbeat CPU 0 instructions: 196001297 cycles: 1333633018 heartbeat IPC: 0.1308 cumulative IPC: 0.1124 (Simulation time: 05 hr 04 min 41 sec)
Heartbeat CPU 0 instructions: 196501301 cycles: 1337449321 heartbeat IPC: 0.131 cumulative IPC: 0.1125 (Simulation time: 05 hr 05 min 30 sec)
Heartbeat CPU 0 instructions: 197001308 cycles: 1342007131 heartbeat IPC: 0.1097 cumulative IPC: 0.1125 (Simulation time: 05 hr 06 min 29 sec)
Heartbeat CPU 0 instructions: 197501308 cycles: 1346941237 heartbeat IPC: 0.1013 cumulative IPC: 0.1124 (Simulation time: 05 hr 07 min 32 sec)
Heartbeat CPU 0 instructions: 198001313 cycles: 1351861824 heartbeat IPC: 0.1016 cumulative IPC: 0.1124 (Simulation time: 05 hr 08 min 36 sec)
Heartbeat CPU 0 instructions: 198501314 cycles: 1356801930 heartbeat IPC: 0.1012 cumulative IPC: 0.1124 (Simulation time: 05 hr 09 min 40 sec)
Heartbeat CPU 0 instructions: 199001317 cycles: 1361740567 heartbeat IPC: 0.1012 cumulative IPC: 0.1123 (Simulation time: 05 hr 10 min 43 sec)
Heartbeat CPU 0 instructions: 199501324 cycles: 1366659027 heartbeat IPC: 0.1017 cumulative IPC: 0.1123 (Simulation time: 05 hr 11 min 47 sec)
Heartbeat CPU 0 instructions: 200001326 cycles: 1370513098 heartbeat IPC: 0.1297 cumulative IPC: 0.1123 (Simulation time: 05 hr 12 min 37 sec)
Heartbeat CPU 0 instructions: 200501326 cycles: 1374335148 heartbeat IPC: 0.1308 cumulative IPC: 0.1124 (Simulation time: 05 hr 13 min 27 sec)
Heartbeat CPU 0 instructions: 201001332 cycles: 1379274269 heartbeat IPC: 0.1012 cumulative IPC: 0.1123 (Simulation time: 05 hr 14 min 31 sec)
Heartbeat CPU 0 instructions: 201501332 cycles: 1384227339 heartbeat IPC: 0.1009 cumulative IPC: 0.1123 (Simulation time: 05 hr 15 min 35 sec)
Heartbeat CPU 0 instructions: 202001338 cycles: 1389162133 heartbeat IPC: 0.1013 cumulative IPC: 0.1123 (Simulation time: 05 hr 16 min 39 sec)
Heartbeat CPU 0 instructions: 202501339 cycles: 1394110413 heartbeat IPC: 0.101 cumulative IPC: 0.1122 (Simulation time: 05 hr 17 min 43 sec)
Heartbeat CPU 0 instructions: 203001346 cycles: 1399036044 heartbeat IPC: 0.1015 cumulative IPC: 0.1122 (Simulation time: 05 hr 18 min 46 sec)
Heartbeat CPU 0 instructions: 203501351 cycles: 1403405020 heartbeat IPC: 0.1144 cumulative IPC: 0.1122 (Simulation time: 05 hr 19 min 42 sec)
Heartbeat CPU 0 instructions: 204001353 cycles: 1407217384 heartbeat IPC: 0.1312 cumulative IPC: 0.1122 (Simulation time: 05 hr 20 min 32 sec)
Heartbeat CPU 0 instructions: 204501355 cycles: 1410985445 heartbeat IPC: 0.1327 cumulative IPC: 0.1123 (Simulation time: 05 hr 21 min 21 sec)
Heartbeat CPU 0 instructions: 205001362 cycles: 1414763036 heartbeat IPC: 0.1324 cumulative IPC: 0.1124 (Simulation time: 05 hr 22 min 11 sec)
Heartbeat CPU 0 instructions: 205501369 cycles: 1418537767 heartbeat IPC: 0.1325 cumulative IPC: 0.1124 (Simulation time: 05 hr 23 min 00 sec)
Heartbeat CPU 0 instructions: 206001372 cycles: 1422306393 heartbeat IPC: 0.1327 cumulative IPC: 0.1125 (Simulation time: 05 hr 23 min 50 sec)
Heartbeat CPU 0 instructions: 206501374 cycles: 1426064937 heartbeat IPC: 0.133 cumulative IPC: 0.1125 (Simulation time: 05 hr 24 min 39 sec)
Heartbeat CPU 0 instructions: 207001381 cycles: 1429838390 heartbeat IPC: 0.1325 cumulative IPC: 0.1126 (Simulation time: 05 hr 25 min 28 sec)
Heartbeat CPU 0 instructions: 207501387 cycles: 1434478566 heartbeat IPC: 0.1078 cumulative IPC: 0.1126 (Simulation time: 05 hr 26 min 28 sec)
Heartbeat CPU 0 instructions: 208001392 cycles: 1439421317 heartbeat IPC: 0.1012 cumulative IPC: 0.1125 (Simulation time: 05 hr 27 min 32 sec)
Heartbeat CPU 0 instructions: 208501396 cycles: 1444367718 heartbeat IPC: 0.1011 cumulative IPC: 0.1125 (Simulation time: 05 hr 28 min 36 sec)
Heartbeat CPU 0 instructions: 209001402 cycles: 1449300846 heartbeat IPC: 0.1014 cumulative IPC: 0.1124 (Simulation time: 05 hr 29 min 40 sec)
Heartbeat CPU 0 instructions: 209501407 cycles: 1454243771 heartbeat IPC: 0.1012 cumulative IPC: 0.1124 (Simulation time: 05 hr 30 min 44 sec)
Heartbeat CPU 0 instructions: 210001407 cycles: 1459163407 heartbeat IPC: 0.1016 cumulative IPC: 0.1124 (Simulation time: 05 hr 31 min 47 sec)
Heartbeat CPU 0 instructions: 210501412 cycles: 1462951047 heartbeat IPC: 0.132 cumulative IPC: 0.1124 (Simulation time: 05 hr 32 min 37 sec)
Heartbeat CPU 0 instructions: 211001416 cycles: 1466859430 heartbeat IPC: 0.1279 cumulative IPC: 0.1125 (Simulation time: 05 hr 33 min 28 sec)
Heartbeat CPU 0 instructions: 211501418 cycles: 1471800342 heartbeat IPC: 0.1012 cumulative IPC: 0.1124 (Simulation time: 05 hr 34 min 31 sec)
Heartbeat CPU 0 instructions: 212001424 cycles: 1476728391 heartbeat IPC: 0.1015 cumulative IPC: 0.1124 (Simulation time: 05 hr 35 min 34 sec)
Heartbeat CPU 0 instructions: 212501429 cycles: 1481669624 heartbeat IPC: 0.1012 cumulative IPC: 0.1123 (Simulation time: 05 hr 36 min 38 sec)
Heartbeat CPU 0 instructions: 213001432 cycles: 1486617849 heartbeat IPC: 0.101 cumulative IPC: 0.1123 (Simulation time: 05 hr 37 min 42 sec)
Heartbeat CPU 0 instructions: 213501434 cycles: 1491536019 heartbeat IPC: 0.1017 cumulative IPC: 0.1123 (Simulation time: 05 hr 38 min 45 sec)
Heartbeat CPU 0 instructions: 214001437 cycles: 1495879738 heartbeat IPC: 0.1151 cumulative IPC: 0.1123 (Simulation time: 05 hr 39 min 41 sec)
Heartbeat CPU 0 instructions: 214501440 cycles: 1499662912 heartbeat IPC: 0.1322 cumulative IPC: 0.1123 (Simulation time: 05 hr 40 min 31 sec)
Heartbeat CPU 0 instructions: 215001440 cycles: 1503424497 heartbeat IPC: 0.1329 cumulative IPC: 0.1124 (Simulation time: 05 hr 41 min 20 sec)
Heartbeat CPU 0 instructions: 215501440 cycles: 1507192828 heartbeat IPC: 0.1327 cumulative IPC: 0.1124 (Simulation time: 05 hr 42 min 09 sec)
Heartbeat CPU 0 instructions: 216001442 cycles: 1510963086 heartbeat IPC: 0.1326 cumulative IPC: 0.1125 (Simulation time: 05 hr 42 min 58 sec)
Heartbeat CPU 0 instructions: 216501444 cycles: 1514741153 heartbeat IPC: 0.1323 cumulative IPC: 0.1125 (Simulation time: 05 hr 43 min 48 sec)
Heartbeat CPU 0 instructions: 217001449 cycles: 1518516904 heartbeat IPC: 0.1324 cumulative IPC: 0.1126 (Simulation time: 05 hr 44 min 37 sec)
Heartbeat CPU 0 instructions: 217501456 cycles: 1522288312 heartbeat IPC: 0.1326 cumulative IPC: 0.1126 (Simulation time: 05 hr 45 min 27 sec)
Heartbeat CPU 0 instructions: 218001459 cycles: 1527007700 heartbeat IPC: 0.1059 cumulative IPC: 0.1126 (Simulation time: 05 hr 46 min 28 sec)
Heartbeat CPU 0 instructions: 218501462 cycles: 1531944582 heartbeat IPC: 0.1013 cumulative IPC: 0.1126 (Simulation time: 05 hr 47 min 31 sec)
Heartbeat CPU 0 instructions: 219001469 cycles: 1536858620 heartbeat IPC: 0.1018 cumulative IPC: 0.1125 (Simulation time: 05 hr 48 min 35 sec)
Heartbeat CPU 0 instructions: 219501475 cycles: 1541812230 heartbeat IPC: 0.1009 cumulative IPC: 0.1125 (Simulation time: 05 hr 49 min 39 sec)
Heartbeat CPU 0 instructions: 220001476 cycles: 1546753496 heartbeat IPC: 0.1012 cumulative IPC: 0.1125 (Simulation time: 05 hr 50 min 42 sec)
Heartbeat CPU 0 instructions: 220501481 cycles: 1551595949 heartbeat IPC: 0.1033 cumulative IPC: 0.1124 (Simulation time: 05 hr 51 min 44 sec)
Heartbeat CPU 0 instructions: 221001481 cycles: 1555391357 heartbeat IPC: 0.1317 cumulative IPC: 0.1125 (Simulation time: 05 hr 52 min 34 sec)
Heartbeat CPU 0 instructions: 221501487 cycles: 1559384168 heartbeat IPC: 0.1252 cumulative IPC: 0.1125 (Simulation time: 05 hr 53 min 26 sec)
Heartbeat CPU 0 instructions: 222001491 cycles: 1564334529 heartbeat IPC: 0.101 cumulative IPC: 0.1125 (Simulation time: 05 hr 54 min 30 sec)
Heartbeat CPU 0 instructions: 222501498 cycles: 1569247086 heartbeat IPC: 0.1018 cumulative IPC: 0.1124 (Simulation time: 05 hr 55 min 33 sec)
Heartbeat CPU 0 instructions: 223001501 cycles: 1574181394 heartbeat IPC: 0.1013 cumulative IPC: 0.1124 (Simulation time: 05 hr 56 min 37 sec)
Heartbeat CPU 0 instructions: 223501506 cycles: 1579117694 heartbeat IPC: 0.1013 cumulative IPC: 0.1124 (Simulation time: 05 hr 57 min 41 sec)
Heartbeat CPU 0 instructions: 224001513 cycles: 1584052132 heartbeat IPC: 0.1013 cumulative IPC: 0.1123 (Simulation time: 05 hr 58 min 44 sec)
Heartbeat CPU 0 instructions: 224501514 cycles: 1588311455 heartbeat IPC: 0.1174 cumulative IPC: 0.1124 (Simulation time: 05 hr 59 min 39 sec)
Heartbeat CPU 0 instructions: 225001521 cycles: 1592081621 heartbeat IPC: 0.1326 cumulative IPC: 0.1124 (Simulation time: 06 hr 00 min 28 sec)
Heartbeat CPU 0 instructions: 225501526 cycles: 1595858588 heartbeat IPC: 0.1324 cumulative IPC: 0.1125 (Simulation time: 06 hr 01 min 17 sec)
Heartbeat CPU 0 instructions: 226001533 cycles: 1599633346 heartbeat IPC: 0.1325 cumulative IPC: 0.1125 (Simulation time: 06 hr 02 min 07 sec)
Heartbeat CPU 0 instructions: 226501533 cycles: 1603391724 heartbeat IPC: 0.133 cumulative IPC: 0.1125 (Simulation time: 06 hr 02 min 56 sec)
Heartbeat CPU 0 instructions: 227001540 cycles: 1607169511 heartbeat IPC: 0.1324 cumulative IPC: 0.1126 (Simulation time: 06 hr 03 min 45 sec)
Heartbeat CPU 0 instructions: 227501546 cycles: 1610929678 heartbeat IPC: 0.133 cumulative IPC: 0.1126 (Simulation time: 06 hr 04 min 35 sec)
Heartbeat CPU 0 instructions: 228001553 cycles: 1614693800 heartbeat IPC: 0.1328 cumulative IPC: 0.1127 (Simulation time: 06 hr 05 min 24 sec)
Heartbeat CPU 0 instructions: 228501555 cycles: 1619516963 heartbeat IPC: 0.1037 cumulative IPC: 0.1127 (Simulation time: 06 hr 06 min 26 sec)
Heartbeat CPU 0 instructions: 229001556 cycles: 1624439688 heartbeat IPC: 0.1016 cumulative IPC: 0.1126 (Simulation time: 06 hr 07 min 30 sec)
Heartbeat CPU 0 instructions: 229501556 cycles: 1629329103 heartbeat IPC: 0.1023 cumulative IPC: 0.1126 (Simulation time: 06 hr 08 min 33 sec)
Heartbeat CPU 0 instructions: 230001563 cycles: 1634234556 heartbeat IPC: 0.1019 cumulative IPC: 0.1126 (Simulation time: 06 hr 09 min 36 sec)
Heartbeat CPU 0 instructions: 230501566 cycles: 1639135633 heartbeat IPC: 0.102 cumulative IPC: 0.1125 (Simulation time: 06 hr 10 min 40 sec)
Heartbeat CPU 0 instructions: 231001567 cycles: 1643890678 heartbeat IPC: 0.1052 cumulative IPC: 0.1125 (Simulation time: 06 hr 11 min 41 sec)
Heartbeat CPU 0 instructions: 231501573 cycles: 1647674717 heartbeat IPC: 0.1321 cumulative IPC: 0.1126 (Simulation time: 06 hr 12 min 31 sec)
Heartbeat CPU 0 instructions: 232001574 cycles: 1651756220 heartbeat IPC: 0.1225 cumulative IPC: 0.1126 (Simulation time: 06 hr 13 min 24 sec)
Heartbeat CPU 0 instructions: 232501575 cycles: 1656683395 heartbeat IPC: 0.1015 cumulative IPC: 0.1125 (Simulation time: 06 hr 14 min 28 sec)
Heartbeat CPU 0 instructions: 233001582 cycles: 1661588139 heartbeat IPC: 0.1019 cumulative IPC: 0.1125 (Simulation time: 06 hr 15 min 31 sec)
Heartbeat CPU 0 instructions: 233501588 cycles: 1666502714 heartbeat IPC: 0.1017 cumulative IPC: 0.1125 (Simulation time: 06 hr 16 min 35 sec)
Heartbeat CPU 0 instructions: 234001591 cycles: 1671393291 heartbeat IPC: 0.1022 cumulative IPC: 0.1125 (Simulation time: 06 hr 17 min 38 sec)
Heartbeat CPU 0 instructions: 234501596 cycles: 1676306013 heartbeat IPC: 0.1018 cumulative IPC: 0.1124 (Simulation time: 06 hr 18 min 42 sec)
Heartbeat CPU 0 instructions: 235001596 cycles: 1680452222 heartbeat IPC: 0.1206 cumulative IPC: 0.1124 (Simulation time: 06 hr 19 min 36 sec)
Heartbeat CPU 0 instructions: 235501596 cycles: 1684214590 heartbeat IPC: 0.1329 cumulative IPC: 0.1125 (Simulation time: 06 hr 20 min 25 sec)
Heartbeat CPU 0 instructions: 236001596 cycles: 1687970242 heartbeat IPC: 0.1331 cumulative IPC: 0.1125 (Simulation time: 06 hr 21 min 15 sec)
Heartbeat CPU 0 instructions: 236501598 cycles: 1691731585 heartbeat IPC: 0.1329 cumulative IPC: 0.1126 (Simulation time: 06 hr 22 min 04 sec)
Heartbeat CPU 0 instructions: 237001602 cycles: 1695512102 heartbeat IPC: 0.1323 cumulative IPC: 0.1126 (Simulation time: 06 hr 22 min 53 sec)
Heartbeat CPU 0 instructions: 237501608 cycles: 1699269753 heartbeat IPC: 0.1331 cumulative IPC: 0.1127 (Simulation time: 06 hr 23 min 42 sec)
Heartbeat CPU 0 instructions: 238001608 cycles: 1703023943 heartbeat IPC: 0.1332 cumulative IPC: 0.1127 (Simulation time: 06 hr 24 min 32 sec)
Heartbeat CPU 0 instructions: 238501609 cycles: 1706779191 heartbeat IPC: 0.1331 cumulative IPC: 0.1128 (Simulation time: 06 hr 25 min 21 sec)
Heartbeat CPU 0 instructions: 239001611 cycles: 1711643075 heartbeat IPC: 0.1028 cumulative IPC: 0.1127 (Simulation time: 06 hr 26 min 23 sec)
Heartbeat CPU 0 instructions: 239501615 cycles: 1716543803 heartbeat IPC: 0.102 cumulative IPC: 0.1127 (Simulation time: 06 hr 27 min 27 sec)
Heartbeat CPU 0 instructions: 240001616 cycles: 1721432521 heartbeat IPC: 0.1023 cumulative IPC: 0.1127 (Simulation time: 06 hr 28 min 31 sec)
Heartbeat CPU 0 instructions: 240501622 cycles: 1726358233 heartbeat IPC: 0.1015 cumulative IPC: 0.1126 (Simulation time: 06 hr 29 min 34 sec)
Heartbeat CPU 0 instructions: 241001625 cycles: 1731298149 heartbeat IPC: 0.1012 cumulative IPC: 0.1126 (Simulation time: 06 hr 30 min 38 sec)
Heartbeat CPU 0 instructions: 241501625 cycles: 1735970305 heartbeat IPC: 0.107 cumulative IPC: 0.1126 (Simulation time: 06 hr 31 min 39 sec)
Heartbeat CPU 0 instructions: 242001632 cycles: 1739744907 heartbeat IPC: 0.1325 cumulative IPC: 0.1126 (Simulation time: 06 hr 32 min 28 sec)
Heartbeat CPU 0 instructions: 242501636 cycles: 1743900510 heartbeat IPC: 0.1203 cumulative IPC: 0.1127 (Simulation time: 06 hr 33 min 23 sec)
Heartbeat CPU 0 instructions: 243001636 cycles: 1748839380 heartbeat IPC: 0.1012 cumulative IPC: 0.1126 (Simulation time: 06 hr 34 min 27 sec)
Heartbeat CPU 0 instructions: 243501641 cycles: 1753778936 heartbeat IPC: 0.1012 cumulative IPC: 0.1126 (Simulation time: 06 hr 35 min 31 sec)
Heartbeat CPU 0 instructions: 244001644 cycles: 1758685809 heartbeat IPC: 0.1019 cumulative IPC: 0.1126 (Simulation time: 06 hr 36 min 34 sec)
Heartbeat CPU 0 instructions: 244501645 cycles: 1763615954 heartbeat IPC: 0.1014 cumulative IPC: 0.1125 (Simulation time: 06 hr 37 min 38 sec)
Heartbeat CPU 0 instructions: 245001645 cycles: 1768519360 heartbeat IPC: 0.102 cumulative IPC: 0.1125 (Simulation time: 06 hr 38 min 41 sec)
Heartbeat CPU 0 instructions: 245501646 cycles: 1772604736 heartbeat IPC: 0.1224 cumulative IPC: 0.1125 (Simulation time: 06 hr 39 min 34 sec)
Heartbeat CPU 0 instructions: 246001652 cycles: 1776376061 heartbeat IPC: 0.1326 cumulative IPC: 0.1126 (Simulation time: 06 hr 40 min 24 sec)
Heartbeat CPU 0 instructions: 246501654 cycles: 1780149217 heartbeat IPC: 0.1325 cumulative IPC: 0.1126 (Simulation time: 06 hr 41 min 13 sec)
Heartbeat CPU 0 instructions: 247001661 cycles: 1783908647 heartbeat IPC: 0.133 cumulative IPC: 0.1127 (Simulation time: 06 hr 42 min 02 sec)
Heartbeat CPU 0 instructions: 247501666 cycles: 1787689197 heartbeat IPC: 0.1323 cumulative IPC: 0.1127 (Simulation time: 06 hr 42 min 52 sec)
Heartbeat CPU 0 instructions: 248001666 cycles: 1791428918 heartbeat IPC: 0.1337 cumulative IPC: 0.1127 (Simulation time: 06 hr 43 min 41 sec)
Heartbeat CPU 0 instructions: 248501673 cycles: 1795198631 heartbeat IPC: 0.1326 cumulative IPC: 0.1128 (Simulation time: 06 hr 44 min 30 sec)
Heartbeat CPU 0 instructions: 249001673 cycles: 1798972175 heartbeat IPC: 0.1325 cumulative IPC: 0.1128 (Simulation time: 06 hr 45 min 19 sec)
Heartbeat CPU 0 instructions: 249501679 cycles: 1803895495 heartbeat IPC: 0.1016 cumulative IPC: 0.1128 (Simulation time: 06 hr 46 min 22 sec)
Simulation finished CPU 0 instructions: 200000002 cycles: 1773646936 cumulative IPC: 0.1128 (Simulation time: 06 hr 47 min 26 sec)
Simulation complete CPU 0 instructions: 200000002 cycles: 1773646936 cumulative IPC: 0.1128 (Simulation time: 06 hr 47 min 26 sec)

ChampSim completed all CPUs

=== Simulation ===
CPU 0 runs /local-ssd/ben/dpc4-traces/ai-ml/rwkv_trace_1.champsimtrace.gz

Region of Interest Statistics

CPU 0 cumulative IPC: 0.1128 instructions: 200000002 cycles: 1773646936
CPU 0 Branch Prediction Accuracy: 96.97% MPKI: 0.9107 Average ROB Occupancy at Mispredict: 326
Branch type MPKI
BRANCH_DIRECT_JUMP: 0
BRANCH_INDIRECT: 0
BRANCH_CONDITIONAL: 0.9072
BRANCH_DIRECT_CALL: 0
BRANCH_INDIRECT_CALL: 3.5e-05
BRANCH_RETURN: 0.00346

cpu0->cpu0_STLB TOTAL        ACCESS:    1024262 HIT:        795 MISS:    1023467 MSHR_MERGE:          0
cpu0->cpu0_STLB LOAD         ACCESS:    1024262 HIT:        795 MISS:    1023467 MSHR_MERGE:          0
cpu0->cpu0_STLB RFO          ACCESS:          0 HIT:          0 MISS:          0 MSHR_MERGE:          0
cpu0->cpu0_STLB PREFETCH     ACCESS:          0 HIT:          0 MISS:          0 MSHR_MERGE:          0
cpu0->cpu0_STLB WRITE        ACCESS:          0 HIT:          0 MISS:          0 MSHR_MERGE:          0
cpu0->cpu0_STLB TRANSLATION  ACCESS:          0 HIT:          0 MISS:          0 MSHR_MERGE:          0
cpu0->cpu0_STLB PREFETCH REQUESTED:          0 ISSUED:          0 USEFUL:          0 USELESS:          0
cpu0->cpu0_STLB AVERAGE MISS LATENCY: 322.5 cycles
cpu0->cpu0_L2C TOTAL        ACCESS:  164129820 HIT:   79816993 MISS:   84312827 MSHR_MERGE:   18926217
cpu0->cpu0_L2C LOAD         ACCESS:   32100898 HIT:   19308457 MISS:   12792441 MSHR_MERGE:    4414986
cpu0->cpu0_L2C RFO          ACCESS:   32600654 HIT:        943 MISS:   32599711 MSHR_MERGE:          8
cpu0->cpu0_L2C PREFETCH     ACCESS:   66666411 HIT:   27877780 MISS:   38788631 MSHR_MERGE:   14511223
cpu0->cpu0_L2C WRITE        ACCESS:   32629077 HIT:   32629077 MISS:          0 MSHR_MERGE:          0
cpu0->cpu0_L2C TRANSLATION  ACCESS:     132780 HIT:        736 MISS:     132044 MSHR_MERGE:          0
cpu0->cpu0_L2C PREFETCH REQUESTED:   72122373 ISSUED:   65977855 USEFUL:   23863561 USELESS:      92196
cpu0->cpu0_L2C AVERAGE MISS LATENCY: 580.6 cycles
cpu0->cpu0_L1I TOTAL        ACCESS:   40212208 HIT:   40212208 MISS:          0 MSHR_MERGE:          0
cpu0->cpu0_L1I LOAD         ACCESS:   40212208 HIT:   40212208 MISS:          0 MSHR_MERGE:          0
cpu0->cpu0_L1I RFO          ACCESS:          0 HIT:          0 MISS:          0 MSHR_MERGE:          0
cpu0->cpu0_L1I PREFETCH     ACCESS:          0 HIT:          0 MISS:          0 MSHR_MERGE:          0
cpu0->cpu0_L1I WRITE        ACCESS:          0 HIT:          0 MISS:          0 MSHR_MERGE:          0
cpu0->cpu0_L1I TRANSLATION  ACCESS:          0 HIT:          0 MISS:          0 MSHR_MERGE:          0
cpu0->cpu0_L1I PREFETCH REQUESTED:          0 ISSUED:          0 USEFUL:          0 USELESS:          0
cpu0->cpu0_L1I AVERAGE MISS LATENCY: - cycles
cpu0->cpu0_L1D TOTAL        ACCESS:  104168491 HIT:    5795231 MISS:   98373260 MSHR_MERGE:   32850384
cpu0->cpu0_L1D LOAD         ACCESS:   34698970 HIT:    2493759 MISS:   32205211 MSHR_MERGE:     104315
cpu0->cpu0_L1D RFO          ACCESS:          0 HIT:          0 MISS:          0 MSHR_MERGE:          0
cpu0->cpu0_L1D PREFETCH     ACCESS:    2181645 HIT:    1423392 MISS:     758253 MSHR_MERGE:      69709
cpu0->cpu0_L1D WRITE        ACCESS:   65404349 HIT:     207620 MISS:   65196729 MSHR_MERGE:   32596073
cpu0->cpu0_L1D TRANSLATION  ACCESS:    1883527 HIT:    1670460 MISS:     213067 MSHR_MERGE:      80287
cpu0->cpu0_L1D PREFETCH REQUESTED: 7595453143 ISSUED:    2181645 USEFUL:     519194 USELESS:     169346
cpu0->cpu0_L1D AVERAGE MISS LATENCY: 424.5 cycles
cpu0->cpu0_ITLB TOTAL        ACCESS:   33478565 HIT:   33478565 MISS:          0 MSHR_MERGE:          0
cpu0->cpu0_ITLB LOAD         ACCESS:   33478565 HIT:   33478565 MISS:          0 MSHR_MERGE:          0
cpu0->cpu0_ITLB RFO          ACCESS:          0 HIT:          0 MISS:          0 MSHR_MERGE:          0
cpu0->cpu0_ITLB PREFETCH     ACCESS:          0 HIT:          0 MISS:          0 MSHR_MERGE:          0
cpu0->cpu0_ITLB WRITE        ACCESS:          0 HIT:          0 MISS:          0 MSHR_MERGE:          0
cpu0->cpu0_ITLB TRANSLATION  ACCESS:          0 HIT:          0 MISS:          0 MSHR_MERGE:          0
cpu0->cpu0_ITLB PREFETCH REQUESTED:          0 ISSUED:          0 USEFUL:          0 USELESS:          0
cpu0->cpu0_ITLB AVERAGE MISS LATENCY: - cycles
cpu0->cpu0_DTLB TOTAL        ACCESS:  101667541 HIT:   96527113 MISS:    5140428 MSHR_MERGE:    4116166
cpu0->cpu0_DTLB LOAD         ACCESS:  101667541 HIT:   96527113 MISS:    5140428 MSHR_MERGE:    4116166
cpu0->cpu0_DTLB RFO          ACCESS:          0 HIT:          0 MISS:          0 MSHR_MERGE:          0
cpu0->cpu0_DTLB PREFETCH     ACCESS:          0 HIT:          0 MISS:          0 MSHR_MERGE:          0
cpu0->cpu0_DTLB WRITE        ACCESS:          0 HIT:          0 MISS:          0 MSHR_MERGE:          0
cpu0->cpu0_DTLB TRANSLATION  ACCESS:          0 HIT:          0 MISS:          0 MSHR_MERGE:          0
cpu0->cpu0_DTLB PREFETCH REQUESTED:          0 ISSUED:          0 USEFUL:          0 USELESS:          0
cpu0->cpu0_DTLB AVERAGE MISS LATENCY: 328.3 cycles
cpu0->LLC TOTAL        ACCESS:   98016360 HIT:   12846669 MISS:   85169691 MSHR_MERGE:          0
cpu0->LLC LOAD         ACCESS:    8377455 HIT:          0 MISS:    8377455 MSHR_MERGE:          0
cpu0->LLC RFO          ACCESS:   32599702 HIT:          1 MISS:   32599701 MSHR_MERGE:          0
cpu0->LLC PREFETCH     ACCESS:   24277408 HIT:          4 MISS:   24277404 MSHR_MERGE:          0
cpu0->LLC WRITE        ACCESS:   32629751 HIT:   12846522 MISS:   19783229 MSHR_MERGE:          0
cpu0->LLC TRANSLATION  ACCESS:     132044 HIT:        142 MISS:     131902 MSHR_MERGE:          0
cpu0->LLC PREFETCH REQUESTED:          0 ISSUED:          0 USEFUL:          0 USELESS:          0
cpu0->LLC AVERAGE MISS LATENCY: 391.3 cycles

DRAM Statistics

Channel 0 RQ ROW_BUFFER_HIT:    3549510
  ROW_BUFFER_MISS:   61836942
  AVG DBUS CONGESTED CYCLE: 12.04
Channel 0 WQ ROW_BUFFER_HIT:    2817568
  ROW_BUFFER_MISS:   29811006
  FULL:     748568
Channel 0 REFRESHES ISSUED:     147794
