[VMEM] WARNING: physical memory size is smaller than virtual memory size.

*** ChampSim Multicore Out-of-Order Simulator ***
Warmup Instructions: 50000000
Simulation Instructions: 200000000
Number of CPUs: 1
Page size: 4096
Core 0: /local-ssd/ben/dpc4-traces/gtraces_v2/merced_0001.champsim.gz
sBerti (Smart Stride + Berti) Prefetcher Initialized
Off-chip DRAM Size: 64 GiB Channels: 1 Width: 64-bit Data Rate: 4807 MT/s
Heartbeat CPU 0 instructions: 500000 cycles: 243422 heartbeat IPC: 2.054 cumulative IPC: 2.054 (Simulation time: 00 hr 00 min 04 sec)
[BTB] WARNING: target of return is a lower address than the corresponding call. This is usually a problem with your trace.
[BTB] WARNING: target of return is a lower address than the corresponding call. This is usually a problem with your trace.
[BTB] WARNING: target of return is a lower address than the corresponding call. This is usually a problem with your trace.
Heartbeat CPU 0 instructions: 1000007 cycles: 412326 heartbeat IPC: 2.96 cumulative IPC: 2.425 (Simulation time: 00 hr 00 min 07 sec)
[BTB] WARNING: target of return is a lower address than the corresponding call. This is usually a problem with your trace.
[BTB] WARNING: target of return is a lower address than the corresponding call. This is usually a problem with your trace.
[BTB] WARNING: target of return is a lower address than the corresponding call. This is usually a problem with your trace.
[BTB] WARNING: target of return is a lower address than the corresponding call. This is usually a problem with your trace.
Heartbeat CPU 0 instructions: 1500010 cycles: 637059 heartbeat IPC: 2.225 cumulative IPC: 2.355 (Simulation time: 00 hr 00 min 11 sec)
Heartbeat CPU 0 instructions: 2000013 cycles: 778798 heartbeat IPC: 3.528 cumulative IPC: 2.568 (Simulation time: 00 hr 00 min 13 sec)
Heartbeat CPU 0 instructions: 2500016 cycles: 914704 heartbeat IPC: 3.679 cumulative IPC: 2.733 (Simulation time: 00 hr 00 min 16 sec)
Heartbeat CPU 0 instructions: 3000017 cycles: 1037013 heartbeat IPC: 4.088 cumulative IPC: 2.893 (Simulation time: 00 hr 00 min 18 sec)
[BTB] WARNING: target of return is a lower address than the corresponding call. This is usually a problem with your trace.
[BTB] WARNING: target of return is a lower address than the corresponding call. This is usually a problem with your trace.
[BTB] WARNING: target of return is a lower address than the corresponding call. This is usually a problem with your trace.
Heartbeat CPU 0 instructions: 3500023 cycles: 1248644 heartbeat IPC: 2.363 cumulative IPC: 2.803 (Simulation time: 00 hr 00 min 22 sec)
Heartbeat CPU 0 instructions: 4000027 cycles: 1437083 heartbeat IPC: 2.653 cumulative IPC: 2.783 (Simulation time: 00 hr 00 min 25 sec)
Heartbeat CPU 0 instructions: 4500029 cycles: 1552213 heartbeat IPC: 4.343 cumulative IPC: 2.899 (Simulation time: 00 hr 00 min 27 sec)
Heartbeat CPU 0 instructions: 5000034 cycles: 1704540 heartbeat IPC: 3.282 cumulative IPC: 2.933 (Simulation time: 00 hr 00 min 29 sec)
Heartbeat CPU 0 instructions: 5500035 cycles: 1885716 heartbeat IPC: 2.76 cumulative IPC: 2.917 (Simulation time: 00 hr 00 min 33 sec)
Heartbeat CPU 0 instructions: 6000037 cycles: 2100309 heartbeat IPC: 2.33 cumulative IPC: 2.857 (Simulation time: 00 hr 00 min 37 sec)
Heartbeat CPU 0 instructions: 6500037 cycles: 2257064 heartbeat IPC: 3.19 cumulative IPC: 2.88 (Simulation time: 00 hr 00 min 39 sec)
Heartbeat CPU 0 instructions: 7000041 cycles: 2381979 heartbeat IPC: 4.003 cumulative IPC: 2.939 (Simulation time: 00 hr 00 min 42 sec)
Heartbeat CPU 0 instructions: 7500041 cycles: 2533751 heartbeat IPC: 3.294 cumulative IPC: 2.96 (Simulation time: 00 hr 00 min 45 sec)
Heartbeat CPU 0 instructions: 8000041 cycles: 2661457 heartbeat IPC: 3.915 cumulative IPC: 3.006 (Simulation time: 00 hr 00 min 47 sec)
Heartbeat CPU 0 instructions: 8500045 cycles: 2784875 heartbeat IPC: 4.051 cumulative IPC: 3.052 (Simulation time: 00 hr 00 min 49 sec)
Heartbeat CPU 0 instructions: 9000047 cycles: 2961703 heartbeat IPC: 2.828 cumulative IPC: 3.039 (Simulation time: 00 hr 00 min 53 sec)
Heartbeat CPU 0 instructions: 9500051 cycles: 3165352 heartbeat IPC: 2.455 cumulative IPC: 3.001 (Simulation time: 00 hr 00 min 56 sec)
Heartbeat CPU 0 instructions: 10000058 cycles: 3318686 heartbeat IPC: 3.261 cumulative IPC: 3.013 (Simulation time: 00 hr 00 min 59 sec)
Heartbeat CPU 0 instructions: 10500064 cycles: 3460440 heartbeat IPC: 3.527 cumulative IPC: 3.034 (Simulation time: 00 hr 01 min 02 sec)
Heartbeat CPU 0 instructions: 11000069 cycles: 3627267 heartbeat IPC: 2.997 cumulative IPC: 3.033 (Simulation time: 00 hr 01 min 05 sec)
Heartbeat CPU 0 instructions: 11500069 cycles: 3764007 heartbeat IPC: 3.657 cumulative IPC: 3.055 (Simulation time: 00 hr 01 min 08 sec)
Heartbeat CPU 0 instructions: 12000074 cycles: 3948320 heartbeat IPC: 2.713 cumulative IPC: 3.039 (Simulation time: 00 hr 01 min 11 sec)
Heartbeat CPU 0 instructions: 12500079 cycles: 4110676 heartbeat IPC: 3.08 cumulative IPC: 3.041 (Simulation time: 00 hr 01 min 14 sec)
Heartbeat CPU 0 instructions: 13000084 cycles: 4271072 heartbeat IPC: 3.117 cumulative IPC: 3.044 (Simulation time: 00 hr 01 min 17 sec)
Heartbeat CPU 0 instructions: 13500086 cycles: 4400043 heartbeat IPC: 3.877 cumulative IPC: 3.068 (Simulation time: 00 hr 01 min 20 sec)
Heartbeat CPU 0 instructions: 14000090 cycles: 4573314 heartbeat IPC: 2.886 cumulative IPC: 3.061 (Simulation time: 00 hr 01 min 23 sec)
Heartbeat CPU 0 instructions: 14500090 cycles: 4711730 heartbeat IPC: 3.612 cumulative IPC: 3.077 (Simulation time: 00 hr 01 min 26 sec)
Heartbeat CPU 0 instructions: 15000090 cycles: 4841064 heartbeat IPC: 3.866 cumulative IPC: 3.099 (Simulation time: 00 hr 01 min 29 sec)
Heartbeat CPU 0 instructions: 15500092 cycles: 5002080 heartbeat IPC: 3.105 cumulative IPC: 3.099 (Simulation time: 00 hr 01 min 32 sec)
Heartbeat CPU 0 instructions: 16000096 cycles: 5128999 heartbeat IPC: 3.94 cumulative IPC: 3.12 (Simulation time: 00 hr 01 min 34 sec)
Heartbeat CPU 0 instructions: 16500102 cycles: 5245346 heartbeat IPC: 4.298 cumulative IPC: 3.146 (Simulation time: 00 hr 01 min 36 sec)
Heartbeat CPU 0 instructions: 17000108 cycles: 5379020 heartbeat IPC: 3.74 cumulative IPC: 3.16 (Simulation time: 00 hr 01 min 39 sec)
Heartbeat CPU 0 instructions: 17500110 cycles: 5496314 heartbeat IPC: 4.263 cumulative IPC: 3.184 (Simulation time: 00 hr 01 min 41 sec)
Heartbeat CPU 0 instructions: 18000110 cycles: 5667302 heartbeat IPC: 2.924 cumulative IPC: 3.176 (Simulation time: 00 hr 01 min 45 sec)
Heartbeat CPU 0 instructions: 18500112 cycles: 5839918 heartbeat IPC: 2.897 cumulative IPC: 3.168 (Simulation time: 00 hr 01 min 48 sec)
Heartbeat CPU 0 instructions: 19000118 cycles: 6006583 heartbeat IPC: 3 cumulative IPC: 3.163 (Simulation time: 00 hr 01 min 51 sec)
Heartbeat CPU 0 instructions: 19500121 cycles: 6154121 heartbeat IPC: 3.389 cumulative IPC: 3.169 (Simulation time: 00 hr 01 min 54 sec)
Heartbeat CPU 0 instructions: 20000125 cycles: 6267701 heartbeat IPC: 4.402 cumulative IPC: 3.191 (Simulation time: 00 hr 01 min 56 sec)
Heartbeat CPU 0 instructions: 20500126 cycles: 6379486 heartbeat IPC: 4.473 cumulative IPC: 3.213 (Simulation time: 00 hr 01 min 58 sec)
Heartbeat CPU 0 instructions: 21000130 cycles: 6487469 heartbeat IPC: 4.63 cumulative IPC: 3.237 (Simulation time: 00 hr 02 min 00 sec)
Heartbeat CPU 0 instructions: 21500136 cycles: 6594171 heartbeat IPC: 4.686 cumulative IPC: 3.26 (Simulation time: 00 hr 02 min 02 sec)
Heartbeat CPU 0 instructions: 22000143 cycles: 6694350 heartbeat IPC: 4.991 cumulative IPC: 3.286 (Simulation time: 00 hr 02 min 04 sec)
Heartbeat CPU 0 instructions: 22500148 cycles: 6794431 heartbeat IPC: 4.996 cumulative IPC: 3.312 (Simulation time: 00 hr 02 min 06 sec)
Heartbeat CPU 0 instructions: 23000155 cycles: 6894699 heartbeat IPC: 4.987 cumulative IPC: 3.336 (Simulation time: 00 hr 02 min 07 sec)
Heartbeat CPU 0 instructions: 23500157 cycles: 6994714 heartbeat IPC: 4.999 cumulative IPC: 3.36 (Simulation time: 00 hr 02 min 09 sec)
Heartbeat CPU 0 instructions: 24000160 cycles: 7100391 heartbeat IPC: 4.731 cumulative IPC: 3.38 (Simulation time: 00 hr 02 min 11 sec)
Heartbeat CPU 0 instructions: 24500165 cycles: 7220514 heartbeat IPC: 4.162 cumulative IPC: 3.393 (Simulation time: 00 hr 02 min 14 sec)
Heartbeat CPU 0 instructions: 25000168 cycles: 7363751 heartbeat IPC: 3.491 cumulative IPC: 3.395 (Simulation time: 00 hr 02 min 17 sec)
Heartbeat CPU 0 instructions: 25500174 cycles: 7481489 heartbeat IPC: 4.247 cumulative IPC: 3.408 (Simulation time: 00 hr 02 min 19 sec)
Heartbeat CPU 0 instructions: 26000179 cycles: 7590349 heartbeat IPC: 4.593 cumulative IPC: 3.425 (Simulation time: 00 hr 02 min 21 sec)
Heartbeat CPU 0 instructions: 26500184 cycles: 7700230 heartbeat IPC: 4.55 cumulative IPC: 3.441 (Simulation time: 00 hr 02 min 23 sec)
Heartbeat CPU 0 instructions: 27000184 cycles: 7808608 heartbeat IPC: 4.613 cumulative IPC: 3.458 (Simulation time: 00 hr 02 min 25 sec)
Heartbeat CPU 0 instructions: 27500185 cycles: 7922144 heartbeat IPC: 4.404 cumulative IPC: 3.471 (Simulation time: 00 hr 02 min 27 sec)
Heartbeat CPU 0 instructions: 28000186 cycles: 8033417 heartbeat IPC: 4.493 cumulative IPC: 3.485 (Simulation time: 00 hr 02 min 29 sec)
Heartbeat CPU 0 instructions: 28500191 cycles: 8139674 heartbeat IPC: 4.706 cumulative IPC: 3.501 (Simulation time: 00 hr 02 min 31 sec)
Heartbeat CPU 0 instructions: 29000198 cycles: 8242510 heartbeat IPC: 4.862 cumulative IPC: 3.518 (Simulation time: 00 hr 02 min 33 sec)
Heartbeat CPU 0 instructions: 29500205 cycles: 8342998 heartbeat IPC: 4.976 cumulative IPC: 3.536 (Simulation time: 00 hr 02 min 35 sec)
Heartbeat CPU 0 instructions: 30000210 cycles: 8443431 heartbeat IPC: 4.978 cumulative IPC: 3.553 (Simulation time: 00 hr 02 min 37 sec)
Heartbeat CPU 0 instructions: 30500210 cycles: 8546384 heartbeat IPC: 4.857 cumulative IPC: 3.569 (Simulation time: 00 hr 02 min 39 sec)
Heartbeat CPU 0 instructions: 31000212 cycles: 8660649 heartbeat IPC: 4.376 cumulative IPC: 3.579 (Simulation time: 00 hr 02 min 41 sec)
Heartbeat CPU 0 instructions: 31500213 cycles: 8818797 heartbeat IPC: 3.162 cumulative IPC: 3.572 (Simulation time: 00 hr 02 min 44 sec)
Heartbeat CPU 0 instructions: 32000218 cycles: 8996245 heartbeat IPC: 2.818 cumulative IPC: 3.557 (Simulation time: 00 hr 02 min 48 sec)
Heartbeat CPU 0 instructions: 32500218 cycles: 9129935 heartbeat IPC: 3.74 cumulative IPC: 3.56 (Simulation time: 00 hr 02 min 50 sec)
Heartbeat CPU 0 instructions: 33000223 cycles: 9244215 heartbeat IPC: 4.375 cumulative IPC: 3.57 (Simulation time: 00 hr 02 min 52 sec)
Heartbeat CPU 0 instructions: 33500228 cycles: 9358150 heartbeat IPC: 4.389 cumulative IPC: 3.58 (Simulation time: 00 hr 02 min 54 sec)
Heartbeat CPU 0 instructions: 34000229 cycles: 9513163 heartbeat IPC: 3.226 cumulative IPC: 3.574 (Simulation time: 00 hr 02 min 57 sec)
Heartbeat CPU 0 instructions: 34500230 cycles: 9625081 heartbeat IPC: 4.468 cumulative IPC: 3.584 (Simulation time: 00 hr 02 min 59 sec)
Heartbeat CPU 0 instructions: 35000232 cycles: 9750312 heartbeat IPC: 3.993 cumulative IPC: 3.59 (Simulation time: 00 hr 03 min 01 sec)
Heartbeat CPU 0 instructions: 35500232 cycles: 9919050 heartbeat IPC: 2.963 cumulative IPC: 3.579 (Simulation time: 00 hr 03 min 04 sec)
Heartbeat CPU 0 instructions: 36000237 cycles: 10036001 heartbeat IPC: 4.275 cumulative IPC: 3.587 (Simulation time: 00 hr 03 min 06 sec)
Heartbeat CPU 0 instructions: 36500240 cycles: 10157643 heartbeat IPC: 4.11 cumulative IPC: 3.593 (Simulation time: 00 hr 03 min 08 sec)
Heartbeat CPU 0 instructions: 37000245 cycles: 10290700 heartbeat IPC: 3.758 cumulative IPC: 3.596 (Simulation time: 00 hr 03 min 11 sec)
Heartbeat CPU 0 instructions: 37500245 cycles: 10441907 heartbeat IPC: 3.307 cumulative IPC: 3.591 (Simulation time: 00 hr 03 min 14 sec)
Heartbeat CPU 0 instructions: 38000247 cycles: 10612389 heartbeat IPC: 2.933 cumulative IPC: 3.581 (Simulation time: 00 hr 03 min 17 sec)
Heartbeat CPU 0 instructions: 38500247 cycles: 10750019 heartbeat IPC: 3.633 cumulative IPC: 3.581 (Simulation time: 00 hr 03 min 19 sec)
Heartbeat CPU 0 instructions: 39000247 cycles: 10864633 heartbeat IPC: 4.362 cumulative IPC: 3.59 (Simulation time: 00 hr 03 min 21 sec)
Heartbeat CPU 0 instructions: 39500248 cycles: 10977120 heartbeat IPC: 4.445 cumulative IPC: 3.598 (Simulation time: 00 hr 03 min 23 sec)
Heartbeat CPU 0 instructions: 40000252 cycles: 11080442 heartbeat IPC: 4.839 cumulative IPC: 3.61 (Simulation time: 00 hr 03 min 24 sec)
Heartbeat CPU 0 instructions: 40500252 cycles: 11186617 heartbeat IPC: 4.709 cumulative IPC: 3.62 (Simulation time: 00 hr 03 min 26 sec)
Heartbeat CPU 0 instructions: 41000259 cycles: 11310260 heartbeat IPC: 4.044 cumulative IPC: 3.625 (Simulation time: 00 hr 03 min 28 sec)
Heartbeat CPU 0 instructions: 41500265 cycles: 11424208 heartbeat IPC: 4.388 cumulative IPC: 3.633 (Simulation time: 00 hr 03 min 30 sec)
Heartbeat CPU 0 instructions: 42000270 cycles: 11543618 heartbeat IPC: 4.187 cumulative IPC: 3.638 (Simulation time: 00 hr 03 min 32 sec)
Heartbeat CPU 0 instructions: 42500277 cycles: 11671281 heartbeat IPC: 3.917 cumulative IPC: 3.641 (Simulation time: 00 hr 03 min 34 sec)
Heartbeat CPU 0 instructions: 43000279 cycles: 11838157 heartbeat IPC: 2.996 cumulative IPC: 3.632 (Simulation time: 00 hr 03 min 37 sec)
Heartbeat CPU 0 instructions: 43500284 cycles: 11958963 heartbeat IPC: 4.139 cumulative IPC: 3.637 (Simulation time: 00 hr 03 min 40 sec)
Heartbeat CPU 0 instructions: 44000291 cycles: 12070721 heartbeat IPC: 4.474 cumulative IPC: 3.645 (Simulation time: 00 hr 03 min 42 sec)
Heartbeat CPU 0 instructions: 44500296 cycles: 12184814 heartbeat IPC: 4.382 cumulative IPC: 3.652 (Simulation time: 00 hr 03 min 43 sec)
Heartbeat CPU 0 instructions: 45000297 cycles: 12302342 heartbeat IPC: 4.254 cumulative IPC: 3.658 (Simulation time: 00 hr 03 min 45 sec)
Heartbeat CPU 0 instructions: 45500302 cycles: 12438933 heartbeat IPC: 3.661 cumulative IPC: 3.658 (Simulation time: 00 hr 03 min 47 sec)
Heartbeat CPU 0 instructions: 46000303 cycles: 12657791 heartbeat IPC: 2.285 cumulative IPC: 3.634 (Simulation time: 00 hr 03 min 51 sec)
Heartbeat CPU 0 instructions: 46500304 cycles: 12814995 heartbeat IPC: 3.181 cumulative IPC: 3.629 (Simulation time: 00 hr 03 min 55 sec)
Heartbeat CPU 0 instructions: 47000306 cycles: 13008993 heartbeat IPC: 2.577 cumulative IPC: 3.613 (Simulation time: 00 hr 03 min 58 sec)
Heartbeat CPU 0 instructions: 47500312 cycles: 13206111 heartbeat IPC: 2.537 cumulative IPC: 3.597 (Simulation time: 00 hr 04 min 02 sec)
Heartbeat CPU 0 instructions: 48000318 cycles: 13345136 heartbeat IPC: 3.597 cumulative IPC: 3.597 (Simulation time: 00 hr 04 min 04 sec)
Heartbeat CPU 0 instructions: 48500319 cycles: 13451473 heartbeat IPC: 4.702 cumulative IPC: 3.606 (Simulation time: 00 hr 04 min 06 sec)
Heartbeat CPU 0 instructions: 49000325 cycles: 13585539 heartbeat IPC: 3.73 cumulative IPC: 3.607 (Simulation time: 00 hr 04 min 08 sec)
Heartbeat CPU 0 instructions: 49500332 cycles: 13757967 heartbeat IPC: 2.9 cumulative IPC: 3.598 (Simulation time: 00 hr 04 min 12 sec)
Warmup halting CPU 0 at instruction 50000002 cycle 13906570 for remainder of phase
Warmup finished CPU 0 instructions: 50000002 cycles: 13906570 cumulative IPC: 3.595 (Simulation time: 00 hr 04 min 15 sec)
Warmup complete CPU 0 instructions: 50000002 cycles: 13906570 cumulative IPC: 3.595 (Simulation time: 00 hr 04 min 15 sec)
Heartbeat CPU 0 instructions: 50000332 cycles: 13906725 heartbeat IPC: 3.361 cumulative IPC: 2.129 (Simulation time: 00 hr 04 min 15 sec)
Heartbeat CPU 0 instructions: 50500334 cycles: 15714735 heartbeat IPC: 0.2765 cumulative IPC: 0.2767 (Simulation time: 00 hr 04 min 28 sec)
Heartbeat CPU 0 instructions: 51000335 cycles: 16172970 heartbeat IPC: 1.091 cumulative IPC: 0.4414 (Simulation time: 00 hr 04 min 33 sec)
Heartbeat CPU 0 instructions: 51500339 cycles: 17326579 heartbeat IPC: 0.4334 cumulative IPC: 0.4387 (Simulation time: 00 hr 04 min 42 sec)
Heartbeat CPU 0 instructions: 52000343 cycles: 18280624 heartbeat IPC: 0.5241 cumulative IPC: 0.4573 (Simulation time: 00 hr 04 min 49 sec)
Heartbeat CPU 0 instructions: 52500343 cycles: 19453000 heartbeat IPC: 0.4265 cumulative IPC: 0.4508 (Simulation time: 00 hr 04 min 58 sec)
Heartbeat CPU 0 instructions: 53000344 cycles: 20123086 heartbeat IPC: 0.7462 cumulative IPC: 0.4826 (Simulation time: 00 hr 05 min 05 sec)
Heartbeat CPU 0 instructions: 53500348 cycles: 21392557 heartbeat IPC: 0.3939 cumulative IPC: 0.4676 (Simulation time: 00 hr 05 min 15 sec)
Heartbeat CPU 0 instructions: 54000353 cycles: 22164929 heartbeat IPC: 0.6474 cumulative IPC: 0.4844 (Simulation time: 00 hr 05 min 21 sec)
Heartbeat CPU 0 instructions: 54500353 cycles: 22698773 heartbeat IPC: 0.9366 cumulative IPC: 0.5119 (Simulation time: 00 hr 05 min 26 sec)
Heartbeat CPU 0 instructions: 55000353 cycles: 23135902 heartbeat IPC: 1.144 cumulative IPC: 0.5418 (Simulation time: 00 hr 05 min 31 sec)
Heartbeat CPU 0 instructions: 55500353 cycles: 23620860 heartbeat IPC: 1.031 cumulative IPC: 0.5662 (Simulation time: 00 hr 05 min 36 sec)
Heartbeat CPU 0 instructions: 56000356 cycles: 23868386 heartbeat IPC: 2.02 cumulative IPC: 0.6023 (Simulation time: 00 hr 05 min 39 sec)
Heartbeat CPU 0 instructions: 56500356 cycles: 25468344 heartbeat IPC: 0.3125 cumulative IPC: 0.5622 (Simulation time: 00 hr 05 min 51 sec)
Heartbeat CPU 0 instructions: 57000356 cycles: 26254055 heartbeat IPC: 0.6364 cumulative IPC: 0.5669 (Simulation time: 00 hr 05 min 59 sec)
Heartbeat CPU 0 instructions: 57500361 cycles: 27415515 heartbeat IPC: 0.4305 cumulative IPC: 0.5552 (Simulation time: 00 hr 06 min 07 sec)
Heartbeat CPU 0 instructions: 58000361 cycles: 28048406 heartbeat IPC: 0.79 cumulative IPC: 0.5657 (Simulation time: 00 hr 06 min 13 sec)
Heartbeat CPU 0 instructions: 58500361 cycles: 28436980 heartbeat IPC: 1.287 cumulative IPC: 0.585 (Simulation time: 00 hr 06 min 17 sec)
Heartbeat CPU 0 instructions: 59000361 cycles: 29035310 heartbeat IPC: 0.8357 cumulative IPC: 0.5949 (Simulation time: 00 hr 06 min 23 sec)
Heartbeat CPU 0 instructions: 59500361 cycles: 29365844 heartbeat IPC: 1.513 cumulative IPC: 0.6145 (Simulation time: 00 hr 06 min 26 sec)
Heartbeat CPU 0 instructions: 60000361 cycles: 29791219 heartbeat IPC: 1.175 cumulative IPC: 0.6296 (Simulation time: 00 hr 06 min 30 sec)
Heartbeat CPU 0 instructions: 60500361 cycles: 30349435 heartbeat IPC: 0.8957 cumulative IPC: 0.6386 (Simulation time: 00 hr 06 min 35 sec)
Heartbeat CPU 0 instructions: 61000363 cycles: 30635845 heartbeat IPC: 1.746 cumulative IPC: 0.6576 (Simulation time: 00 hr 06 min 38 sec)
Heartbeat CPU 0 instructions: 61500365 cycles: 31292879 heartbeat IPC: 0.761 cumulative IPC: 0.6615 (Simulation time: 00 hr 06 min 45 sec)
Heartbeat CPU 0 instructions: 62000366 cycles: 33504024 heartbeat IPC: 0.2261 cumulative IPC: 0.6123 (Simulation time: 00 hr 07 min 01 sec)
Heartbeat CPU 0 instructions: 62500369 cycles: 34879582 heartbeat IPC: 0.3635 cumulative IPC: 0.596 (Simulation time: 00 hr 07 min 11 sec)
Heartbeat CPU 0 instructions: 63000369 cycles: 36269170 heartbeat IPC: 0.3598 cumulative IPC: 0.5813 (Simulation time: 00 hr 07 min 21 sec)
Heartbeat CPU 0 instructions: 63500369 cycles: 36833699 heartbeat IPC: 0.8857 cumulative IPC: 0.5888 (Simulation time: 00 hr 07 min 26 sec)
Heartbeat CPU 0 instructions: 64000373 cycles: 38852700 heartbeat IPC: 0.2476 cumulative IPC: 0.5612 (Simulation time: 00 hr 07 min 40 sec)
Heartbeat CPU 0 instructions: 64500377 cycles: 40775546 heartbeat IPC: 0.26 cumulative IPC: 0.5397 (Simulation time: 00 hr 07 min 54 sec)
Heartbeat CPU 0 instructions: 65000380 cycles: 42417090 heartbeat IPC: 0.3046 cumulative IPC: 0.5261 (Simulation time: 00 hr 08 min 06 sec)
Heartbeat CPU 0 instructions: 65500386 cycles: 43241548 heartbeat IPC: 0.6065 cumulative IPC: 0.5284 (Simulation time: 00 hr 08 min 13 sec)
Heartbeat CPU 0 instructions: 66000388 cycles: 44821413 heartbeat IPC: 0.3165 cumulative IPC: 0.5176 (Simulation time: 00 hr 08 min 24 sec)
Heartbeat CPU 0 instructions: 66500389 cycles: 45409981 heartbeat IPC: 0.8495 cumulative IPC: 0.5238 (Simulation time: 00 hr 08 min 29 sec)
Heartbeat CPU 0 instructions: 67000395 cycles: 46242989 heartbeat IPC: 0.6002 cumulative IPC: 0.5257 (Simulation time: 00 hr 08 min 36 sec)
Heartbeat CPU 0 instructions: 67500399 cycles: 48079704 heartbeat IPC: 0.2722 cumulative IPC: 0.5121 (Simulation time: 00 hr 08 min 49 sec)
Heartbeat CPU 0 instructions: 68000399 cycles: 49337902 heartbeat IPC: 0.3974 cumulative IPC: 0.508 (Simulation time: 00 hr 08 min 58 sec)
Heartbeat CPU 0 instructions: 68500405 cycles: 49857006 heartbeat IPC: 0.9632 cumulative IPC: 0.5146 (Simulation time: 00 hr 09 min 03 sec)
Heartbeat CPU 0 instructions: 69000406 cycles: 51440145 heartbeat IPC: 0.3158 cumulative IPC: 0.5062 (Simulation time: 00 hr 09 min 15 sec)
Heartbeat CPU 0 instructions: 69500406 cycles: 52762481 heartbeat IPC: 0.3781 cumulative IPC: 0.5019 (Simulation time: 00 hr 09 min 24 sec)
Heartbeat CPU 0 instructions: 70000409 cycles: 53387717 heartbeat IPC: 0.7997 cumulative IPC: 0.5066 (Simulation time: 00 hr 09 min 30 sec)
Heartbeat CPU 0 instructions: 70500412 cycles: 53639197 heartbeat IPC: 1.988 cumulative IPC: 0.516 (Simulation time: 00 hr 09 min 32 sec)
Heartbeat CPU 0 instructions: 71000414 cycles: 54329080 heartbeat IPC: 0.7248 cumulative IPC: 0.5195 (Simulation time: 00 hr 09 min 38 sec)
Heartbeat CPU 0 instructions: 71500414 cycles: 55011342 heartbeat IPC: 0.7329 cumulative IPC: 0.5231 (Simulation time: 00 hr 09 min 44 sec)
Heartbeat CPU 0 instructions: 72000417 cycles: 55352820 heartbeat IPC: 1.464 cumulative IPC: 0.5308 (Simulation time: 00 hr 09 min 47 sec)
Heartbeat CPU 0 instructions: 72500422 cycles: 56933240 heartbeat IPC: 0.3164 cumulative IPC: 0.5229 (Simulation time: 00 hr 10 min 00 sec)
Heartbeat CPU 0 instructions: 73000428 cycles: 58103194 heartbeat IPC: 0.4274 cumulative IPC: 0.5204 (Simulation time: 00 hr 10 min 10 sec)
Heartbeat CPU 0 instructions: 73500428 cycles: 59136554 heartbeat IPC: 0.4839 cumulative IPC: 0.5196 (Simulation time: 00 hr 10 min 19 sec)
Heartbeat CPU 0 instructions: 74000430 cycles: 60858973 heartbeat IPC: 0.2903 cumulative IPC: 0.5112 (Simulation time: 00 hr 10 min 31 sec)
Heartbeat CPU 0 instructions: 74500431 cycles: 61160567 heartbeat IPC: 1.658 cumulative IPC: 0.5185 (Simulation time: 00 hr 10 min 34 sec)
Heartbeat CPU 0 instructions: 75000434 cycles: 61409821 heartbeat IPC: 2.006 cumulative IPC: 0.5263 (Simulation time: 00 hr 10 min 36 sec)
Heartbeat CPU 0 instructions: 75500441 cycles: 62003378 heartbeat IPC: 0.8424 cumulative IPC: 0.5302 (Simulation time: 00 hr 10 min 41 sec)
Heartbeat CPU 0 instructions: 76000443 cycles: 62863449 heartbeat IPC: 0.5813 cumulative IPC: 0.5311 (Simulation time: 00 hr 10 min 49 sec)
Heartbeat CPU 0 instructions: 76500445 cycles: 64016152 heartbeat IPC: 0.4338 cumulative IPC: 0.5288 (Simulation time: 00 hr 10 min 57 sec)
Heartbeat CPU 0 instructions: 77000445 cycles: 64459467 heartbeat IPC: 1.128 cumulative IPC: 0.5341 (Simulation time: 00 hr 11 min 02 sec)
Heartbeat CPU 0 instructions: 77500449 cycles: 64842674 heartbeat IPC: 1.305 cumulative IPC: 0.5399 (Simulation time: 00 hr 11 min 06 sec)
Heartbeat CPU 0 instructions: 78000450 cycles: 65263390 heartbeat IPC: 1.188 cumulative IPC: 0.5452 (Simulation time: 00 hr 11 min 11 sec)
Heartbeat CPU 0 instructions: 78500450 cycles: 65669402 heartbeat IPC: 1.231 cumulative IPC: 0.5506 (Simulation time: 00 hr 11 min 15 sec)
Heartbeat CPU 0 instructions: 79000451 cycles: 66088213 heartbeat IPC: 1.194 cumulative IPC: 0.5558 (Simulation time: 00 hr 11 min 20 sec)
Heartbeat CPU 0 instructions: 79500452 cycles: 66516437 heartbeat IPC: 1.168 cumulative IPC: 0.5607 (Simulation time: 00 hr 11 min 24 sec)
Heartbeat CPU 0 instructions: 80000452 cycles: 66813764 heartbeat IPC: 1.682 cumulative IPC: 0.567 (Simulation time: 00 hr 11 min 27 sec)
Heartbeat CPU 0 instructions: 80500458 cycles: 67179421 heartbeat IPC: 1.367 cumulative IPC: 0.5725 (Simulation time: 00 hr 11 min 31 sec)
Heartbeat CPU 0 instructions: 81000458 cycles: 67731967 heartbeat IPC: 0.9049 cumulative IPC: 0.5759 (Simulation time: 00 hr 11 min 36 sec)
Heartbeat CPU 0 instructions: 81500458 cycles: 68122690 heartbeat IPC: 1.28 cumulative IPC: 0.581 (Simulation time: 00 hr 11 min 40 sec)
Heartbeat CPU 0 instructions: 82000459 cycles: 68409129 heartbeat IPC: 1.746 cumulative IPC: 0.5871 (Simulation time: 00 hr 11 min 43 sec)
Heartbeat CPU 0 instructions: 82500465 cycles: 68742014 heartbeat IPC: 1.502 cumulative IPC: 0.5927 (Simulation time: 00 hr 11 min 47 sec)
Heartbeat CPU 0 instructions: 83000467 cycles: 69085451 heartbeat IPC: 1.456 cumulative IPC: 0.5981 (Simulation time: 00 hr 11 min 50 sec)
Heartbeat CPU 0 instructions: 83500467 cycles: 69423459 heartbeat IPC: 1.479 cumulative IPC: 0.6034 (Simulation time: 00 hr 11 min 54 sec)
Heartbeat CPU 0 instructions: 84000472 cycles: 69777016 heartbeat IPC: 1.414 cumulative IPC: 0.6086 (Simulation time: 00 hr 11 min 57 sec)
Heartbeat CPU 0 instructions: 84500474 cycles: 70033859 heartbeat IPC: 1.947 cumulative IPC: 0.6147 (Simulation time: 00 hr 12 min 00 sec)
Heartbeat CPU 0 instructions: 85000474 cycles: 70286089 heartbeat IPC: 1.982 cumulative IPC: 0.6208 (Simulation time: 00 hr 12 min 03 sec)
Heartbeat CPU 0 instructions: 85500475 cycles: 70496555 heartbeat IPC: 2.376 cumulative IPC: 0.6273 (Simulation time: 00 hr 12 min 06 sec)
Heartbeat CPU 0 instructions: 86000482 cycles: 70980451 heartbeat IPC: 1.033 cumulative IPC: 0.6308 (Simulation time: 00 hr 12 min 10 sec)
Heartbeat CPU 0 instructions: 86500484 cycles: 71438864 heartbeat IPC: 1.091 cumulative IPC: 0.6344 (Simulation time: 00 hr 12 min 15 sec)
Heartbeat CPU 0 instructions: 87000488 cycles: 71751910 heartbeat IPC: 1.597 cumulative IPC: 0.6396 (Simulation time: 00 hr 12 min 18 sec)
Heartbeat CPU 0 instructions: 87500492 cycles: 72007055 heartbeat IPC: 1.96 cumulative IPC: 0.6454 (Simulation time: 00 hr 12 min 20 sec)
Heartbeat CPU 0 instructions: 88000498 cycles: 72480250 heartbeat IPC: 1.057 cumulative IPC: 0.6488 (Simulation time: 00 hr 12 min 25 sec)
Heartbeat CPU 0 instructions: 88500498 cycles: 72980712 heartbeat IPC: 0.9991 cumulative IPC: 0.6517 (Simulation time: 00 hr 12 min 29 sec)
Heartbeat CPU 0 instructions: 89000498 cycles: 73556318 heartbeat IPC: 0.8686 cumulative IPC: 0.6538 (Simulation time: 00 hr 12 min 35 sec)
Heartbeat CPU 0 instructions: 89500498 cycles: 73927123 heartbeat IPC: 1.348 cumulative IPC: 0.6581 (Simulation time: 00 hr 12 min 39 sec)
Heartbeat CPU 0 instructions: 90000504 cycles: 76401498 heartbeat IPC: 0.2021 cumulative IPC: 0.6401 (Simulation time: 00 hr 12 min 56 sec)
Heartbeat CPU 0 instructions: 90500506 cycles: 77117959 heartbeat IPC: 0.6979 cumulative IPC: 0.6407 (Simulation time: 00 hr 13 min 02 sec)
Heartbeat CPU 0 instructions: 91000513 cycles: 78100567 heartbeat IPC: 0.5089 cumulative IPC: 0.6387 (Simulation time: 00 hr 13 min 10 sec)
Heartbeat CPU 0 instructions: 91500513 cycles: 78696954 heartbeat IPC: 0.8384 cumulative IPC: 0.6405 (Simulation time: 00 hr 13 min 15 sec)
Heartbeat CPU 0 instructions: 92000514 cycles: 80073930 heartbeat IPC: 0.3631 cumulative IPC: 0.6348 (Simulation time: 00 hr 13 min 25 sec)
Heartbeat CPU 0 instructions: 92500519 cycles: 80924397 heartbeat IPC: 0.5879 cumulative IPC: 0.6342 (Simulation time: 00 hr 13 min 32 sec)
Heartbeat CPU 0 instructions: 93000520 cycles: 82737006 heartbeat IPC: 0.2758 cumulative IPC: 0.6247 (Simulation time: 00 hr 13 min 45 sec)
Heartbeat CPU 0 instructions: 93500521 cycles: 84036523 heartbeat IPC: 0.3848 cumulative IPC: 0.6203 (Simulation time: 00 hr 13 min 54 sec)
Heartbeat CPU 0 instructions: 94000521 cycles: 84388620 heartbeat IPC: 1.42 cumulative IPC: 0.6243 (Simulation time: 00 hr 13 min 57 sec)
Heartbeat CPU 0 instructions: 94500521 cycles: 85229393 heartbeat IPC: 0.5947 cumulative IPC: 0.6239 (Simulation time: 00 hr 14 min 04 sec)
Heartbeat CPU 0 instructions: 95000524 cycles: 86752930 heartbeat IPC: 0.3282 cumulative IPC: 0.6177 (Simulation time: 00 hr 14 min 15 sec)
Heartbeat CPU 0 instructions: 95500526 cycles: 87335777 heartbeat IPC: 0.8579 cumulative IPC: 0.6197 (Simulation time: 00 hr 14 min 20 sec)
Heartbeat CPU 0 instructions: 96000526 cycles: 88084020 heartbeat IPC: 0.6682 cumulative IPC: 0.6201 (Simulation time: 00 hr 14 min 26 sec)
Heartbeat CPU 0 instructions: 96500526 cycles: 88731899 heartbeat IPC: 0.7717 cumulative IPC: 0.6215 (Simulation time: 00 hr 14 min 32 sec)
Heartbeat CPU 0 instructions: 97000526 cycles: 90261429 heartbeat IPC: 0.3269 cumulative IPC: 0.6156 (Simulation time: 00 hr 14 min 43 sec)
Heartbeat CPU 0 instructions: 97500531 cycles: 91239690 heartbeat IPC: 0.5111 cumulative IPC: 0.6142 (Simulation time: 00 hr 14 min 51 sec)
Heartbeat CPU 0 instructions: 98000533 cycles: 93130506 heartbeat IPC: 0.2644 cumulative IPC: 0.6059 (Simulation time: 00 hr 15 min 04 sec)
Heartbeat CPU 0 instructions: 98500533 cycles: 94437251 heartbeat IPC: 0.3826 cumulative IPC: 0.6023 (Simulation time: 00 hr 15 min 13 sec)
Heartbeat CPU 0 instructions: 99000535 cycles: 95856086 heartbeat IPC: 0.3524 cumulative IPC: 0.5979 (Simulation time: 00 hr 15 min 24 sec)
Heartbeat CPU 0 instructions: 99500535 cycles: 96217900 heartbeat IPC: 1.382 cumulative IPC: 0.6014 (Simulation time: 00 hr 15 min 27 sec)
Heartbeat CPU 0 instructions: 100000536 cycles: 97372412 heartbeat IPC: 0.4331 cumulative IPC: 0.5991 (Simulation time: 00 hr 15 min 37 sec)
Heartbeat CPU 0 instructions: 100500536 cycles: 98494275 heartbeat IPC: 0.4457 cumulative IPC: 0.597 (Simulation time: 00 hr 15 min 46 sec)
Heartbeat CPU 0 instructions: 101000537 cycles: 100005454 heartbeat IPC: 0.3309 cumulative IPC: 0.5923 (Simulation time: 00 hr 15 min 57 sec)
Heartbeat CPU 0 instructions: 101500537 cycles: 101006500 heartbeat IPC: 0.4995 cumulative IPC: 0.5913 (Simulation time: 00 hr 16 min 05 sec)
Heartbeat CPU 0 instructions: 102000539 cycles: 102448983 heartbeat IPC: 0.3466 cumulative IPC: 0.5873 (Simulation time: 00 hr 16 min 16 sec)
Heartbeat CPU 0 instructions: 102500540 cycles: 103358242 heartbeat IPC: 0.5499 cumulative IPC: 0.5869 (Simulation time: 00 hr 16 min 23 sec)
Heartbeat CPU 0 instructions: 103000547 cycles: 103763613 heartbeat IPC: 1.233 cumulative IPC: 0.5898 (Simulation time: 00 hr 16 min 27 sec)
Heartbeat CPU 0 instructions: 103500549 cycles: 104092521 heartbeat IPC: 1.52 cumulative IPC: 0.5932 (Simulation time: 00 hr 16 min 30 sec)
Heartbeat CPU 0 instructions: 104000549 cycles: 104371931 heartbeat IPC: 1.789 cumulative IPC: 0.5969 (Simulation time: 00 hr 16 min 33 sec)
Heartbeat CPU 0 instructions: 104500555 cycles: 105312181 heartbeat IPC: 0.5318 cumulative IPC: 0.5962 (Simulation time: 00 hr 16 min 40 sec)
Heartbeat CPU 0 instructions: 105000555 cycles: 106227263 heartbeat IPC: 0.5464 cumulative IPC: 0.5958 (Simulation time: 00 hr 16 min 48 sec)
Heartbeat CPU 0 instructions: 105500559 cycles: 107127882 heartbeat IPC: 0.5552 cumulative IPC: 0.5954 (Simulation time: 00 hr 16 min 55 sec)
Heartbeat CPU 0 instructions: 106000559 cycles: 107888773 heartbeat IPC: 0.6571 cumulative IPC: 0.5959 (Simulation time: 00 hr 17 min 01 sec)
Heartbeat CPU 0 instructions: 106500559 cycles: 109753086 heartbeat IPC: 0.2682 cumulative IPC: 0.5895 (Simulation time: 00 hr 17 min 14 sec)
Heartbeat CPU 0 instructions: 107000559 cycles: 110724115 heartbeat IPC: 0.5149 cumulative IPC: 0.5887 (Simulation time: 00 hr 17 min 22 sec)
Heartbeat CPU 0 instructions: 107500562 cycles: 111207308 heartbeat IPC: 1.035 cumulative IPC: 0.591 (Simulation time: 00 hr 17 min 27 sec)
Heartbeat CPU 0 instructions: 108000566 cycles: 112177057 heartbeat IPC: 0.5156 cumulative IPC: 0.5902 (Simulation time: 00 hr 17 min 35 sec)
Heartbeat CPU 0 instructions: 108500573 cycles: 113296343 heartbeat IPC: 0.4467 cumulative IPC: 0.5886 (Simulation time: 00 hr 17 min 44 sec)
Heartbeat CPU 0 instructions: 109000573 cycles: 113688620 heartbeat IPC: 1.275 cumulative IPC: 0.5913 (Simulation time: 00 hr 17 min 48 sec)
Heartbeat CPU 0 instructions: 109500576 cycles: 114828908 heartbeat IPC: 0.4385 cumulative IPC: 0.5896 (Simulation time: 00 hr 17 min 56 sec)
Heartbeat CPU 0 instructions: 110000579 cycles: 115722731 heartbeat IPC: 0.5594 cumulative IPC: 0.5893 (Simulation time: 00 hr 18 min 04 sec)
Heartbeat CPU 0 instructions: 110500579 cycles: 116149443 heartbeat IPC: 1.172 cumulative IPC: 0.5917 (Simulation time: 00 hr 18 min 08 sec)
Heartbeat CPU 0 instructions: 111000579 cycles: 117684062 heartbeat IPC: 0.3258 cumulative IPC: 0.5878 (Simulation time: 00 hr 18 min 20 sec)
Heartbeat CPU 0 instructions: 111500585 cycles: 118365254 heartbeat IPC: 0.734 cumulative IPC: 0.5888 (Simulation time: 00 hr 18 min 26 sec)
Heartbeat CPU 0 instructions: 112000585 cycles: 119632251 heartbeat IPC: 0.3946 cumulative IPC: 0.5864 (Simulation time: 00 hr 18 min 36 sec)
Heartbeat CPU 0 instructions: 112500587 cycles: 121125782 heartbeat IPC: 0.3348 cumulative IPC: 0.5829 (Simulation time: 00 hr 18 min 47 sec)
Heartbeat CPU 0 instructions: 113000589 cycles: 122944522 heartbeat IPC: 0.2749 cumulative IPC: 0.5778 (Simulation time: 00 hr 19 min 00 sec)
Heartbeat CPU 0 instructions: 113500590 cycles: 123757659 heartbeat IPC: 0.6149 cumulative IPC: 0.5781 (Simulation time: 00 hr 19 min 06 sec)
Heartbeat CPU 0 instructions: 114000591 cycles: 124472137 heartbeat IPC: 0.6998 cumulative IPC: 0.5788 (Simulation time: 00 hr 19 min 12 sec)
Heartbeat CPU 0 instructions: 114500598 cycles: 124654873 heartbeat IPC: 2.736 cumulative IPC: 0.5824 (Simulation time: 00 hr 19 min 15 sec)
Heartbeat CPU 0 instructions: 115000603 cycles: 125129811 heartbeat IPC: 1.053 cumulative IPC: 0.5844 (Simulation time: 00 hr 19 min 19 sec)
Heartbeat CPU 0 instructions: 115500608 cycles: 127143591 heartbeat IPC: 0.2483 cumulative IPC: 0.5784 (Simulation time: 00 hr 19 min 33 sec)
Heartbeat CPU 0 instructions: 116000610 cycles: 128237489 heartbeat IPC: 0.4571 cumulative IPC: 0.5773 (Simulation time: 00 hr 19 min 42 sec)
Heartbeat CPU 0 instructions: 116500612 cycles: 129829964 heartbeat IPC: 0.314 cumulative IPC: 0.5737 (Simulation time: 00 hr 19 min 54 sec)
Heartbeat CPU 0 instructions: 117000613 cycles: 131215993 heartbeat IPC: 0.3607 cumulative IPC: 0.5711 (Simulation time: 00 hr 20 min 05 sec)
Heartbeat CPU 0 instructions: 117500614 cycles: 132695341 heartbeat IPC: 0.338 cumulative IPC: 0.5682 (Simulation time: 00 hr 20 min 17 sec)
Heartbeat CPU 0 instructions: 118000614 cycles: 134016632 heartbeat IPC: 0.3784 cumulative IPC: 0.5662 (Simulation time: 00 hr 20 min 27 sec)
Heartbeat CPU 0 instructions: 118500615 cycles: 134439549 heartbeat IPC: 1.182 cumulative IPC: 0.5683 (Simulation time: 00 hr 20 min 31 sec)
Heartbeat CPU 0 instructions: 119000620 cycles: 135565029 heartbeat IPC: 0.4443 cumulative IPC: 0.5672 (Simulation time: 00 hr 20 min 39 sec)
Heartbeat CPU 0 instructions: 119500620 cycles: 137053206 heartbeat IPC: 0.336 cumulative IPC: 0.5644 (Simulation time: 00 hr 20 min 50 sec)
Heartbeat CPU 0 instructions: 120000626 cycles: 138738183 heartbeat IPC: 0.2967 cumulative IPC: 0.5608 (Simulation time: 00 hr 21 min 01 sec)
Heartbeat CPU 0 instructions: 120500630 cycles: 140468296 heartbeat IPC: 0.289 cumulative IPC: 0.557 (Simulation time: 00 hr 21 min 14 sec)
Heartbeat CPU 0 instructions: 121000630 cycles: 141006107 heartbeat IPC: 0.9297 cumulative IPC: 0.5586 (Simulation time: 00 hr 21 min 18 sec)
Heartbeat CPU 0 instructions: 121500630 cycles: 141959304 heartbeat IPC: 0.5246 cumulative IPC: 0.5584 (Simulation time: 00 hr 21 min 26 sec)
Heartbeat CPU 0 instructions: 122000635 cycles: 143281971 heartbeat IPC: 0.378 cumulative IPC: 0.5565 (Simulation time: 00 hr 21 min 35 sec)
Heartbeat CPU 0 instructions: 122500635 cycles: 144534737 heartbeat IPC: 0.3991 cumulative IPC: 0.555 (Simulation time: 00 hr 21 min 45 sec)
Heartbeat CPU 0 instructions: 123000635 cycles: 145772259 heartbeat IPC: 0.404 cumulative IPC: 0.5536 (Simulation time: 00 hr 21 min 54 sec)
Heartbeat CPU 0 instructions: 123500636 cycles: 147327706 heartbeat IPC: 0.3215 cumulative IPC: 0.5509 (Simulation time: 00 hr 22 min 06 sec)
Heartbeat CPU 0 instructions: 124000640 cycles: 147915779 heartbeat IPC: 0.8502 cumulative IPC: 0.5522 (Simulation time: 00 hr 22 min 11 sec)
Heartbeat CPU 0 instructions: 124500641 cycles: 149181490 heartbeat IPC: 0.395 cumulative IPC: 0.5507 (Simulation time: 00 hr 22 min 21 sec)
Heartbeat CPU 0 instructions: 125000641 cycles: 150198572 heartbeat IPC: 0.4916 cumulative IPC: 0.5503 (Simulation time: 00 hr 22 min 30 sec)
Heartbeat CPU 0 instructions: 125500644 cycles: 151448718 heartbeat IPC: 0.4 cumulative IPC: 0.5489 (Simulation time: 00 hr 22 min 40 sec)
Heartbeat CPU 0 instructions: 126000649 cycles: 153182812 heartbeat IPC: 0.2883 cumulative IPC: 0.5457 (Simulation time: 00 hr 22 min 53 sec)
Heartbeat CPU 0 instructions: 126500649 cycles: 154043515 heartbeat IPC: 0.5809 cumulative IPC: 0.5459 (Simulation time: 00 hr 22 min 59 sec)
Heartbeat CPU 0 instructions: 127000649 cycles: 154567728 heartbeat IPC: 0.9538 cumulative IPC: 0.5474 (Simulation time: 00 hr 23 min 04 sec)
Heartbeat CPU 0 instructions: 127500651 cycles: 155004689 heartbeat IPC: 1.144 cumulative IPC: 0.5493 (Simulation time: 00 hr 23 min 08 sec)
Heartbeat CPU 0 instructions: 128000652 cycles: 157286588 heartbeat IPC: 0.2191 cumulative IPC: 0.544 (Simulation time: 00 hr 23 min 24 sec)
Heartbeat CPU 0 instructions: 128500653 cycles: 158955158 heartbeat IPC: 0.2997 cumulative IPC: 0.5412 (Simulation time: 00 hr 23 min 37 sec)
Heartbeat CPU 0 instructions: 129000653 cycles: 160243649 heartbeat IPC: 0.3881 cumulative IPC: 0.5399 (Simulation time: 00 hr 23 min 47 sec)
Heartbeat CPU 0 instructions: 129500653 cycles: 161280226 heartbeat IPC: 0.4824 cumulative IPC: 0.5394 (Simulation time: 00 hr 23 min 55 sec)
Heartbeat CPU 0 instructions: 130000653 cycles: 161910987 heartbeat IPC: 0.7927 cumulative IPC: 0.5405 (Simulation time: 00 hr 24 min 00 sec)
Heartbeat CPU 0 instructions: 130500655 cycles: 163008756 heartbeat IPC: 0.4555 cumulative IPC: 0.5399 (Simulation time: 00 hr 24 min 08 sec)
Heartbeat CPU 0 instructions: 131000655 cycles: 165139960 heartbeat IPC: 0.2346 cumulative IPC: 0.5356 (Simulation time: 00 hr 24 min 23 sec)
Heartbeat CPU 0 instructions: 131500657 cycles: 166202301 heartbeat IPC: 0.4707 cumulative IPC: 0.5351 (Simulation time: 00 hr 24 min 32 sec)
Heartbeat CPU 0 instructions: 132000662 cycles: 166707449 heartbeat IPC: 0.9898 cumulative IPC: 0.5367 (Simulation time: 00 hr 24 min 37 sec)
Heartbeat CPU 0 instructions: 132500664 cycles: 167777781 heartbeat IPC: 0.4671 cumulative IPC: 0.5362 (Simulation time: 00 hr 24 min 45 sec)
Heartbeat CPU 0 instructions: 133000666 cycles: 168517673 heartbeat IPC: 0.6758 cumulative IPC: 0.5368 (Simulation time: 00 hr 24 min 51 sec)
Heartbeat CPU 0 instructions: 133500666 cycles: 169399954 heartbeat IPC: 0.5667 cumulative IPC: 0.537 (Simulation time: 00 hr 24 min 58 sec)
Heartbeat CPU 0 instructions: 134000667 cycles: 171021582 heartbeat IPC: 0.3083 cumulative IPC: 0.5346 (Simulation time: 00 hr 25 min 10 sec)
Heartbeat CPU 0 instructions: 134500669 cycles: 172251748 heartbeat IPC: 0.4065 cumulative IPC: 0.5336 (Simulation time: 00 hr 25 min 19 sec)
Heartbeat CPU 0 instructions: 135000669 cycles: 173780883 heartbeat IPC: 0.327 cumulative IPC: 0.5317 (Simulation time: 00 hr 25 min 31 sec)
Heartbeat CPU 0 instructions: 135500672 cycles: 175424561 heartbeat IPC: 0.3042 cumulative IPC: 0.5294 (Simulation time: 00 hr 25 min 43 sec)
Heartbeat CPU 0 instructions: 136000673 cycles: 176773381 heartbeat IPC: 0.3707 cumulative IPC: 0.528 (Simulation time: 00 hr 25 min 53 sec)
Heartbeat CPU 0 instructions: 136500676 cycles: 177772443 heartbeat IPC: 0.5005 cumulative IPC: 0.5279 (Simulation time: 00 hr 26 min 00 sec)
Heartbeat CPU 0 instructions: 137000676 cycles: 179091823 heartbeat IPC: 0.379 cumulative IPC: 0.5267 (Simulation time: 00 hr 26 min 10 sec)
Heartbeat CPU 0 instructions: 137500676 cycles: 180529516 heartbeat IPC: 0.3478 cumulative IPC: 0.5251 (Simulation time: 00 hr 26 min 20 sec)
Heartbeat CPU 0 instructions: 138000676 cycles: 181041661 heartbeat IPC: 0.9763 cumulative IPC: 0.5265 (Simulation time: 00 hr 26 min 25 sec)
Heartbeat CPU 0 instructions: 138500677 cycles: 181541136 heartbeat IPC: 1.001 cumulative IPC: 0.5279 (Simulation time: 00 hr 26 min 29 sec)
Heartbeat CPU 0 instructions: 139000677 cycles: 182045419 heartbeat IPC: 0.9915 cumulative IPC: 0.5293 (Simulation time: 00 hr 26 min 34 sec)
Heartbeat CPU 0 instructions: 139500678 cycles: 182537805 heartbeat IPC: 1.015 cumulative IPC: 0.5307 (Simulation time: 00 hr 26 min 39 sec)
Heartbeat CPU 0 instructions: 140000682 cycles: 183135473 heartbeat IPC: 0.8366 cumulative IPC: 0.5318 (Simulation time: 00 hr 26 min 44 sec)
Heartbeat CPU 0 instructions: 140500688 cycles: 184418917 heartbeat IPC: 0.3896 cumulative IPC: 0.5308 (Simulation time: 00 hr 26 min 54 sec)
Heartbeat CPU 0 instructions: 141000690 cycles: 185805176 heartbeat IPC: 0.3607 cumulative IPC: 0.5294 (Simulation time: 00 hr 27 min 03 sec)
Heartbeat CPU 0 instructions: 141500690 cycles: 186262450 heartbeat IPC: 1.093 cumulative IPC: 0.5309 (Simulation time: 00 hr 27 min 08 sec)
Heartbeat CPU 0 instructions: 142000692 cycles: 186725716 heartbeat IPC: 1.079 cumulative IPC: 0.5324 (Simulation time: 00 hr 27 min 12 sec)
Heartbeat CPU 0 instructions: 142500695 cycles: 187233221 heartbeat IPC: 0.9852 cumulative IPC: 0.5337 (Simulation time: 00 hr 27 min 16 sec)
Heartbeat CPU 0 instructions: 143000698 cycles: 187667793 heartbeat IPC: 1.151 cumulative IPC: 0.5352 (Simulation time: 00 hr 27 min 20 sec)
Heartbeat CPU 0 instructions: 143500698 cycles: 188062999 heartbeat IPC: 1.265 cumulative IPC: 0.5369 (Simulation time: 00 hr 27 min 24 sec)
Heartbeat CPU 0 instructions: 144000700 cycles: 189091112 heartbeat IPC: 0.4863 cumulative IPC: 0.5366 (Simulation time: 00 hr 27 min 32 sec)
Heartbeat CPU 0 instructions: 144500707 cycles: 189540651 heartbeat IPC: 1.112 cumulative IPC: 0.5381 (Simulation time: 00 hr 27 min 36 sec)
Heartbeat CPU 0 instructions: 145000707 cycles: 190391308 heartbeat IPC: 0.5878 cumulative IPC: 0.5383 (Simulation time: 00 hr 27 min 43 sec)
Heartbeat CPU 0 instructions: 145500707 cycles: 191510759 heartbeat IPC: 0.4466 cumulative IPC: 0.5377 (Simulation time: 00 hr 27 min 52 sec)
Heartbeat CPU 0 instructions: 146000711 cycles: 192871957 heartbeat IPC: 0.3673 cumulative IPC: 0.5364 (Simulation time: 00 hr 28 min 03 sec)
Heartbeat CPU 0 instructions: 146500717 cycles: 194195722 heartbeat IPC: 0.3777 cumulative IPC: 0.5353 (Simulation time: 00 hr 28 min 13 sec)
Heartbeat CPU 0 instructions: 147000719 cycles: 194767378 heartbeat IPC: 0.8747 cumulative IPC: 0.5363 (Simulation time: 00 hr 28 min 18 sec)
Heartbeat CPU 0 instructions: 147500719 cycles: 194993665 heartbeat IPC: 2.21 cumulative IPC: 0.5384 (Simulation time: 00 hr 28 min 21 sec)
Heartbeat CPU 0 instructions: 148000720 cycles: 195855027 heartbeat IPC: 0.5805 cumulative IPC: 0.5386 (Simulation time: 00 hr 28 min 28 sec)
Heartbeat CPU 0 instructions: 148500721 cycles: 196104096 heartbeat IPC: 2.007 cumulative IPC: 0.5406 (Simulation time: 00 hr 28 min 31 sec)
Heartbeat CPU 0 instructions: 149000721 cycles: 196332351 heartbeat IPC: 2.191 cumulative IPC: 0.5427 (Simulation time: 00 hr 28 min 34 sec)
Heartbeat CPU 0 instructions: 149500722 cycles: 197009957 heartbeat IPC: 0.7379 cumulative IPC: 0.5434 (Simulation time: 00 hr 28 min 40 sec)
Heartbeat CPU 0 instructions: 150000723 cycles: 197904134 heartbeat IPC: 0.5592 cumulative IPC: 0.5435 (Simulation time: 00 hr 28 min 47 sec)
Heartbeat CPU 0 instructions: 150500723 cycles: 199777595 heartbeat IPC: 0.2669 cumulative IPC: 0.5407 (Simulation time: 00 hr 29 min 01 sec)
Heartbeat CPU 0 instructions: 151000725 cycles: 201170870 heartbeat IPC: 0.3589 cumulative IPC: 0.5393 (Simulation time: 00 hr 29 min 11 sec)
Heartbeat CPU 0 instructions: 151500725 cycles: 202779930 heartbeat IPC: 0.3107 cumulative IPC: 0.5374 (Simulation time: 00 hr 29 min 23 sec)
Heartbeat CPU 0 instructions: 152000727 cycles: 203433803 heartbeat IPC: 0.7647 cumulative IPC: 0.5382 (Simulation time: 00 hr 29 min 28 sec)
Heartbeat CPU 0 instructions: 152500734 cycles: 203825509 heartbeat IPC: 1.276 cumulative IPC: 0.5397 (Simulation time: 00 hr 29 min 32 sec)
Heartbeat CPU 0 instructions: 153000736 cycles: 204236178 heartbeat IPC: 1.218 cumulative IPC: 0.5412 (Simulation time: 00 hr 29 min 36 sec)
Heartbeat CPU 0 instructions: 153500736 cycles: 204876495 heartbeat IPC: 0.7809 cumulative IPC: 0.542 (Simulation time: 00 hr 29 min 42 sec)
Heartbeat CPU 0 instructions: 154000737 cycles: 205448273 heartbeat IPC: 0.8745 cumulative IPC: 0.543 (Simulation time: 00 hr 29 min 47 sec)
Heartbeat CPU 0 instructions: 154500737 cycles: 206112001 heartbeat IPC: 0.7533 cumulative IPC: 0.5437 (Simulation time: 00 hr 29 min 53 sec)
Heartbeat CPU 0 instructions: 155000738 cycles: 207581179 heartbeat IPC: 0.3403 cumulative IPC: 0.5422 (Simulation time: 00 hr 30 min 03 sec)
Heartbeat CPU 0 instructions: 155500742 cycles: 209375321 heartbeat IPC: 0.2787 cumulative IPC: 0.5397 (Simulation time: 00 hr 30 min 17 sec)
Heartbeat CPU 0 instructions: 156000743 cycles: 210469235 heartbeat IPC: 0.4571 cumulative IPC: 0.5393 (Simulation time: 00 hr 30 min 26 sec)
Heartbeat CPU 0 instructions: 156500749 cycles: 211292647 heartbeat IPC: 0.6072 cumulative IPC: 0.5396 (Simulation time: 00 hr 30 min 33 sec)
Heartbeat CPU 0 instructions: 157000749 cycles: 212032670 heartbeat IPC: 0.6757 cumulative IPC: 0.5401 (Simulation time: 00 hr 30 min 39 sec)
Heartbeat CPU 0 instructions: 157500749 cycles: 212978202 heartbeat IPC: 0.5288 cumulative IPC: 0.54 (Simulation time: 00 hr 30 min 47 sec)
Heartbeat CPU 0 instructions: 158000753 cycles: 213810823 heartbeat IPC: 0.6005 cumulative IPC: 0.5403 (Simulation time: 00 hr 30 min 54 sec)
Heartbeat CPU 0 instructions: 158500754 cycles: 214717417 heartbeat IPC: 0.5515 cumulative IPC: 0.5403 (Simulation time: 00 hr 31 min 01 sec)
Heartbeat CPU 0 instructions: 159000756 cycles: 215883686 heartbeat IPC: 0.4287 cumulative IPC: 0.5397 (Simulation time: 00 hr 31 min 09 sec)
Heartbeat CPU 0 instructions: 159500757 cycles: 217062489 heartbeat IPC: 0.4242 cumulative IPC: 0.539 (Simulation time: 00 hr 31 min 19 sec)
Heartbeat CPU 0 instructions: 160000760 cycles: 217516265 heartbeat IPC: 1.102 cumulative IPC: 0.5403 (Simulation time: 00 hr 31 min 23 sec)
Heartbeat CPU 0 instructions: 160500764 cycles: 219251240 heartbeat IPC: 0.2882 cumulative IPC: 0.5381 (Simulation time: 00 hr 31 min 36 sec)
Heartbeat CPU 0 instructions: 161000766 cycles: 220038096 heartbeat IPC: 0.6354 cumulative IPC: 0.5385 (Simulation time: 00 hr 31 min 43 sec)
Heartbeat CPU 0 instructions: 161500770 cycles: 221718947 heartbeat IPC: 0.2975 cumulative IPC: 0.5365 (Simulation time: 00 hr 31 min 55 sec)
Heartbeat CPU 0 instructions: 162000770 cycles: 222925635 heartbeat IPC: 0.4144 cumulative IPC: 0.5358 (Simulation time: 00 hr 32 min 04 sec)
Heartbeat CPU 0 instructions: 162500776 cycles: 225242256 heartbeat IPC: 0.2158 cumulative IPC: 0.5323 (Simulation time: 00 hr 32 min 19 sec)
Heartbeat CPU 0 instructions: 163000776 cycles: 225878339 heartbeat IPC: 0.7861 cumulative IPC: 0.5331 (Simulation time: 00 hr 32 min 25 sec)
Heartbeat CPU 0 instructions: 163500778 cycles: 226487558 heartbeat IPC: 0.8207 cumulative IPC: 0.5339 (Simulation time: 00 hr 32 min 31 sec)
Heartbeat CPU 0 instructions: 164000781 cycles: 227077817 heartbeat IPC: 0.8471 cumulative IPC: 0.5348 (Simulation time: 00 hr 32 min 36 sec)
Heartbeat CPU 0 instructions: 164500781 cycles: 229006087 heartbeat IPC: 0.2593 cumulative IPC: 0.5323 (Simulation time: 00 hr 32 min 50 sec)
Heartbeat CPU 0 instructions: 165000787 cycles: 229593858 heartbeat IPC: 0.8507 cumulative IPC: 0.5332 (Simulation time: 00 hr 32 min 55 sec)
Heartbeat CPU 0 instructions: 165500789 cycles: 230430392 heartbeat IPC: 0.5977 cumulative IPC: 0.5334 (Simulation time: 00 hr 33 min 01 sec)
Heartbeat CPU 0 instructions: 166000789 cycles: 231480322 heartbeat IPC: 0.4762 cumulative IPC: 0.5332 (Simulation time: 00 hr 33 min 09 sec)
Heartbeat CPU 0 instructions: 166500793 cycles: 233119820 heartbeat IPC: 0.305 cumulative IPC: 0.5314 (Simulation time: 00 hr 33 min 21 sec)
Heartbeat CPU 0 instructions: 167000794 cycles: 234276318 heartbeat IPC: 0.4323 cumulative IPC: 0.5309 (Simulation time: 00 hr 33 min 30 sec)
Heartbeat CPU 0 instructions: 167500794 cycles: 235165433 heartbeat IPC: 0.5624 cumulative IPC: 0.5311 (Simulation time: 00 hr 33 min 38 sec)
Heartbeat CPU 0 instructions: 168000799 cycles: 236956539 heartbeat IPC: 0.2792 cumulative IPC: 0.529 (Simulation time: 00 hr 33 min 50 sec)
Heartbeat CPU 0 instructions: 168500803 cycles: 237774433 heartbeat IPC: 0.6113 cumulative IPC: 0.5293 (Simulation time: 00 hr 33 min 57 sec)
Heartbeat CPU 0 instructions: 169000804 cycles: 239741875 heartbeat IPC: 0.2541 cumulative IPC: 0.5269 (Simulation time: 00 hr 34 min 11 sec)
Heartbeat CPU 0 instructions: 169500805 cycles: 240830940 heartbeat IPC: 0.4591 cumulative IPC: 0.5266 (Simulation time: 00 hr 34 min 19 sec)
Heartbeat CPU 0 instructions: 170000809 cycles: 242765680 heartbeat IPC: 0.2584 cumulative IPC: 0.5243 (Simulation time: 00 hr 34 min 33 sec)
Heartbeat CPU 0 instructions: 170500810 cycles: 244249038 heartbeat IPC: 0.3371 cumulative IPC: 0.5231 (Simulation time: 00 hr 34 min 43 sec)
Heartbeat CPU 0 instructions: 171000815 cycles: 245229407 heartbeat IPC: 0.51 cumulative IPC: 0.5231 (Simulation time: 00 hr 34 min 51 sec)
Heartbeat CPU 0 instructions: 171500821 cycles: 246431533 heartbeat IPC: 0.4159 cumulative IPC: 0.5225 (Simulation time: 00 hr 35 min 01 sec)
Heartbeat CPU 0 instructions: 172000823 cycles: 247676279 heartbeat IPC: 0.4017 cumulative IPC: 0.5219 (Simulation time: 00 hr 35 min 10 sec)
Heartbeat CPU 0 instructions: 172500824 cycles: 248774552 heartbeat IPC: 0.4553 cumulative IPC: 0.5216 (Simulation time: 00 hr 35 min 19 sec)
Heartbeat CPU 0 instructions: 173000825 cycles: 249571598 heartbeat IPC: 0.6273 cumulative IPC: 0.5219 (Simulation time: 00 hr 35 min 26 sec)
Heartbeat CPU 0 instructions: 173500825 cycles: 250686522 heartbeat IPC: 0.4485 cumulative IPC: 0.5216 (Simulation time: 00 hr 35 min 35 sec)
Heartbeat CPU 0 instructions: 174000827 cycles: 251430197 heartbeat IPC: 0.6723 cumulative IPC: 0.5221 (Simulation time: 00 hr 35 min 42 sec)
Heartbeat CPU 0 instructions: 174500827 cycles: 252172342 heartbeat IPC: 0.6737 cumulative IPC: 0.5225 (Simulation time: 00 hr 35 min 48 sec)
Heartbeat CPU 0 instructions: 175000827 cycles: 253447096 heartbeat IPC: 0.3922 cumulative IPC: 0.5218 (Simulation time: 00 hr 35 min 58 sec)
Heartbeat CPU 0 instructions: 175500829 cycles: 255227495 heartbeat IPC: 0.2808 cumulative IPC: 0.5201 (Simulation time: 00 hr 36 min 11 sec)
Heartbeat CPU 0 instructions: 176000830 cycles: 256701075 heartbeat IPC: 0.3393 cumulative IPC: 0.519 (Simulation time: 00 hr 36 min 22 sec)
Heartbeat CPU 0 instructions: 176500831 cycles: 257490024 heartbeat IPC: 0.6338 cumulative IPC: 0.5193 (Simulation time: 00 hr 36 min 29 sec)
Heartbeat CPU 0 instructions: 177000831 cycles: 258155934 heartbeat IPC: 0.7509 cumulative IPC: 0.52 (Simulation time: 00 hr 36 min 35 sec)
Heartbeat CPU 0 instructions: 177500832 cycles: 258698762 heartbeat IPC: 0.9211 cumulative IPC: 0.5209 (Simulation time: 00 hr 36 min 40 sec)
Heartbeat CPU 0 instructions: 178000832 cycles: 259040586 heartbeat IPC: 1.463 cumulative IPC: 0.5222 (Simulation time: 00 hr 36 min 43 sec)
Heartbeat CPU 0 instructions: 178500832 cycles: 259388155 heartbeat IPC: 1.439 cumulative IPC: 0.5235 (Simulation time: 00 hr 36 min 46 sec)
Heartbeat CPU 0 instructions: 179000834 cycles: 259686780 heartbeat IPC: 1.674 cumulative IPC: 0.5249 (Simulation time: 00 hr 36 min 49 sec)
Heartbeat CPU 0 instructions: 179500835 cycles: 260361433 heartbeat IPC: 0.7411 cumulative IPC: 0.5255 (Simulation time: 00 hr 36 min 55 sec)
Heartbeat CPU 0 instructions: 180000839 cycles: 261798023 heartbeat IPC: 0.348 cumulative IPC: 0.5244 (Simulation time: 00 hr 37 min 06 sec)
Heartbeat CPU 0 instructions: 180500841 cycles: 262822440 heartbeat IPC: 0.4881 cumulative IPC: 0.5243 (Simulation time: 00 hr 37 min 14 sec)
Heartbeat CPU 0 instructions: 181000842 cycles: 263601618 heartbeat IPC: 0.6417 cumulative IPC: 0.5246 (Simulation time: 00 hr 37 min 21 sec)
Heartbeat CPU 0 instructions: 181500842 cycles: 265529450 heartbeat IPC: 0.2594 cumulative IPC: 0.5226 (Simulation time: 00 hr 37 min 36 sec)
Heartbeat CPU 0 instructions: 182000843 cycles: 266248777 heartbeat IPC: 0.6951 cumulative IPC: 0.5231 (Simulation time: 00 hr 37 min 42 sec)
Heartbeat CPU 0 instructions: 182500843 cycles: 267720070 heartbeat IPC: 0.3398 cumulative IPC: 0.522 (Simulation time: 00 hr 37 min 53 sec)
Heartbeat CPU 0 instructions: 183000843 cycles: 268516629 heartbeat IPC: 0.6277 cumulative IPC: 0.5224 (Simulation time: 00 hr 38 min 00 sec)
Heartbeat CPU 0 instructions: 183500843 cycles: 268890484 heartbeat IPC: 1.337 cumulative IPC: 0.5236 (Simulation time: 00 hr 38 min 04 sec)
Heartbeat CPU 0 instructions: 184000843 cycles: 269777458 heartbeat IPC: 0.5637 cumulative IPC: 0.5237 (Simulation time: 00 hr 38 min 11 sec)
Heartbeat CPU 0 instructions: 184500843 cycles: 270822905 heartbeat IPC: 0.4783 cumulative IPC: 0.5235 (Simulation time: 00 hr 38 min 19 sec)
Heartbeat CPU 0 instructions: 185000847 cycles: 271016592 heartbeat IPC: 2.582 cumulative IPC: 0.5251 (Simulation time: 00 hr 38 min 22 sec)
Heartbeat CPU 0 instructions: 185500849 cycles: 271313564 heartbeat IPC: 1.684 cumulative IPC: 0.5264 (Simulation time: 00 hr 38 min 25 sec)
Heartbeat CPU 0 instructions: 186000853 cycles: 271705250 heartbeat IPC: 1.277 cumulative IPC: 0.5275 (Simulation time: 00 hr 38 min 30 sec)
Heartbeat CPU 0 instructions: 186500853 cycles: 272490727 heartbeat IPC: 0.6366 cumulative IPC: 0.5279 (Simulation time: 00 hr 38 min 36 sec)
Heartbeat CPU 0 instructions: 187000853 cycles: 273027400 heartbeat IPC: 0.9317 cumulative IPC: 0.5287 (Simulation time: 00 hr 38 min 41 sec)
Heartbeat CPU 0 instructions: 187500853 cycles: 273748021 heartbeat IPC: 0.6938 cumulative IPC: 0.5292 (Simulation time: 00 hr 38 min 47 sec)
Heartbeat CPU 0 instructions: 188000855 cycles: 274012128 heartbeat IPC: 1.893 cumulative IPC: 0.5306 (Simulation time: 00 hr 38 min 51 sec)
Heartbeat CPU 0 instructions: 188500855 cycles: 275620487 heartbeat IPC: 0.3109 cumulative IPC: 0.5292 (Simulation time: 00 hr 39 min 03 sec)
Heartbeat CPU 0 instructions: 189000855 cycles: 276862973 heartbeat IPC: 0.4024 cumulative IPC: 0.5286 (Simulation time: 00 hr 39 min 13 sec)
Heartbeat CPU 0 instructions: 189500857 cycles: 277671356 heartbeat IPC: 0.6185 cumulative IPC: 0.5289 (Simulation time: 00 hr 39 min 20 sec)
Heartbeat CPU 0 instructions: 190000864 cycles: 278408686 heartbeat IPC: 0.6781 cumulative IPC: 0.5293 (Simulation time: 00 hr 39 min 26 sec)
Heartbeat CPU 0 instructions: 190500864 cycles: 278837614 heartbeat IPC: 1.166 cumulative IPC: 0.5303 (Simulation time: 00 hr 39 min 30 sec)
Heartbeat CPU 0 instructions: 191000866 cycles: 279280374 heartbeat IPC: 1.129 cumulative IPC: 0.5313 (Simulation time: 00 hr 39 min 34 sec)
Heartbeat CPU 0 instructions: 191500872 cycles: 279723240 heartbeat IPC: 1.129 cumulative IPC: 0.5323 (Simulation time: 00 hr 39 min 39 sec)
Heartbeat CPU 0 instructions: 192000878 cycles: 280173721 heartbeat IPC: 1.11 cumulative IPC: 0.5333 (Simulation time: 00 hr 39 min 43 sec)
Heartbeat CPU 0 instructions: 192500885 cycles: 280612397 heartbeat IPC: 1.14 cumulative IPC: 0.5343 (Simulation time: 00 hr 39 min 47 sec)
Heartbeat CPU 0 instructions: 193000885 cycles: 281067876 heartbeat IPC: 1.098 cumulative IPC: 0.5353 (Simulation time: 00 hr 39 min 52 sec)
Heartbeat CPU 0 instructions: 193500887 cycles: 281508576 heartbeat IPC: 1.135 cumulative IPC: 0.5362 (Simulation time: 00 hr 39 min 56 sec)
Heartbeat CPU 0 instructions: 194000887 cycles: 281950873 heartbeat IPC: 1.13 cumulative IPC: 0.5372 (Simulation time: 00 hr 40 min 00 sec)
Heartbeat CPU 0 instructions: 194500887 cycles: 282392092 heartbeat IPC: 1.133 cumulative IPC: 0.5382 (Simulation time: 00 hr 40 min 05 sec)
Heartbeat CPU 0 instructions: 195000891 cycles: 282862609 heartbeat IPC: 1.063 cumulative IPC: 0.5391 (Simulation time: 00 hr 40 min 09 sec)
Heartbeat CPU 0 instructions: 195500893 cycles: 283312143 heartbeat IPC: 1.112 cumulative IPC: 0.5401 (Simulation time: 00 hr 40 min 13 sec)
Heartbeat CPU 0 instructions: 196000893 cycles: 283770999 heartbeat IPC: 1.09 cumulative IPC: 0.541 (Simulation time: 00 hr 40 min 18 sec)
Heartbeat CPU 0 instructions: 196500896 cycles: 284226561 heartbeat IPC: 1.098 cumulative IPC: 0.542 (Simulation time: 00 hr 40 min 22 sec)
Heartbeat CPU 0 instructions: 197000896 cycles: 284742362 heartbeat IPC: 0.9694 cumulative IPC: 0.5428 (Simulation time: 00 hr 40 min 27 sec)
Heartbeat CPU 0 instructions: 197500900 cycles: 285187617 heartbeat IPC: 1.123 cumulative IPC: 0.5437 (Simulation time: 00 hr 40 min 31 sec)
Heartbeat CPU 0 instructions: 198000900 cycles: 285607949 heartbeat IPC: 1.19 cumulative IPC: 0.5447 (Simulation time: 00 hr 40 min 35 sec)
Heartbeat CPU 0 instructions: 198500903 cycles: 286038186 heartbeat IPC: 1.162 cumulative IPC: 0.5457 (Simulation time: 00 hr 40 min 40 sec)
Heartbeat CPU 0 instructions: 199000903 cycles: 286489145 heartbeat IPC: 1.109 cumulative IPC: 0.5466 (Simulation time: 00 hr 40 min 44 sec)
Heartbeat CPU 0 instructions: 199500904 cycles: 286913728 heartbeat IPC: 1.178 cumulative IPC: 0.5476 (Simulation time: 00 hr 40 min 48 sec)
Heartbeat CPU 0 instructions: 200000904 cycles: 287322479 heartbeat IPC: 1.223 cumulative IPC: 0.5486 (Simulation time: 00 hr 40 min 52 sec)
Heartbeat CPU 0 instructions: 200500908 cycles: 287727816 heartbeat IPC: 1.234 cumulative IPC: 0.5496 (Simulation time: 00 hr 40 min 56 sec)
Heartbeat CPU 0 instructions: 201000908 cycles: 288167120 heartbeat IPC: 1.138 cumulative IPC: 0.5506 (Simulation time: 00 hr 41 min 01 sec)
Heartbeat CPU 0 instructions: 201500914 cycles: 288582171 heartbeat IPC: 1.205 cumulative IPC: 0.5516 (Simulation time: 00 hr 41 min 05 sec)
Heartbeat CPU 0 instructions: 202000916 cycles: 289014139 heartbeat IPC: 1.157 cumulative IPC: 0.5525 (Simulation time: 00 hr 41 min 09 sec)
Heartbeat CPU 0 instructions: 202500916 cycles: 289440208 heartbeat IPC: 1.174 cumulative IPC: 0.5535 (Simulation time: 00 hr 41 min 13 sec)
Heartbeat CPU 0 instructions: 203000923 cycles: 289863680 heartbeat IPC: 1.181 cumulative IPC: 0.5544 (Simulation time: 00 hr 41 min 18 sec)
Heartbeat CPU 0 instructions: 203500925 cycles: 290276144 heartbeat IPC: 1.212 cumulative IPC: 0.5554 (Simulation time: 00 hr 41 min 22 sec)
Heartbeat CPU 0 instructions: 204000929 cycles: 290699768 heartbeat IPC: 1.18 cumulative IPC: 0.5564 (Simulation time: 00 hr 41 min 26 sec)
Heartbeat CPU 0 instructions: 204500935 cycles: 291124046 heartbeat IPC: 1.178 cumulative IPC: 0.5573 (Simulation time: 00 hr 41 min 30 sec)
Heartbeat CPU 0 instructions: 205000939 cycles: 291753811 heartbeat IPC: 0.794 cumulative IPC: 0.5579 (Simulation time: 00 hr 41 min 36 sec)
Heartbeat CPU 0 instructions: 205500939 cycles: 292103109 heartbeat IPC: 1.431 cumulative IPC: 0.559 (Simulation time: 00 hr 41 min 39 sec)
Heartbeat CPU 0 instructions: 206000939 cycles: 292845582 heartbeat IPC: 0.6734 cumulative IPC: 0.5593 (Simulation time: 00 hr 41 min 46 sec)
Heartbeat CPU 0 instructions: 206500946 cycles: 293378099 heartbeat IPC: 0.939 cumulative IPC: 0.56 (Simulation time: 00 hr 41 min 51 sec)
Heartbeat CPU 0 instructions: 207000948 cycles: 294412022 heartbeat IPC: 0.4836 cumulative IPC: 0.5597 (Simulation time: 00 hr 41 min 59 sec)
Heartbeat CPU 0 instructions: 207500948 cycles: 295913844 heartbeat IPC: 0.3329 cumulative IPC: 0.5585 (Simulation time: 00 hr 42 min 10 sec)
Heartbeat CPU 0 instructions: 208000951 cycles: 296527164 heartbeat IPC: 0.8152 cumulative IPC: 0.5591 (Simulation time: 00 hr 42 min 15 sec)
Heartbeat CPU 0 instructions: 208500951 cycles: 297332752 heartbeat IPC: 0.6207 cumulative IPC: 0.5592 (Simulation time: 00 hr 42 min 21 sec)
Heartbeat CPU 0 instructions: 209000951 cycles: 298997218 heartbeat IPC: 0.3004 cumulative IPC: 0.5577 (Simulation time: 00 hr 42 min 33 sec)
Heartbeat CPU 0 instructions: 209500951 cycles: 300044850 heartbeat IPC: 0.4773 cumulative IPC: 0.5574 (Simulation time: 00 hr 42 min 41 sec)
Heartbeat CPU 0 instructions: 210000954 cycles: 300567675 heartbeat IPC: 0.9563 cumulative IPC: 0.5582 (Simulation time: 00 hr 42 min 46 sec)
Heartbeat CPU 0 instructions: 210500959 cycles: 301062180 heartbeat IPC: 1.011 cumulative IPC: 0.5589 (Simulation time: 00 hr 42 min 51 sec)
Heartbeat CPU 0 instructions: 211000963 cycles: 301533850 heartbeat IPC: 1.06 cumulative IPC: 0.5598 (Simulation time: 00 hr 42 min 55 sec)
Heartbeat CPU 0 instructions: 211500963 cycles: 302014804 heartbeat IPC: 1.04 cumulative IPC: 0.5606 (Simulation time: 00 hr 43 min 00 sec)
Heartbeat CPU 0 instructions: 212000966 cycles: 302501305 heartbeat IPC: 1.028 cumulative IPC: 0.5613 (Simulation time: 00 hr 43 min 04 sec)
Heartbeat CPU 0 instructions: 212500966 cycles: 302954878 heartbeat IPC: 1.102 cumulative IPC: 0.5622 (Simulation time: 00 hr 43 min 09 sec)
Heartbeat CPU 0 instructions: 213000971 cycles: 303483227 heartbeat IPC: 0.9464 cumulative IPC: 0.5629 (Simulation time: 00 hr 43 min 14 sec)
Heartbeat CPU 0 instructions: 213500974 cycles: 304205110 heartbeat IPC: 0.6926 cumulative IPC: 0.5632 (Simulation time: 00 hr 43 min 19 sec)
Heartbeat CPU 0 instructions: 214000978 cycles: 305300854 heartbeat IPC: 0.4563 cumulative IPC: 0.5628 (Simulation time: 00 hr 43 min 28 sec)
Heartbeat CPU 0 instructions: 214500979 cycles: 306111181 heartbeat IPC: 0.617 cumulative IPC: 0.563 (Simulation time: 00 hr 43 min 34 sec)
Heartbeat CPU 0 instructions: 215000980 cycles: 306643954 heartbeat IPC: 0.9385 cumulative IPC: 0.5636 (Simulation time: 00 hr 43 min 39 sec)
Heartbeat CPU 0 instructions: 215500981 cycles: 307154450 heartbeat IPC: 0.9794 cumulative IPC: 0.5644 (Simulation time: 00 hr 43 min 44 sec)
Heartbeat CPU 0 instructions: 216000983 cycles: 308421203 heartbeat IPC: 0.3947 cumulative IPC: 0.5636 (Simulation time: 00 hr 43 min 54 sec)
Heartbeat CPU 0 instructions: 216500983 cycles: 309752017 heartbeat IPC: 0.3757 cumulative IPC: 0.5628 (Simulation time: 00 hr 44 min 03 sec)
Heartbeat CPU 0 instructions: 217000983 cycles: 310875312 heartbeat IPC: 0.4451 cumulative IPC: 0.5624 (Simulation time: 00 hr 44 min 12 sec)
Heartbeat CPU 0 instructions: 217500984 cycles: 311652856 heartbeat IPC: 0.6431 cumulative IPC: 0.5626 (Simulation time: 00 hr 44 min 18 sec)
Heartbeat CPU 0 instructions: 218000984 cycles: 312524863 heartbeat IPC: 0.5734 cumulative IPC: 0.5626 (Simulation time: 00 hr 44 min 25 sec)
Heartbeat CPU 0 instructions: 218500984 cycles: 313698354 heartbeat IPC: 0.4261 cumulative IPC: 0.5621 (Simulation time: 00 hr 44 min 34 sec)
Heartbeat CPU 0 instructions: 219000990 cycles: 315049530 heartbeat IPC: 0.3701 cumulative IPC: 0.5612 (Simulation time: 00 hr 44 min 45 sec)
Heartbeat CPU 0 instructions: 219500992 cycles: 316310062 heartbeat IPC: 0.3967 cumulative IPC: 0.5605 (Simulation time: 00 hr 44 min 55 sec)
Heartbeat CPU 0 instructions: 220000998 cycles: 316968301 heartbeat IPC: 0.7596 cumulative IPC: 0.5609 (Simulation time: 00 hr 45 min 01 sec)
Heartbeat CPU 0 instructions: 220500998 cycles: 318110058 heartbeat IPC: 0.4379 cumulative IPC: 0.5605 (Simulation time: 00 hr 45 min 10 sec)
Heartbeat CPU 0 instructions: 221001001 cycles: 319485690 heartbeat IPC: 0.3635 cumulative IPC: 0.5596 (Simulation time: 00 hr 45 min 19 sec)
Heartbeat CPU 0 instructions: 221501001 cycles: 322182937 heartbeat IPC: 0.1854 cumulative IPC: 0.5563 (Simulation time: 00 hr 45 min 38 sec)
Heartbeat CPU 0 instructions: 222001001 cycles: 324303949 heartbeat IPC: 0.2357 cumulative IPC: 0.5541 (Simulation time: 00 hr 45 min 59 sec)
Heartbeat CPU 0 instructions: 222501001 cycles: 326509144 heartbeat IPC: 0.2267 cumulative IPC: 0.5518 (Simulation time: 00 hr 46 min 23 sec)
Heartbeat CPU 0 instructions: 223001005 cycles: 328642244 heartbeat IPC: 0.2344 cumulative IPC: 0.5497 (Simulation time: 00 hr 46 min 48 sec)
Heartbeat CPU 0 instructions: 223501012 cycles: 330858030 heartbeat IPC: 0.2257 cumulative IPC: 0.5474 (Simulation time: 00 hr 47 min 13 sec)
Heartbeat CPU 0 instructions: 224001012 cycles: 332884546 heartbeat IPC: 0.2467 cumulative IPC: 0.5455 (Simulation time: 00 hr 47 min 36 sec)
Heartbeat CPU 0 instructions: 224501013 cycles: 334921650 heartbeat IPC: 0.2454 cumulative IPC: 0.5436 (Simulation time: 00 hr 48 min 00 sec)
Heartbeat CPU 0 instructions: 225001016 cycles: 336835911 heartbeat IPC: 0.2612 cumulative IPC: 0.5419 (Simulation time: 00 hr 48 min 22 sec)
Heartbeat CPU 0 instructions: 225501016 cycles: 338561498 heartbeat IPC: 0.2898 cumulative IPC: 0.5406 (Simulation time: 00 hr 48 min 39 sec)
Heartbeat CPU 0 instructions: 226001019 cycles: 340739767 heartbeat IPC: 0.2295 cumulative IPC: 0.5385 (Simulation time: 00 hr 49 min 00 sec)
Heartbeat CPU 0 instructions: 226501026 cycles: 343017673 heartbeat IPC: 0.2195 cumulative IPC: 0.5363 (Simulation time: 00 hr 49 min 21 sec)
Heartbeat CPU 0 instructions: 227001026 cycles: 345060233 heartbeat IPC: 0.2448 cumulative IPC: 0.5345 (Simulation time: 00 hr 49 min 39 sec)
Heartbeat CPU 0 instructions: 227501030 cycles: 347106138 heartbeat IPC: 0.2444 cumulative IPC: 0.5327 (Simulation time: 00 hr 49 min 58 sec)
Heartbeat CPU 0 instructions: 228001035 cycles: 349410702 heartbeat IPC: 0.217 cumulative IPC: 0.5305 (Simulation time: 00 hr 50 min 19 sec)
Heartbeat CPU 0 instructions: 228501038 cycles: 351667036 heartbeat IPC: 0.2216 cumulative IPC: 0.5285 (Simulation time: 00 hr 50 min 39 sec)
Heartbeat CPU 0 instructions: 229001040 cycles: 354063714 heartbeat IPC: 0.2086 cumulative IPC: 0.5262 (Simulation time: 00 hr 51 min 00 sec)
Heartbeat CPU 0 instructions: 229501046 cycles: 356236914 heartbeat IPC: 0.2301 cumulative IPC: 0.5244 (Simulation time: 00 hr 51 min 19 sec)
Heartbeat CPU 0 instructions: 230001046 cycles: 358577721 heartbeat IPC: 0.2136 cumulative IPC: 0.5222 (Simulation time: 00 hr 51 min 40 sec)
Heartbeat CPU 0 instructions: 230501053 cycles: 360532419 heartbeat IPC: 0.2558 cumulative IPC: 0.5207 (Simulation time: 00 hr 51 min 58 sec)
Heartbeat CPU 0 instructions: 231001054 cycles: 362631242 heartbeat IPC: 0.2382 cumulative IPC: 0.519 (Simulation time: 00 hr 52 min 17 sec)
Heartbeat CPU 0 instructions: 231501058 cycles: 364912574 heartbeat IPC: 0.2192 cumulative IPC: 0.5171 (Simulation time: 00 hr 52 min 38 sec)
Heartbeat CPU 0 instructions: 232001065 cycles: 366375829 heartbeat IPC: 0.3417 cumulative IPC: 0.5164 (Simulation time: 00 hr 52 min 50 sec)
Heartbeat CPU 0 instructions: 232501065 cycles: 368412971 heartbeat IPC: 0.2454 cumulative IPC: 0.5148 (Simulation time: 00 hr 53 min 04 sec)
Heartbeat CPU 0 instructions: 233001065 cycles: 370382625 heartbeat IPC: 0.2539 cumulative IPC: 0.5134 (Simulation time: 00 hr 53 min 17 sec)
Heartbeat CPU 0 instructions: 233501069 cycles: 371503375 heartbeat IPC: 0.4461 cumulative IPC: 0.5132 (Simulation time: 00 hr 53 min 26 sec)
Heartbeat CPU 0 instructions: 234001070 cycles: 372816587 heartbeat IPC: 0.3807 cumulative IPC: 0.5127 (Simulation time: 00 hr 53 min 36 sec)
Heartbeat CPU 0 instructions: 234501071 cycles: 373286957 heartbeat IPC: 1.063 cumulative IPC: 0.5134 (Simulation time: 00 hr 53 min 40 sec)
Heartbeat CPU 0 instructions: 235001072 cycles: 374254372 heartbeat IPC: 0.5168 cumulative IPC: 0.5134 (Simulation time: 00 hr 53 min 48 sec)
Heartbeat CPU 0 instructions: 235501072 cycles: 375221362 heartbeat IPC: 0.5171 cumulative IPC: 0.5134 (Simulation time: 00 hr 53 min 56 sec)
Heartbeat CPU 0 instructions: 236001074 cycles: 376277322 heartbeat IPC: 0.4735 cumulative IPC: 0.5133 (Simulation time: 00 hr 54 min 04 sec)
Heartbeat CPU 0 instructions: 236501074 cycles: 376794204 heartbeat IPC: 0.9673 cumulative IPC: 0.5139 (Simulation time: 00 hr 54 min 09 sec)
Heartbeat CPU 0 instructions: 237001074 cycles: 377566957 heartbeat IPC: 0.647 cumulative IPC: 0.5142 (Simulation time: 00 hr 54 min 15 sec)
Heartbeat CPU 0 instructions: 237501074 cycles: 378536593 heartbeat IPC: 0.5157 cumulative IPC: 0.5142 (Simulation time: 00 hr 54 min 23 sec)
Heartbeat CPU 0 instructions: 238001077 cycles: 378794912 heartbeat IPC: 1.936 cumulative IPC: 0.5152 (Simulation time: 00 hr 54 min 25 sec)
Heartbeat CPU 0 instructions: 238501077 cycles: 379024204 heartbeat IPC: 2.181 cumulative IPC: 0.5163 (Simulation time: 00 hr 54 min 28 sec)
Heartbeat CPU 0 instructions: 239001077 cycles: 379238441 heartbeat IPC: 2.334 cumulative IPC: 0.5173 (Simulation time: 00 hr 54 min 30 sec)
Heartbeat CPU 0 instructions: 239501079 cycles: 379469484 heartbeat IPC: 2.164 cumulative IPC: 0.5184 (Simulation time: 00 hr 54 min 32 sec)
Heartbeat CPU 0 instructions: 240001079 cycles: 380169183 heartbeat IPC: 0.7146 cumulative IPC: 0.5188 (Simulation time: 00 hr 54 min 38 sec)
Heartbeat CPU 0 instructions: 240501086 cycles: 381495536 heartbeat IPC: 0.377 cumulative IPC: 0.5182 (Simulation time: 00 hr 54 min 48 sec)
Heartbeat CPU 0 instructions: 241001086 cycles: 381742320 heartbeat IPC: 2.026 cumulative IPC: 0.5193 (Simulation time: 00 hr 54 min 50 sec)
Heartbeat CPU 0 instructions: 241501088 cycles: 383341736 heartbeat IPC: 0.3126 cumulative IPC: 0.5184 (Simulation time: 00 hr 55 min 01 sec)
Heartbeat CPU 0 instructions: 242001088 cycles: 384339584 heartbeat IPC: 0.5011 cumulative IPC: 0.5183 (Simulation time: 00 hr 55 min 09 sec)
Heartbeat CPU 0 instructions: 242501089 cycles: 386733844 heartbeat IPC: 0.2088 cumulative IPC: 0.5163 (Simulation time: 00 hr 55 min 25 sec)
Heartbeat CPU 0 instructions: 243001091 cycles: 388824876 heartbeat IPC: 0.2391 cumulative IPC: 0.5148 (Simulation time: 00 hr 55 min 38 sec)
Heartbeat CPU 0 instructions: 243501091 cycles: 390804569 heartbeat IPC: 0.2526 cumulative IPC: 0.5134 (Simulation time: 00 hr 55 min 52 sec)
Heartbeat CPU 0 instructions: 244001091 cycles: 391878908 heartbeat IPC: 0.4654 cumulative IPC: 0.5133 (Simulation time: 00 hr 56 min 00 sec)
Heartbeat CPU 0 instructions: 244501091 cycles: 392670317 heartbeat IPC: 0.6318 cumulative IPC: 0.5135 (Simulation time: 00 hr 56 min 07 sec)
Heartbeat CPU 0 instructions: 245001091 cycles: 393828259 heartbeat IPC: 0.4318 cumulative IPC: 0.5133 (Simulation time: 00 hr 56 min 15 sec)
Heartbeat CPU 0 instructions: 245501093 cycles: 394883233 heartbeat IPC: 0.4739 cumulative IPC: 0.5132 (Simulation time: 00 hr 56 min 23 sec)
Heartbeat CPU 0 instructions: 246001094 cycles: 396191082 heartbeat IPC: 0.3823 cumulative IPC: 0.5127 (Simulation time: 00 hr 56 min 32 sec)
Heartbeat CPU 0 instructions: 246501095 cycles: 397585525 heartbeat IPC: 0.3586 cumulative IPC: 0.5121 (Simulation time: 00 hr 56 min 41 sec)
Heartbeat CPU 0 instructions: 247001098 cycles: 398222370 heartbeat IPC: 0.7851 cumulative IPC: 0.5126 (Simulation time: 00 hr 56 min 46 sec)
Heartbeat CPU 0 instructions: 247501099 cycles: 398599936 heartbeat IPC: 1.324 cumulative IPC: 0.5134 (Simulation time: 00 hr 56 min 50 sec)
Heartbeat CPU 0 instructions: 248001101 cycles: 398923639 heartbeat IPC: 1.545 cumulative IPC: 0.5143 (Simulation time: 00 hr 56 min 53 sec)
Heartbeat CPU 0 instructions: 248501102 cycles: 399431923 heartbeat IPC: 0.9837 cumulative IPC: 0.5149 (Simulation time: 00 hr 56 min 57 sec)
Heartbeat CPU 0 instructions: 249001105 cycles: 400173033 heartbeat IPC: 0.6747 cumulative IPC: 0.5152 (Simulation time: 00 hr 57 min 03 sec)
Heartbeat CPU 0 instructions: 249501106 cycles: 401517270 heartbeat IPC: 0.372 cumulative IPC: 0.5147 (Simulation time: 00 hr 57 min 12 sec)
Simulation finished CPU 0 instructions: 200000001 cycles: 389321280 cumulative IPC: 0.5137 (Simulation time: 00 hr 57 min 24 sec)
Simulation complete CPU 0 instructions: 200000001 cycles: 389321280 cumulative IPC: 0.5137 (Simulation time: 00 hr 57 min 24 sec)

ChampSim completed all CPUs

=== Simulation ===
CPU 0 runs /local-ssd/ben/dpc4-traces/gtraces_v2/merced_0001.champsim.gz

Region of Interest Statistics

CPU 0 cumulative IPC: 0.5137 instructions: 200000001 cycles: 389321280
CPU 0 Branch Prediction Accuracy: 90.55% MPKI: 17.05 Average ROB Occupancy at Mispredict: 24.77
Branch type MPKI
BRANCH_DIRECT_JUMP: 0.9392
BRANCH_INDIRECT: 0.3477
BRANCH_CONDITIONAL: 14.04
BRANCH_DIRECT_CALL: 0.8087
BRANCH_INDIRECT_CALL: 0.3144
BRANCH_RETURN: 0.6074

cpu0->cpu0_STLB TOTAL        ACCESS:    2259371 HIT:    1564042 MISS:     695329 MSHR_MERGE:          0
cpu0->cpu0_STLB LOAD         ACCESS:    2259371 HIT:    1564042 MISS:     695329 MSHR_MERGE:          0
cpu0->cpu0_STLB RFO          ACCESS:          0 HIT:          0 MISS:          0 MSHR_MERGE:          0
cpu0->cpu0_STLB PREFETCH     ACCESS:          0 HIT:          0 MISS:          0 MSHR_MERGE:          0
cpu0->cpu0_STLB WRITE        ACCESS:          0 HIT:          0 MISS:          0 MSHR_MERGE:          0
cpu0->cpu0_STLB TRANSLATION  ACCESS:          0 HIT:          0 MISS:          0 MSHR_MERGE:          0
cpu0->cpu0_STLB PREFETCH REQUESTED:          0 ISSUED:          0 USEFUL:          0 USELESS:          0
cpu0->cpu0_STLB AVERAGE MISS LATENCY: 191.3 cycles
cpu0->cpu0_L2C TOTAL        ACCESS:   17491673 HIT:   12064096 MISS:    5427577 MSHR_MERGE:     880687
cpu0->cpu0_L2C LOAD         ACCESS:    4019112 HIT:    2408774 MISS:    1610338 MSHR_MERGE:      26532
cpu0->cpu0_L2C RFO          ACCESS:     694017 HIT:     314486 MISS:     379531 MSHR_MERGE:       4287
cpu0->cpu0_L2C PREFETCH     ACCESS:   10755461 HIT:    7654930 MISS:    3100531 MSHR_MERGE:     849868
cpu0->cpu0_L2C WRITE        ACCESS:    1209163 HIT:    1209145 MISS:         18 MSHR_MERGE:          0
cpu0->cpu0_L2C TRANSLATION  ACCESS:     813920 HIT:     476761 MISS:     337159 MSHR_MERGE:          0
cpu0->cpu0_L2C PREFETCH REQUESTED:    9484595 ISSUED:    9020339 USEFUL:     574896 USELESS:    1200748
cpu0->cpu0_L2C AVERAGE MISS LATENCY: 214.3 cycles
cpu0->cpu0_L1I TOTAL        ACCESS:   15550629 HIT:   13229778 MISS:    2320851 MSHR_MERGE:     536248
cpu0->cpu0_L1I LOAD         ACCESS:   15550629 HIT:   13229778 MISS:    2320851 MSHR_MERGE:     536248
cpu0->cpu0_L1I RFO          ACCESS:          0 HIT:          0 MISS:          0 MSHR_MERGE:          0
cpu0->cpu0_L1I PREFETCH     ACCESS:          0 HIT:          0 MISS:          0 MSHR_MERGE:          0
cpu0->cpu0_L1I WRITE        ACCESS:          0 HIT:          0 MISS:          0 MSHR_MERGE:          0
cpu0->cpu0_L1I TRANSLATION  ACCESS:          0 HIT:          0 MISS:          0 MSHR_MERGE:          0
cpu0->cpu0_L1I PREFETCH REQUESTED:          0 ISSUED:          0 USEFUL:          0 USELESS:          0
cpu0->cpu0_L1I AVERAGE MISS LATENCY: 100.1 cycles
cpu0->cpu0_L1D TOTAL        ACCESS:   59001318 HIT:   50720133 MISS:    8281185 MSHR_MERGE:    2803562
cpu0->cpu0_L1D LOAD         ACCESS:   33690459 HIT:   30590813 MISS:    3099646 MSHR_MERGE:     865115
cpu0->cpu0_L1D RFO          ACCESS:          0 HIT:          0 MISS:          0 MSHR_MERGE:          0
cpu0->cpu0_L1D PREFETCH     ACCESS:    3595584 HIT:    1664205 MISS:    1931379 MSHR_MERGE:     196257
cpu0->cpu0_L1D WRITE        ACCESS:   19831848 HIT:   17402133 MISS:    2429715 MSHR_MERGE:    1735665
cpu0->cpu0_L1D TRANSLATION  ACCESS:    1883427 HIT:    1062982 MISS:     820445 MSHR_MERGE:       6525
cpu0->cpu0_L1D PREFETCH REQUESTED:    4543902 ISSUED:    3595580 USEFUL:     837049 USELESS:     898042
cpu0->cpu0_L1D AVERAGE MISS LATENCY: 97.4 cycles
cpu0->cpu0_ITLB TOTAL        ACCESS:   12563355 HIT:   12319886 MISS:     243469 MSHR_MERGE:     124691
cpu0->cpu0_ITLB LOAD         ACCESS:   12563355 HIT:   12319886 MISS:     243469 MSHR_MERGE:     124691
cpu0->cpu0_ITLB RFO          ACCESS:          0 HIT:          0 MISS:          0 MSHR_MERGE:          0
cpu0->cpu0_ITLB PREFETCH     ACCESS:          0 HIT:          0 MISS:          0 MSHR_MERGE:          0
cpu0->cpu0_ITLB WRITE        ACCESS:          0 HIT:          0 MISS:          0 MSHR_MERGE:          0
cpu0->cpu0_ITLB TRANSLATION  ACCESS:          0 HIT:          0 MISS:          0 MSHR_MERGE:          0
cpu0->cpu0_ITLB PREFETCH REQUESTED:          0 ISSUED:          0 USEFUL:          0 USELESS:          0
cpu0->cpu0_ITLB AVERAGE MISS LATENCY: 32.67 cycles
cpu0->cpu0_DTLB TOTAL        ACCESS:   54299345 HIT:   50956647 MISS:    3342698 MSHR_MERGE:    1202105
cpu0->cpu0_DTLB LOAD         ACCESS:   54299345 HIT:   50956647 MISS:    3342698 MSHR_MERGE:    1202105
cpu0->cpu0_DTLB RFO          ACCESS:          0 HIT:          0 MISS:          0 MSHR_MERGE:          0
cpu0->cpu0_DTLB PREFETCH     ACCESS:          0 HIT:          0 MISS:          0 MSHR_MERGE:          0
cpu0->cpu0_DTLB WRITE        ACCESS:          0 HIT:          0 MISS:          0 MSHR_MERGE:          0
cpu0->cpu0_DTLB TRANSLATION  ACCESS:          0 HIT:          0 MISS:          0 MSHR_MERGE:          0
cpu0->cpu0_DTLB PREFETCH REQUESTED:          0 ISSUED:          0 USEFUL:          0 USELESS:          0
cpu0->cpu0_DTLB AVERAGE MISS LATENCY: 65.94 cycles
cpu0->LLC TOTAL        ACCESS:    5252792 HIT:     674993 MISS:    4577799 MSHR_MERGE:          0
cpu0->LLC LOAD         ACCESS:    1583806 HIT:     274687 MISS:    1309119 MSHR_MERGE:          0
cpu0->LLC RFO          ACCESS:     375244 HIT:      17964 MISS:     357280 MSHR_MERGE:          0
cpu0->LLC PREFETCH     ACCESS:    2250663 HIT:     175217 MISS:    2075446 MSHR_MERGE:          0
cpu0->LLC WRITE        ACCESS:     705920 HIT:     161745 MISS:     544175 MSHR_MERGE:          0
cpu0->LLC TRANSLATION  ACCESS:     337159 HIT:      45380 MISS:     291779 MSHR_MERGE:          0
cpu0->LLC PREFETCH REQUESTED:          0 ISSUED:          0 USEFUL:          0 USELESS:          0
cpu0->LLC AVERAGE MISS LATENCY: 180.1 cycles

DRAM Statistics

Channel 0 RQ ROW_BUFFER_HIT:     130434
  ROW_BUFFER_MISS:    3903138
  AVG DBUS CONGESTED CYCLE: 22.75
Channel 0 WQ ROW_BUFFER_HIT:     171536
  ROW_BUFFER_MISS:     465707
  FULL:        356
Channel 0 REFRESHES ISSUED:      32442
