[VMEM] WARNING: physical memory size is smaller than virtual memory size.

*** ChampSim Multicore Out-of-Order Simulator ***
Warmup Instructions: 50000000
Simulation Instructions: 200000000
Number of CPUs: 1
Page size: 4096
Core 0: /local-ssd/ben/dpc4-traces/gtraces_v2/charlie_0002.champsim.gz
sBerti (Smart Stride + Berti) Prefetcher Initialized
Off-chip DRAM Size: 64 GiB Channels: 1 Width: 64-bit Data Rate: 4807 MT/s
[BTB] WARNING: target of return is a lower address than the corresponding call. This is usually a problem with your trace.
[BTB] WARNING: target of return is a lower address than the corresponding call. This is usually a problem with your trace.
[BTB] WARNING: target of return is a lower address than the corresponding call. This is usually a problem with your trace.
[BTB] WARNING: target of return is a lower address than the corresponding call. This is usually a problem with your trace.
[BTB] WARNING: target of return is a lower address than the corresponding call. This is usually a problem with your trace.
Heartbeat CPU 0 instructions: 500003 cycles: 264010 heartbeat IPC: 1.894 cumulative IPC: 1.894 (Simulation time: 00 hr 00 min 04 sec)
[BTB] WARNING: target of return is a lower address than the corresponding call. This is usually a problem with your trace.
Heartbeat CPU 0 instructions: 1000004 cycles: 472181 heartbeat IPC: 2.402 cumulative IPC: 2.118 (Simulation time: 00 hr 00 min 08 sec)
Heartbeat CPU 0 instructions: 1500004 cycles: 656872 heartbeat IPC: 2.707 cumulative IPC: 2.284 (Simulation time: 00 hr 00 min 11 sec)
[BTB] WARNING: target of return is a lower address than the corresponding call. This is usually a problem with your trace.
[BTB] WARNING: target of return is a lower address than the corresponding call. This is usually a problem with your trace.
Heartbeat CPU 0 instructions: 2000006 cycles: 835657 heartbeat IPC: 2.797 cumulative IPC: 2.393 (Simulation time: 00 hr 00 min 14 sec)
[BTB] WARNING: target of return is a lower address than the corresponding call. This is usually a problem with your trace.
[BTB] WARNING: target of return is a lower address than the corresponding call. This is usually a problem with your trace.
Heartbeat CPU 0 instructions: 2500010 cycles: 1022298 heartbeat IPC: 2.679 cumulative IPC: 2.445 (Simulation time: 00 hr 00 min 17 sec)
Heartbeat CPU 0 instructions: 3000017 cycles: 1175721 heartbeat IPC: 3.259 cumulative IPC: 2.552 (Simulation time: 00 hr 00 min 20 sec)
Heartbeat CPU 0 instructions: 3500023 cycles: 1323108 heartbeat IPC: 3.392 cumulative IPC: 2.645 (Simulation time: 00 hr 00 min 23 sec)
Heartbeat CPU 0 instructions: 4000029 cycles: 1459796 heartbeat IPC: 3.658 cumulative IPC: 2.74 (Simulation time: 00 hr 00 min 26 sec)
Heartbeat CPU 0 instructions: 4500034 cycles: 1611292 heartbeat IPC: 3.3 cumulative IPC: 2.793 (Simulation time: 00 hr 00 min 28 sec)
Heartbeat CPU 0 instructions: 5000039 cycles: 1757709 heartbeat IPC: 3.415 cumulative IPC: 2.845 (Simulation time: 00 hr 00 min 31 sec)
Heartbeat CPU 0 instructions: 5500042 cycles: 1927230 heartbeat IPC: 2.95 cumulative IPC: 2.854 (Simulation time: 00 hr 00 min 34 sec)
Heartbeat CPU 0 instructions: 6000049 cycles: 2091608 heartbeat IPC: 3.042 cumulative IPC: 2.869 (Simulation time: 00 hr 00 min 37 sec)
Heartbeat CPU 0 instructions: 6500055 cycles: 2266049 heartbeat IPC: 2.866 cumulative IPC: 2.868 (Simulation time: 00 hr 00 min 41 sec)
Heartbeat CPU 0 instructions: 7000058 cycles: 2415125 heartbeat IPC: 3.354 cumulative IPC: 2.898 (Simulation time: 00 hr 00 min 44 sec)
Heartbeat CPU 0 instructions: 7500062 cycles: 2573353 heartbeat IPC: 3.16 cumulative IPC: 2.915 (Simulation time: 00 hr 00 min 46 sec)
Heartbeat CPU 0 instructions: 8000062 cycles: 2743792 heartbeat IPC: 2.934 cumulative IPC: 2.916 (Simulation time: 00 hr 00 min 50 sec)
Heartbeat CPU 0 instructions: 8500068 cycles: 2880691 heartbeat IPC: 3.652 cumulative IPC: 2.951 (Simulation time: 00 hr 00 min 52 sec)
Heartbeat CPU 0 instructions: 9000069 cycles: 3013016 heartbeat IPC: 3.779 cumulative IPC: 2.987 (Simulation time: 00 hr 00 min 55 sec)
Heartbeat CPU 0 instructions: 9500072 cycles: 3158986 heartbeat IPC: 3.425 cumulative IPC: 3.007 (Simulation time: 00 hr 00 min 57 sec)
Heartbeat CPU 0 instructions: 10000077 cycles: 3302039 heartbeat IPC: 3.495 cumulative IPC: 3.028 (Simulation time: 00 hr 01 min 00 sec)
Heartbeat CPU 0 instructions: 10500079 cycles: 3510168 heartbeat IPC: 2.402 cumulative IPC: 2.991 (Simulation time: 00 hr 01 min 03 sec)
Heartbeat CPU 0 instructions: 11000082 cycles: 3643442 heartbeat IPC: 3.752 cumulative IPC: 3.019 (Simulation time: 00 hr 01 min 06 sec)
Heartbeat CPU 0 instructions: 11500085 cycles: 3842710 heartbeat IPC: 2.509 cumulative IPC: 2.993 (Simulation time: 00 hr 01 min 09 sec)
Heartbeat CPU 0 instructions: 12000089 cycles: 4021500 heartbeat IPC: 2.797 cumulative IPC: 2.984 (Simulation time: 00 hr 01 min 12 sec)
Heartbeat CPU 0 instructions: 12500091 cycles: 4141066 heartbeat IPC: 4.182 cumulative IPC: 3.019 (Simulation time: 00 hr 01 min 14 sec)
Heartbeat CPU 0 instructions: 13000093 cycles: 4248048 heartbeat IPC: 4.674 cumulative IPC: 3.06 (Simulation time: 00 hr 01 min 16 sec)
Heartbeat CPU 0 instructions: 13500095 cycles: 4429088 heartbeat IPC: 2.762 cumulative IPC: 3.048 (Simulation time: 00 hr 01 min 19 sec)
Heartbeat CPU 0 instructions: 14000097 cycles: 4645066 heartbeat IPC: 2.315 cumulative IPC: 3.014 (Simulation time: 00 hr 01 min 23 sec)
Heartbeat CPU 0 instructions: 14500103 cycles: 4784735 heartbeat IPC: 3.58 cumulative IPC: 3.03 (Simulation time: 00 hr 01 min 25 sec)
Heartbeat CPU 0 instructions: 15000104 cycles: 4892173 heartbeat IPC: 4.654 cumulative IPC: 3.066 (Simulation time: 00 hr 01 min 27 sec)
Heartbeat CPU 0 instructions: 15500111 cycles: 4997611 heartbeat IPC: 4.742 cumulative IPC: 3.102 (Simulation time: 00 hr 01 min 29 sec)
Heartbeat CPU 0 instructions: 16000115 cycles: 5101211 heartbeat IPC: 4.826 cumulative IPC: 3.137 (Simulation time: 00 hr 01 min 31 sec)
Heartbeat CPU 0 instructions: 16500122 cycles: 5205458 heartbeat IPC: 4.796 cumulative IPC: 3.17 (Simulation time: 00 hr 01 min 33 sec)
Heartbeat CPU 0 instructions: 17000122 cycles: 5310434 heartbeat IPC: 4.763 cumulative IPC: 3.201 (Simulation time: 00 hr 01 min 35 sec)
Heartbeat CPU 0 instructions: 17500125 cycles: 5418956 heartbeat IPC: 4.607 cumulative IPC: 3.229 (Simulation time: 00 hr 01 min 37 sec)
Heartbeat CPU 0 instructions: 18000130 cycles: 5521701 heartbeat IPC: 4.866 cumulative IPC: 3.26 (Simulation time: 00 hr 01 min 38 sec)
Heartbeat CPU 0 instructions: 18500137 cycles: 5624683 heartbeat IPC: 4.855 cumulative IPC: 3.289 (Simulation time: 00 hr 01 min 40 sec)
Heartbeat CPU 0 instructions: 19000138 cycles: 5727892 heartbeat IPC: 4.845 cumulative IPC: 3.317 (Simulation time: 00 hr 01 min 42 sec)
Heartbeat CPU 0 instructions: 19500138 cycles: 5832866 heartbeat IPC: 4.763 cumulative IPC: 3.343 (Simulation time: 00 hr 01 min 44 sec)
Heartbeat CPU 0 instructions: 20000139 cycles: 5936594 heartbeat IPC: 4.82 cumulative IPC: 3.369 (Simulation time: 00 hr 01 min 46 sec)
Heartbeat CPU 0 instructions: 20500142 cycles: 6042956 heartbeat IPC: 4.701 cumulative IPC: 3.392 (Simulation time: 00 hr 01 min 48 sec)
Heartbeat CPU 0 instructions: 21000144 cycles: 6147137 heartbeat IPC: 4.799 cumulative IPC: 3.416 (Simulation time: 00 hr 01 min 50 sec)
Heartbeat CPU 0 instructions: 21500149 cycles: 6251097 heartbeat IPC: 4.81 cumulative IPC: 3.439 (Simulation time: 00 hr 01 min 51 sec)
Heartbeat CPU 0 instructions: 22000150 cycles: 6355880 heartbeat IPC: 4.772 cumulative IPC: 3.461 (Simulation time: 00 hr 01 min 53 sec)
Heartbeat CPU 0 instructions: 22500152 cycles: 6460257 heartbeat IPC: 4.79 cumulative IPC: 3.483 (Simulation time: 00 hr 01 min 55 sec)
Heartbeat CPU 0 instructions: 23000154 cycles: 6564202 heartbeat IPC: 4.81 cumulative IPC: 3.504 (Simulation time: 00 hr 01 min 57 sec)
Heartbeat CPU 0 instructions: 23500155 cycles: 6669654 heartbeat IPC: 4.742 cumulative IPC: 3.523 (Simulation time: 00 hr 01 min 59 sec)
Heartbeat CPU 0 instructions: 24000157 cycles: 6776910 heartbeat IPC: 4.662 cumulative IPC: 3.541 (Simulation time: 00 hr 02 min 01 sec)
Heartbeat CPU 0 instructions: 24500157 cycles: 6915647 heartbeat IPC: 3.604 cumulative IPC: 3.543 (Simulation time: 00 hr 02 min 03 sec)
Heartbeat CPU 0 instructions: 25000159 cycles: 7026266 heartbeat IPC: 4.52 cumulative IPC: 3.558 (Simulation time: 00 hr 02 min 05 sec)
Heartbeat CPU 0 instructions: 25500163 cycles: 7138527 heartbeat IPC: 4.454 cumulative IPC: 3.572 (Simulation time: 00 hr 02 min 07 sec)
Heartbeat CPU 0 instructions: 26000166 cycles: 7252838 heartbeat IPC: 4.374 cumulative IPC: 3.585 (Simulation time: 00 hr 02 min 09 sec)
Heartbeat CPU 0 instructions: 26500173 cycles: 7402775 heartbeat IPC: 3.335 cumulative IPC: 3.58 (Simulation time: 00 hr 02 min 12 sec)
Heartbeat CPU 0 instructions: 27000173 cycles: 7527918 heartbeat IPC: 3.995 cumulative IPC: 3.587 (Simulation time: 00 hr 02 min 14 sec)
Heartbeat CPU 0 instructions: 27500173 cycles: 7651605 heartbeat IPC: 4.042 cumulative IPC: 3.594 (Simulation time: 00 hr 02 min 16 sec)
Heartbeat CPU 0 instructions: 28000178 cycles: 7792585 heartbeat IPC: 3.547 cumulative IPC: 3.593 (Simulation time: 00 hr 02 min 19 sec)
Heartbeat CPU 0 instructions: 28500181 cycles: 7925786 heartbeat IPC: 3.754 cumulative IPC: 3.596 (Simulation time: 00 hr 02 min 21 sec)
Heartbeat CPU 0 instructions: 29000184 cycles: 8032338 heartbeat IPC: 4.693 cumulative IPC: 3.61 (Simulation time: 00 hr 02 min 23 sec)
Heartbeat CPU 0 instructions: 29500189 cycles: 8137890 heartbeat IPC: 4.737 cumulative IPC: 3.625 (Simulation time: 00 hr 02 min 25 sec)
Heartbeat CPU 0 instructions: 30000194 cycles: 8249741 heartbeat IPC: 4.47 cumulative IPC: 3.637 (Simulation time: 00 hr 02 min 27 sec)
Heartbeat CPU 0 instructions: 30500199 cycles: 8408520 heartbeat IPC: 3.149 cumulative IPC: 3.627 (Simulation time: 00 hr 02 min 30 sec)
Heartbeat CPU 0 instructions: 31000201 cycles: 8544658 heartbeat IPC: 3.673 cumulative IPC: 3.628 (Simulation time: 00 hr 02 min 32 sec)
Heartbeat CPU 0 instructions: 31500208 cycles: 8691516 heartbeat IPC: 3.405 cumulative IPC: 3.624 (Simulation time: 00 hr 02 min 35 sec)
Heartbeat CPU 0 instructions: 32000215 cycles: 8835665 heartbeat IPC: 3.469 cumulative IPC: 3.622 (Simulation time: 00 hr 02 min 37 sec)
Heartbeat CPU 0 instructions: 32500216 cycles: 8939987 heartbeat IPC: 4.793 cumulative IPC: 3.635 (Simulation time: 00 hr 02 min 39 sec)
Heartbeat CPU 0 instructions: 33000218 cycles: 9046064 heartbeat IPC: 4.714 cumulative IPC: 3.648 (Simulation time: 00 hr 02 min 41 sec)
Heartbeat CPU 0 instructions: 33500224 cycles: 9159386 heartbeat IPC: 4.412 cumulative IPC: 3.657 (Simulation time: 00 hr 02 min 43 sec)
Heartbeat CPU 0 instructions: 34000226 cycles: 9315053 heartbeat IPC: 3.212 cumulative IPC: 3.65 (Simulation time: 00 hr 02 min 46 sec)
Heartbeat CPU 0 instructions: 34500233 cycles: 9485865 heartbeat IPC: 2.927 cumulative IPC: 3.637 (Simulation time: 00 hr 02 min 49 sec)
Heartbeat CPU 0 instructions: 35000235 cycles: 9685979 heartbeat IPC: 2.499 cumulative IPC: 3.613 (Simulation time: 00 hr 02 min 52 sec)
Heartbeat CPU 0 instructions: 35500239 cycles: 9884094 heartbeat IPC: 2.524 cumulative IPC: 3.592 (Simulation time: 00 hr 02 min 56 sec)
Heartbeat CPU 0 instructions: 36000245 cycles: 10041013 heartbeat IPC: 3.186 cumulative IPC: 3.585 (Simulation time: 00 hr 02 min 59 sec)
Heartbeat CPU 0 instructions: 36500246 cycles: 10168067 heartbeat IPC: 3.935 cumulative IPC: 3.59 (Simulation time: 00 hr 03 min 01 sec)
Heartbeat CPU 0 instructions: 37000249 cycles: 10272436 heartbeat IPC: 4.791 cumulative IPC: 3.602 (Simulation time: 00 hr 03 min 03 sec)
Heartbeat CPU 0 instructions: 37500251 cycles: 10376514 heartbeat IPC: 4.804 cumulative IPC: 3.614 (Simulation time: 00 hr 03 min 05 sec)
Heartbeat CPU 0 instructions: 38000256 cycles: 10480903 heartbeat IPC: 4.79 cumulative IPC: 3.626 (Simulation time: 00 hr 03 min 07 sec)
Heartbeat CPU 0 instructions: 38500259 cycles: 10584515 heartbeat IPC: 4.826 cumulative IPC: 3.637 (Simulation time: 00 hr 03 min 09 sec)
Heartbeat CPU 0 instructions: 39000262 cycles: 10688397 heartbeat IPC: 4.813 cumulative IPC: 3.649 (Simulation time: 00 hr 03 min 10 sec)
Heartbeat CPU 0 instructions: 39500268 cycles: 10793108 heartbeat IPC: 4.775 cumulative IPC: 3.66 (Simulation time: 00 hr 03 min 12 sec)
Heartbeat CPU 0 instructions: 40000271 cycles: 10897951 heartbeat IPC: 4.769 cumulative IPC: 3.67 (Simulation time: 00 hr 03 min 14 sec)
Heartbeat CPU 0 instructions: 40500276 cycles: 11002824 heartbeat IPC: 4.768 cumulative IPC: 3.681 (Simulation time: 00 hr 03 min 16 sec)
Heartbeat CPU 0 instructions: 41000278 cycles: 11105253 heartbeat IPC: 4.881 cumulative IPC: 3.692 (Simulation time: 00 hr 03 min 18 sec)
Heartbeat CPU 0 instructions: 41500284 cycles: 11219773 heartbeat IPC: 4.366 cumulative IPC: 3.699 (Simulation time: 00 hr 03 min 20 sec)
Heartbeat CPU 0 instructions: 42000286 cycles: 11333533 heartbeat IPC: 4.395 cumulative IPC: 3.706 (Simulation time: 00 hr 03 min 22 sec)
Heartbeat CPU 0 instructions: 42500293 cycles: 11441492 heartbeat IPC: 4.631 cumulative IPC: 3.715 (Simulation time: 00 hr 03 min 24 sec)
Heartbeat CPU 0 instructions: 43000299 cycles: 11554202 heartbeat IPC: 4.436 cumulative IPC: 3.722 (Simulation time: 00 hr 03 min 26 sec)
Heartbeat CPU 0 instructions: 43500306 cycles: 11663467 heartbeat IPC: 4.576 cumulative IPC: 3.73 (Simulation time: 00 hr 03 min 28 sec)
Heartbeat CPU 0 instructions: 44000309 cycles: 11779447 heartbeat IPC: 4.311 cumulative IPC: 3.735 (Simulation time: 00 hr 03 min 30 sec)
Heartbeat CPU 0 instructions: 44500315 cycles: 11890281 heartbeat IPC: 4.511 cumulative IPC: 3.743 (Simulation time: 00 hr 03 min 32 sec)
Heartbeat CPU 0 instructions: 45000317 cycles: 12003391 heartbeat IPC: 4.42 cumulative IPC: 3.749 (Simulation time: 00 hr 03 min 34 sec)
Heartbeat CPU 0 instructions: 45500319 cycles: 12115884 heartbeat IPC: 4.445 cumulative IPC: 3.755 (Simulation time: 00 hr 03 min 36 sec)
Heartbeat CPU 0 instructions: 46000320 cycles: 12225065 heartbeat IPC: 4.58 cumulative IPC: 3.763 (Simulation time: 00 hr 03 min 38 sec)
Heartbeat CPU 0 instructions: 46500324 cycles: 12336219 heartbeat IPC: 4.498 cumulative IPC: 3.769 (Simulation time: 00 hr 03 min 40 sec)
Heartbeat CPU 0 instructions: 47000327 cycles: 12450389 heartbeat IPC: 4.379 cumulative IPC: 3.775 (Simulation time: 00 hr 03 min 42 sec)
Heartbeat CPU 0 instructions: 47500332 cycles: 12560433 heartbeat IPC: 4.544 cumulative IPC: 3.782 (Simulation time: 00 hr 03 min 44 sec)
Heartbeat CPU 0 instructions: 48000338 cycles: 12704684 heartbeat IPC: 3.466 cumulative IPC: 3.778 (Simulation time: 00 hr 03 min 47 sec)
Heartbeat CPU 0 instructions: 48500341 cycles: 12846676 heartbeat IPC: 3.521 cumulative IPC: 3.775 (Simulation time: 00 hr 03 min 49 sec)
Heartbeat CPU 0 instructions: 49000343 cycles: 13022767 heartbeat IPC: 2.839 cumulative IPC: 3.763 (Simulation time: 00 hr 03 min 52 sec)
Heartbeat CPU 0 instructions: 49500349 cycles: 13127704 heartbeat IPC: 4.765 cumulative IPC: 3.771 (Simulation time: 00 hr 03 min 54 sec)
Warmup halting CPU 0 at instruction 50000001 cycle 13231656 for remainder of phase
Warmup finished CPU 0 instructions: 50000001 cycles: 13231656 cumulative IPC: 3.779 (Simulation time: 00 hr 03 min 56 sec)
Warmup complete CPU 0 instructions: 50000001 cycles: 13231656 cumulative IPC: 3.779 (Simulation time: 00 hr 03 min 56 sec)
Heartbeat CPU 0 instructions: 50000353 cycles: 13231700 heartbeat IPC: 4.808 cumulative IPC: 8 (Simulation time: 00 hr 03 min 56 sec)
Heartbeat CPU 0 instructions: 50500358 cycles: 13423261 heartbeat IPC: 2.61 cumulative IPC: 2.611 (Simulation time: 00 hr 03 min 59 sec)
Heartbeat CPU 0 instructions: 51000365 cycles: 13875128 heartbeat IPC: 1.107 cumulative IPC: 1.555 (Simulation time: 00 hr 04 min 04 sec)
Heartbeat CPU 0 instructions: 51500369 cycles: 14138644 heartbeat IPC: 1.897 cumulative IPC: 1.654 (Simulation time: 00 hr 04 min 07 sec)
Heartbeat CPU 0 instructions: 52000370 cycles: 14380783 heartbeat IPC: 2.065 cumulative IPC: 1.741 (Simulation time: 00 hr 04 min 09 sec)
Heartbeat CPU 0 instructions: 52500373 cycles: 14617645 heartbeat IPC: 2.111 cumulative IPC: 1.804 (Simulation time: 00 hr 04 min 12 sec)
Heartbeat CPU 0 instructions: 53000380 cycles: 14921264 heartbeat IPC: 1.647 cumulative IPC: 1.776 (Simulation time: 00 hr 04 min 16 sec)
Heartbeat CPU 0 instructions: 53500382 cycles: 15174282 heartbeat IPC: 1.976 cumulative IPC: 1.802 (Simulation time: 00 hr 04 min 19 sec)
Heartbeat CPU 0 instructions: 54000389 cycles: 16702595 heartbeat IPC: 0.3272 cumulative IPC: 1.153 (Simulation time: 00 hr 04 min 31 sec)
Heartbeat CPU 0 instructions: 54500390 cycles: 18394390 heartbeat IPC: 0.2955 cumulative IPC: 0.8717 (Simulation time: 00 hr 04 min 45 sec)
Heartbeat CPU 0 instructions: 55000392 cycles: 19298835 heartbeat IPC: 0.5528 cumulative IPC: 0.8242 (Simulation time: 00 hr 04 min 52 sec)
Heartbeat CPU 0 instructions: 55500394 cycles: 20947666 heartbeat IPC: 0.3032 cumulative IPC: 0.7129 (Simulation time: 00 hr 05 min 05 sec)
Heartbeat CPU 0 instructions: 56000394 cycles: 21698973 heartbeat IPC: 0.6655 cumulative IPC: 0.7087 (Simulation time: 00 hr 05 min 11 sec)
Heartbeat CPU 0 instructions: 56500401 cycles: 23413219 heartbeat IPC: 0.2917 cumulative IPC: 0.6384 (Simulation time: 00 hr 05 min 24 sec)
Heartbeat CPU 0 instructions: 57000402 cycles: 25086043 heartbeat IPC: 0.2989 cumulative IPC: 0.5905 (Simulation time: 00 hr 05 min 36 sec)
Heartbeat CPU 0 instructions: 57500409 cycles: 26017299 heartbeat IPC: 0.5369 cumulative IPC: 0.5866 (Simulation time: 00 hr 05 min 44 sec)
Heartbeat CPU 0 instructions: 58000410 cycles: 27203640 heartbeat IPC: 0.4215 cumulative IPC: 0.5726 (Simulation time: 00 hr 05 min 53 sec)
Heartbeat CPU 0 instructions: 58500410 cycles: 27875023 heartbeat IPC: 0.7447 cumulative IPC: 0.5805 (Simulation time: 00 hr 05 min 58 sec)
Heartbeat CPU 0 instructions: 59000413 cycles: 28236834 heartbeat IPC: 1.382 cumulative IPC: 0.5998 (Simulation time: 00 hr 06 min 02 sec)
Heartbeat CPU 0 instructions: 59500420 cycles: 28572117 heartbeat IPC: 1.491 cumulative IPC: 0.6193 (Simulation time: 00 hr 06 min 05 sec)
Heartbeat CPU 0 instructions: 60000425 cycles: 29920215 heartbeat IPC: 0.3709 cumulative IPC: 0.5992 (Simulation time: 00 hr 06 min 15 sec)
Heartbeat CPU 0 instructions: 60500429 cycles: 31145335 heartbeat IPC: 0.4081 cumulative IPC: 0.5862 (Simulation time: 00 hr 06 min 25 sec)
Heartbeat CPU 0 instructions: 61000429 cycles: 31489373 heartbeat IPC: 1.453 cumulative IPC: 0.6025 (Simulation time: 00 hr 06 min 29 sec)
Heartbeat CPU 0 instructions: 61500429 cycles: 31785408 heartbeat IPC: 1.689 cumulative IPC: 0.6198 (Simulation time: 00 hr 06 min 32 sec)
Heartbeat CPU 0 instructions: 62000433 cycles: 32074059 heartbeat IPC: 1.732 cumulative IPC: 0.6369 (Simulation time: 00 hr 06 min 35 sec)
Heartbeat CPU 0 instructions: 62500438 cycles: 32338747 heartbeat IPC: 1.889 cumulative IPC: 0.6542 (Simulation time: 00 hr 06 min 38 sec)
Heartbeat CPU 0 instructions: 63000439 cycles: 32697207 heartbeat IPC: 1.395 cumulative IPC: 0.6679 (Simulation time: 00 hr 06 min 42 sec)
Heartbeat CPU 0 instructions: 63500440 cycles: 32990738 heartbeat IPC: 1.703 cumulative IPC: 0.6833 (Simulation time: 00 hr 06 min 45 sec)
Heartbeat CPU 0 instructions: 64000442 cycles: 33292811 heartbeat IPC: 1.655 cumulative IPC: 0.6979 (Simulation time: 00 hr 06 min 48 sec)
Heartbeat CPU 0 instructions: 64500442 cycles: 33581136 heartbeat IPC: 1.734 cumulative IPC: 0.7126 (Simulation time: 00 hr 06 min 52 sec)
Heartbeat CPU 0 instructions: 65000445 cycles: 33896372 heartbeat IPC: 1.586 cumulative IPC: 0.7259 (Simulation time: 00 hr 06 min 55 sec)
Heartbeat CPU 0 instructions: 65500448 cycles: 34189021 heartbeat IPC: 1.709 cumulative IPC: 0.7396 (Simulation time: 00 hr 06 min 59 sec)
Heartbeat CPU 0 instructions: 66000454 cycles: 34463947 heartbeat IPC: 1.819 cumulative IPC: 0.7536 (Simulation time: 00 hr 07 min 02 sec)
Heartbeat CPU 0 instructions: 66500454 cycles: 34699832 heartbeat IPC: 2.12 cumulative IPC: 0.7686 (Simulation time: 00 hr 07 min 05 sec)
Heartbeat CPU 0 instructions: 67000455 cycles: 35060151 heartbeat IPC: 1.388 cumulative IPC: 0.7788 (Simulation time: 00 hr 07 min 09 sec)
Heartbeat CPU 0 instructions: 67500457 cycles: 35327381 heartbeat IPC: 1.871 cumulative IPC: 0.792 (Simulation time: 00 hr 07 min 12 sec)
Heartbeat CPU 0 instructions: 68000458 cycles: 35573444 heartbeat IPC: 2.032 cumulative IPC: 0.8057 (Simulation time: 00 hr 07 min 15 sec)
Heartbeat CPU 0 instructions: 68500462 cycles: 36049928 heartbeat IPC: 1.049 cumulative IPC: 0.8108 (Simulation time: 00 hr 07 min 19 sec)
Heartbeat CPU 0 instructions: 69000466 cycles: 36527989 heartbeat IPC: 1.046 cumulative IPC: 0.8156 (Simulation time: 00 hr 07 min 24 sec)
Heartbeat CPU 0 instructions: 69500469 cycles: 36842138 heartbeat IPC: 1.592 cumulative IPC: 0.8259 (Simulation time: 00 hr 07 min 27 sec)
Heartbeat CPU 0 instructions: 70000469 cycles: 37151536 heartbeat IPC: 1.616 cumulative IPC: 0.8361 (Simulation time: 00 hr 07 min 31 sec)
Heartbeat CPU 0 instructions: 70500471 cycles: 37433140 heartbeat IPC: 1.776 cumulative IPC: 0.8471 (Simulation time: 00 hr 07 min 34 sec)
Heartbeat CPU 0 instructions: 71000472 cycles: 37701212 heartbeat IPC: 1.865 cumulative IPC: 0.8582 (Simulation time: 00 hr 07 min 37 sec)
Heartbeat CPU 0 instructions: 71500474 cycles: 38044320 heartbeat IPC: 1.457 cumulative IPC: 0.8665 (Simulation time: 00 hr 07 min 41 sec)
Heartbeat CPU 0 instructions: 72000478 cycles: 38366766 heartbeat IPC: 1.551 cumulative IPC: 0.8753 (Simulation time: 00 hr 07 min 45 sec)
Heartbeat CPU 0 instructions: 72500479 cycles: 38716134 heartbeat IPC: 1.431 cumulative IPC: 0.8829 (Simulation time: 00 hr 07 min 48 sec)
Heartbeat CPU 0 instructions: 73000483 cycles: 38938611 heartbeat IPC: 2.247 cumulative IPC: 0.8947 (Simulation time: 00 hr 07 min 51 sec)
Heartbeat CPU 0 instructions: 73500483 cycles: 39214642 heartbeat IPC: 1.811 cumulative IPC: 0.9045 (Simulation time: 00 hr 07 min 55 sec)
Heartbeat CPU 0 instructions: 74000486 cycles: 39493810 heartbeat IPC: 1.791 cumulative IPC: 0.9139 (Simulation time: 00 hr 07 min 58 sec)
Heartbeat CPU 0 instructions: 74500491 cycles: 39796388 heartbeat IPC: 1.652 cumulative IPC: 0.9223 (Simulation time: 00 hr 08 min 02 sec)
Heartbeat CPU 0 instructions: 75000494 cycles: 40108030 heartbeat IPC: 1.604 cumulative IPC: 0.9302 (Simulation time: 00 hr 08 min 05 sec)
Heartbeat CPU 0 instructions: 75500497 cycles: 40450265 heartbeat IPC: 1.461 cumulative IPC: 0.9369 (Simulation time: 00 hr 08 min 09 sec)
Heartbeat CPU 0 instructions: 76000500 cycles: 40731704 heartbeat IPC: 1.777 cumulative IPC: 0.9455 (Simulation time: 00 hr 08 min 12 sec)
Heartbeat CPU 0 instructions: 76500500 cycles: 41000658 heartbeat IPC: 1.859 cumulative IPC: 0.9543 (Simulation time: 00 hr 08 min 15 sec)
Heartbeat CPU 0 instructions: 77000500 cycles: 41270751 heartbeat IPC: 1.851 cumulative IPC: 0.963 (Simulation time: 00 hr 08 min 18 sec)
Heartbeat CPU 0 instructions: 77500504 cycles: 41534152 heartbeat IPC: 1.898 cumulative IPC: 0.9717 (Simulation time: 00 hr 08 min 22 sec)
Heartbeat CPU 0 instructions: 78000504 cycles: 41848077 heartbeat IPC: 1.593 cumulative IPC: 0.9785 (Simulation time: 00 hr 08 min 25 sec)
Heartbeat CPU 0 instructions: 78500506 cycles: 42163933 heartbeat IPC: 1.583 cumulative IPC: 0.9851 (Simulation time: 00 hr 08 min 29 sec)
Heartbeat CPU 0 instructions: 79000512 cycles: 42708541 heartbeat IPC: 0.9181 cumulative IPC: 0.9838 (Simulation time: 00 hr 08 min 34 sec)
Heartbeat CPU 0 instructions: 79500512 cycles: 42976547 heartbeat IPC: 1.866 cumulative IPC: 0.9918 (Simulation time: 00 hr 08 min 37 sec)
Heartbeat CPU 0 instructions: 80000512 cycles: 43276683 heartbeat IPC: 1.666 cumulative IPC: 0.9985 (Simulation time: 00 hr 08 min 41 sec)
Heartbeat CPU 0 instructions: 80500512 cycles: 43552817 heartbeat IPC: 1.811 cumulative IPC: 1.006 (Simulation time: 00 hr 08 min 44 sec)
Heartbeat CPU 0 instructions: 81000516 cycles: 43871020 heartbeat IPC: 1.571 cumulative IPC: 1.012 (Simulation time: 00 hr 08 min 48 sec)
Heartbeat CPU 0 instructions: 81500516 cycles: 44150581 heartbeat IPC: 1.789 cumulative IPC: 1.019 (Simulation time: 00 hr 08 min 51 sec)
Heartbeat CPU 0 instructions: 82000517 cycles: 44433741 heartbeat IPC: 1.766 cumulative IPC: 1.026 (Simulation time: 00 hr 08 min 54 sec)
Heartbeat CPU 0 instructions: 82500519 cycles: 44709117 heartbeat IPC: 1.816 cumulative IPC: 1.033 (Simulation time: 00 hr 08 min 57 sec)
Heartbeat CPU 0 instructions: 83000524 cycles: 45151115 heartbeat IPC: 1.131 cumulative IPC: 1.034 (Simulation time: 00 hr 09 min 02 sec)
Heartbeat CPU 0 instructions: 83500525 cycles: 45428180 heartbeat IPC: 1.805 cumulative IPC: 1.041 (Simulation time: 00 hr 09 min 05 sec)
Heartbeat CPU 0 instructions: 84000525 cycles: 45717674 heartbeat IPC: 1.727 cumulative IPC: 1.047 (Simulation time: 00 hr 09 min 09 sec)
Heartbeat CPU 0 instructions: 84500526 cycles: 46051003 heartbeat IPC: 1.5 cumulative IPC: 1.051 (Simulation time: 00 hr 09 min 12 sec)
Heartbeat CPU 0 instructions: 85000527 cycles: 46368718 heartbeat IPC: 1.574 cumulative IPC: 1.056 (Simulation time: 00 hr 09 min 16 sec)
Heartbeat CPU 0 instructions: 85500527 cycles: 46605091 heartbeat IPC: 2.115 cumulative IPC: 1.064 (Simulation time: 00 hr 09 min 19 sec)
Heartbeat CPU 0 instructions: 86000527 cycles: 46917568 heartbeat IPC: 1.6 cumulative IPC: 1.069 (Simulation time: 00 hr 09 min 22 sec)
Heartbeat CPU 0 instructions: 86500530 cycles: 47233658 heartbeat IPC: 1.582 cumulative IPC: 1.073 (Simulation time: 00 hr 09 min 26 sec)
Heartbeat CPU 0 instructions: 87000530 cycles: 47596149 heartbeat IPC: 1.379 cumulative IPC: 1.077 (Simulation time: 00 hr 09 min 30 sec)
Heartbeat CPU 0 instructions: 87500535 cycles: 47909773 heartbeat IPC: 1.594 cumulative IPC: 1.081 (Simulation time: 00 hr 09 min 33 sec)
Heartbeat CPU 0 instructions: 88000539 cycles: 48163022 heartbeat IPC: 1.974 cumulative IPC: 1.088 (Simulation time: 00 hr 09 min 36 sec)
Heartbeat CPU 0 instructions: 88500539 cycles: 48373284 heartbeat IPC: 2.378 cumulative IPC: 1.096 (Simulation time: 00 hr 09 min 40 sec)
Heartbeat CPU 0 instructions: 89000539 cycles: 49422282 heartbeat IPC: 0.4766 cumulative IPC: 1.078 (Simulation time: 00 hr 09 min 48 sec)
Heartbeat CPU 0 instructions: 89500539 cycles: 49758596 heartbeat IPC: 1.487 cumulative IPC: 1.081 (Simulation time: 00 hr 09 min 52 sec)
Heartbeat CPU 0 instructions: 90000541 cycles: 50035698 heartbeat IPC: 1.804 cumulative IPC: 1.087 (Simulation time: 00 hr 09 min 55 sec)
Heartbeat CPU 0 instructions: 90500541 cycles: 50359711 heartbeat IPC: 1.543 cumulative IPC: 1.091 (Simulation time: 00 hr 09 min 59 sec)
Heartbeat CPU 0 instructions: 91000541 cycles: 50620458 heartbeat IPC: 1.918 cumulative IPC: 1.097 (Simulation time: 00 hr 10 min 02 sec)
Heartbeat CPU 0 instructions: 91500548 cycles: 50879751 heartbeat IPC: 1.928 cumulative IPC: 1.102 (Simulation time: 00 hr 10 min 05 sec)
Heartbeat CPU 0 instructions: 92000548 cycles: 51142998 heartbeat IPC: 1.899 cumulative IPC: 1.108 (Simulation time: 00 hr 10 min 08 sec)
Heartbeat CPU 0 instructions: 92500548 cycles: 51393964 heartbeat IPC: 1.992 cumulative IPC: 1.114 (Simulation time: 00 hr 10 min 11 sec)
Heartbeat CPU 0 instructions: 93000549 cycles: 51711519 heartbeat IPC: 1.575 cumulative IPC: 1.117 (Simulation time: 00 hr 10 min 15 sec)
Heartbeat CPU 0 instructions: 93500554 cycles: 51997915 heartbeat IPC: 1.746 cumulative IPC: 1.122 (Simulation time: 00 hr 10 min 18 sec)
Heartbeat CPU 0 instructions: 94000554 cycles: 52315323 heartbeat IPC: 1.575 cumulative IPC: 1.126 (Simulation time: 00 hr 10 min 21 sec)
Heartbeat CPU 0 instructions: 94500556 cycles: 52551256 heartbeat IPC: 2.119 cumulative IPC: 1.132 (Simulation time: 00 hr 10 min 25 sec)
Heartbeat CPU 0 instructions: 95000556 cycles: 52808447 heartbeat IPC: 1.944 cumulative IPC: 1.137 (Simulation time: 00 hr 10 min 28 sec)
Heartbeat CPU 0 instructions: 95500558 cycles: 53091736 heartbeat IPC: 1.765 cumulative IPC: 1.142 (Simulation time: 00 hr 10 min 31 sec)
Heartbeat CPU 0 instructions: 96000564 cycles: 53362552 heartbeat IPC: 1.846 cumulative IPC: 1.146 (Simulation time: 00 hr 10 min 35 sec)
Heartbeat CPU 0 instructions: 96500564 cycles: 53646675 heartbeat IPC: 1.76 cumulative IPC: 1.151 (Simulation time: 00 hr 10 min 38 sec)
Heartbeat CPU 0 instructions: 97000569 cycles: 53895713 heartbeat IPC: 2.008 cumulative IPC: 1.156 (Simulation time: 00 hr 10 min 42 sec)
Heartbeat CPU 0 instructions: 97500571 cycles: 54226695 heartbeat IPC: 1.511 cumulative IPC: 1.159 (Simulation time: 00 hr 10 min 45 sec)
Heartbeat CPU 0 instructions: 98000572 cycles: 54492446 heartbeat IPC: 1.881 cumulative IPC: 1.163 (Simulation time: 00 hr 10 min 49 sec)
Heartbeat CPU 0 instructions: 98500574 cycles: 54682863 heartbeat IPC: 2.626 cumulative IPC: 1.17 (Simulation time: 00 hr 10 min 52 sec)
Heartbeat CPU 0 instructions: 99000574 cycles: 55350412 heartbeat IPC: 0.749 cumulative IPC: 1.163 (Simulation time: 00 hr 10 min 58 sec)
Heartbeat CPU 0 instructions: 99500575 cycles: 55687372 heartbeat IPC: 1.484 cumulative IPC: 1.166 (Simulation time: 00 hr 11 min 02 sec)
Heartbeat CPU 0 instructions: 100000575 cycles: 56001072 heartbeat IPC: 1.594 cumulative IPC: 1.169 (Simulation time: 00 hr 11 min 05 sec)
Heartbeat CPU 0 instructions: 100500575 cycles: 56293721 heartbeat IPC: 1.709 cumulative IPC: 1.173 (Simulation time: 00 hr 11 min 09 sec)
Heartbeat CPU 0 instructions: 101000582 cycles: 56611259 heartbeat IPC: 1.575 cumulative IPC: 1.176 (Simulation time: 00 hr 11 min 12 sec)
Heartbeat CPU 0 instructions: 101500582 cycles: 56941237 heartbeat IPC: 1.515 cumulative IPC: 1.178 (Simulation time: 00 hr 11 min 16 sec)
Heartbeat CPU 0 instructions: 102000587 cycles: 57272487 heartbeat IPC: 1.509 cumulative IPC: 1.181 (Simulation time: 00 hr 11 min 19 sec)
Heartbeat CPU 0 instructions: 102500594 cycles: 57562559 heartbeat IPC: 1.724 cumulative IPC: 1.184 (Simulation time: 00 hr 11 min 23 sec)
Heartbeat CPU 0 instructions: 103000600 cycles: 57839421 heartbeat IPC: 1.806 cumulative IPC: 1.188 (Simulation time: 00 hr 11 min 26 sec)
Heartbeat CPU 0 instructions: 103500607 cycles: 58193907 heartbeat IPC: 1.411 cumulative IPC: 1.19 (Simulation time: 00 hr 11 min 30 sec)
Heartbeat CPU 0 instructions: 104000608 cycles: 58468006 heartbeat IPC: 1.824 cumulative IPC: 1.194 (Simulation time: 00 hr 11 min 33 sec)
Heartbeat CPU 0 instructions: 104500608 cycles: 58773012 heartbeat IPC: 1.639 cumulative IPC: 1.197 (Simulation time: 00 hr 11 min 36 sec)
Heartbeat CPU 0 instructions: 105000608 cycles: 59062115 heartbeat IPC: 1.729 cumulative IPC: 1.2 (Simulation time: 00 hr 11 min 40 sec)
Heartbeat CPU 0 instructions: 105500614 cycles: 59383827 heartbeat IPC: 1.554 cumulative IPC: 1.203 (Simulation time: 00 hr 11 min 43 sec)
Heartbeat CPU 0 instructions: 106000614 cycles: 59664811 heartbeat IPC: 1.779 cumulative IPC: 1.206 (Simulation time: 00 hr 11 min 47 sec)
Heartbeat CPU 0 instructions: 106500617 cycles: 59981924 heartbeat IPC: 1.577 cumulative IPC: 1.209 (Simulation time: 00 hr 11 min 50 sec)
Heartbeat CPU 0 instructions: 107000620 cycles: 60299688 heartbeat IPC: 1.574 cumulative IPC: 1.211 (Simulation time: 00 hr 11 min 54 sec)
Heartbeat CPU 0 instructions: 107500624 cycles: 60602504 heartbeat IPC: 1.651 cumulative IPC: 1.214 (Simulation time: 00 hr 11 min 57 sec)
Heartbeat CPU 0 instructions: 108000624 cycles: 60841634 heartbeat IPC: 2.091 cumulative IPC: 1.218 (Simulation time: 00 hr 12 min 00 sec)
Heartbeat CPU 0 instructions: 108500625 cycles: 61079953 heartbeat IPC: 2.098 cumulative IPC: 1.223 (Simulation time: 00 hr 12 min 04 sec)
Heartbeat CPU 0 instructions: 109000629 cycles: 61964263 heartbeat IPC: 0.5654 cumulative IPC: 1.211 (Simulation time: 00 hr 12 min 12 sec)
Heartbeat CPU 0 instructions: 109500635 cycles: 62317385 heartbeat IPC: 1.416 cumulative IPC: 1.212 (Simulation time: 00 hr 12 min 15 sec)
Heartbeat CPU 0 instructions: 110000635 cycles: 62588858 heartbeat IPC: 1.842 cumulative IPC: 1.216 (Simulation time: 00 hr 12 min 18 sec)
Heartbeat CPU 0 instructions: 110500635 cycles: 62875100 heartbeat IPC: 1.747 cumulative IPC: 1.219 (Simulation time: 00 hr 12 min 22 sec)
Heartbeat CPU 0 instructions: 111000642 cycles: 63168229 heartbeat IPC: 1.706 cumulative IPC: 1.222 (Simulation time: 00 hr 12 min 25 sec)
Heartbeat CPU 0 instructions: 111500642 cycles: 63441139 heartbeat IPC: 1.832 cumulative IPC: 1.225 (Simulation time: 00 hr 12 min 28 sec)
Heartbeat CPU 0 instructions: 112000646 cycles: 63734894 heartbeat IPC: 1.702 cumulative IPC: 1.228 (Simulation time: 00 hr 12 min 31 sec)
Heartbeat CPU 0 instructions: 112500646 cycles: 63970751 heartbeat IPC: 2.12 cumulative IPC: 1.232 (Simulation time: 00 hr 12 min 34 sec)
Heartbeat CPU 0 instructions: 113000651 cycles: 64291558 heartbeat IPC: 1.559 cumulative IPC: 1.234 (Simulation time: 00 hr 12 min 38 sec)
Heartbeat CPU 0 instructions: 113500653 cycles: 64615348 heartbeat IPC: 1.544 cumulative IPC: 1.236 (Simulation time: 00 hr 12 min 41 sec)
Heartbeat CPU 0 instructions: 114000654 cycles: 64912795 heartbeat IPC: 1.681 cumulative IPC: 1.238 (Simulation time: 00 hr 12 min 45 sec)
Heartbeat CPU 0 instructions: 114500654 cycles: 65221721 heartbeat IPC: 1.619 cumulative IPC: 1.241 (Simulation time: 00 hr 12 min 48 sec)
Heartbeat CPU 0 instructions: 115000659 cycles: 65510485 heartbeat IPC: 1.732 cumulative IPC: 1.243 (Simulation time: 00 hr 12 min 52 sec)
Heartbeat CPU 0 instructions: 115500662 cycles: 65811838 heartbeat IPC: 1.659 cumulative IPC: 1.246 (Simulation time: 00 hr 12 min 55 sec)
Heartbeat CPU 0 instructions: 116000665 cycles: 66159753 heartbeat IPC: 1.437 cumulative IPC: 1.247 (Simulation time: 00 hr 12 min 59 sec)
Heartbeat CPU 0 instructions: 116500666 cycles: 66463705 heartbeat IPC: 1.645 cumulative IPC: 1.249 (Simulation time: 00 hr 13 min 03 sec)
Heartbeat CPU 0 instructions: 117000673 cycles: 66717749 heartbeat IPC: 1.968 cumulative IPC: 1.253 (Simulation time: 00 hr 13 min 06 sec)
Heartbeat CPU 0 instructions: 117500677 cycles: 66974916 heartbeat IPC: 1.944 cumulative IPC: 1.256 (Simulation time: 00 hr 13 min 09 sec)
Heartbeat CPU 0 instructions: 118000682 cycles: 68445237 heartbeat IPC: 0.3401 cumulative IPC: 1.232 (Simulation time: 00 hr 13 min 21 sec)
Heartbeat CPU 0 instructions: 118500683 cycles: 70579701 heartbeat IPC: 0.2343 cumulative IPC: 1.194 (Simulation time: 00 hr 13 min 44 sec)
Heartbeat CPU 0 instructions: 119000683 cycles: 72454861 heartbeat IPC: 0.2666 cumulative IPC: 1.165 (Simulation time: 00 hr 14 min 06 sec)
Heartbeat CPU 0 instructions: 119500684 cycles: 74592665 heartbeat IPC: 0.2339 cumulative IPC: 1.133 (Simulation time: 00 hr 14 min 31 sec)
Heartbeat CPU 0 instructions: 120000685 cycles: 77235703 heartbeat IPC: 0.1892 cumulative IPC: 1.094 (Simulation time: 00 hr 14 min 49 sec)
Heartbeat CPU 0 instructions: 120500686 cycles: 78705104 heartbeat IPC: 0.3403 cumulative IPC: 1.077 (Simulation time: 00 hr 15 min 01 sec)
Heartbeat CPU 0 instructions: 121000687 cycles: 79063466 heartbeat IPC: 1.395 cumulative IPC: 1.079 (Simulation time: 00 hr 15 min 04 sec)
Heartbeat CPU 0 instructions: 121500687 cycles: 79406449 heartbeat IPC: 1.458 cumulative IPC: 1.08 (Simulation time: 00 hr 15 min 08 sec)
Heartbeat CPU 0 instructions: 122000690 cycles: 79735462 heartbeat IPC: 1.52 cumulative IPC: 1.083 (Simulation time: 00 hr 15 min 11 sec)
Heartbeat CPU 0 instructions: 122500694 cycles: 81723864 heartbeat IPC: 0.2515 cumulative IPC: 1.059 (Simulation time: 00 hr 15 min 25 sec)
Heartbeat CPU 0 instructions: 123000694 cycles: 82638775 heartbeat IPC: 0.5465 cumulative IPC: 1.052 (Simulation time: 00 hr 15 min 33 sec)
Heartbeat CPU 0 instructions: 123500700 cycles: 84458977 heartbeat IPC: 0.2747 cumulative IPC: 1.032 (Simulation time: 00 hr 15 min 46 sec)
Heartbeat CPU 0 instructions: 124000707 cycles: 86302438 heartbeat IPC: 0.2712 cumulative IPC: 1.013 (Simulation time: 00 hr 15 min 59 sec)
Heartbeat CPU 0 instructions: 124500708 cycles: 87748817 heartbeat IPC: 0.3457 cumulative IPC: 0.9998 (Simulation time: 00 hr 16 min 10 sec)
Heartbeat CPU 0 instructions: 125000708 cycles: 89015839 heartbeat IPC: 0.3946 cumulative IPC: 0.9897 (Simulation time: 00 hr 16 min 20 sec)
Heartbeat CPU 0 instructions: 125500709 cycles: 89716396 heartbeat IPC: 0.7137 cumulative IPC: 0.9871 (Simulation time: 00 hr 16 min 26 sec)
Heartbeat CPU 0 instructions: 126000714 cycles: 90197244 heartbeat IPC: 1.04 cumulative IPC: 0.9875 (Simulation time: 00 hr 16 min 31 sec)
Heartbeat CPU 0 instructions: 126500721 cycles: 90681160 heartbeat IPC: 1.033 cumulative IPC: 0.9877 (Simulation time: 00 hr 16 min 35 sec)
Heartbeat CPU 0 instructions: 127000724 cycles: 91373930 heartbeat IPC: 0.7217 cumulative IPC: 0.9854 (Simulation time: 00 hr 16 min 41 sec)
Heartbeat CPU 0 instructions: 127500729 cycles: 93170223 heartbeat IPC: 0.2784 cumulative IPC: 0.9695 (Simulation time: 00 hr 16 min 54 sec)
Heartbeat CPU 0 instructions: 128000729 cycles: 94088568 heartbeat IPC: 0.5445 cumulative IPC: 0.9647 (Simulation time: 00 hr 17 min 02 sec)
Heartbeat CPU 0 instructions: 128500729 cycles: 95411341 heartbeat IPC: 0.378 cumulative IPC: 0.9552 (Simulation time: 00 hr 17 min 12 sec)
Heartbeat CPU 0 instructions: 129000736 cycles: 97044554 heartbeat IPC: 0.3061 cumulative IPC: 0.9426 (Simulation time: 00 hr 17 min 24 sec)
Heartbeat CPU 0 instructions: 129500742 cycles: 97407840 heartbeat IPC: 1.376 cumulative IPC: 0.9445 (Simulation time: 00 hr 17 min 27 sec)
Heartbeat CPU 0 instructions: 130000743 cycles: 97715894 heartbeat IPC: 1.623 cumulative IPC: 0.9469 (Simulation time: 00 hr 17 min 31 sec)
Heartbeat CPU 0 instructions: 130500745 cycles: 98048777 heartbeat IPC: 1.502 cumulative IPC: 0.9491 (Simulation time: 00 hr 17 min 34 sec)
Heartbeat CPU 0 instructions: 131000746 cycles: 99892957 heartbeat IPC: 0.2711 cumulative IPC: 0.9347 (Simulation time: 00 hr 17 min 48 sec)
Heartbeat CPU 0 instructions: 131500746 cycles: 101116352 heartbeat IPC: 0.4087 cumulative IPC: 0.9274 (Simulation time: 00 hr 17 min 58 sec)
Heartbeat CPU 0 instructions: 132000749 cycles: 101676317 heartbeat IPC: 0.8929 cumulative IPC: 0.9271 (Simulation time: 00 hr 18 min 02 sec)
Heartbeat CPU 0 instructions: 132500751 cycles: 102620468 heartbeat IPC: 0.5296 cumulative IPC: 0.9229 (Simulation time: 00 hr 18 min 09 sec)
Heartbeat CPU 0 instructions: 133000754 cycles: 104089387 heartbeat IPC: 0.3404 cumulative IPC: 0.9135 (Simulation time: 00 hr 18 min 20 sec)
Heartbeat CPU 0 instructions: 133500756 cycles: 105034452 heartbeat IPC: 0.5291 cumulative IPC: 0.9096 (Simulation time: 00 hr 18 min 28 sec)
Heartbeat CPU 0 instructions: 134000759 cycles: 106163057 heartbeat IPC: 0.443 cumulative IPC: 0.9039 (Simulation time: 00 hr 18 min 37 sec)
Heartbeat CPU 0 instructions: 134500760 cycles: 107662675 heartbeat IPC: 0.3334 cumulative IPC: 0.8948 (Simulation time: 00 hr 18 min 48 sec)
Heartbeat CPU 0 instructions: 135000767 cycles: 108061458 heartbeat IPC: 1.254 cumulative IPC: 0.8964 (Simulation time: 00 hr 18 min 52 sec)
Heartbeat CPU 0 instructions: 135500767 cycles: 108327420 heartbeat IPC: 1.88 cumulative IPC: 0.8991 (Simulation time: 00 hr 18 min 55 sec)
Heartbeat CPU 0 instructions: 136000770 cycles: 108642462 heartbeat IPC: 1.587 cumulative IPC: 0.9014 (Simulation time: 00 hr 18 min 59 sec)
Heartbeat CPU 0 instructions: 136500774 cycles: 109519496 heartbeat IPC: 0.5701 cumulative IPC: 0.8984 (Simulation time: 00 hr 19 min 06 sec)
Heartbeat CPU 0 instructions: 137000780 cycles: 111923135 heartbeat IPC: 0.208 cumulative IPC: 0.8815 (Simulation time: 00 hr 19 min 24 sec)
Heartbeat CPU 0 instructions: 137500781 cycles: 113014880 heartbeat IPC: 0.458 cumulative IPC: 0.8769 (Simulation time: 00 hr 19 min 32 sec)
Heartbeat CPU 0 instructions: 138000784 cycles: 113401778 heartbeat IPC: 1.292 cumulative IPC: 0.8785 (Simulation time: 00 hr 19 min 37 sec)
Heartbeat CPU 0 instructions: 138500786 cycles: 113867077 heartbeat IPC: 1.075 cumulative IPC: 0.8794 (Simulation time: 00 hr 19 min 41 sec)
Heartbeat CPU 0 instructions: 139000792 cycles: 114086329 heartbeat IPC: 2.281 cumulative IPC: 0.8825 (Simulation time: 00 hr 19 min 44 sec)
Heartbeat CPU 0 instructions: 139500794 cycles: 114281952 heartbeat IPC: 2.556 cumulative IPC: 0.8857 (Simulation time: 00 hr 19 min 46 sec)
Heartbeat CPU 0 instructions: 140000795 cycles: 115559957 heartbeat IPC: 0.3912 cumulative IPC: 0.8795 (Simulation time: 00 hr 19 min 57 sec)
Heartbeat CPU 0 instructions: 140500795 cycles: 116693533 heartbeat IPC: 0.4411 cumulative IPC: 0.8747 (Simulation time: 00 hr 20 min 06 sec)
Heartbeat CPU 0 instructions: 141000795 cycles: 117614751 heartbeat IPC: 0.5428 cumulative IPC: 0.8718 (Simulation time: 00 hr 20 min 13 sec)
Heartbeat CPU 0 instructions: 141500799 cycles: 118365704 heartbeat IPC: 0.6658 cumulative IPC: 0.8703 (Simulation time: 00 hr 20 min 19 sec)
Heartbeat CPU 0 instructions: 142000805 cycles: 118816315 heartbeat IPC: 1.11 cumulative IPC: 0.8713 (Simulation time: 00 hr 20 min 24 sec)
Heartbeat CPU 0 instructions: 142500812 cycles: 119811585 heartbeat IPC: 0.5024 cumulative IPC: 0.8679 (Simulation time: 00 hr 20 min 32 sec)
Heartbeat CPU 0 instructions: 143000816 cycles: 121045606 heartbeat IPC: 0.4052 cumulative IPC: 0.8626 (Simulation time: 00 hr 20 min 41 sec)
Heartbeat CPU 0 instructions: 143500817 cycles: 122017474 heartbeat IPC: 0.5145 cumulative IPC: 0.8595 (Simulation time: 00 hr 20 min 49 sec)
Heartbeat CPU 0 instructions: 144000817 cycles: 123677236 heartbeat IPC: 0.3012 cumulative IPC: 0.8511 (Simulation time: 00 hr 21 min 01 sec)
Heartbeat CPU 0 instructions: 144500818 cycles: 125315038 heartbeat IPC: 0.3053 cumulative IPC: 0.8431 (Simulation time: 00 hr 21 min 13 sec)
Heartbeat CPU 0 instructions: 145000819 cycles: 127007165 heartbeat IPC: 0.2955 cumulative IPC: 0.835 (Simulation time: 00 hr 21 min 25 sec)
Heartbeat CPU 0 instructions: 145500822 cycles: 128465781 heartbeat IPC: 0.3428 cumulative IPC: 0.8288 (Simulation time: 00 hr 21 min 36 sec)
Heartbeat CPU 0 instructions: 146000824 cycles: 129050459 heartbeat IPC: 0.8552 cumulative IPC: 0.8289 (Simulation time: 00 hr 21 min 41 sec)
Heartbeat CPU 0 instructions: 146500824 cycles: 129428262 heartbeat IPC: 1.323 cumulative IPC: 0.8305 (Simulation time: 00 hr 21 min 45 sec)
Heartbeat CPU 0 instructions: 147000828 cycles: 129749624 heartbeat IPC: 1.556 cumulative IPC: 0.8325 (Simulation time: 00 hr 21 min 48 sec)
Heartbeat CPU 0 instructions: 147500830 cycles: 130063249 heartbeat IPC: 1.594 cumulative IPC: 0.8345 (Simulation time: 00 hr 21 min 51 sec)
Heartbeat CPU 0 instructions: 148000833 cycles: 130308096 heartbeat IPC: 2.042 cumulative IPC: 0.8371 (Simulation time: 00 hr 21 min 54 sec)
Heartbeat CPU 0 instructions: 148500834 cycles: 130637802 heartbeat IPC: 1.517 cumulative IPC: 0.839 (Simulation time: 00 hr 21 min 58 sec)
Heartbeat CPU 0 instructions: 149000841 cycles: 130939651 heartbeat IPC: 1.656 cumulative IPC: 0.8411 (Simulation time: 00 hr 22 min 01 sec)
Heartbeat CPU 0 instructions: 149500842 cycles: 131252408 heartbeat IPC: 1.599 cumulative IPC: 0.8431 (Simulation time: 00 hr 22 min 05 sec)
Heartbeat CPU 0 instructions: 150000848 cycles: 131543202 heartbeat IPC: 1.719 cumulative IPC: 0.8452 (Simulation time: 00 hr 22 min 08 sec)
Heartbeat CPU 0 instructions: 150500848 cycles: 131814011 heartbeat IPC: 1.846 cumulative IPC: 0.8475 (Simulation time: 00 hr 22 min 11 sec)
Heartbeat CPU 0 instructions: 151000851 cycles: 132071423 heartbeat IPC: 1.942 cumulative IPC: 0.8499 (Simulation time: 00 hr 22 min 14 sec)
Heartbeat CPU 0 instructions: 151500858 cycles: 132593410 heartbeat IPC: 0.9579 cumulative IPC: 0.8504 (Simulation time: 00 hr 22 min 19 sec)
Heartbeat CPU 0 instructions: 152000864 cycles: 132848693 heartbeat IPC: 1.959 cumulative IPC: 0.8527 (Simulation time: 00 hr 22 min 22 sec)
Heartbeat CPU 0 instructions: 152500868 cycles: 133891712 heartbeat IPC: 0.4794 cumulative IPC: 0.8495 (Simulation time: 00 hr 22 min 31 sec)
Heartbeat CPU 0 instructions: 153000874 cycles: 135277278 heartbeat IPC: 0.3609 cumulative IPC: 0.844 (Simulation time: 00 hr 22 min 42 sec)
Heartbeat CPU 0 instructions: 153500874 cycles: 137105840 heartbeat IPC: 0.2734 cumulative IPC: 0.8355 (Simulation time: 00 hr 22 min 57 sec)
Heartbeat CPU 0 instructions: 154000874 cycles: 139435099 heartbeat IPC: 0.2147 cumulative IPC: 0.8241 (Simulation time: 00 hr 23 min 13 sec)
Heartbeat CPU 0 instructions: 154500879 cycles: 140070420 heartbeat IPC: 0.787 cumulative IPC: 0.8239 (Simulation time: 00 hr 23 min 19 sec)
Heartbeat CPU 0 instructions: 155000879 cycles: 140724249 heartbeat IPC: 0.7647 cumulative IPC: 0.8236 (Simulation time: 00 hr 23 min 25 sec)
Heartbeat CPU 0 instructions: 155500879 cycles: 141353032 heartbeat IPC: 0.7952 cumulative IPC: 0.8234 (Simulation time: 00 hr 23 min 31 sec)
Heartbeat CPU 0 instructions: 156000883 cycles: 141966355 heartbeat IPC: 0.8152 cumulative IPC: 0.8234 (Simulation time: 00 hr 23 min 38 sec)
Heartbeat CPU 0 instructions: 156500886 cycles: 142595543 heartbeat IPC: 0.7947 cumulative IPC: 0.8233 (Simulation time: 00 hr 23 min 44 sec)
Heartbeat CPU 0 instructions: 157000889 cycles: 143346059 heartbeat IPC: 0.6662 cumulative IPC: 0.8224 (Simulation time: 00 hr 23 min 52 sec)
Heartbeat CPU 0 instructions: 157500894 cycles: 143921073 heartbeat IPC: 0.8696 cumulative IPC: 0.8226 (Simulation time: 00 hr 24 min 00 sec)
Heartbeat CPU 0 instructions: 158000896 cycles: 144404089 heartbeat IPC: 1.035 cumulative IPC: 0.8234 (Simulation time: 00 hr 24 min 06 sec)
Heartbeat CPU 0 instructions: 158500899 cycles: 145146573 heartbeat IPC: 0.6734 cumulative IPC: 0.8225 (Simulation time: 00 hr 24 min 14 sec)
Heartbeat CPU 0 instructions: 159000899 cycles: 145771444 heartbeat IPC: 0.8002 cumulative IPC: 0.8224 (Simulation time: 00 hr 24 min 22 sec)
Heartbeat CPU 0 instructions: 159500899 cycles: 146411833 heartbeat IPC: 0.7808 cumulative IPC: 0.8222 (Simulation time: 00 hr 24 min 29 sec)
Heartbeat CPU 0 instructions: 160000900 cycles: 147017011 heartbeat IPC: 0.8262 cumulative IPC: 0.8222 (Simulation time: 00 hr 24 min 36 sec)
Heartbeat CPU 0 instructions: 160500900 cycles: 147698800 heartbeat IPC: 0.7334 cumulative IPC: 0.8218 (Simulation time: 00 hr 24 min 44 sec)
Heartbeat CPU 0 instructions: 161000901 cycles: 148328535 heartbeat IPC: 0.794 cumulative IPC: 0.8216 (Simulation time: 00 hr 24 min 51 sec)
Heartbeat CPU 0 instructions: 161500906 cycles: 149068456 heartbeat IPC: 0.6758 cumulative IPC: 0.8208 (Simulation time: 00 hr 24 min 59 sec)
Heartbeat CPU 0 instructions: 162000906 cycles: 149548899 heartbeat IPC: 1.041 cumulative IPC: 0.8216 (Simulation time: 00 hr 25 min 06 sec)
Heartbeat CPU 0 instructions: 162500908 cycles: 150133644 heartbeat IPC: 0.8551 cumulative IPC: 0.8218 (Simulation time: 00 hr 25 min 12 sec)
Heartbeat CPU 0 instructions: 163000909 cycles: 151035747 heartbeat IPC: 0.5543 cumulative IPC: 0.82 (Simulation time: 00 hr 25 min 22 sec)
Heartbeat CPU 0 instructions: 163500910 cycles: 151802910 heartbeat IPC: 0.6518 cumulative IPC: 0.8191 (Simulation time: 00 hr 25 min 29 sec)
Heartbeat CPU 0 instructions: 164000916 cycles: 152387712 heartbeat IPC: 0.855 cumulative IPC: 0.8192 (Simulation time: 00 hr 25 min 36 sec)
Heartbeat CPU 0 instructions: 164500916 cycles: 153036120 heartbeat IPC: 0.7711 cumulative IPC: 0.819 (Simulation time: 00 hr 25 min 44 sec)
Heartbeat CPU 0 instructions: 165000919 cycles: 153641657 heartbeat IPC: 0.8257 cumulative IPC: 0.819 (Simulation time: 00 hr 25 min 51 sec)
Heartbeat CPU 0 instructions: 165500921 cycles: 154187036 heartbeat IPC: 0.9168 cumulative IPC: 0.8194 (Simulation time: 00 hr 25 min 58 sec)
Heartbeat CPU 0 instructions: 166000921 cycles: 154866474 heartbeat IPC: 0.7359 cumulative IPC: 0.819 (Simulation time: 00 hr 26 min 06 sec)
Heartbeat CPU 0 instructions: 166500921 cycles: 155398799 heartbeat IPC: 0.9393 cumulative IPC: 0.8195 (Simulation time: 00 hr 26 min 13 sec)
Heartbeat CPU 0 instructions: 167000921 cycles: 156050432 heartbeat IPC: 0.7673 cumulative IPC: 0.8192 (Simulation time: 00 hr 26 min 20 sec)
Heartbeat CPU 0 instructions: 167500927 cycles: 156792532 heartbeat IPC: 0.6738 cumulative IPC: 0.8185 (Simulation time: 00 hr 26 min 28 sec)
Heartbeat CPU 0 instructions: 168000933 cycles: 157410120 heartbeat IPC: 0.8096 cumulative IPC: 0.8184 (Simulation time: 00 hr 26 min 36 sec)
Heartbeat CPU 0 instructions: 168500934 cycles: 158029669 heartbeat IPC: 0.807 cumulative IPC: 0.8184 (Simulation time: 00 hr 26 min 43 sec)
Heartbeat CPU 0 instructions: 169000936 cycles: 158560620 heartbeat IPC: 0.9417 cumulative IPC: 0.8188 (Simulation time: 00 hr 26 min 50 sec)
Heartbeat CPU 0 instructions: 169500943 cycles: 159227564 heartbeat IPC: 0.7497 cumulative IPC: 0.8185 (Simulation time: 00 hr 26 min 57 sec)
Heartbeat CPU 0 instructions: 170000946 cycles: 159891091 heartbeat IPC: 0.7536 cumulative IPC: 0.8182 (Simulation time: 00 hr 27 min 05 sec)
Heartbeat CPU 0 instructions: 170500953 cycles: 160464048 heartbeat IPC: 0.8727 cumulative IPC: 0.8184 (Simulation time: 00 hr 27 min 12 sec)
Heartbeat CPU 0 instructions: 171000953 cycles: 161144662 heartbeat IPC: 0.7346 cumulative IPC: 0.8181 (Simulation time: 00 hr 27 min 20 sec)
Heartbeat CPU 0 instructions: 171500955 cycles: 161907103 heartbeat IPC: 0.6558 cumulative IPC: 0.8172 (Simulation time: 00 hr 27 min 28 sec)
Heartbeat CPU 0 instructions: 172000955 cycles: 162478713 heartbeat IPC: 0.8747 cumulative IPC: 0.8174 (Simulation time: 00 hr 27 min 36 sec)
Heartbeat CPU 0 instructions: 172500960 cycles: 163077380 heartbeat IPC: 0.8352 cumulative IPC: 0.8175 (Simulation time: 00 hr 27 min 43 sec)
Heartbeat CPU 0 instructions: 173000963 cycles: 163827086 heartbeat IPC: 0.6669 cumulative IPC: 0.8168 (Simulation time: 00 hr 27 min 51 sec)
Heartbeat CPU 0 instructions: 173500969 cycles: 164496076 heartbeat IPC: 0.7474 cumulative IPC: 0.8165 (Simulation time: 00 hr 27 min 59 sec)
Heartbeat CPU 0 instructions: 174000970 cycles: 165077817 heartbeat IPC: 0.8595 cumulative IPC: 0.8166 (Simulation time: 00 hr 28 min 05 sec)
Heartbeat CPU 0 instructions: 174500972 cycles: 165669835 heartbeat IPC: 0.8446 cumulative IPC: 0.8167 (Simulation time: 00 hr 28 min 13 sec)
Heartbeat CPU 0 instructions: 175000976 cycles: 166249299 heartbeat IPC: 0.8629 cumulative IPC: 0.8169 (Simulation time: 00 hr 28 min 20 sec)
Heartbeat CPU 0 instructions: 175500980 cycles: 168996480 heartbeat IPC: 0.182 cumulative IPC: 0.8057 (Simulation time: 00 hr 28 min 42 sec)
Heartbeat CPU 0 instructions: 176000980 cycles: 170580664 heartbeat IPC: 0.3156 cumulative IPC: 0.8008 (Simulation time: 00 hr 28 min 54 sec)
Heartbeat CPU 0 instructions: 176500982 cycles: 171879741 heartbeat IPC: 0.3849 cumulative IPC: 0.7974 (Simulation time: 00 hr 29 min 04 sec)
Heartbeat CPU 0 instructions: 177000982 cycles: 172972065 heartbeat IPC: 0.4577 cumulative IPC: 0.795 (Simulation time: 00 hr 29 min 13 sec)
Heartbeat CPU 0 instructions: 177500988 cycles: 177082278 heartbeat IPC: 0.1216 cumulative IPC: 0.7782 (Simulation time: 00 hr 29 min 42 sec)
Heartbeat CPU 0 instructions: 178000990 cycles: 180383093 heartbeat IPC: 0.1515 cumulative IPC: 0.7658 (Simulation time: 00 hr 30 min 05 sec)
Heartbeat CPU 0 instructions: 178500994 cycles: 181750656 heartbeat IPC: 0.3656 cumulative IPC: 0.7625 (Simulation time: 00 hr 30 min 16 sec)
Heartbeat CPU 0 instructions: 179000998 cycles: 182363435 heartbeat IPC: 0.816 cumulative IPC: 0.7627 (Simulation time: 00 hr 30 min 23 sec)
Heartbeat CPU 0 instructions: 179500998 cycles: 182788413 heartbeat IPC: 1.177 cumulative IPC: 0.7638 (Simulation time: 00 hr 30 min 28 sec)
Heartbeat CPU 0 instructions: 180001004 cycles: 183078603 heartbeat IPC: 1.723 cumulative IPC: 0.7654 (Simulation time: 00 hr 30 min 32 sec)
Heartbeat CPU 0 instructions: 180501009 cycles: 183278882 heartbeat IPC: 2.497 cumulative IPC: 0.7674 (Simulation time: 00 hr 30 min 36 sec)
Heartbeat CPU 0 instructions: 181001013 cycles: 184087785 heartbeat IPC: 0.6181 cumulative IPC: 0.7667 (Simulation time: 00 hr 30 min 45 sec)
Heartbeat CPU 0 instructions: 181501013 cycles: 184885615 heartbeat IPC: 0.6267 cumulative IPC: 0.7661 (Simulation time: 00 hr 30 min 54 sec)
Heartbeat CPU 0 instructions: 182001016 cycles: 185479891 heartbeat IPC: 0.8414 cumulative IPC: 0.7663 (Simulation time: 00 hr 31 min 01 sec)
Heartbeat CPU 0 instructions: 182501019 cycles: 186062269 heartbeat IPC: 0.8586 cumulative IPC: 0.7667 (Simulation time: 00 hr 31 min 09 sec)
Heartbeat CPU 0 instructions: 183001025 cycles: 186682225 heartbeat IPC: 0.8065 cumulative IPC: 0.7668 (Simulation time: 00 hr 31 min 17 sec)
Heartbeat CPU 0 instructions: 183501028 cycles: 187415820 heartbeat IPC: 0.6816 cumulative IPC: 0.7664 (Simulation time: 00 hr 31 min 25 sec)
Heartbeat CPU 0 instructions: 184001030 cycles: 187854650 heartbeat IPC: 1.139 cumulative IPC: 0.7674 (Simulation time: 00 hr 31 min 31 sec)
Heartbeat CPU 0 instructions: 184501031 cycles: 189354512 heartbeat IPC: 0.3334 cumulative IPC: 0.7637 (Simulation time: 00 hr 31 min 42 sec)
Heartbeat CPU 0 instructions: 185001033 cycles: 190151886 heartbeat IPC: 0.6271 cumulative IPC: 0.7631 (Simulation time: 00 hr 31 min 49 sec)
Heartbeat CPU 0 instructions: 185501034 cycles: 190866251 heartbeat IPC: 0.6999 cumulative IPC: 0.7628 (Simulation time: 00 hr 31 min 57 sec)
Heartbeat CPU 0 instructions: 186001041 cycles: 191348760 heartbeat IPC: 1.036 cumulative IPC: 0.7635 (Simulation time: 00 hr 32 min 02 sec)
Heartbeat CPU 0 instructions: 186501045 cycles: 192056246 heartbeat IPC: 0.7067 cumulative IPC: 0.7633 (Simulation time: 00 hr 32 min 10 sec)
Heartbeat CPU 0 instructions: 187001051 cycles: 192812374 heartbeat IPC: 0.6613 cumulative IPC: 0.7629 (Simulation time: 00 hr 32 min 17 sec)
Heartbeat CPU 0 instructions: 187501055 cycles: 193469393 heartbeat IPC: 0.761 cumulative IPC: 0.7629 (Simulation time: 00 hr 32 min 25 sec)
Heartbeat CPU 0 instructions: 188001060 cycles: 194153080 heartbeat IPC: 0.7313 cumulative IPC: 0.7628 (Simulation time: 00 hr 32 min 32 sec)
Heartbeat CPU 0 instructions: 188501061 cycles: 194815962 heartbeat IPC: 0.7543 cumulative IPC: 0.7627 (Simulation time: 00 hr 32 min 40 sec)
Heartbeat CPU 0 instructions: 189001064 cycles: 195419638 heartbeat IPC: 0.8283 cumulative IPC: 0.763 (Simulation time: 00 hr 32 min 46 sec)
Heartbeat CPU 0 instructions: 189501070 cycles: 196403333 heartbeat IPC: 0.5083 cumulative IPC: 0.7616 (Simulation time: 00 hr 32 min 55 sec)
Heartbeat CPU 0 instructions: 190001071 cycles: 197440218 heartbeat IPC: 0.4822 cumulative IPC: 0.76 (Simulation time: 00 hr 33 min 07 sec)
Heartbeat CPU 0 instructions: 190501076 cycles: 199147381 heartbeat IPC: 0.2929 cumulative IPC: 0.7557 (Simulation time: 00 hr 33 min 27 sec)
Heartbeat CPU 0 instructions: 191001081 cycles: 200734826 heartbeat IPC: 0.315 cumulative IPC: 0.752 (Simulation time: 00 hr 33 min 44 sec)
Heartbeat CPU 0 instructions: 191501082 cycles: 202063422 heartbeat IPC: 0.3763 cumulative IPC: 0.7493 (Simulation time: 00 hr 33 min 57 sec)
Heartbeat CPU 0 instructions: 192001082 cycles: 203205664 heartbeat IPC: 0.4377 cumulative IPC: 0.7475 (Simulation time: 00 hr 34 min 08 sec)
Heartbeat CPU 0 instructions: 192501085 cycles: 204417133 heartbeat IPC: 0.4127 cumulative IPC: 0.7454 (Simulation time: 00 hr 34 min 21 sec)
Heartbeat CPU 0 instructions: 193001085 cycles: 205530292 heartbeat IPC: 0.4492 cumulative IPC: 0.7436 (Simulation time: 00 hr 34 min 32 sec)
Heartbeat CPU 0 instructions: 193501086 cycles: 206817360 heartbeat IPC: 0.3885 cumulative IPC: 0.7413 (Simulation time: 00 hr 34 min 45 sec)
Heartbeat CPU 0 instructions: 194001089 cycles: 208067437 heartbeat IPC: 0.4 cumulative IPC: 0.7391 (Simulation time: 00 hr 34 min 58 sec)
Heartbeat CPU 0 instructions: 194501090 cycles: 209230122 heartbeat IPC: 0.43 cumulative IPC: 0.7373 (Simulation time: 00 hr 35 min 10 sec)
Heartbeat CPU 0 instructions: 195001093 cycles: 210243144 heartbeat IPC: 0.4936 cumulative IPC: 0.736 (Simulation time: 00 hr 35 min 20 sec)
Heartbeat CPU 0 instructions: 195501094 cycles: 211508639 heartbeat IPC: 0.3951 cumulative IPC: 0.7338 (Simulation time: 00 hr 35 min 33 sec)
Heartbeat CPU 0 instructions: 196001096 cycles: 212148834 heartbeat IPC: 0.781 cumulative IPC: 0.734 (Simulation time: 00 hr 35 min 41 sec)
Heartbeat CPU 0 instructions: 196501103 cycles: 212748105 heartbeat IPC: 0.8344 cumulative IPC: 0.7343 (Simulation time: 00 hr 35 min 49 sec)
Heartbeat CPU 0 instructions: 197001104 cycles: 213382184 heartbeat IPC: 0.7885 cumulative IPC: 0.7345 (Simulation time: 00 hr 35 min 57 sec)
Heartbeat CPU 0 instructions: 197501107 cycles: 214271683 heartbeat IPC: 0.5621 cumulative IPC: 0.7337 (Simulation time: 00 hr 36 min 06 sec)
Heartbeat CPU 0 instructions: 198001107 cycles: 215979551 heartbeat IPC: 0.2928 cumulative IPC: 0.73 (Simulation time: 00 hr 36 min 23 sec)
Heartbeat CPU 0 instructions: 198501110 cycles: 216800357 heartbeat IPC: 0.6092 cumulative IPC: 0.7295 (Simulation time: 00 hr 36 min 33 sec)
Heartbeat CPU 0 instructions: 199001110 cycles: 217595537 heartbeat IPC: 0.6288 cumulative IPC: 0.7291 (Simulation time: 00 hr 36 min 42 sec)
Heartbeat CPU 0 instructions: 199501114 cycles: 218509717 heartbeat IPC: 0.5469 cumulative IPC: 0.7283 (Simulation time: 00 hr 36 min 52 sec)
Heartbeat CPU 0 instructions: 200001116 cycles: 220085571 heartbeat IPC: 0.3173 cumulative IPC: 0.7252 (Simulation time: 00 hr 37 min 04 sec)
Heartbeat CPU 0 instructions: 200501116 cycles: 220748378 heartbeat IPC: 0.7544 cumulative IPC: 0.7252 (Simulation time: 00 hr 37 min 11 sec)
Heartbeat CPU 0 instructions: 201001116 cycles: 222047395 heartbeat IPC: 0.3849 cumulative IPC: 0.7231 (Simulation time: 00 hr 37 min 26 sec)
Heartbeat CPU 0 instructions: 201501117 cycles: 223331797 heartbeat IPC: 0.3893 cumulative IPC: 0.7211 (Simulation time: 00 hr 37 min 41 sec)
Heartbeat CPU 0 instructions: 202001117 cycles: 225025420 heartbeat IPC: 0.2952 cumulative IPC: 0.7177 (Simulation time: 00 hr 37 min 54 sec)
Heartbeat CPU 0 instructions: 202501120 cycles: 226090943 heartbeat IPC: 0.4693 cumulative IPC: 0.7164 (Simulation time: 00 hr 38 min 02 sec)
Heartbeat CPU 0 instructions: 203001120 cycles: 226489960 heartbeat IPC: 1.253 cumulative IPC: 0.7174 (Simulation time: 00 hr 38 min 06 sec)
Heartbeat CPU 0 instructions: 203501122 cycles: 226759191 heartbeat IPC: 1.857 cumulative IPC: 0.7189 (Simulation time: 00 hr 38 min 09 sec)
Heartbeat CPU 0 instructions: 204001122 cycles: 227065299 heartbeat IPC: 1.633 cumulative IPC: 0.7202 (Simulation time: 00 hr 38 min 12 sec)
Heartbeat CPU 0 instructions: 204501127 cycles: 228699257 heartbeat IPC: 0.306 cumulative IPC: 0.7171 (Simulation time: 00 hr 38 min 25 sec)
Heartbeat CPU 0 instructions: 205001128 cycles: 229083367 heartbeat IPC: 1.302 cumulative IPC: 0.7181 (Simulation time: 00 hr 38 min 29 sec)
Heartbeat CPU 0 instructions: 205501130 cycles: 229815219 heartbeat IPC: 0.6832 cumulative IPC: 0.718 (Simulation time: 00 hr 38 min 35 sec)
Heartbeat CPU 0 instructions: 206001130 cycles: 230186974 heartbeat IPC: 1.345 cumulative IPC: 0.719 (Simulation time: 00 hr 38 min 39 sec)
Heartbeat CPU 0 instructions: 206501132 cycles: 231037829 heartbeat IPC: 0.5876 cumulative IPC: 0.7185 (Simulation time: 00 hr 38 min 46 sec)
Heartbeat CPU 0 instructions: 207001138 cycles: 231407929 heartbeat IPC: 1.351 cumulative IPC: 0.7196 (Simulation time: 00 hr 38 min 49 sec)
Heartbeat CPU 0 instructions: 207501139 cycles: 231955889 heartbeat IPC: 0.9125 cumulative IPC: 0.7201 (Simulation time: 00 hr 38 min 54 sec)
Heartbeat CPU 0 instructions: 208001140 cycles: 232288489 heartbeat IPC: 1.503 cumulative IPC: 0.7213 (Simulation time: 00 hr 38 min 58 sec)
Heartbeat CPU 0 instructions: 208501143 cycles: 232588339 heartbeat IPC: 1.668 cumulative IPC: 0.7226 (Simulation time: 00 hr 39 min 01 sec)
Heartbeat CPU 0 instructions: 209001144 cycles: 232955130 heartbeat IPC: 1.363 cumulative IPC: 0.7236 (Simulation time: 00 hr 39 min 05 sec)
Heartbeat CPU 0 instructions: 209501147 cycles: 233302667 heartbeat IPC: 1.439 cumulative IPC: 0.7248 (Simulation time: 00 hr 39 min 08 sec)
Heartbeat CPU 0 instructions: 210001148 cycles: 233622480 heartbeat IPC: 1.563 cumulative IPC: 0.726 (Simulation time: 00 hr 39 min 12 sec)
Heartbeat CPU 0 instructions: 210501152 cycles: 233956612 heartbeat IPC: 1.496 cumulative IPC: 0.7272 (Simulation time: 00 hr 39 min 15 sec)
Heartbeat CPU 0 instructions: 211001154 cycles: 234282961 heartbeat IPC: 1.532 cumulative IPC: 0.7283 (Simulation time: 00 hr 39 min 19 sec)
Heartbeat CPU 0 instructions: 211501159 cycles: 234579181 heartbeat IPC: 1.688 cumulative IPC: 0.7296 (Simulation time: 00 hr 39 min 22 sec)
Heartbeat CPU 0 instructions: 212001159 cycles: 234833194 heartbeat IPC: 1.968 cumulative IPC: 0.731 (Simulation time: 00 hr 39 min 25 sec)
Heartbeat CPU 0 instructions: 212501159 cycles: 235145580 heartbeat IPC: 1.601 cumulative IPC: 0.7323 (Simulation time: 00 hr 39 min 29 sec)
Heartbeat CPU 0 instructions: 213001166 cycles: 235439937 heartbeat IPC: 1.699 cumulative IPC: 0.7336 (Simulation time: 00 hr 39 min 32 sec)
Heartbeat CPU 0 instructions: 213501166 cycles: 235710776 heartbeat IPC: 1.846 cumulative IPC: 0.7349 (Simulation time: 00 hr 39 min 35 sec)
Heartbeat CPU 0 instructions: 214001166 cycles: 235974604 heartbeat IPC: 1.895 cumulative IPC: 0.7363 (Simulation time: 00 hr 39 min 38 sec)
Heartbeat CPU 0 instructions: 214501168 cycles: 236606043 heartbeat IPC: 0.7918 cumulative IPC: 0.7364 (Simulation time: 00 hr 39 min 44 sec)
Heartbeat CPU 0 instructions: 215001175 cycles: 236998922 heartbeat IPC: 1.273 cumulative IPC: 0.7374 (Simulation time: 00 hr 39 min 49 sec)
Heartbeat CPU 0 instructions: 215501179 cycles: 237256936 heartbeat IPC: 1.938 cumulative IPC: 0.7388 (Simulation time: 00 hr 39 min 52 sec)
Heartbeat CPU 0 instructions: 216001180 cycles: 237472267 heartbeat IPC: 2.322 cumulative IPC: 0.7403 (Simulation time: 00 hr 39 min 55 sec)
Heartbeat CPU 0 instructions: 216501182 cycles: 237748733 heartbeat IPC: 1.809 cumulative IPC: 0.7416 (Simulation time: 00 hr 39 min 58 sec)
Heartbeat CPU 0 instructions: 217001186 cycles: 238031512 heartbeat IPC: 1.768 cumulative IPC: 0.7429 (Simulation time: 00 hr 40 min 01 sec)
Heartbeat CPU 0 instructions: 217501188 cycles: 238439409 heartbeat IPC: 1.226 cumulative IPC: 0.7438 (Simulation time: 00 hr 40 min 05 sec)
Heartbeat CPU 0 instructions: 218001189 cycles: 238666134 heartbeat IPC: 2.205 cumulative IPC: 0.7452 (Simulation time: 00 hr 40 min 08 sec)
Heartbeat CPU 0 instructions: 218501190 cycles: 239055124 heartbeat IPC: 1.285 cumulative IPC: 0.7462 (Simulation time: 00 hr 40 min 12 sec)
Heartbeat CPU 0 instructions: 219001193 cycles: 239376909 heartbeat IPC: 1.554 cumulative IPC: 0.7473 (Simulation time: 00 hr 40 min 16 sec)
Heartbeat CPU 0 instructions: 219501195 cycles: 239747395 heartbeat IPC: 1.35 cumulative IPC: 0.7483 (Simulation time: 00 hr 40 min 19 sec)
Heartbeat CPU 0 instructions: 220001195 cycles: 240113281 heartbeat IPC: 1.367 cumulative IPC: 0.7493 (Simulation time: 00 hr 40 min 23 sec)
Heartbeat CPU 0 instructions: 220501195 cycles: 241245804 heartbeat IPC: 0.4415 cumulative IPC: 0.7478 (Simulation time: 00 hr 40 min 33 sec)
Heartbeat CPU 0 instructions: 221001197 cycles: 241568581 heartbeat IPC: 1.549 cumulative IPC: 0.7489 (Simulation time: 00 hr 40 min 37 sec)
Heartbeat CPU 0 instructions: 221501197 cycles: 241873289 heartbeat IPC: 1.641 cumulative IPC: 0.7501 (Simulation time: 00 hr 40 min 40 sec)
Heartbeat CPU 0 instructions: 222001197 cycles: 242191548 heartbeat IPC: 1.571 cumulative IPC: 0.7512 (Simulation time: 00 hr 40 min 44 sec)
Heartbeat CPU 0 instructions: 222501200 cycles: 242470322 heartbeat IPC: 1.794 cumulative IPC: 0.7525 (Simulation time: 00 hr 40 min 47 sec)
Heartbeat CPU 0 instructions: 223001204 cycles: 242907456 heartbeat IPC: 1.144 cumulative IPC: 0.7532 (Simulation time: 00 hr 40 min 51 sec)
Heartbeat CPU 0 instructions: 223501206 cycles: 243174138 heartbeat IPC: 1.875 cumulative IPC: 0.7545 (Simulation time: 00 hr 40 min 54 sec)
Heartbeat CPU 0 instructions: 224001210 cycles: 243463826 heartbeat IPC: 1.726 cumulative IPC: 0.7558 (Simulation time: 00 hr 40 min 57 sec)
Heartbeat CPU 0 instructions: 224501215 cycles: 243750173 heartbeat IPC: 1.746 cumulative IPC: 0.757 (Simulation time: 00 hr 41 min 01 sec)
Heartbeat CPU 0 instructions: 225001215 cycles: 244093636 heartbeat IPC: 1.456 cumulative IPC: 0.758 (Simulation time: 00 hr 41 min 04 sec)
Heartbeat CPU 0 instructions: 225501215 cycles: 244438322 heartbeat IPC: 1.451 cumulative IPC: 0.7591 (Simulation time: 00 hr 41 min 08 sec)
Heartbeat CPU 0 instructions: 226001221 cycles: 244748515 heartbeat IPC: 1.612 cumulative IPC: 0.7602 (Simulation time: 00 hr 41 min 11 sec)
Heartbeat CPU 0 instructions: 226501222 cycles: 245038979 heartbeat IPC: 1.721 cumulative IPC: 0.7614 (Simulation time: 00 hr 41 min 15 sec)
Heartbeat CPU 0 instructions: 227001222 cycles: 245314795 heartbeat IPC: 1.813 cumulative IPC: 0.7627 (Simulation time: 00 hr 41 min 18 sec)
Heartbeat CPU 0 instructions: 227501222 cycles: 245610193 heartbeat IPC: 1.693 cumulative IPC: 0.7638 (Simulation time: 00 hr 41 min 21 sec)
Heartbeat CPU 0 instructions: 228001225 cycles: 245856679 heartbeat IPC: 2.029 cumulative IPC: 0.7652 (Simulation time: 00 hr 41 min 24 sec)
Heartbeat CPU 0 instructions: 228501230 cycles: 246121317 heartbeat IPC: 1.889 cumulative IPC: 0.7665 (Simulation time: 00 hr 41 min 27 sec)
Heartbeat CPU 0 instructions: 229001234 cycles: 246370848 heartbeat IPC: 2.004 cumulative IPC: 0.7678 (Simulation time: 00 hr 41 min 30 sec)
Heartbeat CPU 0 instructions: 229501234 cycles: 246655769 heartbeat IPC: 1.755 cumulative IPC: 0.769 (Simulation time: 00 hr 41 min 33 sec)
Heartbeat CPU 0 instructions: 230001235 cycles: 246899423 heartbeat IPC: 2.052 cumulative IPC: 0.7703 (Simulation time: 00 hr 41 min 36 sec)
Heartbeat CPU 0 instructions: 230501236 cycles: 247475290 heartbeat IPC: 0.8683 cumulative IPC: 0.7706 (Simulation time: 00 hr 41 min 42 sec)
Heartbeat CPU 0 instructions: 231001238 cycles: 247872187 heartbeat IPC: 1.26 cumulative IPC: 0.7714 (Simulation time: 00 hr 41 min 46 sec)
Heartbeat CPU 0 instructions: 231501242 cycles: 248239888 heartbeat IPC: 1.36 cumulative IPC: 0.7723 (Simulation time: 00 hr 41 min 50 sec)
Heartbeat CPU 0 instructions: 232001242 cycles: 248617823 heartbeat IPC: 1.323 cumulative IPC: 0.7732 (Simulation time: 00 hr 41 min 54 sec)
Heartbeat CPU 0 instructions: 232501246 cycles: 248901883 heartbeat IPC: 1.76 cumulative IPC: 0.7744 (Simulation time: 00 hr 41 min 57 sec)
Heartbeat CPU 0 instructions: 233001246 cycles: 249154347 heartbeat IPC: 1.98 cumulative IPC: 0.7757 (Simulation time: 00 hr 42 min 00 sec)
Heartbeat CPU 0 instructions: 233501248 cycles: 249540525 heartbeat IPC: 1.295 cumulative IPC: 0.7765 (Simulation time: 00 hr 42 min 04 sec)
Heartbeat CPU 0 instructions: 234001248 cycles: 249901138 heartbeat IPC: 1.387 cumulative IPC: 0.7775 (Simulation time: 00 hr 42 min 08 sec)
Heartbeat CPU 0 instructions: 234501253 cycles: 250182442 heartbeat IPC: 1.777 cumulative IPC: 0.7786 (Simulation time: 00 hr 42 min 11 sec)
Heartbeat CPU 0 instructions: 235001255 cycles: 250450307 heartbeat IPC: 1.867 cumulative IPC: 0.7799 (Simulation time: 00 hr 42 min 14 sec)
Heartbeat CPU 0 instructions: 235501256 cycles: 251111672 heartbeat IPC: 0.756 cumulative IPC: 0.7798 (Simulation time: 00 hr 42 min 20 sec)
Heartbeat CPU 0 instructions: 236001258 cycles: 251503763 heartbeat IPC: 1.275 cumulative IPC: 0.7806 (Simulation time: 00 hr 42 min 24 sec)
Heartbeat CPU 0 instructions: 236501258 cycles: 251852631 heartbeat IPC: 1.433 cumulative IPC: 0.7816 (Simulation time: 00 hr 42 min 28 sec)
Heartbeat CPU 0 instructions: 237001258 cycles: 252194564 heartbeat IPC: 1.462 cumulative IPC: 0.7826 (Simulation time: 00 hr 42 min 32 sec)
Heartbeat CPU 0 instructions: 237501260 cycles: 252486126 heartbeat IPC: 1.715 cumulative IPC: 0.7837 (Simulation time: 00 hr 42 min 35 sec)
Heartbeat CPU 0 instructions: 238001263 cycles: 252860364 heartbeat IPC: 1.336 cumulative IPC: 0.7846 (Simulation time: 00 hr 42 min 39 sec)
Heartbeat CPU 0 instructions: 238501266 cycles: 253087855 heartbeat IPC: 2.198 cumulative IPC: 0.7859 (Simulation time: 00 hr 42 min 42 sec)
Heartbeat CPU 0 instructions: 239001267 cycles: 253402341 heartbeat IPC: 1.59 cumulative IPC: 0.7869 (Simulation time: 00 hr 42 min 46 sec)
Heartbeat CPU 0 instructions: 239501268 cycles: 253713735 heartbeat IPC: 1.606 cumulative IPC: 0.788 (Simulation time: 00 hr 42 min 49 sec)
Heartbeat CPU 0 instructions: 240001269 cycles: 254077474 heartbeat IPC: 1.375 cumulative IPC: 0.7889 (Simulation time: 00 hr 42 min 53 sec)
Heartbeat CPU 0 instructions: 240501270 cycles: 254316657 heartbeat IPC: 2.09 cumulative IPC: 0.7902 (Simulation time: 00 hr 42 min 57 sec)
Heartbeat CPU 0 instructions: 241001270 cycles: 254546724 heartbeat IPC: 2.173 cumulative IPC: 0.7915 (Simulation time: 00 hr 43 min 00 sec)
Heartbeat CPU 0 instructions: 241501272 cycles: 254913031 heartbeat IPC: 1.365 cumulative IPC: 0.7924 (Simulation time: 00 hr 43 min 04 sec)
Heartbeat CPU 0 instructions: 242001273 cycles: 255266724 heartbeat IPC: 1.414 cumulative IPC: 0.7933 (Simulation time: 00 hr 43 min 07 sec)
Heartbeat CPU 0 instructions: 242501274 cycles: 255630822 heartbeat IPC: 1.373 cumulative IPC: 0.7941 (Simulation time: 00 hr 43 min 11 sec)
Heartbeat CPU 0 instructions: 243001281 cycles: 256155335 heartbeat IPC: 0.9533 cumulative IPC: 0.7945 (Simulation time: 00 hr 43 min 16 sec)
Heartbeat CPU 0 instructions: 243501281 cycles: 256444808 heartbeat IPC: 1.727 cumulative IPC: 0.7956 (Simulation time: 00 hr 43 min 20 sec)
Heartbeat CPU 0 instructions: 244001283 cycles: 256710116 heartbeat IPC: 1.885 cumulative IPC: 0.7968 (Simulation time: 00 hr 43 min 23 sec)
Heartbeat CPU 0 instructions: 244501283 cycles: 257662858 heartbeat IPC: 0.5248 cumulative IPC: 0.7957 (Simulation time: 00 hr 43 min 31 sec)
Heartbeat CPU 0 instructions: 245001288 cycles: 258445080 heartbeat IPC: 0.6392 cumulative IPC: 0.7952 (Simulation time: 00 hr 43 min 39 sec)
Heartbeat CPU 0 instructions: 245501293 cycles: 259092778 heartbeat IPC: 0.772 cumulative IPC: 0.7952 (Simulation time: 00 hr 43 min 45 sec)
Heartbeat CPU 0 instructions: 246001297 cycles: 259775649 heartbeat IPC: 0.7322 cumulative IPC: 0.795 (Simulation time: 00 hr 43 min 52 sec)
Heartbeat CPU 0 instructions: 246501297 cycles: 260427577 heartbeat IPC: 0.767 cumulative IPC: 0.7949 (Simulation time: 00 hr 43 min 59 sec)
Heartbeat CPU 0 instructions: 247001297 cycles: 261151316 heartbeat IPC: 0.6909 cumulative IPC: 0.7946 (Simulation time: 00 hr 44 min 06 sec)
Heartbeat CPU 0 instructions: 247501304 cycles: 261807773 heartbeat IPC: 0.7617 cumulative IPC: 0.7945 (Simulation time: 00 hr 44 min 13 sec)
Heartbeat CPU 0 instructions: 248001309 cycles: 262583185 heartbeat IPC: 0.6448 cumulative IPC: 0.7941 (Simulation time: 00 hr 44 min 20 sec)
Heartbeat CPU 0 instructions: 248501313 cycles: 263351448 heartbeat IPC: 0.6508 cumulative IPC: 0.7936 (Simulation time: 00 hr 44 min 28 sec)
Heartbeat CPU 0 instructions: 249001315 cycles: 264079667 heartbeat IPC: 0.6866 cumulative IPC: 0.7933 (Simulation time: 00 hr 44 min 36 sec)
Heartbeat CPU 0 instructions: 249501316 cycles: 264607118 heartbeat IPC: 0.948 cumulative IPC: 0.7936 (Simulation time: 00 hr 44 min 43 sec)
Simulation finished CPU 0 instructions: 200000003 cycles: 251964471 cumulative IPC: 0.7938 (Simulation time: 00 hr 44 min 50 sec)
Simulation complete CPU 0 instructions: 200000003 cycles: 251964471 cumulative IPC: 0.7938 (Simulation time: 00 hr 44 min 50 sec)

ChampSim completed all CPUs

=== Simulation ===
CPU 0 runs /local-ssd/ben/dpc4-traces/gtraces_v2/charlie_0002.champsim.gz

Region of Interest Statistics

CPU 0 cumulative IPC: 0.7938 instructions: 200000003 cycles: 251964471
CPU 0 Branch Prediction Accuracy: 93.59% MPKI: 11.85 Average ROB Occupancy at Mispredict: 40.62
Branch type MPKI
BRANCH_DIRECT_JUMP: 0.2716
BRANCH_INDIRECT: 0.4003
BRANCH_CONDITIONAL: 10.34
BRANCH_DIRECT_CALL: 0.2414
BRANCH_INDIRECT_CALL: 0.3428
BRANCH_RETURN: 0.2576

cpu0->cpu0_STLB TOTAL        ACCESS:    1058105 HIT:     706506 MISS:     351599 MSHR_MERGE:          0
cpu0->cpu0_STLB LOAD         ACCESS:    1058105 HIT:     706506 MISS:     351599 MSHR_MERGE:          0
cpu0->cpu0_STLB RFO          ACCESS:          0 HIT:          0 MISS:          0 MSHR_MERGE:          0
cpu0->cpu0_STLB PREFETCH     ACCESS:          0 HIT:          0 MISS:          0 MSHR_MERGE:          0
cpu0->cpu0_STLB WRITE        ACCESS:          0 HIT:          0 MISS:          0 MSHR_MERGE:          0
cpu0->cpu0_STLB TRANSLATION  ACCESS:          0 HIT:          0 MISS:          0 MSHR_MERGE:          0
cpu0->cpu0_STLB PREFETCH REQUESTED:          0 ISSUED:          0 USEFUL:          0 USELESS:          0
cpu0->cpu0_STLB AVERAGE MISS LATENCY: 262 cycles
cpu0->cpu0_L2C TOTAL        ACCESS:   12589195 HIT:    8313166 MISS:    4276029 MSHR_MERGE:    1120503
cpu0->cpu0_L2C LOAD         ACCESS:    2160480 HIT:    1507465 MISS:     653015 MSHR_MERGE:      17028
cpu0->cpu0_L2C RFO          ACCESS:     737081 HIT:     291519 MISS:     445562 MSHR_MERGE:      17512
cpu0->cpu0_L2C PREFETCH     ACCESS:    7865573 HIT:    4882724 MISS:    2982849 MSHR_MERGE:    1085963
cpu0->cpu0_L2C WRITE        ACCESS:    1419929 HIT:    1419858 MISS:         71 MSHR_MERGE:          0
cpu0->cpu0_L2C TRANSLATION  ACCESS:     406132 HIT:     211600 MISS:     194532 MSHR_MERGE:          0
cpu0->cpu0_L2C PREFETCH REQUESTED:    6757917 ISSUED:    6482591 USEFUL:     844720 USELESS:     666572
cpu0->cpu0_L2C AVERAGE MISS LATENCY: 256.5 cycles
cpu0->cpu0_L1I TOTAL        ACCESS:   14934946 HIT:   13471306 MISS:    1463640 MSHR_MERGE:     378677
cpu0->cpu0_L1I LOAD         ACCESS:   14934946 HIT:   13471306 MISS:    1463640 MSHR_MERGE:     378677
cpu0->cpu0_L1I RFO          ACCESS:          0 HIT:          0 MISS:          0 MSHR_MERGE:          0
cpu0->cpu0_L1I PREFETCH     ACCESS:          0 HIT:          0 MISS:          0 MSHR_MERGE:          0
cpu0->cpu0_L1I WRITE        ACCESS:          0 HIT:          0 MISS:          0 MSHR_MERGE:          0
cpu0->cpu0_L1I TRANSLATION  ACCESS:          0 HIT:          0 MISS:          0 MSHR_MERGE:          0
cpu0->cpu0_L1I PREFETCH REQUESTED:          0 ISSUED:          0 USEFUL:          0 USELESS:          0
cpu0->cpu0_L1I AVERAGE MISS LATENCY: 63.41 cycles
cpu0->cpu0_L1D TOTAL        ACCESS:   60907003 HIT:   54199568 MISS:    6707435 MSHR_MERGE:    3105686
cpu0->cpu0_L1D LOAD         ACCESS:   32112645 HIT:   30464594 MISS:    1648051 MSHR_MERGE:     572530
cpu0->cpu0_L1D RFO          ACCESS:          0 HIT:          0 MISS:          0 MSHR_MERGE:          0
cpu0->cpu0_L1D PREFETCH     ACCESS:    3010347 HIT:    1435454 MISS:    1574893 MSHR_MERGE:     191911
cpu0->cpu0_L1D WRITE        ACCESS:   24788872 HIT:   21716138 MISS:    3072734 MSHR_MERGE:    2335620
cpu0->cpu0_L1D TRANSLATION  ACCESS:     995139 HIT:     583382 MISS:     411757 MSHR_MERGE:       5625
cpu0->cpu0_L1D PREFETCH REQUESTED:    3936311 ISSUED:    3010343 USEFUL:     858519 USELESS:     524349
cpu0->cpu0_L1D AVERAGE MISS LATENCY: 131.4 cycles
cpu0->cpu0_ITLB TOTAL        ACCESS:   11967462 HIT:   11848132 MISS:     119330 MSHR_MERGE:      56332
cpu0->cpu0_ITLB LOAD         ACCESS:   11967462 HIT:   11848132 MISS:     119330 MSHR_MERGE:      56332
cpu0->cpu0_ITLB RFO          ACCESS:          0 HIT:          0 MISS:          0 MSHR_MERGE:          0
cpu0->cpu0_ITLB PREFETCH     ACCESS:          0 HIT:          0 MISS:          0 MSHR_MERGE:          0
cpu0->cpu0_ITLB WRITE        ACCESS:          0 HIT:          0 MISS:          0 MSHR_MERGE:          0
cpu0->cpu0_ITLB TRANSLATION  ACCESS:          0 HIT:          0 MISS:          0 MSHR_MERGE:          0
cpu0->cpu0_ITLB PREFETCH REQUESTED:          0 ISSUED:          0 USEFUL:          0 USELESS:          0
cpu0->cpu0_ITLB AVERAGE MISS LATENCY: 50.48 cycles
cpu0->cpu0_DTLB TOTAL        ACCESS:   56055745 HIT:   54353247 MISS:    1702498 MSHR_MERGE:     707391
cpu0->cpu0_DTLB LOAD         ACCESS:   56055745 HIT:   54353247 MISS:    1702498 MSHR_MERGE:     707391
cpu0->cpu0_DTLB RFO          ACCESS:          0 HIT:          0 MISS:          0 MSHR_MERGE:          0
cpu0->cpu0_DTLB PREFETCH     ACCESS:          0 HIT:          0 MISS:          0 MSHR_MERGE:          0
cpu0->cpu0_DTLB WRITE        ACCESS:          0 HIT:          0 MISS:          0 MSHR_MERGE:          0
cpu0->cpu0_DTLB TRANSLATION  ACCESS:          0 HIT:          0 MISS:          0 MSHR_MERGE:          0
cpu0->cpu0_DTLB PREFETCH REQUESTED:          0 ISSUED:          0 USEFUL:          0 USELESS:          0
cpu0->cpu0_DTLB AVERAGE MISS LATENCY: 95.04 cycles
cpu0->LLC TOTAL        ACCESS:    4361927 HIT:     309526 MISS:    4052401 MSHR_MERGE:          0
cpu0->LLC LOAD         ACCESS:     635987 HIT:      71807 MISS:     564180 MSHR_MERGE:          0
cpu0->LLC RFO          ACCESS:     428050 HIT:       9198 MISS:     418852 MSHR_MERGE:          0
cpu0->LLC PREFETCH     ACCESS:    1896886 HIT:      58857 MISS:    1838029 MSHR_MERGE:          0
cpu0->LLC WRITE        ACCESS:    1206472 HIT:     159758 MISS:    1046714 MSHR_MERGE:          0
cpu0->LLC TRANSLATION  ACCESS:     194532 HIT:       9906 MISS:     184626 MSHR_MERGE:          0
cpu0->LLC PREFETCH REQUESTED:          0 ISSUED:          0 USEFUL:          0 USELESS:          0
cpu0->LLC AVERAGE MISS LATENCY: 141.4 cycles

DRAM Statistics

Channel 0 RQ ROW_BUFFER_HIT:      96729
  ROW_BUFFER_MISS:    2908887
  AVG DBUS CONGESTED CYCLE: 19.12
Channel 0 WQ ROW_BUFFER_HIT:     249636
  ROW_BUFFER_MISS:     915331
  FULL:        560
Channel 0 REFRESHES ISSUED:      20996
