[VMEM] WARNING: physical memory size is smaller than virtual memory size.

*** ChampSim Multicore Out-of-Order Simulator ***
Warmup Instructions: 50000000
Simulation Instructions: 200000000
Number of CPUs: 1
Page size: 4096
Core 0: /local-ssd/ben/dpc4-traces/SPEC17/605.mcf_s-1554B.champsimtrace.xz
sBerti (Smart Stride + Berti) Prefetcher Initialized
Off-chip DRAM Size: 64 GiB Channels: 1 Width: 64-bit Data Rate: 4807 MT/s
Heartbeat CPU 0 instructions: 500006 cycles: 261429 heartbeat IPC: 1.913 cumulative IPC: 1.913 (Simulation time: 00 hr 00 min 06 sec)
Heartbeat CPU 0 instructions: 1000012 cycles: 431105 heartbeat IPC: 2.947 cumulative IPC: 2.32 (Simulation time: 00 hr 00 min 10 sec)
Heartbeat CPU 0 instructions: 1500014 cycles: 599902 heartbeat IPC: 2.962 cumulative IPC: 2.5 (Simulation time: 00 hr 00 min 15 sec)
Heartbeat CPU 0 instructions: 2000017 cycles: 738177 heartbeat IPC: 3.616 cumulative IPC: 2.709 (Simulation time: 00 hr 00 min 18 sec)
Heartbeat CPU 0 instructions: 2500019 cycles: 860025 heartbeat IPC: 4.103 cumulative IPC: 2.907 (Simulation time: 00 hr 00 min 22 sec)
Heartbeat CPU 0 instructions: 3000024 cycles: 1008750 heartbeat IPC: 3.362 cumulative IPC: 2.974 (Simulation time: 00 hr 00 min 26 sec)
Heartbeat CPU 0 instructions: 3500024 cycles: 1142223 heartbeat IPC: 3.746 cumulative IPC: 3.064 (Simulation time: 00 hr 00 min 29 sec)
Heartbeat CPU 0 instructions: 4000029 cycles: 1298536 heartbeat IPC: 3.199 cumulative IPC: 3.08 (Simulation time: 00 hr 00 min 33 sec)
Heartbeat CPU 0 instructions: 4500032 cycles: 1454662 heartbeat IPC: 3.203 cumulative IPC: 3.094 (Simulation time: 00 hr 00 min 37 sec)
Heartbeat CPU 0 instructions: 5000035 cycles: 1597146 heartbeat IPC: 3.509 cumulative IPC: 3.131 (Simulation time: 00 hr 00 min 40 sec)
Heartbeat CPU 0 instructions: 5500035 cycles: 1773603 heartbeat IPC: 2.834 cumulative IPC: 3.101 (Simulation time: 00 hr 00 min 45 sec)
Heartbeat CPU 0 instructions: 6000040 cycles: 1953963 heartbeat IPC: 2.772 cumulative IPC: 3.071 (Simulation time: 00 hr 00 min 49 sec)
Heartbeat CPU 0 instructions: 6500041 cycles: 2123068 heartbeat IPC: 2.957 cumulative IPC: 3.062 (Simulation time: 00 hr 00 min 54 sec)
Heartbeat CPU 0 instructions: 7000041 cycles: 2267649 heartbeat IPC: 3.458 cumulative IPC: 3.087 (Simulation time: 00 hr 00 min 58 sec)
Heartbeat CPU 0 instructions: 7500046 cycles: 2435365 heartbeat IPC: 2.981 cumulative IPC: 3.08 (Simulation time: 00 hr 01 min 02 sec)
Heartbeat CPU 0 instructions: 8000049 cycles: 2615853 heartbeat IPC: 2.77 cumulative IPC: 3.058 (Simulation time: 00 hr 01 min 06 sec)
Heartbeat CPU 0 instructions: 8500054 cycles: 2752858 heartbeat IPC: 3.65 cumulative IPC: 3.088 (Simulation time: 00 hr 01 min 10 sec)
Heartbeat CPU 0 instructions: 9000058 cycles: 2914820 heartbeat IPC: 3.087 cumulative IPC: 3.088 (Simulation time: 00 hr 01 min 14 sec)
Heartbeat CPU 0 instructions: 9500064 cycles: 3082809 heartbeat IPC: 2.976 cumulative IPC: 3.082 (Simulation time: 00 hr 01 min 19 sec)
Heartbeat CPU 0 instructions: 10000067 cycles: 3250466 heartbeat IPC: 2.982 cumulative IPC: 3.077 (Simulation time: 00 hr 01 min 23 sec)
Heartbeat CPU 0 instructions: 10500067 cycles: 3433430 heartbeat IPC: 2.733 cumulative IPC: 3.058 (Simulation time: 00 hr 01 min 27 sec)
Heartbeat CPU 0 instructions: 11000073 cycles: 3610252 heartbeat IPC: 2.828 cumulative IPC: 3.047 (Simulation time: 00 hr 01 min 32 sec)
Heartbeat CPU 0 instructions: 11500075 cycles: 3755830 heartbeat IPC: 3.435 cumulative IPC: 3.062 (Simulation time: 00 hr 01 min 36 sec)
Heartbeat CPU 0 instructions: 12000080 cycles: 3907256 heartbeat IPC: 3.302 cumulative IPC: 3.071 (Simulation time: 00 hr 01 min 40 sec)
Heartbeat CPU 0 instructions: 12500081 cycles: 4055697 heartbeat IPC: 3.368 cumulative IPC: 3.082 (Simulation time: 00 hr 01 min 44 sec)
Heartbeat CPU 0 instructions: 13000085 cycles: 4222015 heartbeat IPC: 3.006 cumulative IPC: 3.079 (Simulation time: 00 hr 01 min 48 sec)
Heartbeat CPU 0 instructions: 13500092 cycles: 4402804 heartbeat IPC: 2.766 cumulative IPC: 3.066 (Simulation time: 00 hr 01 min 53 sec)
Heartbeat CPU 0 instructions: 14000099 cycles: 4541994 heartbeat IPC: 3.592 cumulative IPC: 3.082 (Simulation time: 00 hr 01 min 56 sec)
Heartbeat CPU 0 instructions: 14500102 cycles: 4713264 heartbeat IPC: 2.919 cumulative IPC: 3.076 (Simulation time: 00 hr 02 min 01 sec)
Heartbeat CPU 0 instructions: 15000109 cycles: 4881466 heartbeat IPC: 2.973 cumulative IPC: 3.073 (Simulation time: 00 hr 02 min 05 sec)
Heartbeat CPU 0 instructions: 15500116 cycles: 5049602 heartbeat IPC: 2.974 cumulative IPC: 3.07 (Simulation time: 00 hr 02 min 09 sec)
Heartbeat CPU 0 instructions: 16000117 cycles: 5233470 heartbeat IPC: 2.719 cumulative IPC: 3.057 (Simulation time: 00 hr 02 min 14 sec)
Heartbeat CPU 0 instructions: 16500123 cycles: 5385067 heartbeat IPC: 3.298 cumulative IPC: 3.064 (Simulation time: 00 hr 02 min 18 sec)
Heartbeat CPU 0 instructions: 17000123 cycles: 5523039 heartbeat IPC: 3.624 cumulative IPC: 3.078 (Simulation time: 00 hr 02 min 22 sec)
Heartbeat CPU 0 instructions: 17500124 cycles: 5646084 heartbeat IPC: 4.064 cumulative IPC: 3.1 (Simulation time: 00 hr 02 min 25 sec)
Heartbeat CPU 0 instructions: 18000127 cycles: 5799995 heartbeat IPC: 3.249 cumulative IPC: 3.103 (Simulation time: 00 hr 02 min 29 sec)
Heartbeat CPU 0 instructions: 18500130 cycles: 5956247 heartbeat IPC: 3.2 cumulative IPC: 3.106 (Simulation time: 00 hr 02 min 34 sec)
Heartbeat CPU 0 instructions: 19000134 cycles: 6099539 heartbeat IPC: 3.489 cumulative IPC: 3.115 (Simulation time: 00 hr 02 min 37 sec)
Heartbeat CPU 0 instructions: 19500136 cycles: 6221378 heartbeat IPC: 4.104 cumulative IPC: 3.134 (Simulation time: 00 hr 02 min 41 sec)
Heartbeat CPU 0 instructions: 20000136 cycles: 6343102 heartbeat IPC: 4.108 cumulative IPC: 3.153 (Simulation time: 00 hr 02 min 45 sec)
Heartbeat CPU 0 instructions: 20500143 cycles: 6480649 heartbeat IPC: 3.635 cumulative IPC: 3.163 (Simulation time: 00 hr 02 min 48 sec)
Heartbeat CPU 0 instructions: 21000150 cycles: 6661253 heartbeat IPC: 2.769 cumulative IPC: 3.153 (Simulation time: 00 hr 02 min 53 sec)
Heartbeat CPU 0 instructions: 21500152 cycles: 6804883 heartbeat IPC: 3.481 cumulative IPC: 3.16 (Simulation time: 00 hr 02 min 57 sec)
Heartbeat CPU 0 instructions: 22000154 cycles: 6960900 heartbeat IPC: 3.205 cumulative IPC: 3.161 (Simulation time: 00 hr 03 min 01 sec)
Heartbeat CPU 0 instructions: 22500155 cycles: 7141616 heartbeat IPC: 2.767 cumulative IPC: 3.151 (Simulation time: 00 hr 03 min 06 sec)
Heartbeat CPU 0 instructions: 23000155 cycles: 7325369 heartbeat IPC: 2.721 cumulative IPC: 3.14 (Simulation time: 00 hr 03 min 10 sec)
Heartbeat CPU 0 instructions: 23500156 cycles: 7469922 heartbeat IPC: 3.459 cumulative IPC: 3.146 (Simulation time: 00 hr 03 min 14 sec)
Heartbeat CPU 0 instructions: 24000162 cycles: 7598010 heartbeat IPC: 3.904 cumulative IPC: 3.159 (Simulation time: 00 hr 03 min 18 sec)
Heartbeat CPU 0 instructions: 24500167 cycles: 7759519 heartbeat IPC: 3.096 cumulative IPC: 3.157 (Simulation time: 00 hr 03 min 22 sec)
Heartbeat CPU 0 instructions: 25000169 cycles: 7919599 heartbeat IPC: 3.123 cumulative IPC: 3.157 (Simulation time: 00 hr 03 min 26 sec)
Heartbeat CPU 0 instructions: 25500169 cycles: 8090003 heartbeat IPC: 2.934 cumulative IPC: 3.152 (Simulation time: 00 hr 03 min 31 sec)
Heartbeat CPU 0 instructions: 26000172 cycles: 8270866 heartbeat IPC: 2.765 cumulative IPC: 3.144 (Simulation time: 00 hr 03 min 35 sec)
Heartbeat CPU 0 instructions: 26500172 cycles: 8431873 heartbeat IPC: 3.105 cumulative IPC: 3.143 (Simulation time: 00 hr 03 min 39 sec)
Heartbeat CPU 0 instructions: 27000173 cycles: 8601232 heartbeat IPC: 2.952 cumulative IPC: 3.139 (Simulation time: 00 hr 03 min 44 sec)
Heartbeat CPU 0 instructions: 27500179 cycles: 8774489 heartbeat IPC: 2.886 cumulative IPC: 3.134 (Simulation time: 00 hr 03 min 48 sec)
Heartbeat CPU 0 instructions: 28000184 cycles: 8933353 heartbeat IPC: 3.147 cumulative IPC: 3.134 (Simulation time: 00 hr 03 min 52 sec)
Heartbeat CPU 0 instructions: 28500185 cycles: 9055226 heartbeat IPC: 4.103 cumulative IPC: 3.147 (Simulation time: 00 hr 03 min 56 sec)
Heartbeat CPU 0 instructions: 29000190 cycles: 9212385 heartbeat IPC: 3.182 cumulative IPC: 3.148 (Simulation time: 00 hr 04 min 00 sec)
Heartbeat CPU 0 instructions: 29500193 cycles: 9380967 heartbeat IPC: 2.966 cumulative IPC: 3.145 (Simulation time: 00 hr 04 min 04 sec)
Heartbeat CPU 0 instructions: 30000197 cycles: 9502890 heartbeat IPC: 4.101 cumulative IPC: 3.157 (Simulation time: 00 hr 04 min 08 sec)
Heartbeat CPU 0 instructions: 30500197 cycles: 9624826 heartbeat IPC: 4.101 cumulative IPC: 3.169 (Simulation time: 00 hr 04 min 11 sec)
Heartbeat CPU 0 instructions: 31000204 cycles: 9763029 heartbeat IPC: 3.618 cumulative IPC: 3.175 (Simulation time: 00 hr 04 min 15 sec)
Heartbeat CPU 0 instructions: 31500204 cycles: 9931499 heartbeat IPC: 2.968 cumulative IPC: 3.172 (Simulation time: 00 hr 04 min 19 sec)
Heartbeat CPU 0 instructions: 32000208 cycles: 10111634 heartbeat IPC: 2.776 cumulative IPC: 3.165 (Simulation time: 00 hr 04 min 24 sec)
Heartbeat CPU 0 instructions: 32500209 cycles: 10279719 heartbeat IPC: 2.975 cumulative IPC: 3.162 (Simulation time: 00 hr 04 min 28 sec)
Heartbeat CPU 0 instructions: 33000214 cycles: 10425221 heartbeat IPC: 3.436 cumulative IPC: 3.165 (Simulation time: 00 hr 04 min 32 sec)
Heartbeat CPU 0 instructions: 33500218 cycles: 10554967 heartbeat IPC: 3.854 cumulative IPC: 3.174 (Simulation time: 00 hr 04 min 36 sec)
Heartbeat CPU 0 instructions: 34000220 cycles: 10733506 heartbeat IPC: 2.801 cumulative IPC: 3.168 (Simulation time: 00 hr 04 min 40 sec)
Heartbeat CPU 0 instructions: 34500226 cycles: 10914466 heartbeat IPC: 2.763 cumulative IPC: 3.161 (Simulation time: 00 hr 04 min 45 sec)
Heartbeat CPU 0 instructions: 35000231 cycles: 11082383 heartbeat IPC: 2.978 cumulative IPC: 3.158 (Simulation time: 00 hr 04 min 49 sec)
Heartbeat CPU 0 instructions: 35500234 cycles: 11244555 heartbeat IPC: 3.083 cumulative IPC: 3.157 (Simulation time: 00 hr 04 min 54 sec)
Heartbeat CPU 0 instructions: 36000235 cycles: 11376794 heartbeat IPC: 3.781 cumulative IPC: 3.164 (Simulation time: 00 hr 04 min 57 sec)
Heartbeat CPU 0 instructions: 36500238 cycles: 11498484 heartbeat IPC: 4.109 cumulative IPC: 3.174 (Simulation time: 00 hr 05 min 01 sec)
Heartbeat CPU 0 instructions: 37000242 cycles: 11638626 heartbeat IPC: 3.568 cumulative IPC: 3.179 (Simulation time: 00 hr 05 min 05 sec)
Heartbeat CPU 0 instructions: 37500242 cycles: 11791896 heartbeat IPC: 3.262 cumulative IPC: 3.18 (Simulation time: 00 hr 05 min 09 sec)
Heartbeat CPU 0 instructions: 38000249 cycles: 11923139 heartbeat IPC: 3.81 cumulative IPC: 3.187 (Simulation time: 00 hr 05 min 12 sec)
Heartbeat CPU 0 instructions: 38500253 cycles: 12044987 heartbeat IPC: 4.104 cumulative IPC: 3.196 (Simulation time: 00 hr 05 min 16 sec)
Heartbeat CPU 0 instructions: 39000255 cycles: 12183038 heartbeat IPC: 3.622 cumulative IPC: 3.201 (Simulation time: 00 hr 05 min 20 sec)
Heartbeat CPU 0 instructions: 39500258 cycles: 12352046 heartbeat IPC: 2.958 cumulative IPC: 3.198 (Simulation time: 00 hr 05 min 24 sec)
Heartbeat CPU 0 instructions: 40000262 cycles: 12475238 heartbeat IPC: 4.059 cumulative IPC: 3.206 (Simulation time: 00 hr 05 min 27 sec)
Heartbeat CPU 0 instructions: 40500269 cycles: 12596925 heartbeat IPC: 4.109 cumulative IPC: 3.215 (Simulation time: 00 hr 05 min 31 sec)
Heartbeat CPU 0 instructions: 41000276 cycles: 12762336 heartbeat IPC: 3.023 cumulative IPC: 3.213 (Simulation time: 00 hr 05 min 35 sec)
Heartbeat CPU 0 instructions: 41500276 cycles: 12897612 heartbeat IPC: 3.696 cumulative IPC: 3.218 (Simulation time: 00 hr 05 min 39 sec)
Heartbeat CPU 0 instructions: 42000276 cycles: 13035842 heartbeat IPC: 3.617 cumulative IPC: 3.222 (Simulation time: 00 hr 05 min 43 sec)
Heartbeat CPU 0 instructions: 42500283 cycles: 13158741 heartbeat IPC: 4.068 cumulative IPC: 3.23 (Simulation time: 00 hr 05 min 46 sec)
Heartbeat CPU 0 instructions: 43000286 cycles: 13280595 heartbeat IPC: 4.103 cumulative IPC: 3.238 (Simulation time: 00 hr 05 min 50 sec)
Heartbeat CPU 0 instructions: 43500293 cycles: 13416999 heartbeat IPC: 3.666 cumulative IPC: 3.242 (Simulation time: 00 hr 05 min 54 sec)
Heartbeat CPU 0 instructions: 44000298 cycles: 13600314 heartbeat IPC: 2.728 cumulative IPC: 3.235 (Simulation time: 00 hr 05 min 58 sec)
Heartbeat CPU 0 instructions: 44500304 cycles: 13774987 heartbeat IPC: 2.863 cumulative IPC: 3.231 (Simulation time: 00 hr 06 min 03 sec)
Heartbeat CPU 0 instructions: 45000310 cycles: 13932013 heartbeat IPC: 3.184 cumulative IPC: 3.23 (Simulation time: 00 hr 06 min 07 sec)
Heartbeat CPU 0 instructions: 45500315 cycles: 14112383 heartbeat IPC: 2.772 cumulative IPC: 3.224 (Simulation time: 00 hr 06 min 11 sec)
Heartbeat CPU 0 instructions: 46000321 cycles: 14267479 heartbeat IPC: 3.224 cumulative IPC: 3.224 (Simulation time: 00 hr 06 min 16 sec)
Heartbeat CPU 0 instructions: 46500328 cycles: 14436706 heartbeat IPC: 2.955 cumulative IPC: 3.221 (Simulation time: 00 hr 06 min 20 sec)
Heartbeat CPU 0 instructions: 47000335 cycles: 14618508 heartbeat IPC: 2.75 cumulative IPC: 3.215 (Simulation time: 00 hr 06 min 25 sec)
Heartbeat CPU 0 instructions: 47500342 cycles: 14784920 heartbeat IPC: 3.005 cumulative IPC: 3.213 (Simulation time: 00 hr 06 min 29 sec)
Heartbeat CPU 0 instructions: 48000343 cycles: 14952736 heartbeat IPC: 2.979 cumulative IPC: 3.21 (Simulation time: 00 hr 06 min 33 sec)
Heartbeat CPU 0 instructions: 48500350 cycles: 15085513 heartbeat IPC: 3.766 cumulative IPC: 3.215 (Simulation time: 00 hr 06 min 37 sec)
Heartbeat CPU 0 instructions: 49000356 cycles: 15222726 heartbeat IPC: 3.644 cumulative IPC: 3.219 (Simulation time: 00 hr 06 min 41 sec)
Heartbeat CPU 0 instructions: 49500358 cycles: 15384978 heartbeat IPC: 3.082 cumulative IPC: 3.217 (Simulation time: 00 hr 06 min 45 sec)
Warmup halting CPU 0 at instruction 50000001 cycle 15534520 for remainder of phase
Warmup finished CPU 0 instructions: 50000001 cycles: 15534520 cumulative IPC: 3.219 (Simulation time: 00 hr 06 min 49 sec)
Warmup complete CPU 0 instructions: 50000001 cycles: 15534520 cumulative IPC: 3.219 (Simulation time: 00 hr 06 min 49 sec)
Heartbeat CPU 0 instructions: 50000361 cycles: 15535277 heartbeat IPC: 3.327 cumulative IPC: 0.4756 (Simulation time: 00 hr 06 min 49 sec)
Heartbeat CPU 0 instructions: 50500362 cycles: 16216225 heartbeat IPC: 0.7343 cumulative IPC: 0.734 (Simulation time: 00 hr 06 min 59 sec)
Heartbeat CPU 0 instructions: 51000365 cycles: 16807124 heartbeat IPC: 0.8462 cumulative IPC: 0.7861 (Simulation time: 00 hr 07 min 08 sec)
Heartbeat CPU 0 instructions: 51500368 cycles: 17416455 heartbeat IPC: 0.8206 cumulative IPC: 0.7972 (Simulation time: 00 hr 07 min 17 sec)
Heartbeat CPU 0 instructions: 52000368 cycles: 18112298 heartbeat IPC: 0.7186 cumulative IPC: 0.776 (Simulation time: 00 hr 07 min 26 sec)
Heartbeat CPU 0 instructions: 52500369 cycles: 18739813 heartbeat IPC: 0.7968 cumulative IPC: 0.7801 (Simulation time: 00 hr 07 min 35 sec)
Heartbeat CPU 0 instructions: 53000372 cycles: 19389708 heartbeat IPC: 0.7694 cumulative IPC: 0.7783 (Simulation time: 00 hr 07 min 44 sec)
Heartbeat CPU 0 instructions: 53500375 cycles: 20200891 heartbeat IPC: 0.6164 cumulative IPC: 0.7501 (Simulation time: 00 hr 07 min 54 sec)
Heartbeat CPU 0 instructions: 54000375 cycles: 21018510 heartbeat IPC: 0.6115 cumulative IPC: 0.7295 (Simulation time: 00 hr 08 min 03 sec)
Heartbeat CPU 0 instructions: 54500377 cycles: 21652902 heartbeat IPC: 0.7882 cumulative IPC: 0.7356 (Simulation time: 00 hr 08 min 13 sec)
Heartbeat CPU 0 instructions: 55000379 cycles: 22491928 heartbeat IPC: 0.5959 cumulative IPC: 0.7187 (Simulation time: 00 hr 08 min 22 sec)
Heartbeat CPU 0 instructions: 55500379 cycles: 23133539 heartbeat IPC: 0.7793 cumulative IPC: 0.7238 (Simulation time: 00 hr 08 min 32 sec)
Heartbeat CPU 0 instructions: 56000380 cycles: 23842867 heartbeat IPC: 0.7049 cumulative IPC: 0.7222 (Simulation time: 00 hr 08 min 41 sec)
Heartbeat CPU 0 instructions: 56500380 cycles: 24477484 heartbeat IPC: 0.7879 cumulative IPC: 0.7269 (Simulation time: 00 hr 08 min 50 sec)
Heartbeat CPU 0 instructions: 57000382 cycles: 25186447 heartbeat IPC: 0.7053 cumulative IPC: 0.7253 (Simulation time: 00 hr 08 min 59 sec)
Heartbeat CPU 0 instructions: 57500382 cycles: 25847922 heartbeat IPC: 0.7559 cumulative IPC: 0.7272 (Simulation time: 00 hr 09 min 09 sec)
Heartbeat CPU 0 instructions: 58000387 cycles: 26588350 heartbeat IPC: 0.6753 cumulative IPC: 0.7238 (Simulation time: 00 hr 09 min 18 sec)
Heartbeat CPU 0 instructions: 58500388 cycles: 27407142 heartbeat IPC: 0.6107 cumulative IPC: 0.716 (Simulation time: 00 hr 09 min 28 sec)
Heartbeat CPU 0 instructions: 59000394 cycles: 28164686 heartbeat IPC: 0.66 cumulative IPC: 0.7126 (Simulation time: 00 hr 09 min 38 sec)
Heartbeat CPU 0 instructions: 59500395 cycles: 29003326 heartbeat IPC: 0.5962 cumulative IPC: 0.7054 (Simulation time: 00 hr 09 min 48 sec)
Heartbeat CPU 0 instructions: 60000396 cycles: 29699146 heartbeat IPC: 0.7186 cumulative IPC: 0.706 (Simulation time: 00 hr 09 min 58 sec)
Heartbeat CPU 0 instructions: 60500398 cycles: 30300823 heartbeat IPC: 0.831 cumulative IPC: 0.7111 (Simulation time: 00 hr 10 min 07 sec)
Heartbeat CPU 0 instructions: 61000398 cycles: 31014845 heartbeat IPC: 0.7003 cumulative IPC: 0.7106 (Simulation time: 00 hr 10 min 16 sec)
Heartbeat CPU 0 instructions: 61500402 cycles: 31785249 heartbeat IPC: 0.649 cumulative IPC: 0.7077 (Simulation time: 00 hr 10 min 26 sec)
Heartbeat CPU 0 instructions: 62000405 cycles: 32584245 heartbeat IPC: 0.6258 cumulative IPC: 0.7038 (Simulation time: 00 hr 10 min 35 sec)
Heartbeat CPU 0 instructions: 62500406 cycles: 33332461 heartbeat IPC: 0.6683 cumulative IPC: 0.7024 (Simulation time: 00 hr 10 min 45 sec)
Heartbeat CPU 0 instructions: 63000408 cycles: 34072372 heartbeat IPC: 0.6758 cumulative IPC: 0.7013 (Simulation time: 00 hr 10 min 55 sec)
Heartbeat CPU 0 instructions: 63500412 cycles: 34770668 heartbeat IPC: 0.716 cumulative IPC: 0.7018 (Simulation time: 00 hr 11 min 04 sec)
Heartbeat CPU 0 instructions: 64000413 cycles: 35366179 heartbeat IPC: 0.8396 cumulative IPC: 0.706 (Simulation time: 00 hr 11 min 13 sec)
Heartbeat CPU 0 instructions: 64500417 cycles: 35957534 heartbeat IPC: 0.8455 cumulative IPC: 0.71 (Simulation time: 00 hr 11 min 22 sec)
Heartbeat CPU 0 instructions: 65000420 cycles: 36701586 heartbeat IPC: 0.672 cumulative IPC: 0.7087 (Simulation time: 00 hr 11 min 31 sec)
Heartbeat CPU 0 instructions: 65500425 cycles: 37448048 heartbeat IPC: 0.6698 cumulative IPC: 0.7073 (Simulation time: 00 hr 11 min 41 sec)
Heartbeat CPU 0 instructions: 66000430 cycles: 38209250 heartbeat IPC: 0.6569 cumulative IPC: 0.7057 (Simulation time: 00 hr 11 min 50 sec)
Heartbeat CPU 0 instructions: 66500430 cycles: 38846672 heartbeat IPC: 0.7844 cumulative IPC: 0.7078 (Simulation time: 00 hr 11 min 59 sec)
Heartbeat CPU 0 instructions: 67000435 cycles: 39581956 heartbeat IPC: 0.68 cumulative IPC: 0.707 (Simulation time: 00 hr 12 min 09 sec)
Heartbeat CPU 0 instructions: 67500435 cycles: 40298601 heartbeat IPC: 0.6977 cumulative IPC: 0.7067 (Simulation time: 00 hr 12 min 18 sec)
Heartbeat CPU 0 instructions: 68000437 cycles: 40954279 heartbeat IPC: 0.7626 cumulative IPC: 0.7081 (Simulation time: 00 hr 12 min 28 sec)
Heartbeat CPU 0 instructions: 68500442 cycles: 41693670 heartbeat IPC: 0.6762 cumulative IPC: 0.7072 (Simulation time: 00 hr 12 min 37 sec)
Heartbeat CPU 0 instructions: 69000444 cycles: 42408772 heartbeat IPC: 0.6992 cumulative IPC: 0.707 (Simulation time: 00 hr 12 min 47 sec)
Heartbeat CPU 0 instructions: 69500446 cycles: 43279910 heartbeat IPC: 0.574 cumulative IPC: 0.7028 (Simulation time: 00 hr 12 min 57 sec)
Heartbeat CPU 0 instructions: 70000447 cycles: 44071799 heartbeat IPC: 0.6314 cumulative IPC: 0.7009 (Simulation time: 00 hr 13 min 07 sec)
Heartbeat CPU 0 instructions: 70500449 cycles: 44828895 heartbeat IPC: 0.6604 cumulative IPC: 0.6998 (Simulation time: 00 hr 13 min 17 sec)
Heartbeat CPU 0 instructions: 71000451 cycles: 45630462 heartbeat IPC: 0.6238 cumulative IPC: 0.6978 (Simulation time: 00 hr 13 min 26 sec)
Heartbeat CPU 0 instructions: 71500454 cycles: 46357620 heartbeat IPC: 0.6876 cumulative IPC: 0.6975 (Simulation time: 00 hr 13 min 36 sec)
Heartbeat CPU 0 instructions: 72000454 cycles: 47108387 heartbeat IPC: 0.666 cumulative IPC: 0.6968 (Simulation time: 00 hr 13 min 46 sec)
Heartbeat CPU 0 instructions: 72500455 cycles: 47948940 heartbeat IPC: 0.5948 cumulative IPC: 0.6941 (Simulation time: 00 hr 13 min 56 sec)
Heartbeat CPU 0 instructions: 73000455 cycles: 48701550 heartbeat IPC: 0.6644 cumulative IPC: 0.6935 (Simulation time: 00 hr 14 min 05 sec)
Heartbeat CPU 0 instructions: 73500460 cycles: 49351453 heartbeat IPC: 0.7694 cumulative IPC: 0.6949 (Simulation time: 00 hr 14 min 15 sec)
Heartbeat CPU 0 instructions: 74000461 cycles: 49990461 heartbeat IPC: 0.7825 cumulative IPC: 0.6966 (Simulation time: 00 hr 14 min 24 sec)
Heartbeat CPU 0 instructions: 74500464 cycles: 50818406 heartbeat IPC: 0.6039 cumulative IPC: 0.6944 (Simulation time: 00 hr 14 min 34 sec)
Heartbeat CPU 0 instructions: 75000464 cycles: 51692432 heartbeat IPC: 0.5721 cumulative IPC: 0.6914 (Simulation time: 00 hr 14 min 44 sec)
Heartbeat CPU 0 instructions: 75500464 cycles: 52453740 heartbeat IPC: 0.6568 cumulative IPC: 0.6907 (Simulation time: 00 hr 14 min 54 sec)
Heartbeat CPU 0 instructions: 76000464 cycles: 53307460 heartbeat IPC: 0.5857 cumulative IPC: 0.6883 (Simulation time: 00 hr 15 min 04 sec)
Heartbeat CPU 0 instructions: 76500467 cycles: 54058172 heartbeat IPC: 0.666 cumulative IPC: 0.6879 (Simulation time: 00 hr 15 min 14 sec)
Heartbeat CPU 0 instructions: 77000468 cycles: 54801853 heartbeat IPC: 0.6723 cumulative IPC: 0.6876 (Simulation time: 00 hr 15 min 24 sec)
Heartbeat CPU 0 instructions: 77500469 cycles: 55559857 heartbeat IPC: 0.6596 cumulative IPC: 0.6871 (Simulation time: 00 hr 15 min 34 sec)
Heartbeat CPU 0 instructions: 78000469 cycles: 56227622 heartbeat IPC: 0.7488 cumulative IPC: 0.6881 (Simulation time: 00 hr 15 min 43 sec)
Heartbeat CPU 0 instructions: 78500471 cycles: 56831530 heartbeat IPC: 0.8279 cumulative IPC: 0.6901 (Simulation time: 00 hr 15 min 52 sec)
Heartbeat CPU 0 instructions: 79000474 cycles: 57438898 heartbeat IPC: 0.8232 cumulative IPC: 0.6921 (Simulation time: 00 hr 16 min 01 sec)
Heartbeat CPU 0 instructions: 79500476 cycles: 58037089 heartbeat IPC: 0.8359 cumulative IPC: 0.6941 (Simulation time: 00 hr 16 min 10 sec)
Heartbeat CPU 0 instructions: 80000483 cycles: 58873970 heartbeat IPC: 0.5975 cumulative IPC: 0.6922 (Simulation time: 00 hr 16 min 20 sec)
Heartbeat CPU 0 instructions: 80500488 cycles: 59578847 heartbeat IPC: 0.7094 cumulative IPC: 0.6925 (Simulation time: 00 hr 16 min 30 sec)
Heartbeat CPU 0 instructions: 81000490 cycles: 60183818 heartbeat IPC: 0.8265 cumulative IPC: 0.6943 (Simulation time: 00 hr 16 min 39 sec)
Heartbeat CPU 0 instructions: 81500491 cycles: 61011333 heartbeat IPC: 0.6042 cumulative IPC: 0.6927 (Simulation time: 00 hr 16 min 49 sec)
Heartbeat CPU 0 instructions: 82000496 cycles: 61778391 heartbeat IPC: 0.6518 cumulative IPC: 0.692 (Simulation time: 00 hr 16 min 58 sec)
Heartbeat CPU 0 instructions: 82500502 cycles: 62530682 heartbeat IPC: 0.6646 cumulative IPC: 0.6916 (Simulation time: 00 hr 17 min 08 sec)
Heartbeat CPU 0 instructions: 83000503 cycles: 63259104 heartbeat IPC: 0.6864 cumulative IPC: 0.6915 (Simulation time: 00 hr 17 min 18 sec)
Heartbeat CPU 0 instructions: 83500504 cycles: 64025615 heartbeat IPC: 0.6523 cumulative IPC: 0.6909 (Simulation time: 00 hr 17 min 28 sec)
Heartbeat CPU 0 instructions: 84000505 cycles: 64647964 heartbeat IPC: 0.8034 cumulative IPC: 0.6923 (Simulation time: 00 hr 17 min 37 sec)
Heartbeat CPU 0 instructions: 84500508 cycles: 65335956 heartbeat IPC: 0.7268 cumulative IPC: 0.6928 (Simulation time: 00 hr 17 min 47 sec)
Heartbeat CPU 0 instructions: 85000511 cycles: 66029902 heartbeat IPC: 0.7205 cumulative IPC: 0.6931 (Simulation time: 00 hr 17 min 56 sec)
Heartbeat CPU 0 instructions: 85500514 cycles: 66640080 heartbeat IPC: 0.8194 cumulative IPC: 0.6947 (Simulation time: 00 hr 18 min 05 sec)
Heartbeat CPU 0 instructions: 86000516 cycles: 67411228 heartbeat IPC: 0.6484 cumulative IPC: 0.694 (Simulation time: 00 hr 18 min 15 sec)
Heartbeat CPU 0 instructions: 86500518 cycles: 68178310 heartbeat IPC: 0.6518 cumulative IPC: 0.6933 (Simulation time: 00 hr 18 min 25 sec)
Heartbeat CPU 0 instructions: 87000519 cycles: 68899450 heartbeat IPC: 0.6933 cumulative IPC: 0.6933 (Simulation time: 00 hr 18 min 34 sec)
Heartbeat CPU 0 instructions: 87500521 cycles: 69725976 heartbeat IPC: 0.6049 cumulative IPC: 0.692 (Simulation time: 00 hr 18 min 45 sec)
Heartbeat CPU 0 instructions: 88000527 cycles: 70590312 heartbeat IPC: 0.5785 cumulative IPC: 0.6902 (Simulation time: 00 hr 18 min 55 sec)
Heartbeat CPU 0 instructions: 88500528 cycles: 71290787 heartbeat IPC: 0.7138 cumulative IPC: 0.6905 (Simulation time: 00 hr 19 min 05 sec)
Heartbeat CPU 0 instructions: 89000530 cycles: 72006931 heartbeat IPC: 0.6982 cumulative IPC: 0.6906 (Simulation time: 00 hr 19 min 14 sec)
Heartbeat CPU 0 instructions: 89500533 cycles: 72680010 heartbeat IPC: 0.7429 cumulative IPC: 0.6912 (Simulation time: 00 hr 19 min 24 sec)
Heartbeat CPU 0 instructions: 90000538 cycles: 73462611 heartbeat IPC: 0.6389 cumulative IPC: 0.6905 (Simulation time: 00 hr 19 min 34 sec)
Heartbeat CPU 0 instructions: 90500540 cycles: 74181285 heartbeat IPC: 0.6957 cumulative IPC: 0.6906 (Simulation time: 00 hr 19 min 43 sec)
Heartbeat CPU 0 instructions: 91000540 cycles: 74956121 heartbeat IPC: 0.6453 cumulative IPC: 0.69 (Simulation time: 00 hr 19 min 52 sec)
Heartbeat CPU 0 instructions: 91500547 cycles: 75661176 heartbeat IPC: 0.7092 cumulative IPC: 0.6902 (Simulation time: 00 hr 20 min 03 sec)
Heartbeat CPU 0 instructions: 92000548 cycles: 76321627 heartbeat IPC: 0.7571 cumulative IPC: 0.6909 (Simulation time: 00 hr 20 min 12 sec)
Heartbeat CPU 0 instructions: 92500549 cycles: 77149862 heartbeat IPC: 0.6037 cumulative IPC: 0.6898 (Simulation time: 00 hr 20 min 22 sec)
Heartbeat CPU 0 instructions: 93000549 cycles: 77928744 heartbeat IPC: 0.6419 cumulative IPC: 0.6892 (Simulation time: 00 hr 20 min 32 sec)
Heartbeat CPU 0 instructions: 93500551 cycles: 78596196 heartbeat IPC: 0.7491 cumulative IPC: 0.6898 (Simulation time: 00 hr 20 min 41 sec)
Heartbeat CPU 0 instructions: 94000553 cycles: 79228416 heartbeat IPC: 0.7909 cumulative IPC: 0.6908 (Simulation time: 00 hr 20 min 51 sec)
Heartbeat CPU 0 instructions: 94500553 cycles: 79846678 heartbeat IPC: 0.8087 cumulative IPC: 0.6919 (Simulation time: 00 hr 21 min 00 sec)
Heartbeat CPU 0 instructions: 95000556 cycles: 80460976 heartbeat IPC: 0.8139 cumulative IPC: 0.6931 (Simulation time: 00 hr 21 min 09 sec)
Heartbeat CPU 0 instructions: 95500558 cycles: 81233188 heartbeat IPC: 0.6475 cumulative IPC: 0.6926 (Simulation time: 00 hr 21 min 18 sec)
Heartbeat CPU 0 instructions: 96000559 cycles: 82008935 heartbeat IPC: 0.6445 cumulative IPC: 0.692 (Simulation time: 00 hr 21 min 28 sec)
Heartbeat CPU 0 instructions: 96500565 cycles: 82660526 heartbeat IPC: 0.7674 cumulative IPC: 0.6927 (Simulation time: 00 hr 21 min 37 sec)
Heartbeat CPU 0 instructions: 97000567 cycles: 83409732 heartbeat IPC: 0.6674 cumulative IPC: 0.6925 (Simulation time: 00 hr 21 min 47 sec)
Heartbeat CPU 0 instructions: 97500569 cycles: 84049395 heartbeat IPC: 0.7817 cumulative IPC: 0.6933 (Simulation time: 00 hr 21 min 56 sec)
Heartbeat CPU 0 instructions: 98000569 cycles: 84812878 heartbeat IPC: 0.6549 cumulative IPC: 0.6929 (Simulation time: 00 hr 22 min 06 sec)
Heartbeat CPU 0 instructions: 98500575 cycles: 85555890 heartbeat IPC: 0.6729 cumulative IPC: 0.6927 (Simulation time: 00 hr 22 min 16 sec)
Heartbeat CPU 0 instructions: 99000580 cycles: 86361915 heartbeat IPC: 0.6203 cumulative IPC: 0.6918 (Simulation time: 00 hr 22 min 26 sec)
Heartbeat CPU 0 instructions: 99500584 cycles: 87105619 heartbeat IPC: 0.6723 cumulative IPC: 0.6916 (Simulation time: 00 hr 22 min 36 sec)
Heartbeat CPU 0 instructions: 100000585 cycles: 87915895 heartbeat IPC: 0.6171 cumulative IPC: 0.6908 (Simulation time: 00 hr 22 min 46 sec)
Heartbeat CPU 0 instructions: 100500591 cycles: 88586746 heartbeat IPC: 0.7453 cumulative IPC: 0.6913 (Simulation time: 00 hr 22 min 55 sec)
Heartbeat CPU 0 instructions: 101000592 cycles: 89451848 heartbeat IPC: 0.578 cumulative IPC: 0.69 (Simulation time: 00 hr 23 min 05 sec)
Heartbeat CPU 0 instructions: 101500593 cycles: 90156679 heartbeat IPC: 0.7094 cumulative IPC: 0.6902 (Simulation time: 00 hr 23 min 15 sec)
Heartbeat CPU 0 instructions: 102000595 cycles: 91020561 heartbeat IPC: 0.5788 cumulative IPC: 0.6889 (Simulation time: 00 hr 23 min 25 sec)
Heartbeat CPU 0 instructions: 102500595 cycles: 91703876 heartbeat IPC: 0.7317 cumulative IPC: 0.6893 (Simulation time: 00 hr 23 min 36 sec)
Heartbeat CPU 0 instructions: 103000595 cycles: 92363445 heartbeat IPC: 0.7581 cumulative IPC: 0.6899 (Simulation time: 00 hr 23 min 45 sec)
Heartbeat CPU 0 instructions: 103500602 cycles: 93227413 heartbeat IPC: 0.5787 cumulative IPC: 0.6886 (Simulation time: 00 hr 23 min 55 sec)
Heartbeat CPU 0 instructions: 104000605 cycles: 93916808 heartbeat IPC: 0.7253 cumulative IPC: 0.6889 (Simulation time: 00 hr 24 min 05 sec)
Heartbeat CPU 0 instructions: 104500605 cycles: 94553971 heartbeat IPC: 0.7847 cumulative IPC: 0.6897 (Simulation time: 00 hr 24 min 14 sec)
Heartbeat CPU 0 instructions: 105000607 cycles: 95298199 heartbeat IPC: 0.6718 cumulative IPC: 0.6895 (Simulation time: 00 hr 24 min 24 sec)
Heartbeat CPU 0 instructions: 105500610 cycles: 96085595 heartbeat IPC: 0.635 cumulative IPC: 0.689 (Simulation time: 00 hr 24 min 34 sec)
Heartbeat CPU 0 instructions: 106000614 cycles: 96870421 heartbeat IPC: 0.6371 cumulative IPC: 0.6885 (Simulation time: 00 hr 24 min 44 sec)
Heartbeat CPU 0 instructions: 106500616 cycles: 97552374 heartbeat IPC: 0.7332 cumulative IPC: 0.6889 (Simulation time: 00 hr 24 min 54 sec)
Heartbeat CPU 0 instructions: 107000622 cycles: 98340557 heartbeat IPC: 0.6344 cumulative IPC: 0.6884 (Simulation time: 00 hr 25 min 04 sec)
Heartbeat CPU 0 instructions: 107500626 cycles: 98961692 heartbeat IPC: 0.805 cumulative IPC: 0.6892 (Simulation time: 00 hr 25 min 13 sec)
Heartbeat CPU 0 instructions: 108000627 cycles: 99602200 heartbeat IPC: 0.7806 cumulative IPC: 0.6899 (Simulation time: 00 hr 25 min 22 sec)
Heartbeat CPU 0 instructions: 108500632 cycles: 100358362 heartbeat IPC: 0.6612 cumulative IPC: 0.6897 (Simulation time: 00 hr 25 min 32 sec)
Heartbeat CPU 0 instructions: 109000639 cycles: 101144912 heartbeat IPC: 0.6357 cumulative IPC: 0.6892 (Simulation time: 00 hr 25 min 42 sec)
Heartbeat CPU 0 instructions: 109500644 cycles: 101932868 heartbeat IPC: 0.6346 cumulative IPC: 0.6887 (Simulation time: 00 hr 25 min 52 sec)
Heartbeat CPU 0 instructions: 110000645 cycles: 102554536 heartbeat IPC: 0.8043 cumulative IPC: 0.6895 (Simulation time: 00 hr 26 min 01 sec)
Heartbeat CPU 0 instructions: 110500649 cycles: 103178267 heartbeat IPC: 0.8016 cumulative IPC: 0.6903 (Simulation time: 00 hr 26 min 11 sec)
Heartbeat CPU 0 instructions: 111000652 cycles: 103815770 heartbeat IPC: 0.7843 cumulative IPC: 0.691 (Simulation time: 00 hr 26 min 20 sec)
Heartbeat CPU 0 instructions: 111500654 cycles: 104476684 heartbeat IPC: 0.7565 cumulative IPC: 0.6915 (Simulation time: 00 hr 26 min 29 sec)
Heartbeat CPU 0 instructions: 112000658 cycles: 105209716 heartbeat IPC: 0.6821 cumulative IPC: 0.6914 (Simulation time: 00 hr 26 min 39 sec)
Heartbeat CPU 0 instructions: 112500663 cycles: 105977704 heartbeat IPC: 0.6511 cumulative IPC: 0.691 (Simulation time: 00 hr 26 min 48 sec)
Heartbeat CPU 0 instructions: 113000666 cycles: 106756594 heartbeat IPC: 0.6419 cumulative IPC: 0.6906 (Simulation time: 00 hr 26 min 59 sec)
Heartbeat CPU 0 instructions: 113500668 cycles: 107429830 heartbeat IPC: 0.7427 cumulative IPC: 0.691 (Simulation time: 00 hr 27 min 08 sec)
Heartbeat CPU 0 instructions: 114000671 cycles: 108185282 heartbeat IPC: 0.6619 cumulative IPC: 0.6908 (Simulation time: 00 hr 27 min 18 sec)
Heartbeat CPU 0 instructions: 114500672 cycles: 108832822 heartbeat IPC: 0.7722 cumulative IPC: 0.6913 (Simulation time: 00 hr 27 min 27 sec)
Heartbeat CPU 0 instructions: 115000678 cycles: 109454288 heartbeat IPC: 0.8046 cumulative IPC: 0.6921 (Simulation time: 00 hr 27 min 36 sec)
Heartbeat CPU 0 instructions: 115500679 cycles: 110077702 heartbeat IPC: 0.802 cumulative IPC: 0.6928 (Simulation time: 00 hr 27 min 45 sec)
Heartbeat CPU 0 instructions: 116000681 cycles: 110699422 heartbeat IPC: 0.8042 cumulative IPC: 0.6935 (Simulation time: 00 hr 27 min 55 sec)
Heartbeat CPU 0 instructions: 116500683 cycles: 111433279 heartbeat IPC: 0.6813 cumulative IPC: 0.6934 (Simulation time: 00 hr 28 min 04 sec)
Heartbeat CPU 0 instructions: 117000684 cycles: 112242850 heartbeat IPC: 0.6176 cumulative IPC: 0.6928 (Simulation time: 00 hr 28 min 14 sec)
Heartbeat CPU 0 instructions: 117500685 cycles: 112923864 heartbeat IPC: 0.7342 cumulative IPC: 0.6931 (Simulation time: 00 hr 28 min 24 sec)
Heartbeat CPU 0 instructions: 118000685 cycles: 113554342 heartbeat IPC: 0.793 cumulative IPC: 0.6937 (Simulation time: 00 hr 28 min 33 sec)
Heartbeat CPU 0 instructions: 118500687 cycles: 114185565 heartbeat IPC: 0.7921 cumulative IPC: 0.6944 (Simulation time: 00 hr 28 min 42 sec)
Heartbeat CPU 0 instructions: 119000688 cycles: 114814635 heartbeat IPC: 0.7948 cumulative IPC: 0.695 (Simulation time: 00 hr 28 min 51 sec)
Heartbeat CPU 0 instructions: 119500690 cycles: 115551021 heartbeat IPC: 0.679 cumulative IPC: 0.6949 (Simulation time: 00 hr 29 min 01 sec)
Heartbeat CPU 0 instructions: 120000694 cycles: 116399967 heartbeat IPC: 0.589 cumulative IPC: 0.694 (Simulation time: 00 hr 29 min 11 sec)
Heartbeat CPU 0 instructions: 120500701 cycles: 117044700 heartbeat IPC: 0.7755 cumulative IPC: 0.6945 (Simulation time: 00 hr 29 min 21 sec)
Heartbeat CPU 0 instructions: 121000702 cycles: 117885359 heartbeat IPC: 0.5948 cumulative IPC: 0.6937 (Simulation time: 00 hr 29 min 31 sec)
Heartbeat CPU 0 instructions: 121500702 cycles: 118644638 heartbeat IPC: 0.6585 cumulative IPC: 0.6934 (Simulation time: 00 hr 29 min 41 sec)
Heartbeat CPU 0 instructions: 122000706 cycles: 119280604 heartbeat IPC: 0.7862 cumulative IPC: 0.694 (Simulation time: 00 hr 29 min 50 sec)
Heartbeat CPU 0 instructions: 122500711 cycles: 119914332 heartbeat IPC: 0.789 cumulative IPC: 0.6946 (Simulation time: 00 hr 30 min 00 sec)
Heartbeat CPU 0 instructions: 123000712 cycles: 120713568 heartbeat IPC: 0.6256 cumulative IPC: 0.6941 (Simulation time: 00 hr 30 min 10 sec)
Heartbeat CPU 0 instructions: 123500713 cycles: 121357728 heartbeat IPC: 0.7762 cumulative IPC: 0.6946 (Simulation time: 00 hr 30 min 19 sec)
Heartbeat CPU 0 instructions: 124000716 cycles: 122143237 heartbeat IPC: 0.6365 cumulative IPC: 0.6941 (Simulation time: 00 hr 30 min 29 sec)
Heartbeat CPU 0 instructions: 124500718 cycles: 122853327 heartbeat IPC: 0.7041 cumulative IPC: 0.6942 (Simulation time: 00 hr 30 min 38 sec)
Heartbeat CPU 0 instructions: 125000719 cycles: 123559910 heartbeat IPC: 0.7076 cumulative IPC: 0.6943 (Simulation time: 00 hr 30 min 48 sec)
Heartbeat CPU 0 instructions: 125500725 cycles: 124191211 heartbeat IPC: 0.792 cumulative IPC: 0.6949 (Simulation time: 00 hr 30 min 58 sec)
Heartbeat CPU 0 instructions: 126000727 cycles: 124972247 heartbeat IPC: 0.6402 cumulative IPC: 0.6945 (Simulation time: 00 hr 31 min 07 sec)
Heartbeat CPU 0 instructions: 126500727 cycles: 125642270 heartbeat IPC: 0.7462 cumulative IPC: 0.6948 (Simulation time: 00 hr 31 min 16 sec)
Heartbeat CPU 0 instructions: 127000729 cycles: 126499935 heartbeat IPC: 0.583 cumulative IPC: 0.6939 (Simulation time: 00 hr 31 min 26 sec)
Heartbeat CPU 0 instructions: 127500729 cycles: 127230651 heartbeat IPC: 0.6843 cumulative IPC: 0.6939 (Simulation time: 00 hr 31 min 37 sec)
Heartbeat CPU 0 instructions: 128000732 cycles: 128037601 heartbeat IPC: 0.6196 cumulative IPC: 0.6933 (Simulation time: 00 hr 31 min 47 sec)
Heartbeat CPU 0 instructions: 128500734 cycles: 128690438 heartbeat IPC: 0.7659 cumulative IPC: 0.6937 (Simulation time: 00 hr 31 min 56 sec)
Heartbeat CPU 0 instructions: 129000737 cycles: 129433472 heartbeat IPC: 0.6729 cumulative IPC: 0.6936 (Simulation time: 00 hr 32 min 06 sec)
Heartbeat CPU 0 instructions: 129500743 cycles: 130137631 heartbeat IPC: 0.7101 cumulative IPC: 0.6937 (Simulation time: 00 hr 32 min 16 sec)
Heartbeat CPU 0 instructions: 130000743 cycles: 130936851 heartbeat IPC: 0.6256 cumulative IPC: 0.6932 (Simulation time: 00 hr 32 min 26 sec)
Heartbeat CPU 0 instructions: 130500744 cycles: 131580838 heartbeat IPC: 0.7764 cumulative IPC: 0.6937 (Simulation time: 00 hr 32 min 35 sec)
Heartbeat CPU 0 instructions: 131000744 cycles: 132211564 heartbeat IPC: 0.7927 cumulative IPC: 0.6942 (Simulation time: 00 hr 32 min 45 sec)
Heartbeat CPU 0 instructions: 131500749 cycles: 133076209 heartbeat IPC: 0.5783 cumulative IPC: 0.6934 (Simulation time: 00 hr 32 min 55 sec)
Heartbeat CPU 0 instructions: 132000755 cycles: 133813947 heartbeat IPC: 0.6778 cumulative IPC: 0.6933 (Simulation time: 00 hr 33 min 05 sec)
Heartbeat CPU 0 instructions: 132500756 cycles: 134611579 heartbeat IPC: 0.6269 cumulative IPC: 0.6928 (Simulation time: 00 hr 33 min 15 sec)
Heartbeat CPU 0 instructions: 133000759 cycles: 135427796 heartbeat IPC: 0.6126 cumulative IPC: 0.6923 (Simulation time: 00 hr 33 min 25 sec)
Heartbeat CPU 0 instructions: 133500763 cycles: 136330680 heartbeat IPC: 0.5538 cumulative IPC: 0.6913 (Simulation time: 00 hr 33 min 36 sec)
Heartbeat CPU 0 instructions: 134000763 cycles: 137131524 heartbeat IPC: 0.6243 cumulative IPC: 0.6908 (Simulation time: 00 hr 33 min 46 sec)
Heartbeat CPU 0 instructions: 134500768 cycles: 137836645 heartbeat IPC: 0.7091 cumulative IPC: 0.6909 (Simulation time: 00 hr 33 min 56 sec)
Heartbeat CPU 0 instructions: 135000769 cycles: 138581549 heartbeat IPC: 0.6712 cumulative IPC: 0.6908 (Simulation time: 00 hr 34 min 05 sec)
Heartbeat CPU 0 instructions: 135500771 cycles: 139358421 heartbeat IPC: 0.6436 cumulative IPC: 0.6905 (Simulation time: 00 hr 34 min 15 sec)
Heartbeat CPU 0 instructions: 136000771 cycles: 140079606 heartbeat IPC: 0.6933 cumulative IPC: 0.6905 (Simulation time: 00 hr 34 min 26 sec)
Heartbeat CPU 0 instructions: 136500773 cycles: 140723122 heartbeat IPC: 0.777 cumulative IPC: 0.691 (Simulation time: 00 hr 34 min 35 sec)
Heartbeat CPU 0 instructions: 137000773 cycles: 141352479 heartbeat IPC: 0.7945 cumulative IPC: 0.6915 (Simulation time: 00 hr 34 min 44 sec)
Heartbeat CPU 0 instructions: 137500776 cycles: 142152271 heartbeat IPC: 0.6252 cumulative IPC: 0.6911 (Simulation time: 00 hr 34 min 54 sec)
Heartbeat CPU 0 instructions: 138000777 cycles: 142899066 heartbeat IPC: 0.6695 cumulative IPC: 0.6909 (Simulation time: 00 hr 35 min 04 sec)
Heartbeat CPU 0 instructions: 138500780 cycles: 143600703 heartbeat IPC: 0.7126 cumulative IPC: 0.6911 (Simulation time: 00 hr 35 min 14 sec)
Heartbeat CPU 0 instructions: 139000785 cycles: 144232186 heartbeat IPC: 0.7918 cumulative IPC: 0.6915 (Simulation time: 00 hr 35 min 23 sec)
Heartbeat CPU 0 instructions: 139500786 cycles: 144881312 heartbeat IPC: 0.7703 cumulative IPC: 0.6919 (Simulation time: 00 hr 35 min 33 sec)
Heartbeat CPU 0 instructions: 140000788 cycles: 145542805 heartbeat IPC: 0.7559 cumulative IPC: 0.6923 (Simulation time: 00 hr 35 min 42 sec)
Heartbeat CPU 0 instructions: 140500791 cycles: 146320679 heartbeat IPC: 0.6428 cumulative IPC: 0.692 (Simulation time: 00 hr 35 min 52 sec)
Heartbeat CPU 0 instructions: 141000794 cycles: 146969962 heartbeat IPC: 0.7701 cumulative IPC: 0.6924 (Simulation time: 00 hr 36 min 01 sec)
Heartbeat CPU 0 instructions: 141500798 cycles: 147726812 heartbeat IPC: 0.6606 cumulative IPC: 0.6922 (Simulation time: 00 hr 36 min 11 sec)
Heartbeat CPU 0 instructions: 142000800 cycles: 148408740 heartbeat IPC: 0.7332 cumulative IPC: 0.6924 (Simulation time: 00 hr 36 min 21 sec)
Heartbeat CPU 0 instructions: 142500800 cycles: 149152224 heartbeat IPC: 0.6725 cumulative IPC: 0.6923 (Simulation time: 00 hr 36 min 30 sec)
Heartbeat CPU 0 instructions: 143000805 cycles: 149985058 heartbeat IPC: 0.6004 cumulative IPC: 0.6917 (Simulation time: 00 hr 36 min 41 sec)
Heartbeat CPU 0 instructions: 143500807 cycles: 150616369 heartbeat IPC: 0.792 cumulative IPC: 0.6922 (Simulation time: 00 hr 36 min 50 sec)
Heartbeat CPU 0 instructions: 144000809 cycles: 151281005 heartbeat IPC: 0.7523 cumulative IPC: 0.6925 (Simulation time: 00 hr 36 min 59 sec)
Heartbeat CPU 0 instructions: 144500814 cycles: 152165593 heartbeat IPC: 0.5652 cumulative IPC: 0.6916 (Simulation time: 00 hr 37 min 10 sec)
Heartbeat CPU 0 instructions: 145000818 cycles: 153032392 heartbeat IPC: 0.5768 cumulative IPC: 0.6909 (Simulation time: 00 hr 37 min 21 sec)
Heartbeat CPU 0 instructions: 145500824 cycles: 153840563 heartbeat IPC: 0.6187 cumulative IPC: 0.6905 (Simulation time: 00 hr 37 min 31 sec)
Heartbeat CPU 0 instructions: 146000831 cycles: 154488543 heartbeat IPC: 0.7716 cumulative IPC: 0.6909 (Simulation time: 00 hr 37 min 40 sec)
Heartbeat CPU 0 instructions: 146500836 cycles: 155120084 heartbeat IPC: 0.7917 cumulative IPC: 0.6913 (Simulation time: 00 hr 37 min 49 sec)
Heartbeat CPU 0 instructions: 147000839 cycles: 155752108 heartbeat IPC: 0.7911 cumulative IPC: 0.6918 (Simulation time: 00 hr 37 min 59 sec)
Heartbeat CPU 0 instructions: 147500840 cycles: 156540181 heartbeat IPC: 0.6345 cumulative IPC: 0.6915 (Simulation time: 00 hr 38 min 09 sec)
Heartbeat CPU 0 instructions: 148000840 cycles: 157169454 heartbeat IPC: 0.7946 cumulative IPC: 0.6919 (Simulation time: 00 hr 38 min 18 sec)
Heartbeat CPU 0 instructions: 148500840 cycles: 157973725 heartbeat IPC: 0.6217 cumulative IPC: 0.6915 (Simulation time: 00 hr 38 min 28 sec)
Heartbeat CPU 0 instructions: 149000847 cycles: 158685594 heartbeat IPC: 0.7024 cumulative IPC: 0.6916 (Simulation time: 00 hr 38 min 37 sec)
Heartbeat CPU 0 instructions: 149500847 cycles: 159409215 heartbeat IPC: 0.691 cumulative IPC: 0.6916 (Simulation time: 00 hr 38 min 47 sec)
Heartbeat CPU 0 instructions: 150000853 cycles: 160038475 heartbeat IPC: 0.7946 cumulative IPC: 0.692 (Simulation time: 00 hr 38 min 57 sec)
Heartbeat CPU 0 instructions: 150500855 cycles: 160668278 heartbeat IPC: 0.7939 cumulative IPC: 0.6925 (Simulation time: 00 hr 39 min 06 sec)
Heartbeat CPU 0 instructions: 151000856 cycles: 161293446 heartbeat IPC: 0.7998 cumulative IPC: 0.6929 (Simulation time: 00 hr 39 min 15 sec)
Heartbeat CPU 0 instructions: 151500857 cycles: 161946933 heartbeat IPC: 0.7651 cumulative IPC: 0.6933 (Simulation time: 00 hr 39 min 24 sec)
Heartbeat CPU 0 instructions: 152000858 cycles: 162568113 heartbeat IPC: 0.8049 cumulative IPC: 0.6937 (Simulation time: 00 hr 39 min 34 sec)
Heartbeat CPU 0 instructions: 152500861 cycles: 163191488 heartbeat IPC: 0.8021 cumulative IPC: 0.6942 (Simulation time: 00 hr 39 min 43 sec)
Heartbeat CPU 0 instructions: 153000863 cycles: 163819254 heartbeat IPC: 0.7965 cumulative IPC: 0.6946 (Simulation time: 00 hr 39 min 52 sec)
Heartbeat CPU 0 instructions: 153500869 cycles: 164447946 heartbeat IPC: 0.7953 cumulative IPC: 0.695 (Simulation time: 00 hr 40 min 01 sec)
Heartbeat CPU 0 instructions: 154000873 cycles: 165067629 heartbeat IPC: 0.8069 cumulative IPC: 0.6955 (Simulation time: 00 hr 40 min 10 sec)
Heartbeat CPU 0 instructions: 154500874 cycles: 165694667 heartbeat IPC: 0.7974 cumulative IPC: 0.6959 (Simulation time: 00 hr 40 min 19 sec)
Heartbeat CPU 0 instructions: 155000877 cycles: 166343856 heartbeat IPC: 0.7702 cumulative IPC: 0.6962 (Simulation time: 00 hr 40 min 29 sec)
Heartbeat CPU 0 instructions: 155500878 cycles: 166962561 heartbeat IPC: 0.8081 cumulative IPC: 0.6967 (Simulation time: 00 hr 40 min 38 sec)
Heartbeat CPU 0 instructions: 156000883 cycles: 167585361 heartbeat IPC: 0.8028 cumulative IPC: 0.6971 (Simulation time: 00 hr 40 min 47 sec)
Heartbeat CPU 0 instructions: 156500885 cycles: 168284954 heartbeat IPC: 0.7147 cumulative IPC: 0.6972 (Simulation time: 00 hr 40 min 56 sec)
Heartbeat CPU 0 instructions: 157000889 cycles: 169181225 heartbeat IPC: 0.5579 cumulative IPC: 0.6964 (Simulation time: 00 hr 41 min 07 sec)
Heartbeat CPU 0 instructions: 157500889 cycles: 169855819 heartbeat IPC: 0.7412 cumulative IPC: 0.6966 (Simulation time: 00 hr 41 min 17 sec)
Heartbeat CPU 0 instructions: 158000889 cycles: 170738734 heartbeat IPC: 0.5663 cumulative IPC: 0.6959 (Simulation time: 00 hr 41 min 27 sec)
Heartbeat CPU 0 instructions: 158500896 cycles: 171436789 heartbeat IPC: 0.7163 cumulative IPC: 0.696 (Simulation time: 00 hr 41 min 37 sec)
Heartbeat CPU 0 instructions: 159000901 cycles: 172073907 heartbeat IPC: 0.7848 cumulative IPC: 0.6963 (Simulation time: 00 hr 41 min 47 sec)
Heartbeat CPU 0 instructions: 159500902 cycles: 172745940 heartbeat IPC: 0.744 cumulative IPC: 0.6965 (Simulation time: 00 hr 41 min 56 sec)
Heartbeat CPU 0 instructions: 160000909 cycles: 173556323 heartbeat IPC: 0.617 cumulative IPC: 0.6961 (Simulation time: 00 hr 42 min 05 sec)
Heartbeat CPU 0 instructions: 160500910 cycles: 174338742 heartbeat IPC: 0.639 cumulative IPC: 0.6958 (Simulation time: 00 hr 42 min 16 sec)
Heartbeat CPU 0 instructions: 161000911 cycles: 175027017 heartbeat IPC: 0.7265 cumulative IPC: 0.696 (Simulation time: 00 hr 42 min 25 sec)
Heartbeat CPU 0 instructions: 161500911 cycles: 175797404 heartbeat IPC: 0.649 cumulative IPC: 0.6957 (Simulation time: 00 hr 42 min 36 sec)
Heartbeat CPU 0 instructions: 162000912 cycles: 176579208 heartbeat IPC: 0.6395 cumulative IPC: 0.6955 (Simulation time: 00 hr 42 min 46 sec)
Heartbeat CPU 0 instructions: 162500913 cycles: 177283234 heartbeat IPC: 0.7102 cumulative IPC: 0.6955 (Simulation time: 00 hr 42 min 56 sec)
Heartbeat CPU 0 instructions: 163000917 cycles: 178182490 heartbeat IPC: 0.556 cumulative IPC: 0.6948 (Simulation time: 00 hr 43 min 06 sec)
Heartbeat CPU 0 instructions: 163500921 cycles: 178892913 heartbeat IPC: 0.7038 cumulative IPC: 0.6948 (Simulation time: 00 hr 43 min 16 sec)
Heartbeat CPU 0 instructions: 164000924 cycles: 179536633 heartbeat IPC: 0.7767 cumulative IPC: 0.6951 (Simulation time: 00 hr 43 min 26 sec)
Heartbeat CPU 0 instructions: 164500931 cycles: 180361911 heartbeat IPC: 0.6059 cumulative IPC: 0.6947 (Simulation time: 00 hr 43 min 36 sec)
Heartbeat CPU 0 instructions: 165000936 cycles: 181011356 heartbeat IPC: 0.7699 cumulative IPC: 0.695 (Simulation time: 00 hr 43 min 46 sec)
Heartbeat CPU 0 instructions: 165500939 cycles: 181652505 heartbeat IPC: 0.7799 cumulative IPC: 0.6953 (Simulation time: 00 hr 43 min 55 sec)
Heartbeat CPU 0 instructions: 166000940 cycles: 182323506 heartbeat IPC: 0.7452 cumulative IPC: 0.6955 (Simulation time: 00 hr 44 min 04 sec)
Heartbeat CPU 0 instructions: 166500942 cycles: 182962983 heartbeat IPC: 0.7819 cumulative IPC: 0.6958 (Simulation time: 00 hr 44 min 14 sec)
Heartbeat CPU 0 instructions: 167000945 cycles: 183598708 heartbeat IPC: 0.7865 cumulative IPC: 0.6962 (Simulation time: 00 hr 44 min 23 sec)
Heartbeat CPU 0 instructions: 167500947 cycles: 184238478 heartbeat IPC: 0.7815 cumulative IPC: 0.6965 (Simulation time: 00 hr 44 min 32 sec)
Heartbeat CPU 0 instructions: 168000948 cycles: 184879418 heartbeat IPC: 0.7801 cumulative IPC: 0.6968 (Simulation time: 00 hr 44 min 42 sec)
Heartbeat CPU 0 instructions: 168500948 cycles: 185512592 heartbeat IPC: 0.7897 cumulative IPC: 0.6972 (Simulation time: 00 hr 44 min 51 sec)
Heartbeat CPU 0 instructions: 169000952 cycles: 186143527 heartbeat IPC: 0.7925 cumulative IPC: 0.6975 (Simulation time: 00 hr 45 min 00 sec)
Heartbeat CPU 0 instructions: 169500953 cycles: 186807220 heartbeat IPC: 0.7534 cumulative IPC: 0.6977 (Simulation time: 00 hr 45 min 10 sec)
Heartbeat CPU 0 instructions: 170000956 cycles: 187434688 heartbeat IPC: 0.7969 cumulative IPC: 0.6981 (Simulation time: 00 hr 45 min 19 sec)
Heartbeat CPU 0 instructions: 170500959 cycles: 188106782 heartbeat IPC: 0.7439 cumulative IPC: 0.6983 (Simulation time: 00 hr 45 min 28 sec)
Heartbeat CPU 0 instructions: 171000964 cycles: 188878748 heartbeat IPC: 0.6477 cumulative IPC: 0.698 (Simulation time: 00 hr 45 min 38 sec)
Heartbeat CPU 0 instructions: 171500964 cycles: 189510294 heartbeat IPC: 0.7917 cumulative IPC: 0.6984 (Simulation time: 00 hr 45 min 48 sec)
Heartbeat CPU 0 instructions: 172000967 cycles: 190187350 heartbeat IPC: 0.7385 cumulative IPC: 0.6985 (Simulation time: 00 hr 45 min 57 sec)
Heartbeat CPU 0 instructions: 172500970 cycles: 190960667 heartbeat IPC: 0.6466 cumulative IPC: 0.6983 (Simulation time: 00 hr 46 min 07 sec)
Heartbeat CPU 0 instructions: 173000973 cycles: 191600224 heartbeat IPC: 0.7818 cumulative IPC: 0.6986 (Simulation time: 00 hr 46 min 17 sec)
Heartbeat CPU 0 instructions: 173500980 cycles: 192235859 heartbeat IPC: 0.7866 cumulative IPC: 0.6989 (Simulation time: 00 hr 46 min 26 sec)
Heartbeat CPU 0 instructions: 174000985 cycles: 192874879 heartbeat IPC: 0.7825 cumulative IPC: 0.6992 (Simulation time: 00 hr 46 min 35 sec)
Heartbeat CPU 0 instructions: 174500989 cycles: 193590103 heartbeat IPC: 0.6991 cumulative IPC: 0.6992 (Simulation time: 00 hr 46 min 44 sec)
Heartbeat CPU 0 instructions: 175000989 cycles: 194318436 heartbeat IPC: 0.6865 cumulative IPC: 0.6992 (Simulation time: 00 hr 46 min 55 sec)
Heartbeat CPU 0 instructions: 175500991 cycles: 194955088 heartbeat IPC: 0.7854 cumulative IPC: 0.6995 (Simulation time: 00 hr 47 min 04 sec)
Heartbeat CPU 0 instructions: 176000992 cycles: 195587813 heartbeat IPC: 0.7902 cumulative IPC: 0.6998 (Simulation time: 00 hr 47 min 13 sec)
Heartbeat CPU 0 instructions: 176500995 cycles: 196223992 heartbeat IPC: 0.7859 cumulative IPC: 0.7001 (Simulation time: 00 hr 47 min 22 sec)
Heartbeat CPU 0 instructions: 177000996 cycles: 196991591 heartbeat IPC: 0.6514 cumulative IPC: 0.6999 (Simulation time: 00 hr 47 min 32 sec)
Heartbeat CPU 0 instructions: 177500996 cycles: 197868268 heartbeat IPC: 0.5703 cumulative IPC: 0.6993 (Simulation time: 00 hr 47 min 43 sec)
Heartbeat CPU 0 instructions: 178000998 cycles: 198522571 heartbeat IPC: 0.7642 cumulative IPC: 0.6995 (Simulation time: 00 hr 47 min 52 sec)
Heartbeat CPU 0 instructions: 178501004 cycles: 199157904 heartbeat IPC: 0.787 cumulative IPC: 0.6998 (Simulation time: 00 hr 48 min 02 sec)
Heartbeat CPU 0 instructions: 179001006 cycles: 199795093 heartbeat IPC: 0.7847 cumulative IPC: 0.7001 (Simulation time: 00 hr 48 min 11 sec)
Heartbeat CPU 0 instructions: 179501006 cycles: 200616317 heartbeat IPC: 0.6088 cumulative IPC: 0.6997 (Simulation time: 00 hr 48 min 21 sec)
Heartbeat CPU 0 instructions: 180001006 cycles: 201263146 heartbeat IPC: 0.773 cumulative IPC: 0.7 (Simulation time: 00 hr 48 min 31 sec)
Heartbeat CPU 0 instructions: 180501009 cycles: 202123819 heartbeat IPC: 0.5809 cumulative IPC: 0.6994 (Simulation time: 00 hr 48 min 41 sec)
Heartbeat CPU 0 instructions: 181001011 cycles: 202942437 heartbeat IPC: 0.6108 cumulative IPC: 0.699 (Simulation time: 00 hr 48 min 52 sec)
Heartbeat CPU 0 instructions: 181501011 cycles: 203587434 heartbeat IPC: 0.7752 cumulative IPC: 0.6993 (Simulation time: 00 hr 49 min 01 sec)
Heartbeat CPU 0 instructions: 182001018 cycles: 204227167 heartbeat IPC: 0.7816 cumulative IPC: 0.6996 (Simulation time: 00 hr 49 min 10 sec)
Heartbeat CPU 0 instructions: 182501021 cycles: 204867334 heartbeat IPC: 0.7811 cumulative IPC: 0.6998 (Simulation time: 00 hr 49 min 20 sec)
Heartbeat CPU 0 instructions: 183001022 cycles: 205504644 heartbeat IPC: 0.7845 cumulative IPC: 0.7001 (Simulation time: 00 hr 49 min 29 sec)
Heartbeat CPU 0 instructions: 183501024 cycles: 206173150 heartbeat IPC: 0.7479 cumulative IPC: 0.7003 (Simulation time: 00 hr 49 min 37 sec)
Heartbeat CPU 0 instructions: 184001025 cycles: 206969269 heartbeat IPC: 0.628 cumulative IPC: 0.7 (Simulation time: 00 hr 49 min 48 sec)
Heartbeat CPU 0 instructions: 184501025 cycles: 207617362 heartbeat IPC: 0.7715 cumulative IPC: 0.7002 (Simulation time: 00 hr 49 min 58 sec)
Heartbeat CPU 0 instructions: 185001027 cycles: 208260007 heartbeat IPC: 0.778 cumulative IPC: 0.7005 (Simulation time: 00 hr 50 min 07 sec)
Heartbeat CPU 0 instructions: 185501033 cycles: 208908592 heartbeat IPC: 0.7709 cumulative IPC: 0.7007 (Simulation time: 00 hr 50 min 16 sec)
Heartbeat CPU 0 instructions: 186001033 cycles: 209557754 heartbeat IPC: 0.7702 cumulative IPC: 0.701 (Simulation time: 00 hr 50 min 25 sec)
Heartbeat CPU 0 instructions: 186501034 cycles: 210335466 heartbeat IPC: 0.6429 cumulative IPC: 0.7007 (Simulation time: 00 hr 50 min 35 sec)
Heartbeat CPU 0 instructions: 187001034 cycles: 211007692 heartbeat IPC: 0.7438 cumulative IPC: 0.7009 (Simulation time: 00 hr 50 min 44 sec)
Heartbeat CPU 0 instructions: 187501038 cycles: 211650400 heartbeat IPC: 0.778 cumulative IPC: 0.7011 (Simulation time: 00 hr 50 min 53 sec)
Heartbeat CPU 0 instructions: 188001040 cycles: 212293202 heartbeat IPC: 0.7778 cumulative IPC: 0.7014 (Simulation time: 00 hr 51 min 03 sec)
Heartbeat CPU 0 instructions: 188501043 cycles: 212936272 heartbeat IPC: 0.7775 cumulative IPC: 0.7016 (Simulation time: 00 hr 51 min 12 sec)
Heartbeat CPU 0 instructions: 189001050 cycles: 213576349 heartbeat IPC: 0.7812 cumulative IPC: 0.7019 (Simulation time: 00 hr 51 min 21 sec)
Heartbeat CPU 0 instructions: 189501053 cycles: 214215798 heartbeat IPC: 0.7819 cumulative IPC: 0.7021 (Simulation time: 00 hr 51 min 30 sec)
Heartbeat CPU 0 instructions: 190001055 cycles: 214853835 heartbeat IPC: 0.7837 cumulative IPC: 0.7024 (Simulation time: 00 hr 51 min 39 sec)
Heartbeat CPU 0 instructions: 190501056 cycles: 215493611 heartbeat IPC: 0.7815 cumulative IPC: 0.7026 (Simulation time: 00 hr 51 min 48 sec)
Heartbeat CPU 0 instructions: 191001061 cycles: 216247330 heartbeat IPC: 0.6634 cumulative IPC: 0.7025 (Simulation time: 00 hr 51 min 58 sec)
Heartbeat CPU 0 instructions: 191501065 cycles: 216942329 heartbeat IPC: 0.7194 cumulative IPC: 0.7026 (Simulation time: 00 hr 52 min 07 sec)
Heartbeat CPU 0 instructions: 192001065 cycles: 217599179 heartbeat IPC: 0.7612 cumulative IPC: 0.7028 (Simulation time: 00 hr 52 min 17 sec)
Heartbeat CPU 0 instructions: 192501071 cycles: 218266667 heartbeat IPC: 0.7491 cumulative IPC: 0.7029 (Simulation time: 00 hr 52 min 26 sec)
Heartbeat CPU 0 instructions: 193001076 cycles: 219020719 heartbeat IPC: 0.6631 cumulative IPC: 0.7028 (Simulation time: 00 hr 52 min 35 sec)
Heartbeat CPU 0 instructions: 193501076 cycles: 219721851 heartbeat IPC: 0.7131 cumulative IPC: 0.7028 (Simulation time: 00 hr 52 min 45 sec)
Heartbeat CPU 0 instructions: 194001077 cycles: 220392238 heartbeat IPC: 0.7458 cumulative IPC: 0.7029 (Simulation time: 00 hr 52 min 54 sec)
Heartbeat CPU 0 instructions: 194501077 cycles: 221033746 heartbeat IPC: 0.7794 cumulative IPC: 0.7032 (Simulation time: 00 hr 53 min 03 sec)
Heartbeat CPU 0 instructions: 195001077 cycles: 221673215 heartbeat IPC: 0.7819 cumulative IPC: 0.7034 (Simulation time: 00 hr 53 min 12 sec)
Heartbeat CPU 0 instructions: 195501077 cycles: 222318096 heartbeat IPC: 0.7753 cumulative IPC: 0.7036 (Simulation time: 00 hr 53 min 21 sec)
Heartbeat CPU 0 instructions: 196001084 cycles: 222966595 heartbeat IPC: 0.771 cumulative IPC: 0.7039 (Simulation time: 00 hr 53 min 31 sec)
Heartbeat CPU 0 instructions: 196501086 cycles: 223607075 heartbeat IPC: 0.7807 cumulative IPC: 0.7041 (Simulation time: 00 hr 53 min 40 sec)
Heartbeat CPU 0 instructions: 197001089 cycles: 224250943 heartbeat IPC: 0.7766 cumulative IPC: 0.7043 (Simulation time: 00 hr 53 min 49 sec)
Heartbeat CPU 0 instructions: 197501089 cycles: 224891368 heartbeat IPC: 0.7807 cumulative IPC: 0.7045 (Simulation time: 00 hr 53 min 58 sec)
Heartbeat CPU 0 instructions: 198001089 cycles: 225558259 heartbeat IPC: 0.7497 cumulative IPC: 0.7047 (Simulation time: 00 hr 54 min 07 sec)
Heartbeat CPU 0 instructions: 198501091 cycles: 226357952 heartbeat IPC: 0.6252 cumulative IPC: 0.7044 (Simulation time: 00 hr 54 min 17 sec)
Heartbeat CPU 0 instructions: 199001091 cycles: 227009058 heartbeat IPC: 0.7679 cumulative IPC: 0.7046 (Simulation time: 00 hr 54 min 26 sec)
Heartbeat CPU 0 instructions: 199501098 cycles: 227680644 heartbeat IPC: 0.7445 cumulative IPC: 0.7047 (Simulation time: 00 hr 54 min 35 sec)
Heartbeat CPU 0 instructions: 200001102 cycles: 228486430 heartbeat IPC: 0.6205 cumulative IPC: 0.7044 (Simulation time: 00 hr 54 min 45 sec)
Heartbeat CPU 0 instructions: 200501104 cycles: 229170237 heartbeat IPC: 0.7312 cumulative IPC: 0.7045 (Simulation time: 00 hr 54 min 53 sec)
Heartbeat CPU 0 instructions: 201001107 cycles: 229979758 heartbeat IPC: 0.6177 cumulative IPC: 0.7041 (Simulation time: 00 hr 55 min 04 sec)
Heartbeat CPU 0 instructions: 201501112 cycles: 230639235 heartbeat IPC: 0.7582 cumulative IPC: 0.7043 (Simulation time: 00 hr 55 min 13 sec)
Heartbeat CPU 0 instructions: 202001112 cycles: 231289998 heartbeat IPC: 0.7683 cumulative IPC: 0.7045 (Simulation time: 00 hr 55 min 22 sec)
Heartbeat CPU 0 instructions: 202501119 cycles: 231940526 heartbeat IPC: 0.7686 cumulative IPC: 0.7047 (Simulation time: 00 hr 55 min 31 sec)
Heartbeat CPU 0 instructions: 203001121 cycles: 232585436 heartbeat IPC: 0.7753 cumulative IPC: 0.7049 (Simulation time: 00 hr 55 min 40 sec)
Heartbeat CPU 0 instructions: 203501128 cycles: 233229979 heartbeat IPC: 0.7758 cumulative IPC: 0.7051 (Simulation time: 00 hr 55 min 49 sec)
Heartbeat CPU 0 instructions: 204001131 cycles: 233867687 heartbeat IPC: 0.7841 cumulative IPC: 0.7053 (Simulation time: 00 hr 55 min 58 sec)
Heartbeat CPU 0 instructions: 204501131 cycles: 234705455 heartbeat IPC: 0.5968 cumulative IPC: 0.7049 (Simulation time: 00 hr 56 min 07 sec)
Heartbeat CPU 0 instructions: 205001131 cycles: 235578615 heartbeat IPC: 0.5726 cumulative IPC: 0.7044 (Simulation time: 00 hr 56 min 17 sec)
Heartbeat CPU 0 instructions: 205501133 cycles: 236358500 heartbeat IPC: 0.6411 cumulative IPC: 0.7042 (Simulation time: 00 hr 56 min 27 sec)
Heartbeat CPU 0 instructions: 206001135 cycles: 237023041 heartbeat IPC: 0.7524 cumulative IPC: 0.7043 (Simulation time: 00 hr 56 min 36 sec)
Heartbeat CPU 0 instructions: 206501136 cycles: 237678124 heartbeat IPC: 0.7633 cumulative IPC: 0.7045 (Simulation time: 00 hr 56 min 45 sec)
Heartbeat CPU 0 instructions: 207001136 cycles: 238331267 heartbeat IPC: 0.7655 cumulative IPC: 0.7047 (Simulation time: 00 hr 56 min 54 sec)
Heartbeat CPU 0 instructions: 207501141 cycles: 238981973 heartbeat IPC: 0.7684 cumulative IPC: 0.7049 (Simulation time: 00 hr 57 min 03 sec)
Heartbeat CPU 0 instructions: 208001143 cycles: 239657073 heartbeat IPC: 0.7406 cumulative IPC: 0.705 (Simulation time: 00 hr 57 min 12 sec)
Heartbeat CPU 0 instructions: 208501146 cycles: 240320807 heartbeat IPC: 0.7533 cumulative IPC: 0.7051 (Simulation time: 00 hr 57 min 20 sec)
Heartbeat CPU 0 instructions: 209001150 cycles: 241108661 heartbeat IPC: 0.6346 cumulative IPC: 0.7049 (Simulation time: 00 hr 57 min 30 sec)
Heartbeat CPU 0 instructions: 209501154 cycles: 241938264 heartbeat IPC: 0.6027 cumulative IPC: 0.7045 (Simulation time: 00 hr 57 min 39 sec)
Heartbeat CPU 0 instructions: 210001155 cycles: 242609650 heartbeat IPC: 0.7447 cumulative IPC: 0.7046 (Simulation time: 00 hr 57 min 49 sec)
Heartbeat CPU 0 instructions: 210501155 cycles: 243264536 heartbeat IPC: 0.7635 cumulative IPC: 0.7048 (Simulation time: 00 hr 57 min 57 sec)
Heartbeat CPU 0 instructions: 211001160 cycles: 243977184 heartbeat IPC: 0.7016 cumulative IPC: 0.7048 (Simulation time: 00 hr 58 min 05 sec)
Heartbeat CPU 0 instructions: 211501161 cycles: 244951678 heartbeat IPC: 0.5131 cumulative IPC: 0.704 (Simulation time: 00 hr 58 min 16 sec)
Heartbeat CPU 0 instructions: 212001166 cycles: 245816131 heartbeat IPC: 0.5784 cumulative IPC: 0.7035 (Simulation time: 00 hr 58 min 25 sec)
Heartbeat CPU 0 instructions: 212501166 cycles: 246615684 heartbeat IPC: 0.6253 cumulative IPC: 0.7032 (Simulation time: 00 hr 58 min 36 sec)
Heartbeat CPU 0 instructions: 213001169 cycles: 247283403 heartbeat IPC: 0.7488 cumulative IPC: 0.7034 (Simulation time: 00 hr 58 min 45 sec)
Heartbeat CPU 0 instructions: 213501170 cycles: 247953662 heartbeat IPC: 0.746 cumulative IPC: 0.7035 (Simulation time: 00 hr 58 min 53 sec)
Heartbeat CPU 0 instructions: 214001174 cycles: 248766362 heartbeat IPC: 0.6152 cumulative IPC: 0.7032 (Simulation time: 00 hr 59 min 03 sec)
Heartbeat CPU 0 instructions: 214501175 cycles: 249569577 heartbeat IPC: 0.6225 cumulative IPC: 0.7029 (Simulation time: 00 hr 59 min 12 sec)
Heartbeat CPU 0 instructions: 215001177 cycles: 250256569 heartbeat IPC: 0.7278 cumulative IPC: 0.703 (Simulation time: 00 hr 59 min 21 sec)
Heartbeat CPU 0 instructions: 215501178 cycles: 250923505 heartbeat IPC: 0.7497 cumulative IPC: 0.7031 (Simulation time: 00 hr 59 min 30 sec)
Heartbeat CPU 0 instructions: 216001178 cycles: 251584033 heartbeat IPC: 0.757 cumulative IPC: 0.7032 (Simulation time: 00 hr 59 min 39 sec)
Heartbeat CPU 0 instructions: 216501181 cycles: 252242967 heartbeat IPC: 0.7588 cumulative IPC: 0.7034 (Simulation time: 00 hr 59 min 47 sec)
Heartbeat CPU 0 instructions: 217001183 cycles: 252897053 heartbeat IPC: 0.7644 cumulative IPC: 0.7036 (Simulation time: 00 hr 59 min 56 sec)
Heartbeat CPU 0 instructions: 217501185 cycles: 253661701 heartbeat IPC: 0.6539 cumulative IPC: 0.7034 (Simulation time: 01 hr 00 min 05 sec)
Heartbeat CPU 0 instructions: 218001185 cycles: 254398132 heartbeat IPC: 0.679 cumulative IPC: 0.7033 (Simulation time: 01 hr 00 min 14 sec)
Heartbeat CPU 0 instructions: 218501190 cycles: 255051592 heartbeat IPC: 0.7652 cumulative IPC: 0.7035 (Simulation time: 01 hr 00 min 23 sec)
Heartbeat CPU 0 instructions: 219001191 cycles: 255704413 heartbeat IPC: 0.7659 cumulative IPC: 0.7037 (Simulation time: 01 hr 00 min 31 sec)
Heartbeat CPU 0 instructions: 219501191 cycles: 256358521 heartbeat IPC: 0.7644 cumulative IPC: 0.7038 (Simulation time: 01 hr 00 min 40 sec)
Heartbeat CPU 0 instructions: 220001192 cycles: 257043089 heartbeat IPC: 0.7304 cumulative IPC: 0.7039 (Simulation time: 01 hr 00 min 49 sec)
Heartbeat CPU 0 instructions: 220501196 cycles: 257694606 heartbeat IPC: 0.7674 cumulative IPC: 0.7041 (Simulation time: 01 hr 00 min 57 sec)
Heartbeat CPU 0 instructions: 221001198 cycles: 258366888 heartbeat IPC: 0.7437 cumulative IPC: 0.7042 (Simulation time: 01 hr 01 min 06 sec)
Heartbeat CPU 0 instructions: 221501203 cycles: 259160286 heartbeat IPC: 0.6302 cumulative IPC: 0.704 (Simulation time: 01 hr 01 min 15 sec)
Heartbeat CPU 0 instructions: 222001208 cycles: 259842797 heartbeat IPC: 0.7326 cumulative IPC: 0.704 (Simulation time: 01 hr 01 min 24 sec)
Heartbeat CPU 0 instructions: 222501210 cycles: 260643538 heartbeat IPC: 0.6244 cumulative IPC: 0.7038 (Simulation time: 01 hr 01 min 33 sec)
Heartbeat CPU 0 instructions: 223001211 cycles: 261490634 heartbeat IPC: 0.5903 cumulative IPC: 0.7034 (Simulation time: 01 hr 01 min 43 sec)
Heartbeat CPU 0 instructions: 223501211 cycles: 262155334 heartbeat IPC: 0.7522 cumulative IPC: 0.7035 (Simulation time: 01 hr 01 min 51 sec)
Heartbeat CPU 0 instructions: 224001217 cycles: 262818724 heartbeat IPC: 0.7537 cumulative IPC: 0.7036 (Simulation time: 01 hr 02 min 00 sec)
Heartbeat CPU 0 instructions: 224501219 cycles: 263478701 heartbeat IPC: 0.7576 cumulative IPC: 0.7038 (Simulation time: 01 hr 02 min 09 sec)
Heartbeat CPU 0 instructions: 225001220 cycles: 264126866 heartbeat IPC: 0.7714 cumulative IPC: 0.704 (Simulation time: 01 hr 02 min 17 sec)
Heartbeat CPU 0 instructions: 225501220 cycles: 264810763 heartbeat IPC: 0.7311 cumulative IPC: 0.704 (Simulation time: 01 hr 02 min 26 sec)
Heartbeat CPU 0 instructions: 226001223 cycles: 265464494 heartbeat IPC: 0.7648 cumulative IPC: 0.7042 (Simulation time: 01 hr 02 min 34 sec)
Heartbeat CPU 0 instructions: 226501226 cycles: 266116814 heartbeat IPC: 0.7665 cumulative IPC: 0.7044 (Simulation time: 01 hr 02 min 43 sec)
Heartbeat CPU 0 instructions: 227001227 cycles: 266764862 heartbeat IPC: 0.7715 cumulative IPC: 0.7045 (Simulation time: 01 hr 02 min 51 sec)
Heartbeat CPU 0 instructions: 227501234 cycles: 267411803 heartbeat IPC: 0.7729 cumulative IPC: 0.7047 (Simulation time: 01 hr 02 min 59 sec)
Heartbeat CPU 0 instructions: 228001237 cycles: 268064258 heartbeat IPC: 0.7663 cumulative IPC: 0.7049 (Simulation time: 01 hr 03 min 08 sec)
Heartbeat CPU 0 instructions: 228501237 cycles: 268730168 heartbeat IPC: 0.7509 cumulative IPC: 0.705 (Simulation time: 01 hr 03 min 16 sec)
Heartbeat CPU 0 instructions: 229001241 cycles: 269528202 heartbeat IPC: 0.6265 cumulative IPC: 0.7047 (Simulation time: 01 hr 03 min 25 sec)
Heartbeat CPU 0 instructions: 229501244 cycles: 270192716 heartbeat IPC: 0.7524 cumulative IPC: 0.7049 (Simulation time: 01 hr 03 min 34 sec)
Heartbeat CPU 0 instructions: 230001248 cycles: 270887734 heartbeat IPC: 0.7194 cumulative IPC: 0.7049 (Simulation time: 01 hr 03 min 43 sec)
Heartbeat CPU 0 instructions: 230501251 cycles: 271543871 heartbeat IPC: 0.762 cumulative IPC: 0.7051 (Simulation time: 01 hr 03 min 51 sec)
Heartbeat CPU 0 instructions: 231001255 cycles: 272215889 heartbeat IPC: 0.744 cumulative IPC: 0.7052 (Simulation time: 01 hr 03 min 58 sec)
Heartbeat CPU 0 instructions: 231501258 cycles: 273003287 heartbeat IPC: 0.635 cumulative IPC: 0.7049 (Simulation time: 01 hr 04 min 08 sec)
Heartbeat CPU 0 instructions: 232001265 cycles: 273672567 heartbeat IPC: 0.7471 cumulative IPC: 0.7051 (Simulation time: 01 hr 04 min 17 sec)
Heartbeat CPU 0 instructions: 232501269 cycles: 274416011 heartbeat IPC: 0.6726 cumulative IPC: 0.705 (Simulation time: 01 hr 04 min 25 sec)
Heartbeat CPU 0 instructions: 233001269 cycles: 275188987 heartbeat IPC: 0.6469 cumulative IPC: 0.7048 (Simulation time: 01 hr 04 min 35 sec)
Heartbeat CPU 0 instructions: 233501269 cycles: 275859946 heartbeat IPC: 0.7452 cumulative IPC: 0.7049 (Simulation time: 01 hr 04 min 44 sec)
Heartbeat CPU 0 instructions: 234001271 cycles: 276530659 heartbeat IPC: 0.7455 cumulative IPC: 0.705 (Simulation time: 01 hr 04 min 52 sec)
Heartbeat CPU 0 instructions: 234501272 cycles: 277331265 heartbeat IPC: 0.6245 cumulative IPC: 0.7048 (Simulation time: 01 hr 05 min 01 sec)
Heartbeat CPU 0 instructions: 235001275 cycles: 278009587 heartbeat IPC: 0.7371 cumulative IPC: 0.7048 (Simulation time: 01 hr 05 min 10 sec)
Heartbeat CPU 0 instructions: 235501282 cycles: 278808663 heartbeat IPC: 0.6257 cumulative IPC: 0.7046 (Simulation time: 01 hr 05 min 18 sec)
Heartbeat CPU 0 instructions: 236001286 cycles: 279722390 heartbeat IPC: 0.5472 cumulative IPC: 0.704 (Simulation time: 01 hr 05 min 28 sec)
Heartbeat CPU 0 instructions: 236501291 cycles: 280407841 heartbeat IPC: 0.7295 cumulative IPC: 0.7041 (Simulation time: 01 hr 05 min 37 sec)
Heartbeat CPU 0 instructions: 237001292 cycles: 281081554 heartbeat IPC: 0.7422 cumulative IPC: 0.7042 (Simulation time: 01 hr 05 min 46 sec)
Heartbeat CPU 0 instructions: 237501294 cycles: 281745621 heartbeat IPC: 0.7529 cumulative IPC: 0.7043 (Simulation time: 01 hr 05 min 54 sec)
Heartbeat CPU 0 instructions: 238001294 cycles: 282406758 heartbeat IPC: 0.7563 cumulative IPC: 0.7045 (Simulation time: 01 hr 06 min 03 sec)
Heartbeat CPU 0 instructions: 238501296 cycles: 283066108 heartbeat IPC: 0.7583 cumulative IPC: 0.7046 (Simulation time: 01 hr 06 min 11 sec)
Heartbeat CPU 0 instructions: 239001296 cycles: 283719934 heartbeat IPC: 0.7647 cumulative IPC: 0.7047 (Simulation time: 01 hr 06 min 19 sec)
Heartbeat CPU 0 instructions: 239501298 cycles: 284400933 heartbeat IPC: 0.7342 cumulative IPC: 0.7048 (Simulation time: 01 hr 06 min 27 sec)
Heartbeat CPU 0 instructions: 240001298 cycles: 285211855 heartbeat IPC: 0.6166 cumulative IPC: 0.7046 (Simulation time: 01 hr 06 min 35 sec)
Heartbeat CPU 0 instructions: 240501298 cycles: 286026494 heartbeat IPC: 0.6138 cumulative IPC: 0.7043 (Simulation time: 01 hr 06 min 45 sec)
Heartbeat CPU 0 instructions: 241001299 cycles: 286709188 heartbeat IPC: 0.7324 cumulative IPC: 0.7043 (Simulation time: 01 hr 06 min 54 sec)
Heartbeat CPU 0 instructions: 241501304 cycles: 287378282 heartbeat IPC: 0.7473 cumulative IPC: 0.7045 (Simulation time: 01 hr 07 min 02 sec)
Heartbeat CPU 0 instructions: 242001304 cycles: 288042404 heartbeat IPC: 0.7529 cumulative IPC: 0.7046 (Simulation time: 01 hr 07 min 11 sec)
Heartbeat CPU 0 instructions: 242501308 cycles: 288708480 heartbeat IPC: 0.7507 cumulative IPC: 0.7047 (Simulation time: 01 hr 07 min 19 sec)
Heartbeat CPU 0 instructions: 243001310 cycles: 289372459 heartbeat IPC: 0.753 cumulative IPC: 0.7048 (Simulation time: 01 hr 07 min 27 sec)
Heartbeat CPU 0 instructions: 243501311 cycles: 290076502 heartbeat IPC: 0.7102 cumulative IPC: 0.7048 (Simulation time: 01 hr 07 min 36 sec)
Heartbeat CPU 0 instructions: 244001318 cycles: 290732264 heartbeat IPC: 0.7625 cumulative IPC: 0.705 (Simulation time: 01 hr 07 min 44 sec)
Heartbeat CPU 0 instructions: 244501319 cycles: 291491760 heartbeat IPC: 0.6583 cumulative IPC: 0.7048 (Simulation time: 01 hr 07 min 52 sec)
Heartbeat CPU 0 instructions: 245001321 cycles: 292317863 heartbeat IPC: 0.6053 cumulative IPC: 0.7045 (Simulation time: 01 hr 08 min 01 sec)
Heartbeat CPU 0 instructions: 245501325 cycles: 293012961 heartbeat IPC: 0.7193 cumulative IPC: 0.7046 (Simulation time: 01 hr 08 min 10 sec)
Heartbeat CPU 0 instructions: 246001325 cycles: 293699035 heartbeat IPC: 0.7288 cumulative IPC: 0.7046 (Simulation time: 01 hr 08 min 18 sec)
Heartbeat CPU 0 instructions: 246501332 cycles: 294373356 heartbeat IPC: 0.7415 cumulative IPC: 0.7047 (Simulation time: 01 hr 08 min 27 sec)
Heartbeat CPU 0 instructions: 247001332 cycles: 295046654 heartbeat IPC: 0.7426 cumulative IPC: 0.7048 (Simulation time: 01 hr 08 min 34 sec)
Heartbeat CPU 0 instructions: 247501337 cycles: 295874193 heartbeat IPC: 0.6042 cumulative IPC: 0.7045 (Simulation time: 01 hr 08 min 43 sec)
Heartbeat CPU 0 instructions: 248001338 cycles: 296669384 heartbeat IPC: 0.6288 cumulative IPC: 0.7043 (Simulation time: 01 hr 08 min 52 sec)
Heartbeat CPU 0 instructions: 248501343 cycles: 297407314 heartbeat IPC: 0.6776 cumulative IPC: 0.7042 (Simulation time: 01 hr 09 min 01 sec)
Heartbeat CPU 0 instructions: 249001346 cycles: 298266125 heartbeat IPC: 0.5822 cumulative IPC: 0.7039 (Simulation time: 01 hr 09 min 10 sec)
Heartbeat CPU 0 instructions: 249501346 cycles: 299035165 heartbeat IPC: 0.6502 cumulative IPC: 0.7037 (Simulation time: 01 hr 09 min 18 sec)
Simulation finished CPU 0 instructions: 200000000 cycles: 284292289 cumulative IPC: 0.7035 (Simulation time: 01 hr 09 min 28 sec)
Simulation complete CPU 0 instructions: 200000000 cycles: 284292289 cumulative IPC: 0.7035 (Simulation time: 01 hr 09 min 28 sec)

ChampSim completed all CPUs

=== Simulation ===
CPU 0 runs /local-ssd/ben/dpc4-traces/SPEC17/605.mcf_s-1554B.champsimtrace.xz

Region of Interest Statistics

CPU 0 cumulative IPC: 0.7035 instructions: 200000000 cycles: 284292289
CPU 0 Branch Prediction Accuracy: 98.31% MPKI: 3.107 Average ROB Occupancy at Mispredict: 49.26
Branch type MPKI
BRANCH_DIRECT_JUMP: 0
BRANCH_INDIRECT: 0
BRANCH_CONDITIONAL: 3.107
BRANCH_DIRECT_CALL: 0
BRANCH_INDIRECT_CALL: 0
BRANCH_RETURN: 0

cpu0->cpu0_STLB TOTAL        ACCESS:     811593 HIT:     792605 MISS:      18988 MSHR_MERGE:          0
cpu0->cpu0_STLB LOAD         ACCESS:     811593 HIT:     792605 MISS:      18988 MSHR_MERGE:          0
cpu0->cpu0_STLB RFO          ACCESS:          0 HIT:          0 MISS:          0 MSHR_MERGE:          0
cpu0->cpu0_STLB PREFETCH     ACCESS:          0 HIT:          0 MISS:          0 MSHR_MERGE:          0
cpu0->cpu0_STLB WRITE        ACCESS:          0 HIT:          0 MISS:          0 MSHR_MERGE:          0
cpu0->cpu0_STLB TRANSLATION  ACCESS:          0 HIT:          0 MISS:          0 MSHR_MERGE:          0
cpu0->cpu0_STLB PREFETCH REQUESTED:          0 ISSUED:          0 USEFUL:          0 USELESS:          0
cpu0->cpu0_STLB AVERAGE MISS LATENCY: 309.7 cycles
cpu0->cpu0_L2C TOTAL        ACCESS:  102850932 HIT:   41876199 MISS:   60974733 MSHR_MERGE:   17044319
cpu0->cpu0_L2C LOAD         ACCESS:   12580473 HIT:    5287567 MISS:    7292906 MSHR_MERGE:    1470654
cpu0->cpu0_L2C RFO          ACCESS:     402622 HIT:       8952 MISS:     393670 MSHR_MERGE:         35
cpu0->cpu0_L2C PREFETCH     ACCESS:   89297814 HIT:   36017269 MISS:   53280545 MSHR_MERGE:   15573630
cpu0->cpu0_L2C WRITE        ACCESS:     554768 HIT:     554199 MISS:        569 MSHR_MERGE:          0
cpu0->cpu0_L2C TRANSLATION  ACCESS:      15255 HIT:       8212 MISS:       7043 MSHR_MERGE:          0
cpu0->cpu0_L2C PREFETCH REQUESTED:   97597672 ISSUED:   69396937 USEFUL:   15835709 USELESS:   14537902
cpu0->cpu0_L2C AVERAGE MISS LATENCY: 89.16 cycles
cpu0->cpu0_L1I TOTAL        ACCESS:   34013742 HIT:   34013742 MISS:          0 MSHR_MERGE:          0
cpu0->cpu0_L1I LOAD         ACCESS:   34013742 HIT:   34013742 MISS:          0 MSHR_MERGE:          0
cpu0->cpu0_L1I RFO          ACCESS:          0 HIT:          0 MISS:          0 MSHR_MERGE:          0
cpu0->cpu0_L1I PREFETCH     ACCESS:          0 HIT:          0 MISS:          0 MSHR_MERGE:          0
cpu0->cpu0_L1I WRITE        ACCESS:          0 HIT:          0 MISS:          0 MSHR_MERGE:          0
cpu0->cpu0_L1I TRANSLATION  ACCESS:          0 HIT:          0 MISS:          0 MSHR_MERGE:          0
cpu0->cpu0_L1I PREFETCH REQUESTED:          0 ISSUED:          0 USEFUL:          0 USELESS:          0
cpu0->cpu0_L1I AVERAGE MISS LATENCY: - cycles
cpu0->cpu0_L1D TOTAL        ACCESS:  135235096 HIT:   87938433 MISS:   47296663 MSHR_MERGE:   14397416
cpu0->cpu0_L1D LOAD         ACCESS:   71867624 HIT:   53607689 MISS:   18259935 MSHR_MERGE:    5679462
cpu0->cpu0_L1D RFO          ACCESS:          0 HIT:          0 MISS:          0 MSHR_MERGE:          0
cpu0->cpu0_L1D PREFETCH     ACCESS:   50002172 HIT:   23159754 MISS:   26842418 MSHR_MERGE:    6941551
cpu0->cpu0_L1D WRITE        ACCESS:   13326080 HIT:   11147047 MISS:    2179033 MSHR_MERGE:    1776381
cpu0->cpu0_L1D TRANSLATION  ACCESS:      39220 HIT:      23943 MISS:      15277 MSHR_MERGE:         22
cpu0->cpu0_L1D PREFETCH REQUESTED:   73924558 ISSUED:   50002167 USEFUL:   18193677 USELESS:    1707155
cpu0->cpu0_L1D AVERAGE MISS LATENCY: 69.06 cycles
cpu0->cpu0_ITLB TOTAL        ACCESS:   25338437 HIT:   25338437 MISS:          0 MSHR_MERGE:          0
cpu0->cpu0_ITLB LOAD         ACCESS:   25338437 HIT:   25338437 MISS:          0 MSHR_MERGE:          0
cpu0->cpu0_ITLB RFO          ACCESS:          0 HIT:          0 MISS:          0 MSHR_MERGE:          0
cpu0->cpu0_ITLB PREFETCH     ACCESS:          0 HIT:          0 MISS:          0 MSHR_MERGE:          0
cpu0->cpu0_ITLB WRITE        ACCESS:          0 HIT:          0 MISS:          0 MSHR_MERGE:          0
cpu0->cpu0_ITLB TRANSLATION  ACCESS:          0 HIT:          0 MISS:          0 MSHR_MERGE:          0
cpu0->cpu0_ITLB PREFETCH REQUESTED:          0 ISSUED:          0 USEFUL:          0 USELESS:          0
cpu0->cpu0_ITLB AVERAGE MISS LATENCY: - cycles
cpu0->cpu0_DTLB TOTAL        ACCESS:  117825329 HIT:  116733275 MISS:    1092054 MSHR_MERGE:     280461
cpu0->cpu0_DTLB LOAD         ACCESS:  117825329 HIT:  116733275 MISS:    1092054 MSHR_MERGE:     280461
cpu0->cpu0_DTLB RFO          ACCESS:          0 HIT:          0 MISS:          0 MSHR_MERGE:          0
cpu0->cpu0_DTLB PREFETCH     ACCESS:          0 HIT:          0 MISS:          0 MSHR_MERGE:          0
cpu0->cpu0_DTLB WRITE        ACCESS:          0 HIT:          0 MISS:          0 MSHR_MERGE:          0
cpu0->cpu0_DTLB TRANSLATION  ACCESS:          0 HIT:          0 MISS:          0 MSHR_MERGE:          0
cpu0->cpu0_DTLB PREFETCH REQUESTED:          0 ISSUED:          0 USEFUL:          0 USELESS:          0
cpu0->cpu0_DTLB AVERAGE MISS LATENCY: 12.27 cycles
cpu0->LLC TOTAL        ACCESS:   44476145 HIT:   30591996 MISS:   13884149 MSHR_MERGE:          0
cpu0->LLC LOAD         ACCESS:    5822251 HIT:    4801759 MISS:    1020492 MSHR_MERGE:          0
cpu0->LLC RFO          ACCESS:     393635 HIT:       1725 MISS:     391910 MSHR_MERGE:          0
cpu0->LLC PREFETCH     ACCESS:   37706915 HIT:   25674016 MISS:   12032899 MSHR_MERGE:          0
cpu0->LLC WRITE        ACCESS:     546301 HIT:     114283 MISS:     432018 MSHR_MERGE:          0
cpu0->LLC TRANSLATION  ACCESS:       7043 HIT:        213 MISS:       6830 MSHR_MERGE:          0
cpu0->LLC PREFETCH REQUESTED:          0 ISSUED:          0 USEFUL:          0 USELESS:          0
cpu0->LLC AVERAGE MISS LATENCY: 207.9 cycles

DRAM Statistics

Channel 0 RQ ROW_BUFFER_HIT:    1384642
  ROW_BUFFER_MISS:   12067114
  AVG DBUS CONGESTED CYCLE: 6.198
Channel 0 WQ ROW_BUFFER_HIT:      45864
  ROW_BUFFER_MISS:     496587
  FULL:      12572
Channel 0 REFRESHES ISSUED:      23689
