[VMEM] WARNING: physical memory size is smaller than virtual memory size.

*** ChampSim Multicore Out-of-Order Simulator ***
Warmup Instructions: 50000000
Simulation Instructions: 200000000
Number of CPUs: 1
Page size: 4096
Core 0: /local-ssd/ben/dpc4-traces/SPEC17/603.bwaves_s-1740B.champsimtrace.xz
sBerti (Smart Stride + Berti) Prefetcher Initialized
Off-chip DRAM Size: 64 GiB Channels: 1 Width: 64-bit Data Rate: 4807 MT/s
Heartbeat CPU 0 instructions: 500005 cycles: 106223 heartbeat IPC: 4.707 cumulative IPC: 4.707 (Simulation time: 00 hr 00 min 03 sec)
Heartbeat CPU 0 instructions: 1000012 cycles: 210615 heartbeat IPC: 4.79 cumulative IPC: 4.748 (Simulation time: 00 hr 00 min 05 sec)
Heartbeat CPU 0 instructions: 1500016 cycles: 314840 heartbeat IPC: 4.797 cumulative IPC: 4.764 (Simulation time: 00 hr 00 min 07 sec)
Heartbeat CPU 0 instructions: 2000016 cycles: 419369 heartbeat IPC: 4.783 cumulative IPC: 4.769 (Simulation time: 00 hr 00 min 09 sec)
Heartbeat CPU 0 instructions: 2500016 cycles: 523229 heartbeat IPC: 4.814 cumulative IPC: 4.778 (Simulation time: 00 hr 00 min 11 sec)
Heartbeat CPU 0 instructions: 3000021 cycles: 627169 heartbeat IPC: 4.811 cumulative IPC: 4.783 (Simulation time: 00 hr 00 min 13 sec)
Heartbeat CPU 0 instructions: 3500023 cycles: 731560 heartbeat IPC: 4.79 cumulative IPC: 4.784 (Simulation time: 00 hr 00 min 15 sec)
Heartbeat CPU 0 instructions: 4000030 cycles: 835689 heartbeat IPC: 4.802 cumulative IPC: 4.787 (Simulation time: 00 hr 00 min 17 sec)
Heartbeat CPU 0 instructions: 4500034 cycles: 939720 heartbeat IPC: 4.806 cumulative IPC: 4.789 (Simulation time: 00 hr 00 min 19 sec)
Heartbeat CPU 0 instructions: 5000037 cycles: 1043785 heartbeat IPC: 4.805 cumulative IPC: 4.79 (Simulation time: 00 hr 00 min 21 sec)
Heartbeat CPU 0 instructions: 5500039 cycles: 1147835 heartbeat IPC: 4.805 cumulative IPC: 4.792 (Simulation time: 00 hr 00 min 24 sec)
Heartbeat CPU 0 instructions: 6000044 cycles: 1251980 heartbeat IPC: 4.801 cumulative IPC: 4.792 (Simulation time: 00 hr 00 min 26 sec)
Heartbeat CPU 0 instructions: 6500044 cycles: 1356408 heartbeat IPC: 4.788 cumulative IPC: 4.792 (Simulation time: 00 hr 00 min 28 sec)
Heartbeat CPU 0 instructions: 7000044 cycles: 1460501 heartbeat IPC: 4.803 cumulative IPC: 4.793 (Simulation time: 00 hr 00 min 30 sec)
Heartbeat CPU 0 instructions: 7500050 cycles: 1564808 heartbeat IPC: 4.794 cumulative IPC: 4.793 (Simulation time: 00 hr 00 min 32 sec)
Heartbeat CPU 0 instructions: 8000057 cycles: 1668650 heartbeat IPC: 4.815 cumulative IPC: 4.794 (Simulation time: 00 hr 00 min 34 sec)
Heartbeat CPU 0 instructions: 8500063 cycles: 1772687 heartbeat IPC: 4.806 cumulative IPC: 4.795 (Simulation time: 00 hr 00 min 36 sec)
Heartbeat CPU 0 instructions: 9000067 cycles: 1876507 heartbeat IPC: 4.816 cumulative IPC: 4.796 (Simulation time: 00 hr 00 min 38 sec)
Heartbeat CPU 0 instructions: 9500071 cycles: 1980702 heartbeat IPC: 4.799 cumulative IPC: 4.796 (Simulation time: 00 hr 00 min 40 sec)
Heartbeat CPU 0 instructions: 10000073 cycles: 2084828 heartbeat IPC: 4.802 cumulative IPC: 4.797 (Simulation time: 00 hr 00 min 42 sec)
Heartbeat CPU 0 instructions: 10500080 cycles: 2188963 heartbeat IPC: 4.802 cumulative IPC: 4.797 (Simulation time: 00 hr 00 min 45 sec)
Heartbeat CPU 0 instructions: 11000086 cycles: 2293152 heartbeat IPC: 4.799 cumulative IPC: 4.797 (Simulation time: 00 hr 00 min 47 sec)
Heartbeat CPU 0 instructions: 11500086 cycles: 2397642 heartbeat IPC: 4.785 cumulative IPC: 4.796 (Simulation time: 00 hr 00 min 49 sec)
Heartbeat CPU 0 instructions: 12000088 cycles: 2501876 heartbeat IPC: 4.797 cumulative IPC: 4.796 (Simulation time: 00 hr 00 min 51 sec)
Heartbeat CPU 0 instructions: 12500090 cycles: 2605952 heartbeat IPC: 4.804 cumulative IPC: 4.797 (Simulation time: 00 hr 00 min 53 sec)
Heartbeat CPU 0 instructions: 13000094 cycles: 2709713 heartbeat IPC: 4.819 cumulative IPC: 4.798 (Simulation time: 00 hr 00 min 55 sec)
Heartbeat CPU 0 instructions: 13500097 cycles: 2813865 heartbeat IPC: 4.801 cumulative IPC: 4.798 (Simulation time: 00 hr 00 min 57 sec)
Heartbeat CPU 0 instructions: 14000100 cycles: 2918103 heartbeat IPC: 4.797 cumulative IPC: 4.798 (Simulation time: 00 hr 00 min 59 sec)
Heartbeat CPU 0 instructions: 14500106 cycles: 3022272 heartbeat IPC: 4.8 cumulative IPC: 4.798 (Simulation time: 00 hr 01 min 02 sec)
Heartbeat CPU 0 instructions: 15000108 cycles: 3126470 heartbeat IPC: 4.799 cumulative IPC: 4.798 (Simulation time: 00 hr 01 min 04 sec)
Heartbeat CPU 0 instructions: 15500108 cycles: 3230982 heartbeat IPC: 4.784 cumulative IPC: 4.797 (Simulation time: 00 hr 01 min 06 sec)
Heartbeat CPU 0 instructions: 16000113 cycles: 3335329 heartbeat IPC: 4.792 cumulative IPC: 4.797 (Simulation time: 00 hr 01 min 08 sec)
Heartbeat CPU 0 instructions: 16500116 cycles: 3439444 heartbeat IPC: 4.802 cumulative IPC: 4.797 (Simulation time: 00 hr 01 min 10 sec)
Heartbeat CPU 0 instructions: 17000122 cycles: 3543504 heartbeat IPC: 4.805 cumulative IPC: 4.798 (Simulation time: 00 hr 01 min 12 sec)
Heartbeat CPU 0 instructions: 17500123 cycles: 3647588 heartbeat IPC: 4.804 cumulative IPC: 4.798 (Simulation time: 00 hr 01 min 14 sec)
Heartbeat CPU 0 instructions: 18000125 cycles: 3751489 heartbeat IPC: 4.812 cumulative IPC: 4.798 (Simulation time: 00 hr 01 min 16 sec)
Heartbeat CPU 0 instructions: 18500128 cycles: 3854738 heartbeat IPC: 4.843 cumulative IPC: 4.799 (Simulation time: 00 hr 01 min 18 sec)
Heartbeat CPU 0 instructions: 19000134 cycles: 3958155 heartbeat IPC: 4.835 cumulative IPC: 4.8 (Simulation time: 00 hr 01 min 20 sec)
Heartbeat CPU 0 instructions: 19500137 cycles: 4061460 heartbeat IPC: 4.84 cumulative IPC: 4.801 (Simulation time: 00 hr 01 min 23 sec)
Heartbeat CPU 0 instructions: 20000143 cycles: 4165231 heartbeat IPC: 4.818 cumulative IPC: 4.802 (Simulation time: 00 hr 01 min 25 sec)
Heartbeat CPU 0 instructions: 20500146 cycles: 4268581 heartbeat IPC: 4.838 cumulative IPC: 4.803 (Simulation time: 00 hr 01 min 27 sec)
Heartbeat CPU 0 instructions: 21000151 cycles: 4372073 heartbeat IPC: 4.831 cumulative IPC: 4.803 (Simulation time: 00 hr 01 min 29 sec)
Heartbeat CPU 0 instructions: 21500153 cycles: 4475339 heartbeat IPC: 4.842 cumulative IPC: 4.804 (Simulation time: 00 hr 01 min 31 sec)
Heartbeat CPU 0 instructions: 22000159 cycles: 4578667 heartbeat IPC: 4.839 cumulative IPC: 4.805 (Simulation time: 00 hr 01 min 33 sec)
Heartbeat CPU 0 instructions: 22500166 cycles: 4682068 heartbeat IPC: 4.836 cumulative IPC: 4.806 (Simulation time: 00 hr 01 min 35 sec)
Heartbeat CPU 0 instructions: 23000169 cycles: 4785472 heartbeat IPC: 4.835 cumulative IPC: 4.806 (Simulation time: 00 hr 01 min 37 sec)
Heartbeat CPU 0 instructions: 23500174 cycles: 4888666 heartbeat IPC: 4.845 cumulative IPC: 4.807 (Simulation time: 00 hr 01 min 40 sec)
Heartbeat CPU 0 instructions: 24000180 cycles: 4991930 heartbeat IPC: 4.842 cumulative IPC: 4.808 (Simulation time: 00 hr 01 min 42 sec)
Heartbeat CPU 0 instructions: 24500187 cycles: 5095812 heartbeat IPC: 4.813 cumulative IPC: 4.808 (Simulation time: 00 hr 01 min 44 sec)
Heartbeat CPU 0 instructions: 25000192 cycles: 5199259 heartbeat IPC: 4.833 cumulative IPC: 4.808 (Simulation time: 00 hr 01 min 46 sec)
Heartbeat CPU 0 instructions: 25500197 cycles: 5302640 heartbeat IPC: 4.837 cumulative IPC: 4.809 (Simulation time: 00 hr 01 min 48 sec)
Heartbeat CPU 0 instructions: 26000203 cycles: 5406108 heartbeat IPC: 4.832 cumulative IPC: 4.809 (Simulation time: 00 hr 01 min 50 sec)
Heartbeat CPU 0 instructions: 26500203 cycles: 5509356 heartbeat IPC: 4.843 cumulative IPC: 4.81 (Simulation time: 00 hr 01 min 52 sec)
Heartbeat CPU 0 instructions: 27000208 cycles: 5612395 heartbeat IPC: 4.853 cumulative IPC: 4.811 (Simulation time: 00 hr 01 min 54 sec)
Heartbeat CPU 0 instructions: 27500209 cycles: 5715699 heartbeat IPC: 4.84 cumulative IPC: 4.811 (Simulation time: 00 hr 01 min 56 sec)
Heartbeat CPU 0 instructions: 28000211 cycles: 5819131 heartbeat IPC: 4.834 cumulative IPC: 4.812 (Simulation time: 00 hr 01 min 59 sec)
Heartbeat CPU 0 instructions: 28500216 cycles: 5922515 heartbeat IPC: 4.836 cumulative IPC: 4.812 (Simulation time: 00 hr 02 min 01 sec)
Heartbeat CPU 0 instructions: 29000217 cycles: 6026179 heartbeat IPC: 4.823 cumulative IPC: 4.812 (Simulation time: 00 hr 02 min 03 sec)
Heartbeat CPU 0 instructions: 29500217 cycles: 6129613 heartbeat IPC: 4.834 cumulative IPC: 4.813 (Simulation time: 00 hr 02 min 05 sec)
Heartbeat CPU 0 instructions: 30000218 cycles: 6232981 heartbeat IPC: 4.837 cumulative IPC: 4.813 (Simulation time: 00 hr 02 min 07 sec)
Heartbeat CPU 0 instructions: 30500224 cycles: 6336406 heartbeat IPC: 4.834 cumulative IPC: 4.813 (Simulation time: 00 hr 02 min 09 sec)
Heartbeat CPU 0 instructions: 31000230 cycles: 6439961 heartbeat IPC: 4.828 cumulative IPC: 4.814 (Simulation time: 00 hr 02 min 11 sec)
Heartbeat CPU 0 instructions: 31500231 cycles: 6543248 heartbeat IPC: 4.841 cumulative IPC: 4.814 (Simulation time: 00 hr 02 min 13 sec)
Heartbeat CPU 0 instructions: 32000232 cycles: 6646666 heartbeat IPC: 4.835 cumulative IPC: 4.814 (Simulation time: 00 hr 02 min 16 sec)
Heartbeat CPU 0 instructions: 32500235 cycles: 6750253 heartbeat IPC: 4.827 cumulative IPC: 4.815 (Simulation time: 00 hr 02 min 18 sec)
Heartbeat CPU 0 instructions: 33000237 cycles: 6853628 heartbeat IPC: 4.837 cumulative IPC: 4.815 (Simulation time: 00 hr 02 min 20 sec)
Heartbeat CPU 0 instructions: 33500244 cycles: 6957450 heartbeat IPC: 4.816 cumulative IPC: 4.815 (Simulation time: 00 hr 02 min 22 sec)
Heartbeat CPU 0 instructions: 34000249 cycles: 7060519 heartbeat IPC: 4.851 cumulative IPC: 4.816 (Simulation time: 00 hr 02 min 24 sec)
Heartbeat CPU 0 instructions: 34500252 cycles: 7163889 heartbeat IPC: 4.837 cumulative IPC: 4.816 (Simulation time: 00 hr 02 min 26 sec)
Heartbeat CPU 0 instructions: 35000252 cycles: 7267170 heartbeat IPC: 4.841 cumulative IPC: 4.816 (Simulation time: 00 hr 02 min 28 sec)
Heartbeat CPU 0 instructions: 35500252 cycles: 7370645 heartbeat IPC: 4.832 cumulative IPC: 4.816 (Simulation time: 00 hr 02 min 30 sec)
Heartbeat CPU 0 instructions: 36000253 cycles: 7473787 heartbeat IPC: 4.848 cumulative IPC: 4.817 (Simulation time: 00 hr 02 min 33 sec)
Heartbeat CPU 0 instructions: 36500258 cycles: 7577150 heartbeat IPC: 4.837 cumulative IPC: 4.817 (Simulation time: 00 hr 02 min 35 sec)
Heartbeat CPU 0 instructions: 37000259 cycles: 7680410 heartbeat IPC: 4.842 cumulative IPC: 4.817 (Simulation time: 00 hr 02 min 37 sec)
Heartbeat CPU 0 instructions: 37500265 cycles: 7783988 heartbeat IPC: 4.827 cumulative IPC: 4.818 (Simulation time: 00 hr 02 min 39 sec)
Heartbeat CPU 0 instructions: 38000269 cycles: 7887714 heartbeat IPC: 4.82 cumulative IPC: 4.818 (Simulation time: 00 hr 02 min 41 sec)
Heartbeat CPU 0 instructions: 38500273 cycles: 7991134 heartbeat IPC: 4.835 cumulative IPC: 4.818 (Simulation time: 00 hr 02 min 43 sec)
Heartbeat CPU 0 instructions: 39000279 cycles: 8094425 heartbeat IPC: 4.841 cumulative IPC: 4.818 (Simulation time: 00 hr 02 min 45 sec)
Heartbeat CPU 0 instructions: 39500281 cycles: 8197731 heartbeat IPC: 4.84 cumulative IPC: 4.818 (Simulation time: 00 hr 02 min 47 sec)
Heartbeat CPU 0 instructions: 40000288 cycles: 8301116 heartbeat IPC: 4.836 cumulative IPC: 4.819 (Simulation time: 00 hr 02 min 50 sec)
Heartbeat CPU 0 instructions: 40500292 cycles: 8404349 heartbeat IPC: 4.843 cumulative IPC: 4.819 (Simulation time: 00 hr 02 min 52 sec)
Heartbeat CPU 0 instructions: 41000295 cycles: 8507755 heartbeat IPC: 4.835 cumulative IPC: 4.819 (Simulation time: 00 hr 02 min 54 sec)
Heartbeat CPU 0 instructions: 41500296 cycles: 8611154 heartbeat IPC: 4.836 cumulative IPC: 4.819 (Simulation time: 00 hr 02 min 56 sec)
Heartbeat CPU 0 instructions: 42000302 cycles: 8714479 heartbeat IPC: 4.839 cumulative IPC: 4.82 (Simulation time: 00 hr 02 min 58 sec)
Heartbeat CPU 0 instructions: 42500303 cycles: 8818262 heartbeat IPC: 4.818 cumulative IPC: 4.82 (Simulation time: 00 hr 03 min 00 sec)
Heartbeat CPU 0 instructions: 43000309 cycles: 8921696 heartbeat IPC: 4.834 cumulative IPC: 4.82 (Simulation time: 00 hr 03 min 02 sec)
Heartbeat CPU 0 instructions: 43500313 cycles: 9025062 heartbeat IPC: 4.837 cumulative IPC: 4.82 (Simulation time: 00 hr 03 min 04 sec)
Heartbeat CPU 0 instructions: 44000317 cycles: 9128543 heartbeat IPC: 4.832 cumulative IPC: 4.82 (Simulation time: 00 hr 03 min 06 sec)
Heartbeat CPU 0 instructions: 44500324 cycles: 9231826 heartbeat IPC: 4.841 cumulative IPC: 4.82 (Simulation time: 00 hr 03 min 09 sec)
Heartbeat CPU 0 instructions: 45000326 cycles: 9335182 heartbeat IPC: 4.838 cumulative IPC: 4.821 (Simulation time: 00 hr 03 min 11 sec)
Heartbeat CPU 0 instructions: 45500333 cycles: 9438516 heartbeat IPC: 4.839 cumulative IPC: 4.821 (Simulation time: 00 hr 03 min 13 sec)
Heartbeat CPU 0 instructions: 46000337 cycles: 9542135 heartbeat IPC: 4.825 cumulative IPC: 4.821 (Simulation time: 00 hr 03 min 15 sec)
Heartbeat CPU 0 instructions: 46500338 cycles: 9645363 heartbeat IPC: 4.844 cumulative IPC: 4.821 (Simulation time: 00 hr 03 min 17 sec)
Heartbeat CPU 0 instructions: 47000345 cycles: 9748975 heartbeat IPC: 4.826 cumulative IPC: 4.821 (Simulation time: 00 hr 03 min 19 sec)
Heartbeat CPU 0 instructions: 47500349 cycles: 9852382 heartbeat IPC: 4.835 cumulative IPC: 4.821 (Simulation time: 00 hr 03 min 21 sec)
Heartbeat CPU 0 instructions: 48000351 cycles: 9955805 heartbeat IPC: 4.835 cumulative IPC: 4.821 (Simulation time: 00 hr 03 min 23 sec)
Heartbeat CPU 0 instructions: 48500358 cycles: 10059027 heartbeat IPC: 4.844 cumulative IPC: 4.822 (Simulation time: 00 hr 03 min 25 sec)
Heartbeat CPU 0 instructions: 49000361 cycles: 10162522 heartbeat IPC: 4.831 cumulative IPC: 4.822 (Simulation time: 00 hr 03 min 28 sec)
Heartbeat CPU 0 instructions: 49500368 cycles: 10265699 heartbeat IPC: 4.846 cumulative IPC: 4.822 (Simulation time: 00 hr 03 min 30 sec)
Warmup halting CPU 0 at instruction 50000002 cycle 10369134 for remainder of phase
Warmup finished CPU 0 instructions: 50000002 cycles: 10369134 cumulative IPC: 4.822 (Simulation time: 00 hr 03 min 32 sec)
Warmup complete CPU 0 instructions: 50000002 cycles: 10369134 cumulative IPC: 4.822 (Simulation time: 00 hr 03 min 32 sec)
Heartbeat CPU 0 instructions: 50000368 cycles: 10369213 heartbeat IPC: 4.83 cumulative IPC: 4.633 (Simulation time: 00 hr 03 min 32 sec)
Heartbeat CPU 0 instructions: 50500374 cycles: 10583493 heartbeat IPC: 2.333 cumulative IPC: 2.334 (Simulation time: 00 hr 03 min 35 sec)
Heartbeat CPU 0 instructions: 51000375 cycles: 10794313 heartbeat IPC: 2.372 cumulative IPC: 2.353 (Simulation time: 00 hr 03 min 38 sec)
Heartbeat CPU 0 instructions: 51500382 cycles: 11007968 heartbeat IPC: 2.34 cumulative IPC: 2.349 (Simulation time: 00 hr 03 min 42 sec)
Heartbeat CPU 0 instructions: 52000383 cycles: 11213744 heartbeat IPC: 2.43 cumulative IPC: 2.368 (Simulation time: 00 hr 03 min 45 sec)
Heartbeat CPU 0 instructions: 52500383 cycles: 11422398 heartbeat IPC: 2.396 cumulative IPC: 2.374 (Simulation time: 00 hr 03 min 48 sec)
Heartbeat CPU 0 instructions: 53000388 cycles: 11637632 heartbeat IPC: 2.323 cumulative IPC: 2.365 (Simulation time: 00 hr 03 min 51 sec)
Heartbeat CPU 0 instructions: 53500390 cycles: 11847660 heartbeat IPC: 2.381 cumulative IPC: 2.367 (Simulation time: 00 hr 03 min 55 sec)
Heartbeat CPU 0 instructions: 54000396 cycles: 12056636 heartbeat IPC: 2.393 cumulative IPC: 2.371 (Simulation time: 00 hr 03 min 58 sec)
Heartbeat CPU 0 instructions: 54500397 cycles: 12267613 heartbeat IPC: 2.37 cumulative IPC: 2.371 (Simulation time: 00 hr 04 min 01 sec)
Heartbeat CPU 0 instructions: 55000397 cycles: 12477263 heartbeat IPC: 2.385 cumulative IPC: 2.372 (Simulation time: 00 hr 04 min 04 sec)
Heartbeat CPU 0 instructions: 55500402 cycles: 12686602 heartbeat IPC: 2.388 cumulative IPC: 2.373 (Simulation time: 00 hr 04 min 08 sec)
Heartbeat CPU 0 instructions: 56000403 cycles: 12899169 heartbeat IPC: 2.352 cumulative IPC: 2.372 (Simulation time: 00 hr 04 min 11 sec)
Heartbeat CPU 0 instructions: 56500410 cycles: 13109642 heartbeat IPC: 2.376 cumulative IPC: 2.372 (Simulation time: 00 hr 04 min 14 sec)
Heartbeat CPU 0 instructions: 57000410 cycles: 13318731 heartbeat IPC: 2.391 cumulative IPC: 2.373 (Simulation time: 00 hr 04 min 17 sec)
Heartbeat CPU 0 instructions: 57500410 cycles: 13528014 heartbeat IPC: 2.389 cumulative IPC: 2.374 (Simulation time: 00 hr 04 min 21 sec)
Heartbeat CPU 0 instructions: 58000416 cycles: 13741620 heartbeat IPC: 2.341 cumulative IPC: 2.372 (Simulation time: 00 hr 04 min 24 sec)
Heartbeat CPU 0 instructions: 58500417 cycles: 13952547 heartbeat IPC: 2.37 cumulative IPC: 2.372 (Simulation time: 00 hr 04 min 27 sec)
Heartbeat CPU 0 instructions: 59000424 cycles: 14163964 heartbeat IPC: 2.365 cumulative IPC: 2.372 (Simulation time: 00 hr 04 min 30 sec)
Heartbeat CPU 0 instructions: 59500424 cycles: 14371130 heartbeat IPC: 2.414 cumulative IPC: 2.374 (Simulation time: 00 hr 04 min 34 sec)
Heartbeat CPU 0 instructions: 60000426 cycles: 14584630 heartbeat IPC: 2.342 cumulative IPC: 2.372 (Simulation time: 00 hr 04 min 37 sec)
Heartbeat CPU 0 instructions: 60500430 cycles: 14795809 heartbeat IPC: 2.368 cumulative IPC: 2.372 (Simulation time: 00 hr 04 min 40 sec)
Heartbeat CPU 0 instructions: 61000431 cycles: 15011190 heartbeat IPC: 2.321 cumulative IPC: 2.37 (Simulation time: 00 hr 04 min 44 sec)
Heartbeat CPU 0 instructions: 61500438 cycles: 15220602 heartbeat IPC: 2.388 cumulative IPC: 2.371 (Simulation time: 00 hr 04 min 47 sec)
Heartbeat CPU 0 instructions: 62000438 cycles: 15431639 heartbeat IPC: 2.369 cumulative IPC: 2.37 (Simulation time: 00 hr 04 min 50 sec)
Heartbeat CPU 0 instructions: 62500442 cycles: 15644712 heartbeat IPC: 2.347 cumulative IPC: 2.369 (Simulation time: 00 hr 04 min 53 sec)
Heartbeat CPU 0 instructions: 63000442 cycles: 15858458 heartbeat IPC: 2.339 cumulative IPC: 2.368 (Simulation time: 00 hr 04 min 57 sec)
Heartbeat CPU 0 instructions: 63500445 cycles: 16070498 heartbeat IPC: 2.358 cumulative IPC: 2.368 (Simulation time: 00 hr 05 min 00 sec)
Heartbeat CPU 0 instructions: 64000445 cycles: 16279788 heartbeat IPC: 2.389 cumulative IPC: 2.369 (Simulation time: 00 hr 05 min 03 sec)
Heartbeat CPU 0 instructions: 64500445 cycles: 16492913 heartbeat IPC: 2.346 cumulative IPC: 2.368 (Simulation time: 00 hr 05 min 07 sec)
Heartbeat CPU 0 instructions: 65000451 cycles: 16703890 heartbeat IPC: 2.37 cumulative IPC: 2.368 (Simulation time: 00 hr 05 min 10 sec)
Heartbeat CPU 0 instructions: 65500451 cycles: 16915484 heartbeat IPC: 2.363 cumulative IPC: 2.368 (Simulation time: 00 hr 05 min 13 sec)
Heartbeat CPU 0 instructions: 66000451 cycles: 17127905 heartbeat IPC: 2.354 cumulative IPC: 2.367 (Simulation time: 00 hr 05 min 16 sec)
Heartbeat CPU 0 instructions: 66500451 cycles: 17337297 heartbeat IPC: 2.388 cumulative IPC: 2.368 (Simulation time: 00 hr 05 min 20 sec)
Heartbeat CPU 0 instructions: 67000453 cycles: 17546355 heartbeat IPC: 2.392 cumulative IPC: 2.369 (Simulation time: 00 hr 05 min 23 sec)
Heartbeat CPU 0 instructions: 67500457 cycles: 17758293 heartbeat IPC: 2.359 cumulative IPC: 2.368 (Simulation time: 00 hr 05 min 26 sec)
Heartbeat CPU 0 instructions: 68000457 cycles: 17968902 heartbeat IPC: 2.374 cumulative IPC: 2.369 (Simulation time: 00 hr 05 min 29 sec)
Heartbeat CPU 0 instructions: 68500459 cycles: 18178124 heartbeat IPC: 2.39 cumulative IPC: 2.369 (Simulation time: 00 hr 05 min 33 sec)
Heartbeat CPU 0 instructions: 69000463 cycles: 18389901 heartbeat IPC: 2.361 cumulative IPC: 2.369 (Simulation time: 00 hr 05 min 36 sec)
Heartbeat CPU 0 instructions: 69500466 cycles: 18601774 heartbeat IPC: 2.36 cumulative IPC: 2.369 (Simulation time: 00 hr 05 min 39 sec)
Heartbeat CPU 0 instructions: 70000468 cycles: 18815497 heartbeat IPC: 2.339 cumulative IPC: 2.368 (Simulation time: 00 hr 05 min 43 sec)
Heartbeat CPU 0 instructions: 70500469 cycles: 19026158 heartbeat IPC: 2.373 cumulative IPC: 2.368 (Simulation time: 00 hr 05 min 46 sec)
Heartbeat CPU 0 instructions: 71000472 cycles: 19233439 heartbeat IPC: 2.412 cumulative IPC: 2.369 (Simulation time: 00 hr 05 min 49 sec)
Heartbeat CPU 0 instructions: 71500472 cycles: 19446639 heartbeat IPC: 2.345 cumulative IPC: 2.369 (Simulation time: 00 hr 05 min 52 sec)
Heartbeat CPU 0 instructions: 72000472 cycles: 19654223 heartbeat IPC: 2.409 cumulative IPC: 2.369 (Simulation time: 00 hr 05 min 56 sec)
Heartbeat CPU 0 instructions: 72500478 cycles: 19864762 heartbeat IPC: 2.375 cumulative IPC: 2.37 (Simulation time: 00 hr 05 min 59 sec)
Heartbeat CPU 0 instructions: 73000478 cycles: 20077911 heartbeat IPC: 2.346 cumulative IPC: 2.369 (Simulation time: 00 hr 06 min 02 sec)
Heartbeat CPU 0 instructions: 73500478 cycles: 20289636 heartbeat IPC: 2.362 cumulative IPC: 2.369 (Simulation time: 00 hr 06 min 06 sec)
Heartbeat CPU 0 instructions: 74000478 cycles: 20506585 heartbeat IPC: 2.305 cumulative IPC: 2.368 (Simulation time: 00 hr 06 min 09 sec)
Heartbeat CPU 0 instructions: 74500479 cycles: 20718297 heartbeat IPC: 2.362 cumulative IPC: 2.367 (Simulation time: 00 hr 06 min 12 sec)
Heartbeat CPU 0 instructions: 75000484 cycles: 20928992 heartbeat IPC: 2.373 cumulative IPC: 2.368 (Simulation time: 00 hr 06 min 15 sec)
Heartbeat CPU 0 instructions: 75500484 cycles: 21139896 heartbeat IPC: 2.371 cumulative IPC: 2.368 (Simulation time: 00 hr 06 min 19 sec)
Heartbeat CPU 0 instructions: 76000486 cycles: 21354005 heartbeat IPC: 2.335 cumulative IPC: 2.367 (Simulation time: 00 hr 06 min 22 sec)
Heartbeat CPU 0 instructions: 76500490 cycles: 21564391 heartbeat IPC: 2.377 cumulative IPC: 2.367 (Simulation time: 00 hr 06 min 25 sec)
Heartbeat CPU 0 instructions: 77000491 cycles: 21776746 heartbeat IPC: 2.355 cumulative IPC: 2.367 (Simulation time: 00 hr 06 min 29 sec)
Heartbeat CPU 0 instructions: 77500492 cycles: 21989682 heartbeat IPC: 2.348 cumulative IPC: 2.367 (Simulation time: 00 hr 06 min 32 sec)
Heartbeat CPU 0 instructions: 78000496 cycles: 22197635 heartbeat IPC: 2.404 cumulative IPC: 2.367 (Simulation time: 00 hr 06 min 35 sec)
Heartbeat CPU 0 instructions: 78500498 cycles: 22409544 heartbeat IPC: 2.36 cumulative IPC: 2.367 (Simulation time: 00 hr 06 min 39 sec)
Heartbeat CPU 0 instructions: 79000499 cycles: 22619004 heartbeat IPC: 2.387 cumulative IPC: 2.367 (Simulation time: 00 hr 06 min 42 sec)
Heartbeat CPU 0 instructions: 79500500 cycles: 22828387 heartbeat IPC: 2.388 cumulative IPC: 2.368 (Simulation time: 00 hr 06 min 45 sec)
Heartbeat CPU 0 instructions: 80000503 cycles: 23038463 heartbeat IPC: 2.38 cumulative IPC: 2.368 (Simulation time: 00 hr 06 min 48 sec)
Heartbeat CPU 0 instructions: 80500505 cycles: 23248016 heartbeat IPC: 2.386 cumulative IPC: 2.368 (Simulation time: 00 hr 06 min 52 sec)
Heartbeat CPU 0 instructions: 81000511 cycles: 23464609 heartbeat IPC: 2.309 cumulative IPC: 2.367 (Simulation time: 00 hr 06 min 55 sec)
Heartbeat CPU 0 instructions: 81500511 cycles: 23672312 heartbeat IPC: 2.407 cumulative IPC: 2.368 (Simulation time: 00 hr 06 min 58 sec)
Heartbeat CPU 0 instructions: 82000514 cycles: 23887597 heartbeat IPC: 2.323 cumulative IPC: 2.367 (Simulation time: 00 hr 07 min 02 sec)
Heartbeat CPU 0 instructions: 82500516 cycles: 24099540 heartbeat IPC: 2.359 cumulative IPC: 2.367 (Simulation time: 00 hr 07 min 05 sec)
Heartbeat CPU 0 instructions: 83000517 cycles: 24310263 heartbeat IPC: 2.373 cumulative IPC: 2.367 (Simulation time: 00 hr 07 min 08 sec)
Heartbeat CPU 0 instructions: 83500518 cycles: 24520686 heartbeat IPC: 2.376 cumulative IPC: 2.367 (Simulation time: 00 hr 07 min 11 sec)
Heartbeat CPU 0 instructions: 84000525 cycles: 24728642 heartbeat IPC: 2.404 cumulative IPC: 2.368 (Simulation time: 00 hr 07 min 15 sec)
Heartbeat CPU 0 instructions: 84500530 cycles: 24940638 heartbeat IPC: 2.359 cumulative IPC: 2.368 (Simulation time: 00 hr 07 min 18 sec)
Heartbeat CPU 0 instructions: 85000530 cycles: 25151713 heartbeat IPC: 2.369 cumulative IPC: 2.368 (Simulation time: 00 hr 07 min 21 sec)
Heartbeat CPU 0 instructions: 85500531 cycles: 25361700 heartbeat IPC: 2.381 cumulative IPC: 2.368 (Simulation time: 00 hr 07 min 25 sec)
Heartbeat CPU 0 instructions: 86000531 cycles: 25575167 heartbeat IPC: 2.342 cumulative IPC: 2.368 (Simulation time: 00 hr 07 min 28 sec)
Heartbeat CPU 0 instructions: 86500531 cycles: 25783537 heartbeat IPC: 2.4 cumulative IPC: 2.368 (Simulation time: 00 hr 07 min 31 sec)
Heartbeat CPU 0 instructions: 87000537 cycles: 25997604 heartbeat IPC: 2.336 cumulative IPC: 2.368 (Simulation time: 00 hr 07 min 35 sec)
Heartbeat CPU 0 instructions: 87500537 cycles: 26209270 heartbeat IPC: 2.362 cumulative IPC: 2.367 (Simulation time: 00 hr 07 min 38 sec)
Heartbeat CPU 0 instructions: 88000537 cycles: 26419905 heartbeat IPC: 2.374 cumulative IPC: 2.368 (Simulation time: 00 hr 07 min 41 sec)
Heartbeat CPU 0 instructions: 88500537 cycles: 26627939 heartbeat IPC: 2.403 cumulative IPC: 2.368 (Simulation time: 00 hr 07 min 44 sec)
Heartbeat CPU 0 instructions: 89000537 cycles: 26843120 heartbeat IPC: 2.324 cumulative IPC: 2.367 (Simulation time: 00 hr 07 min 48 sec)
Heartbeat CPU 0 instructions: 89500543 cycles: 27051350 heartbeat IPC: 2.401 cumulative IPC: 2.368 (Simulation time: 00 hr 07 min 51 sec)
Heartbeat CPU 0 instructions: 90000543 cycles: 27262716 heartbeat IPC: 2.366 cumulative IPC: 2.368 (Simulation time: 00 hr 07 min 54 sec)
Heartbeat CPU 0 instructions: 90500543 cycles: 27472847 heartbeat IPC: 2.379 cumulative IPC: 2.368 (Simulation time: 00 hr 07 min 57 sec)
Heartbeat CPU 0 instructions: 91000545 cycles: 27687694 heartbeat IPC: 2.327 cumulative IPC: 2.367 (Simulation time: 00 hr 08 min 01 sec)
Heartbeat CPU 0 instructions: 91500549 cycles: 27900088 heartbeat IPC: 2.354 cumulative IPC: 2.367 (Simulation time: 00 hr 08 min 04 sec)
Heartbeat CPU 0 instructions: 92000549 cycles: 28112887 heartbeat IPC: 2.35 cumulative IPC: 2.367 (Simulation time: 00 hr 08 min 07 sec)
Heartbeat CPU 0 instructions: 92500551 cycles: 28325108 heartbeat IPC: 2.356 cumulative IPC: 2.367 (Simulation time: 00 hr 08 min 11 sec)
Heartbeat CPU 0 instructions: 93000555 cycles: 28530556 heartbeat IPC: 2.434 cumulative IPC: 2.368 (Simulation time: 00 hr 08 min 14 sec)
Heartbeat CPU 0 instructions: 93500558 cycles: 28742129 heartbeat IPC: 2.363 cumulative IPC: 2.368 (Simulation time: 00 hr 08 min 17 sec)
Heartbeat CPU 0 instructions: 94000558 cycles: 28952924 heartbeat IPC: 2.372 cumulative IPC: 2.368 (Simulation time: 00 hr 08 min 21 sec)
Heartbeat CPU 0 instructions: 94500561 cycles: 29163485 heartbeat IPC: 2.375 cumulative IPC: 2.368 (Simulation time: 00 hr 08 min 24 sec)
Heartbeat CPU 0 instructions: 95000564 cycles: 29372167 heartbeat IPC: 2.396 cumulative IPC: 2.368 (Simulation time: 00 hr 08 min 27 sec)
Heartbeat CPU 0 instructions: 95500564 cycles: 29582447 heartbeat IPC: 2.378 cumulative IPC: 2.368 (Simulation time: 00 hr 08 min 30 sec)
Heartbeat CPU 0 instructions: 96000564 cycles: 29789938 heartbeat IPC: 2.41 cumulative IPC: 2.369 (Simulation time: 00 hr 08 min 34 sec)
Heartbeat CPU 0 instructions: 96500564 cycles: 29999632 heartbeat IPC: 2.384 cumulative IPC: 2.369 (Simulation time: 00 hr 08 min 37 sec)
Heartbeat CPU 0 instructions: 97000570 cycles: 30210923 heartbeat IPC: 2.366 cumulative IPC: 2.369 (Simulation time: 00 hr 08 min 40 sec)
Heartbeat CPU 0 instructions: 97500570 cycles: 30422280 heartbeat IPC: 2.366 cumulative IPC: 2.369 (Simulation time: 00 hr 08 min 44 sec)
Heartbeat CPU 0 instructions: 98000570 cycles: 30633583 heartbeat IPC: 2.366 cumulative IPC: 2.369 (Simulation time: 00 hr 08 min 47 sec)
Heartbeat CPU 0 instructions: 98500572 cycles: 30844626 heartbeat IPC: 2.369 cumulative IPC: 2.369 (Simulation time: 00 hr 08 min 50 sec)
Heartbeat CPU 0 instructions: 99000576 cycles: 31058028 heartbeat IPC: 2.343 cumulative IPC: 2.368 (Simulation time: 00 hr 08 min 53 sec)
Heartbeat CPU 0 instructions: 99500577 cycles: 31271981 heartbeat IPC: 2.337 cumulative IPC: 2.368 (Simulation time: 00 hr 08 min 57 sec)
Heartbeat CPU 0 instructions: 100000577 cycles: 31480754 heartbeat IPC: 2.395 cumulative IPC: 2.368 (Simulation time: 00 hr 09 min 00 sec)
Heartbeat CPU 0 instructions: 100500583 cycles: 31691565 heartbeat IPC: 2.372 cumulative IPC: 2.368 (Simulation time: 00 hr 09 min 03 sec)
Heartbeat CPU 0 instructions: 101000585 cycles: 31902737 heartbeat IPC: 2.368 cumulative IPC: 2.368 (Simulation time: 00 hr 09 min 07 sec)
Heartbeat CPU 0 instructions: 101500586 cycles: 32112754 heartbeat IPC: 2.381 cumulative IPC: 2.369 (Simulation time: 00 hr 09 min 10 sec)
Heartbeat CPU 0 instructions: 102000591 cycles: 32326440 heartbeat IPC: 2.34 cumulative IPC: 2.368 (Simulation time: 00 hr 09 min 13 sec)
Heartbeat CPU 0 instructions: 102500591 cycles: 32535696 heartbeat IPC: 2.389 cumulative IPC: 2.368 (Simulation time: 00 hr 09 min 16 sec)
Heartbeat CPU 0 instructions: 103000597 cycles: 32750296 heartbeat IPC: 2.33 cumulative IPC: 2.368 (Simulation time: 00 hr 09 min 20 sec)
Heartbeat CPU 0 instructions: 103500598 cycles: 32959807 heartbeat IPC: 2.387 cumulative IPC: 2.368 (Simulation time: 00 hr 09 min 23 sec)
Heartbeat CPU 0 instructions: 104000598 cycles: 33172481 heartbeat IPC: 2.351 cumulative IPC: 2.368 (Simulation time: 00 hr 09 min 26 sec)
Heartbeat CPU 0 instructions: 104500605 cycles: 33384141 heartbeat IPC: 2.362 cumulative IPC: 2.368 (Simulation time: 00 hr 09 min 30 sec)
Heartbeat CPU 0 instructions: 105000605 cycles: 33597575 heartbeat IPC: 2.343 cumulative IPC: 2.368 (Simulation time: 00 hr 09 min 33 sec)
Heartbeat CPU 0 instructions: 105500611 cycles: 33809064 heartbeat IPC: 2.364 cumulative IPC: 2.368 (Simulation time: 00 hr 09 min 36 sec)
Heartbeat CPU 0 instructions: 106000611 cycles: 34017863 heartbeat IPC: 2.395 cumulative IPC: 2.368 (Simulation time: 00 hr 09 min 39 sec)
Heartbeat CPU 0 instructions: 106500612 cycles: 34227750 heartbeat IPC: 2.382 cumulative IPC: 2.368 (Simulation time: 00 hr 09 min 43 sec)
Heartbeat CPU 0 instructions: 107000613 cycles: 34439197 heartbeat IPC: 2.365 cumulative IPC: 2.368 (Simulation time: 00 hr 09 min 46 sec)
Heartbeat CPU 0 instructions: 107500618 cycles: 34650129 heartbeat IPC: 2.37 cumulative IPC: 2.368 (Simulation time: 00 hr 09 min 49 sec)
Heartbeat CPU 0 instructions: 108000625 cycles: 34861170 heartbeat IPC: 2.369 cumulative IPC: 2.368 (Simulation time: 00 hr 09 min 53 sec)
Heartbeat CPU 0 instructions: 108500626 cycles: 35071857 heartbeat IPC: 2.373 cumulative IPC: 2.368 (Simulation time: 00 hr 09 min 56 sec)
Heartbeat CPU 0 instructions: 109000626 cycles: 35284602 heartbeat IPC: 2.35 cumulative IPC: 2.368 (Simulation time: 00 hr 09 min 59 sec)
Heartbeat CPU 0 instructions: 109500626 cycles: 35499930 heartbeat IPC: 2.322 cumulative IPC: 2.368 (Simulation time: 00 hr 10 min 02 sec)
Heartbeat CPU 0 instructions: 110000632 cycles: 35708453 heartbeat IPC: 2.398 cumulative IPC: 2.368 (Simulation time: 00 hr 10 min 06 sec)
Heartbeat CPU 0 instructions: 110500639 cycles: 35919571 heartbeat IPC: 2.368 cumulative IPC: 2.368 (Simulation time: 00 hr 10 min 09 sec)
Heartbeat CPU 0 instructions: 111000640 cycles: 36127697 heartbeat IPC: 2.402 cumulative IPC: 2.368 (Simulation time: 00 hr 10 min 12 sec)
Heartbeat CPU 0 instructions: 111500640 cycles: 36336735 heartbeat IPC: 2.392 cumulative IPC: 2.368 (Simulation time: 00 hr 10 min 16 sec)
Heartbeat CPU 0 instructions: 112000645 cycles: 36553780 heartbeat IPC: 2.304 cumulative IPC: 2.368 (Simulation time: 00 hr 10 min 19 sec)
Heartbeat CPU 0 instructions: 112500646 cycles: 36768210 heartbeat IPC: 2.332 cumulative IPC: 2.368 (Simulation time: 00 hr 10 min 22 sec)
Heartbeat CPU 0 instructions: 113000653 cycles: 36979564 heartbeat IPC: 2.366 cumulative IPC: 2.368 (Simulation time: 00 hr 10 min 25 sec)
Heartbeat CPU 0 instructions: 113500654 cycles: 37189804 heartbeat IPC: 2.378 cumulative IPC: 2.368 (Simulation time: 00 hr 10 min 29 sec)
Heartbeat CPU 0 instructions: 114000654 cycles: 37397307 heartbeat IPC: 2.41 cumulative IPC: 2.368 (Simulation time: 00 hr 10 min 32 sec)
Heartbeat CPU 0 instructions: 114500659 cycles: 37608811 heartbeat IPC: 2.364 cumulative IPC: 2.368 (Simulation time: 00 hr 10 min 35 sec)
Heartbeat CPU 0 instructions: 115000660 cycles: 37817899 heartbeat IPC: 2.391 cumulative IPC: 2.368 (Simulation time: 00 hr 10 min 39 sec)
Heartbeat CPU 0 instructions: 115500667 cycles: 38032207 heartbeat IPC: 2.333 cumulative IPC: 2.368 (Simulation time: 00 hr 10 min 42 sec)
Heartbeat CPU 0 instructions: 116000668 cycles: 38242928 heartbeat IPC: 2.373 cumulative IPC: 2.368 (Simulation time: 00 hr 10 min 45 sec)
Heartbeat CPU 0 instructions: 116500669 cycles: 38457273 heartbeat IPC: 2.333 cumulative IPC: 2.368 (Simulation time: 00 hr 10 min 49 sec)
Heartbeat CPU 0 instructions: 117000673 cycles: 38668339 heartbeat IPC: 2.369 cumulative IPC: 2.368 (Simulation time: 00 hr 10 min 52 sec)
Heartbeat CPU 0 instructions: 117500675 cycles: 38884049 heartbeat IPC: 2.318 cumulative IPC: 2.367 (Simulation time: 00 hr 10 min 55 sec)
Heartbeat CPU 0 instructions: 118000679 cycles: 39093619 heartbeat IPC: 2.386 cumulative IPC: 2.367 (Simulation time: 00 hr 10 min 58 sec)
Heartbeat CPU 0 instructions: 118500682 cycles: 39305097 heartbeat IPC: 2.364 cumulative IPC: 2.367 (Simulation time: 00 hr 11 min 02 sec)
Heartbeat CPU 0 instructions: 119000684 cycles: 39515138 heartbeat IPC: 2.38 cumulative IPC: 2.367 (Simulation time: 00 hr 11 min 05 sec)
Heartbeat CPU 0 instructions: 119500685 cycles: 39726745 heartbeat IPC: 2.363 cumulative IPC: 2.367 (Simulation time: 00 hr 11 min 08 sec)
Heartbeat CPU 0 instructions: 120000688 cycles: 39935758 heartbeat IPC: 2.392 cumulative IPC: 2.368 (Simulation time: 00 hr 11 min 12 sec)
Heartbeat CPU 0 instructions: 120500688 cycles: 40147153 heartbeat IPC: 2.365 cumulative IPC: 2.368 (Simulation time: 00 hr 11 min 15 sec)
Heartbeat CPU 0 instructions: 121000688 cycles: 40355564 heartbeat IPC: 2.399 cumulative IPC: 2.368 (Simulation time: 00 hr 11 min 18 sec)
Heartbeat CPU 0 instructions: 121500694 cycles: 40565351 heartbeat IPC: 2.383 cumulative IPC: 2.368 (Simulation time: 00 hr 11 min 21 sec)
Heartbeat CPU 0 instructions: 122000694 cycles: 40777217 heartbeat IPC: 2.36 cumulative IPC: 2.368 (Simulation time: 00 hr 11 min 25 sec)
Heartbeat CPU 0 instructions: 122500694 cycles: 40989427 heartbeat IPC: 2.356 cumulative IPC: 2.368 (Simulation time: 00 hr 11 min 28 sec)
Heartbeat CPU 0 instructions: 123000694 cycles: 41198857 heartbeat IPC: 2.387 cumulative IPC: 2.368 (Simulation time: 00 hr 11 min 31 sec)
Heartbeat CPU 0 instructions: 123500696 cycles: 41409063 heartbeat IPC: 2.379 cumulative IPC: 2.368 (Simulation time: 00 hr 11 min 35 sec)
Heartbeat CPU 0 instructions: 124000700 cycles: 41621502 heartbeat IPC: 2.354 cumulative IPC: 2.368 (Simulation time: 00 hr 11 min 38 sec)
Heartbeat CPU 0 instructions: 124500700 cycles: 41833711 heartbeat IPC: 2.356 cumulative IPC: 2.368 (Simulation time: 00 hr 11 min 41 sec)
Heartbeat CPU 0 instructions: 125000702 cycles: 42042893 heartbeat IPC: 2.39 cumulative IPC: 2.368 (Simulation time: 00 hr 11 min 44 sec)
Heartbeat CPU 0 instructions: 125500706 cycles: 42251044 heartbeat IPC: 2.402 cumulative IPC: 2.368 (Simulation time: 00 hr 11 min 48 sec)
Heartbeat CPU 0 instructions: 126000709 cycles: 42462670 heartbeat IPC: 2.363 cumulative IPC: 2.368 (Simulation time: 00 hr 11 min 51 sec)
Heartbeat CPU 0 instructions: 126500711 cycles: 42674532 heartbeat IPC: 2.36 cumulative IPC: 2.368 (Simulation time: 00 hr 11 min 54 sec)
Heartbeat CPU 0 instructions: 127000712 cycles: 42887350 heartbeat IPC: 2.349 cumulative IPC: 2.368 (Simulation time: 00 hr 11 min 57 sec)
Heartbeat CPU 0 instructions: 127500715 cycles: 43103290 heartbeat IPC: 2.315 cumulative IPC: 2.368 (Simulation time: 00 hr 12 min 01 sec)
Heartbeat CPU 0 instructions: 128000715 cycles: 43317788 heartbeat IPC: 2.331 cumulative IPC: 2.367 (Simulation time: 00 hr 12 min 04 sec)
Heartbeat CPU 0 instructions: 128500715 cycles: 43529181 heartbeat IPC: 2.365 cumulative IPC: 2.367 (Simulation time: 00 hr 12 min 07 sec)
Heartbeat CPU 0 instructions: 129000721 cycles: 43745561 heartbeat IPC: 2.311 cumulative IPC: 2.367 (Simulation time: 00 hr 12 min 11 sec)
Heartbeat CPU 0 instructions: 129500721 cycles: 43951808 heartbeat IPC: 2.424 cumulative IPC: 2.367 (Simulation time: 00 hr 12 min 14 sec)
Heartbeat CPU 0 instructions: 130000721 cycles: 44168285 heartbeat IPC: 2.31 cumulative IPC: 2.367 (Simulation time: 00 hr 12 min 17 sec)
Heartbeat CPU 0 instructions: 130500721 cycles: 44377927 heartbeat IPC: 2.385 cumulative IPC: 2.367 (Simulation time: 00 hr 12 min 21 sec)
Heartbeat CPU 0 instructions: 131000723 cycles: 44587411 heartbeat IPC: 2.387 cumulative IPC: 2.367 (Simulation time: 00 hr 12 min 24 sec)
Heartbeat CPU 0 instructions: 131500727 cycles: 44800585 heartbeat IPC: 2.346 cumulative IPC: 2.367 (Simulation time: 00 hr 12 min 27 sec)
Heartbeat CPU 0 instructions: 132000727 cycles: 45011010 heartbeat IPC: 2.376 cumulative IPC: 2.367 (Simulation time: 00 hr 12 min 30 sec)
Heartbeat CPU 0 instructions: 132500733 cycles: 45223045 heartbeat IPC: 2.358 cumulative IPC: 2.367 (Simulation time: 00 hr 12 min 34 sec)
Heartbeat CPU 0 instructions: 133000733 cycles: 45432924 heartbeat IPC: 2.382 cumulative IPC: 2.367 (Simulation time: 00 hr 12 min 37 sec)
Heartbeat CPU 0 instructions: 133500734 cycles: 45652345 heartbeat IPC: 2.279 cumulative IPC: 2.367 (Simulation time: 00 hr 12 min 40 sec)
Heartbeat CPU 0 instructions: 134000735 cycles: 45864016 heartbeat IPC: 2.362 cumulative IPC: 2.367 (Simulation time: 00 hr 12 min 44 sec)
Heartbeat CPU 0 instructions: 134500739 cycles: 46077312 heartbeat IPC: 2.344 cumulative IPC: 2.366 (Simulation time: 00 hr 12 min 47 sec)
Heartbeat CPU 0 instructions: 135000740 cycles: 46288963 heartbeat IPC: 2.362 cumulative IPC: 2.366 (Simulation time: 00 hr 12 min 50 sec)
Heartbeat CPU 0 instructions: 135500742 cycles: 46501561 heartbeat IPC: 2.352 cumulative IPC: 2.366 (Simulation time: 00 hr 12 min 54 sec)
Heartbeat CPU 0 instructions: 136000747 cycles: 46716062 heartbeat IPC: 2.331 cumulative IPC: 2.366 (Simulation time: 00 hr 12 min 57 sec)
Heartbeat CPU 0 instructions: 136500748 cycles: 46927633 heartbeat IPC: 2.363 cumulative IPC: 2.366 (Simulation time: 00 hr 13 min 00 sec)
Heartbeat CPU 0 instructions: 137000754 cycles: 47138423 heartbeat IPC: 2.372 cumulative IPC: 2.366 (Simulation time: 00 hr 13 min 03 sec)
Heartbeat CPU 0 instructions: 137500761 cycles: 47353764 heartbeat IPC: 2.322 cumulative IPC: 2.366 (Simulation time: 00 hr 13 min 07 sec)
Heartbeat CPU 0 instructions: 138000762 cycles: 47570851 heartbeat IPC: 2.303 cumulative IPC: 2.366 (Simulation time: 00 hr 13 min 10 sec)
Heartbeat CPU 0 instructions: 138500763 cycles: 47786546 heartbeat IPC: 2.318 cumulative IPC: 2.365 (Simulation time: 00 hr 13 min 13 sec)
Heartbeat CPU 0 instructions: 139000770 cycles: 47999683 heartbeat IPC: 2.346 cumulative IPC: 2.365 (Simulation time: 00 hr 13 min 17 sec)
Heartbeat CPU 0 instructions: 139500776 cycles: 48211626 heartbeat IPC: 2.359 cumulative IPC: 2.365 (Simulation time: 00 hr 13 min 20 sec)
Heartbeat CPU 0 instructions: 140000783 cycles: 48426711 heartbeat IPC: 2.325 cumulative IPC: 2.365 (Simulation time: 00 hr 13 min 23 sec)
Heartbeat CPU 0 instructions: 140500784 cycles: 48639592 heartbeat IPC: 2.349 cumulative IPC: 2.365 (Simulation time: 00 hr 13 min 27 sec)
Heartbeat CPU 0 instructions: 141000785 cycles: 48854557 heartbeat IPC: 2.326 cumulative IPC: 2.365 (Simulation time: 00 hr 13 min 30 sec)
Heartbeat CPU 0 instructions: 141500792 cycles: 49066066 heartbeat IPC: 2.364 cumulative IPC: 2.365 (Simulation time: 00 hr 13 min 33 sec)
Heartbeat CPU 0 instructions: 142000798 cycles: 49277486 heartbeat IPC: 2.365 cumulative IPC: 2.365 (Simulation time: 00 hr 13 min 37 sec)
Heartbeat CPU 0 instructions: 142500805 cycles: 49488772 heartbeat IPC: 2.366 cumulative IPC: 2.365 (Simulation time: 00 hr 13 min 40 sec)
Heartbeat CPU 0 instructions: 143000806 cycles: 49700537 heartbeat IPC: 2.361 cumulative IPC: 2.365 (Simulation time: 00 hr 13 min 43 sec)
Heartbeat CPU 0 instructions: 143500807 cycles: 49916251 heartbeat IPC: 2.318 cumulative IPC: 2.364 (Simulation time: 00 hr 13 min 47 sec)
Heartbeat CPU 0 instructions: 144000811 cycles: 50130974 heartbeat IPC: 2.329 cumulative IPC: 2.364 (Simulation time: 00 hr 13 min 50 sec)
Heartbeat CPU 0 instructions: 144500812 cycles: 50347085 heartbeat IPC: 2.314 cumulative IPC: 2.364 (Simulation time: 00 hr 13 min 53 sec)
Heartbeat CPU 0 instructions: 145000819 cycles: 50561432 heartbeat IPC: 2.333 cumulative IPC: 2.364 (Simulation time: 00 hr 13 min 57 sec)
Heartbeat CPU 0 instructions: 145500820 cycles: 50769114 heartbeat IPC: 2.408 cumulative IPC: 2.364 (Simulation time: 00 hr 14 min 00 sec)
Heartbeat CPU 0 instructions: 146000823 cycles: 50982669 heartbeat IPC: 2.341 cumulative IPC: 2.364 (Simulation time: 00 hr 14 min 03 sec)
Heartbeat CPU 0 instructions: 146500825 cycles: 51193839 heartbeat IPC: 2.368 cumulative IPC: 2.364 (Simulation time: 00 hr 14 min 06 sec)
Heartbeat CPU 0 instructions: 147000826 cycles: 51407022 heartbeat IPC: 2.345 cumulative IPC: 2.364 (Simulation time: 00 hr 14 min 10 sec)
Heartbeat CPU 0 instructions: 147500827 cycles: 51617229 heartbeat IPC: 2.379 cumulative IPC: 2.364 (Simulation time: 00 hr 14 min 13 sec)
Heartbeat CPU 0 instructions: 148000834 cycles: 51826614 heartbeat IPC: 2.388 cumulative IPC: 2.364 (Simulation time: 00 hr 14 min 16 sec)
Heartbeat CPU 0 instructions: 148500840 cycles: 52039317 heartbeat IPC: 2.351 cumulative IPC: 2.364 (Simulation time: 00 hr 14 min 20 sec)
Heartbeat CPU 0 instructions: 149000847 cycles: 52254491 heartbeat IPC: 2.324 cumulative IPC: 2.364 (Simulation time: 00 hr 14 min 23 sec)
Heartbeat CPU 0 instructions: 149500848 cycles: 52463796 heartbeat IPC: 2.389 cumulative IPC: 2.364 (Simulation time: 00 hr 14 min 26 sec)
Heartbeat CPU 0 instructions: 150000849 cycles: 52677042 heartbeat IPC: 2.345 cumulative IPC: 2.364 (Simulation time: 00 hr 14 min 29 sec)
Heartbeat CPU 0 instructions: 150500856 cycles: 52892344 heartbeat IPC: 2.322 cumulative IPC: 2.363 (Simulation time: 00 hr 14 min 33 sec)
Heartbeat CPU 0 instructions: 151000856 cycles: 53103755 heartbeat IPC: 2.365 cumulative IPC: 2.363 (Simulation time: 00 hr 14 min 36 sec)
Heartbeat CPU 0 instructions: 151500858 cycles: 53317154 heartbeat IPC: 2.343 cumulative IPC: 2.363 (Simulation time: 00 hr 14 min 39 sec)
Heartbeat CPU 0 instructions: 152000862 cycles: 53528393 heartbeat IPC: 2.367 cumulative IPC: 2.363 (Simulation time: 00 hr 14 min 43 sec)
Heartbeat CPU 0 instructions: 152500862 cycles: 53748704 heartbeat IPC: 2.27 cumulative IPC: 2.363 (Simulation time: 00 hr 14 min 46 sec)
Heartbeat CPU 0 instructions: 153000862 cycles: 53961030 heartbeat IPC: 2.355 cumulative IPC: 2.363 (Simulation time: 00 hr 14 min 49 sec)
Heartbeat CPU 0 instructions: 153500868 cycles: 54173073 heartbeat IPC: 2.358 cumulative IPC: 2.363 (Simulation time: 00 hr 14 min 53 sec)
Heartbeat CPU 0 instructions: 154000868 cycles: 54381852 heartbeat IPC: 2.395 cumulative IPC: 2.363 (Simulation time: 00 hr 14 min 56 sec)
Heartbeat CPU 0 instructions: 154500868 cycles: 54594211 heartbeat IPC: 2.355 cumulative IPC: 2.363 (Simulation time: 00 hr 14 min 59 sec)
Heartbeat CPU 0 instructions: 155000870 cycles: 54806645 heartbeat IPC: 2.354 cumulative IPC: 2.363 (Simulation time: 00 hr 15 min 03 sec)
Heartbeat CPU 0 instructions: 155500874 cycles: 55022095 heartbeat IPC: 2.321 cumulative IPC: 2.363 (Simulation time: 00 hr 15 min 06 sec)
Heartbeat CPU 0 instructions: 156000874 cycles: 55233171 heartbeat IPC: 2.369 cumulative IPC: 2.363 (Simulation time: 00 hr 15 min 09 sec)
Heartbeat CPU 0 instructions: 156500876 cycles: 55446587 heartbeat IPC: 2.343 cumulative IPC: 2.363 (Simulation time: 00 hr 15 min 12 sec)
Heartbeat CPU 0 instructions: 157000880 cycles: 55661417 heartbeat IPC: 2.327 cumulative IPC: 2.362 (Simulation time: 00 hr 15 min 16 sec)
Heartbeat CPU 0 instructions: 157500883 cycles: 55874582 heartbeat IPC: 2.346 cumulative IPC: 2.362 (Simulation time: 00 hr 15 min 19 sec)
Heartbeat CPU 0 instructions: 158000883 cycles: 56085988 heartbeat IPC: 2.365 cumulative IPC: 2.362 (Simulation time: 00 hr 15 min 22 sec)
Heartbeat CPU 0 instructions: 158500886 cycles: 56298952 heartbeat IPC: 2.348 cumulative IPC: 2.362 (Simulation time: 00 hr 15 min 26 sec)
Heartbeat CPU 0 instructions: 159000889 cycles: 56513222 heartbeat IPC: 2.334 cumulative IPC: 2.362 (Simulation time: 00 hr 15 min 29 sec)
Heartbeat CPU 0 instructions: 159500889 cycles: 56726682 heartbeat IPC: 2.342 cumulative IPC: 2.362 (Simulation time: 00 hr 15 min 32 sec)
Heartbeat CPU 0 instructions: 160000889 cycles: 56938630 heartbeat IPC: 2.359 cumulative IPC: 2.362 (Simulation time: 00 hr 15 min 36 sec)
Heartbeat CPU 0 instructions: 160500889 cycles: 57151026 heartbeat IPC: 2.354 cumulative IPC: 2.362 (Simulation time: 00 hr 15 min 39 sec)
Heartbeat CPU 0 instructions: 161000895 cycles: 57362338 heartbeat IPC: 2.366 cumulative IPC: 2.362 (Simulation time: 00 hr 15 min 42 sec)
Heartbeat CPU 0 instructions: 161500895 cycles: 57574469 heartbeat IPC: 2.357 cumulative IPC: 2.362 (Simulation time: 00 hr 15 min 46 sec)
Heartbeat CPU 0 instructions: 162000895 cycles: 57789910 heartbeat IPC: 2.321 cumulative IPC: 2.362 (Simulation time: 00 hr 15 min 49 sec)
Heartbeat CPU 0 instructions: 162500897 cycles: 58004174 heartbeat IPC: 2.334 cumulative IPC: 2.362 (Simulation time: 00 hr 15 min 52 sec)
Heartbeat CPU 0 instructions: 163000898 cycles: 58215810 heartbeat IPC: 2.363 cumulative IPC: 2.362 (Simulation time: 00 hr 15 min 55 sec)
Heartbeat CPU 0 instructions: 163500898 cycles: 58447353 heartbeat IPC: 2.159 cumulative IPC: 2.361 (Simulation time: 00 hr 15 min 59 sec)
Heartbeat CPU 0 instructions: 164000899 cycles: 58680926 heartbeat IPC: 2.141 cumulative IPC: 2.36 (Simulation time: 00 hr 16 min 02 sec)
Heartbeat CPU 0 instructions: 164500902 cycles: 58910355 heartbeat IPC: 2.179 cumulative IPC: 2.359 (Simulation time: 00 hr 16 min 06 sec)
Heartbeat CPU 0 instructions: 165000902 cycles: 59138788 heartbeat IPC: 2.189 cumulative IPC: 2.358 (Simulation time: 00 hr 16 min 09 sec)
Heartbeat CPU 0 instructions: 165500903 cycles: 59367881 heartbeat IPC: 2.183 cumulative IPC: 2.357 (Simulation time: 00 hr 16 min 12 sec)
Heartbeat CPU 0 instructions: 166000908 cycles: 59594726 heartbeat IPC: 2.204 cumulative IPC: 2.357 (Simulation time: 00 hr 16 min 16 sec)
Heartbeat CPU 0 instructions: 166500908 cycles: 59823705 heartbeat IPC: 2.184 cumulative IPC: 2.356 (Simulation time: 00 hr 16 min 19 sec)
Heartbeat CPU 0 instructions: 167000914 cycles: 60054805 heartbeat IPC: 2.164 cumulative IPC: 2.355 (Simulation time: 00 hr 16 min 23 sec)
Heartbeat CPU 0 instructions: 167500916 cycles: 60281542 heartbeat IPC: 2.205 cumulative IPC: 2.354 (Simulation time: 00 hr 16 min 26 sec)
Heartbeat CPU 0 instructions: 168000917 cycles: 60510296 heartbeat IPC: 2.186 cumulative IPC: 2.353 (Simulation time: 00 hr 16 min 29 sec)
Heartbeat CPU 0 instructions: 168500922 cycles: 60739094 heartbeat IPC: 2.185 cumulative IPC: 2.353 (Simulation time: 00 hr 16 min 33 sec)
Heartbeat CPU 0 instructions: 169000922 cycles: 60969756 heartbeat IPC: 2.168 cumulative IPC: 2.352 (Simulation time: 00 hr 16 min 36 sec)
Heartbeat CPU 0 instructions: 169500928 cycles: 61206291 heartbeat IPC: 2.114 cumulative IPC: 2.351 (Simulation time: 00 hr 16 min 40 sec)
Heartbeat CPU 0 instructions: 170000928 cycles: 61437092 heartbeat IPC: 2.166 cumulative IPC: 2.35 (Simulation time: 00 hr 16 min 43 sec)
Heartbeat CPU 0 instructions: 170500929 cycles: 61664714 heartbeat IPC: 2.197 cumulative IPC: 2.349 (Simulation time: 00 hr 16 min 46 sec)
Heartbeat CPU 0 instructions: 171000936 cycles: 61892705 heartbeat IPC: 2.193 cumulative IPC: 2.348 (Simulation time: 00 hr 16 min 50 sec)
Heartbeat CPU 0 instructions: 171500936 cycles: 62121817 heartbeat IPC: 2.182 cumulative IPC: 2.348 (Simulation time: 00 hr 16 min 53 sec)
Heartbeat CPU 0 instructions: 172000939 cycles: 62350736 heartbeat IPC: 2.184 cumulative IPC: 2.347 (Simulation time: 00 hr 16 min 56 sec)
Heartbeat CPU 0 instructions: 172500942 cycles: 62581708 heartbeat IPC: 2.165 cumulative IPC: 2.346 (Simulation time: 00 hr 17 min 00 sec)
Heartbeat CPU 0 instructions: 173000948 cycles: 62814447 heartbeat IPC: 2.148 cumulative IPC: 2.345 (Simulation time: 00 hr 17 min 03 sec)
Heartbeat CPU 0 instructions: 173500950 cycles: 63046152 heartbeat IPC: 2.158 cumulative IPC: 2.344 (Simulation time: 00 hr 17 min 07 sec)
Heartbeat CPU 0 instructions: 174000956 cycles: 63276449 heartbeat IPC: 2.171 cumulative IPC: 2.344 (Simulation time: 00 hr 17 min 10 sec)
Heartbeat CPU 0 instructions: 174500956 cycles: 63511997 heartbeat IPC: 2.123 cumulative IPC: 2.343 (Simulation time: 00 hr 17 min 14 sec)
Heartbeat CPU 0 instructions: 175000956 cycles: 63742553 heartbeat IPC: 2.169 cumulative IPC: 2.342 (Simulation time: 00 hr 17 min 17 sec)
Heartbeat CPU 0 instructions: 175500962 cycles: 63972512 heartbeat IPC: 2.174 cumulative IPC: 2.341 (Simulation time: 00 hr 17 min 20 sec)
Heartbeat CPU 0 instructions: 176000962 cycles: 64203137 heartbeat IPC: 2.168 cumulative IPC: 2.341 (Simulation time: 00 hr 17 min 24 sec)
Heartbeat CPU 0 instructions: 176500962 cycles: 64429390 heartbeat IPC: 2.21 cumulative IPC: 2.34 (Simulation time: 00 hr 17 min 27 sec)
Heartbeat CPU 0 instructions: 177000962 cycles: 64659563 heartbeat IPC: 2.172 cumulative IPC: 2.339 (Simulation time: 00 hr 17 min 31 sec)
Heartbeat CPU 0 instructions: 177500962 cycles: 64886499 heartbeat IPC: 2.203 cumulative IPC: 2.339 (Simulation time: 00 hr 17 min 34 sec)
Heartbeat CPU 0 instructions: 178000968 cycles: 65111627 heartbeat IPC: 2.221 cumulative IPC: 2.338 (Simulation time: 00 hr 17 min 37 sec)
Heartbeat CPU 0 instructions: 178500968 cycles: 65340927 heartbeat IPC: 2.181 cumulative IPC: 2.338 (Simulation time: 00 hr 17 min 41 sec)
Heartbeat CPU 0 instructions: 179000968 cycles: 65570873 heartbeat IPC: 2.174 cumulative IPC: 2.337 (Simulation time: 00 hr 17 min 44 sec)
Heartbeat CPU 0 instructions: 179500970 cycles: 65798605 heartbeat IPC: 2.196 cumulative IPC: 2.336 (Simulation time: 00 hr 17 min 47 sec)
Heartbeat CPU 0 instructions: 180000974 cycles: 66027060 heartbeat IPC: 2.189 cumulative IPC: 2.336 (Simulation time: 00 hr 17 min 51 sec)
Heartbeat CPU 0 instructions: 180500974 cycles: 66255165 heartbeat IPC: 2.192 cumulative IPC: 2.335 (Simulation time: 00 hr 17 min 54 sec)
Heartbeat CPU 0 instructions: 181000976 cycles: 66488301 heartbeat IPC: 2.145 cumulative IPC: 2.334 (Simulation time: 00 hr 17 min 58 sec)
Heartbeat CPU 0 instructions: 181500980 cycles: 66710657 heartbeat IPC: 2.249 cumulative IPC: 2.334 (Simulation time: 00 hr 18 min 01 sec)
Heartbeat CPU 0 instructions: 182000983 cycles: 66948428 heartbeat IPC: 2.103 cumulative IPC: 2.333 (Simulation time: 00 hr 18 min 05 sec)
Heartbeat CPU 0 instructions: 182500983 cycles: 67182468 heartbeat IPC: 2.136 cumulative IPC: 2.332 (Simulation time: 00 hr 18 min 08 sec)
Heartbeat CPU 0 instructions: 183000986 cycles: 67411908 heartbeat IPC: 2.179 cumulative IPC: 2.332 (Simulation time: 00 hr 18 min 11 sec)
Heartbeat CPU 0 instructions: 183500989 cycles: 67641105 heartbeat IPC: 2.182 cumulative IPC: 2.331 (Simulation time: 00 hr 18 min 15 sec)
Heartbeat CPU 0 instructions: 184000989 cycles: 67868293 heartbeat IPC: 2.201 cumulative IPC: 2.33 (Simulation time: 00 hr 18 min 18 sec)
Heartbeat CPU 0 instructions: 184500989 cycles: 68096627 heartbeat IPC: 2.19 cumulative IPC: 2.33 (Simulation time: 00 hr 18 min 22 sec)
Heartbeat CPU 0 instructions: 185000989 cycles: 68325499 heartbeat IPC: 2.185 cumulative IPC: 2.329 (Simulation time: 00 hr 18 min 25 sec)
Heartbeat CPU 0 instructions: 185500995 cycles: 68553553 heartbeat IPC: 2.192 cumulative IPC: 2.329 (Simulation time: 00 hr 18 min 28 sec)
Heartbeat CPU 0 instructions: 186000995 cycles: 68783069 heartbeat IPC: 2.178 cumulative IPC: 2.328 (Simulation time: 00 hr 18 min 32 sec)
Heartbeat CPU 0 instructions: 186500995 cycles: 69020456 heartbeat IPC: 2.106 cumulative IPC: 2.327 (Simulation time: 00 hr 18 min 35 sec)
Heartbeat CPU 0 instructions: 187000997 cycles: 69249041 heartbeat IPC: 2.187 cumulative IPC: 2.327 (Simulation time: 00 hr 18 min 39 sec)
Heartbeat CPU 0 instructions: 187501001 cycles: 69478662 heartbeat IPC: 2.178 cumulative IPC: 2.326 (Simulation time: 00 hr 18 min 42 sec)
Heartbeat CPU 0 instructions: 188001001 cycles: 69707459 heartbeat IPC: 2.185 cumulative IPC: 2.326 (Simulation time: 00 hr 18 min 45 sec)
Heartbeat CPU 0 instructions: 188501003 cycles: 69935885 heartbeat IPC: 2.189 cumulative IPC: 2.325 (Simulation time: 00 hr 18 min 49 sec)
Heartbeat CPU 0 instructions: 189001007 cycles: 70168832 heartbeat IPC: 2.146 cumulative IPC: 2.324 (Simulation time: 00 hr 18 min 52 sec)
Heartbeat CPU 0 instructions: 189501010 cycles: 70400036 heartbeat IPC: 2.163 cumulative IPC: 2.324 (Simulation time: 00 hr 18 min 56 sec)
Heartbeat CPU 0 instructions: 190001011 cycles: 70633248 heartbeat IPC: 2.144 cumulative IPC: 2.323 (Simulation time: 00 hr 18 min 59 sec)
Heartbeat CPU 0 instructions: 190501016 cycles: 70860804 heartbeat IPC: 2.197 cumulative IPC: 2.323 (Simulation time: 00 hr 19 min 02 sec)
Heartbeat CPU 0 instructions: 191001016 cycles: 71089052 heartbeat IPC: 2.191 cumulative IPC: 2.322 (Simulation time: 00 hr 19 min 06 sec)
Heartbeat CPU 0 instructions: 191501016 cycles: 71318128 heartbeat IPC: 2.183 cumulative IPC: 2.322 (Simulation time: 00 hr 19 min 09 sec)
Heartbeat CPU 0 instructions: 192001018 cycles: 71555605 heartbeat IPC: 2.105 cumulative IPC: 2.321 (Simulation time: 00 hr 19 min 13 sec)
Heartbeat CPU 0 instructions: 192501023 cycles: 71786940 heartbeat IPC: 2.161 cumulative IPC: 2.32 (Simulation time: 00 hr 19 min 16 sec)
Heartbeat CPU 0 instructions: 193001030 cycles: 72014536 heartbeat IPC: 2.197 cumulative IPC: 2.32 (Simulation time: 00 hr 19 min 19 sec)
Heartbeat CPU 0 instructions: 193501030 cycles: 72251291 heartbeat IPC: 2.112 cumulative IPC: 2.319 (Simulation time: 00 hr 19 min 23 sec)
Heartbeat CPU 0 instructions: 194001032 cycles: 72483416 heartbeat IPC: 2.154 cumulative IPC: 2.318 (Simulation time: 00 hr 19 min 26 sec)
Heartbeat CPU 0 instructions: 194501033 cycles: 72713754 heartbeat IPC: 2.171 cumulative IPC: 2.318 (Simulation time: 00 hr 19 min 30 sec)
Heartbeat CPU 0 instructions: 195001037 cycles: 72944890 heartbeat IPC: 2.163 cumulative IPC: 2.317 (Simulation time: 00 hr 19 min 33 sec)
Heartbeat CPU 0 instructions: 195501038 cycles: 73176517 heartbeat IPC: 2.159 cumulative IPC: 2.317 (Simulation time: 00 hr 19 min 36 sec)
Heartbeat CPU 0 instructions: 196001043 cycles: 73411120 heartbeat IPC: 2.131 cumulative IPC: 2.316 (Simulation time: 00 hr 19 min 40 sec)
Heartbeat CPU 0 instructions: 196501045 cycles: 73636378 heartbeat IPC: 2.22 cumulative IPC: 2.316 (Simulation time: 00 hr 19 min 43 sec)
Heartbeat CPU 0 instructions: 197001051 cycles: 73864930 heartbeat IPC: 2.188 cumulative IPC: 2.315 (Simulation time: 00 hr 19 min 47 sec)
Heartbeat CPU 0 instructions: 197501051 cycles: 74099411 heartbeat IPC: 2.132 cumulative IPC: 2.314 (Simulation time: 00 hr 19 min 50 sec)
Heartbeat CPU 0 instructions: 198001051 cycles: 74323996 heartbeat IPC: 2.226 cumulative IPC: 2.314 (Simulation time: 00 hr 19 min 53 sec)
Heartbeat CPU 0 instructions: 198501057 cycles: 74559728 heartbeat IPC: 2.121 cumulative IPC: 2.313 (Simulation time: 00 hr 19 min 57 sec)
Heartbeat CPU 0 instructions: 199001064 cycles: 74792009 heartbeat IPC: 2.153 cumulative IPC: 2.313 (Simulation time: 00 hr 20 min 00 sec)
Heartbeat CPU 0 instructions: 199501065 cycles: 75021864 heartbeat IPC: 2.175 cumulative IPC: 2.312 (Simulation time: 00 hr 20 min 04 sec)
Heartbeat CPU 0 instructions: 200001065 cycles: 75256472 heartbeat IPC: 2.131 cumulative IPC: 2.312 (Simulation time: 00 hr 20 min 07 sec)
Heartbeat CPU 0 instructions: 200501065 cycles: 75491367 heartbeat IPC: 2.129 cumulative IPC: 2.311 (Simulation time: 00 hr 20 min 11 sec)
Heartbeat CPU 0 instructions: 201001071 cycles: 75718073 heartbeat IPC: 2.206 cumulative IPC: 2.311 (Simulation time: 00 hr 20 min 14 sec)
Heartbeat CPU 0 instructions: 201501078 cycles: 75948909 heartbeat IPC: 2.166 cumulative IPC: 2.31 (Simulation time: 00 hr 20 min 17 sec)
Heartbeat CPU 0 instructions: 202001079 cycles: 76174754 heartbeat IPC: 2.214 cumulative IPC: 2.31 (Simulation time: 00 hr 20 min 21 sec)
Heartbeat CPU 0 instructions: 202501079 cycles: 76403781 heartbeat IPC: 2.183 cumulative IPC: 2.309 (Simulation time: 00 hr 20 min 24 sec)
Heartbeat CPU 0 instructions: 203001079 cycles: 76635070 heartbeat IPC: 2.162 cumulative IPC: 2.309 (Simulation time: 00 hr 20 min 27 sec)
Heartbeat CPU 0 instructions: 203501085 cycles: 76863709 heartbeat IPC: 2.187 cumulative IPC: 2.308 (Simulation time: 00 hr 20 min 31 sec)
Heartbeat CPU 0 instructions: 204001092 cycles: 77094250 heartbeat IPC: 2.169 cumulative IPC: 2.308 (Simulation time: 00 hr 20 min 34 sec)
Heartbeat CPU 0 instructions: 204501093 cycles: 77327342 heartbeat IPC: 2.145 cumulative IPC: 2.307 (Simulation time: 00 hr 20 min 38 sec)
Heartbeat CPU 0 instructions: 205001094 cycles: 77557793 heartbeat IPC: 2.17 cumulative IPC: 2.307 (Simulation time: 00 hr 20 min 41 sec)
Heartbeat CPU 0 instructions: 205501101 cycles: 77785767 heartbeat IPC: 2.193 cumulative IPC: 2.307 (Simulation time: 00 hr 20 min 45 sec)
Heartbeat CPU 0 instructions: 206001107 cycles: 78013966 heartbeat IPC: 2.191 cumulative IPC: 2.306 (Simulation time: 00 hr 20 min 48 sec)
Heartbeat CPU 0 instructions: 206501114 cycles: 78243817 heartbeat IPC: 2.175 cumulative IPC: 2.306 (Simulation time: 00 hr 20 min 51 sec)
Heartbeat CPU 0 instructions: 207001115 cycles: 78469655 heartbeat IPC: 2.214 cumulative IPC: 2.305 (Simulation time: 00 hr 20 min 55 sec)
Heartbeat CPU 0 instructions: 207501116 cycles: 78701451 heartbeat IPC: 2.157 cumulative IPC: 2.305 (Simulation time: 00 hr 20 min 58 sec)
Heartbeat CPU 0 instructions: 208001123 cycles: 78926688 heartbeat IPC: 2.22 cumulative IPC: 2.305 (Simulation time: 00 hr 21 min 01 sec)
Heartbeat CPU 0 instructions: 208501125 cycles: 79155971 heartbeat IPC: 2.181 cumulative IPC: 2.304 (Simulation time: 00 hr 21 min 05 sec)
Heartbeat CPU 0 instructions: 209001126 cycles: 79383956 heartbeat IPC: 2.193 cumulative IPC: 2.304 (Simulation time: 00 hr 21 min 08 sec)
Heartbeat CPU 0 instructions: 209501129 cycles: 79611136 heartbeat IPC: 2.201 cumulative IPC: 2.304 (Simulation time: 00 hr 21 min 11 sec)
Heartbeat CPU 0 instructions: 210001129 cycles: 79842273 heartbeat IPC: 2.163 cumulative IPC: 2.303 (Simulation time: 00 hr 21 min 15 sec)
Heartbeat CPU 0 instructions: 210501132 cycles: 80072151 heartbeat IPC: 2.175 cumulative IPC: 2.303 (Simulation time: 00 hr 21 min 18 sec)
Heartbeat CPU 0 instructions: 211001135 cycles: 80296893 heartbeat IPC: 2.225 cumulative IPC: 2.302 (Simulation time: 00 hr 21 min 22 sec)
Heartbeat CPU 0 instructions: 211501135 cycles: 80525121 heartbeat IPC: 2.191 cumulative IPC: 2.302 (Simulation time: 00 hr 21 min 25 sec)
Heartbeat CPU 0 instructions: 212001135 cycles: 80762298 heartbeat IPC: 2.108 cumulative IPC: 2.301 (Simulation time: 00 hr 21 min 28 sec)
Heartbeat CPU 0 instructions: 212501141 cycles: 80989248 heartbeat IPC: 2.203 cumulative IPC: 2.301 (Simulation time: 00 hr 21 min 32 sec)
Heartbeat CPU 0 instructions: 213001141 cycles: 81224717 heartbeat IPC: 2.123 cumulative IPC: 2.3 (Simulation time: 00 hr 21 min 35 sec)
Heartbeat CPU 0 instructions: 213501141 cycles: 81451950 heartbeat IPC: 2.2 cumulative IPC: 2.3 (Simulation time: 00 hr 21 min 39 sec)
Heartbeat CPU 0 instructions: 214001141 cycles: 81681584 heartbeat IPC: 2.177 cumulative IPC: 2.3 (Simulation time: 00 hr 21 min 42 sec)
Heartbeat CPU 0 instructions: 214501143 cycles: 81909938 heartbeat IPC: 2.19 cumulative IPC: 2.299 (Simulation time: 00 hr 21 min 45 sec)
Heartbeat CPU 0 instructions: 215001147 cycles: 82137148 heartbeat IPC: 2.201 cumulative IPC: 2.299 (Simulation time: 00 hr 21 min 49 sec)
Heartbeat CPU 0 instructions: 215501147 cycles: 82368218 heartbeat IPC: 2.164 cumulative IPC: 2.299 (Simulation time: 00 hr 21 min 52 sec)
Heartbeat CPU 0 instructions: 216001149 cycles: 82594184 heartbeat IPC: 2.213 cumulative IPC: 2.298 (Simulation time: 00 hr 21 min 55 sec)
Heartbeat CPU 0 instructions: 216501153 cycles: 82822846 heartbeat IPC: 2.187 cumulative IPC: 2.298 (Simulation time: 00 hr 21 min 59 sec)
Heartbeat CPU 0 instructions: 217001156 cycles: 83052687 heartbeat IPC: 2.175 cumulative IPC: 2.298 (Simulation time: 00 hr 22 min 02 sec)
Heartbeat CPU 0 instructions: 217501158 cycles: 83280276 heartbeat IPC: 2.197 cumulative IPC: 2.297 (Simulation time: 00 hr 22 min 06 sec)
Heartbeat CPU 0 instructions: 218001159 cycles: 83506606 heartbeat IPC: 2.209 cumulative IPC: 2.297 (Simulation time: 00 hr 22 min 09 sec)
Heartbeat CPU 0 instructions: 218501162 cycles: 83739584 heartbeat IPC: 2.146 cumulative IPC: 2.297 (Simulation time: 00 hr 22 min 12 sec)
Heartbeat CPU 0 instructions: 219001162 cycles: 83964954 heartbeat IPC: 2.219 cumulative IPC: 2.296 (Simulation time: 00 hr 22 min 16 sec)
Heartbeat CPU 0 instructions: 219501162 cycles: 84193300 heartbeat IPC: 2.19 cumulative IPC: 2.296 (Simulation time: 00 hr 22 min 19 sec)
Heartbeat CPU 0 instructions: 220001168 cycles: 84420539 heartbeat IPC: 2.2 cumulative IPC: 2.296 (Simulation time: 00 hr 22 min 22 sec)
Heartbeat CPU 0 instructions: 220501168 cycles: 84649836 heartbeat IPC: 2.181 cumulative IPC: 2.295 (Simulation time: 00 hr 22 min 26 sec)
Heartbeat CPU 0 instructions: 221001168 cycles: 84878748 heartbeat IPC: 2.184 cumulative IPC: 2.295 (Simulation time: 00 hr 22 min 29 sec)
Heartbeat CPU 0 instructions: 221501168 cycles: 85104438 heartbeat IPC: 2.215 cumulative IPC: 2.295 (Simulation time: 00 hr 22 min 33 sec)
Heartbeat CPU 0 instructions: 222001169 cycles: 85334141 heartbeat IPC: 2.177 cumulative IPC: 2.294 (Simulation time: 00 hr 22 min 36 sec)
Heartbeat CPU 0 instructions: 222501174 cycles: 85562776 heartbeat IPC: 2.187 cumulative IPC: 2.294 (Simulation time: 00 hr 22 min 39 sec)
Heartbeat CPU 0 instructions: 223001174 cycles: 85790923 heartbeat IPC: 2.192 cumulative IPC: 2.294 (Simulation time: 00 hr 22 min 43 sec)
Heartbeat CPU 0 instructions: 223501176 cycles: 86018528 heartbeat IPC: 2.197 cumulative IPC: 2.293 (Simulation time: 00 hr 22 min 46 sec)
Heartbeat CPU 0 instructions: 224001180 cycles: 86252410 heartbeat IPC: 2.138 cumulative IPC: 2.293 (Simulation time: 00 hr 22 min 50 sec)
Heartbeat CPU 0 instructions: 224501181 cycles: 86488056 heartbeat IPC: 2.122 cumulative IPC: 2.292 (Simulation time: 00 hr 22 min 53 sec)
Heartbeat CPU 0 instructions: 225001182 cycles: 86717948 heartbeat IPC: 2.175 cumulative IPC: 2.292 (Simulation time: 00 hr 22 min 56 sec)
Heartbeat CPU 0 instructions: 225501186 cycles: 86945537 heartbeat IPC: 2.197 cumulative IPC: 2.292 (Simulation time: 00 hr 23 min 00 sec)
Heartbeat CPU 0 instructions: 226001189 cycles: 87175375 heartbeat IPC: 2.175 cumulative IPC: 2.291 (Simulation time: 00 hr 23 min 03 sec)
Heartbeat CPU 0 instructions: 226501195 cycles: 87406355 heartbeat IPC: 2.165 cumulative IPC: 2.291 (Simulation time: 00 hr 23 min 07 sec)
Heartbeat CPU 0 instructions: 227001195 cycles: 87641982 heartbeat IPC: 2.122 cumulative IPC: 2.291 (Simulation time: 00 hr 23 min 10 sec)
Heartbeat CPU 0 instructions: 227501195 cycles: 87873906 heartbeat IPC: 2.156 cumulative IPC: 2.29 (Simulation time: 00 hr 23 min 13 sec)
Heartbeat CPU 0 instructions: 228001201 cycles: 88099551 heartbeat IPC: 2.216 cumulative IPC: 2.29 (Simulation time: 00 hr 23 min 17 sec)
Heartbeat CPU 0 instructions: 228501202 cycles: 88327326 heartbeat IPC: 2.195 cumulative IPC: 2.29 (Simulation time: 00 hr 23 min 20 sec)
Heartbeat CPU 0 instructions: 229001209 cycles: 88563372 heartbeat IPC: 2.118 cumulative IPC: 2.289 (Simulation time: 00 hr 23 min 24 sec)
Heartbeat CPU 0 instructions: 229501210 cycles: 88797428 heartbeat IPC: 2.136 cumulative IPC: 2.289 (Simulation time: 00 hr 23 min 27 sec)
Heartbeat CPU 0 instructions: 230001217 cycles: 89025270 heartbeat IPC: 2.195 cumulative IPC: 2.288 (Simulation time: 00 hr 23 min 30 sec)
Heartbeat CPU 0 instructions: 230501223 cycles: 89254067 heartbeat IPC: 2.185 cumulative IPC: 2.288 (Simulation time: 00 hr 23 min 34 sec)
Heartbeat CPU 0 instructions: 231001230 cycles: 89482963 heartbeat IPC: 2.184 cumulative IPC: 2.288 (Simulation time: 00 hr 23 min 37 sec)
Heartbeat CPU 0 instructions: 231501231 cycles: 89711098 heartbeat IPC: 2.192 cumulative IPC: 2.288 (Simulation time: 00 hr 23 min 41 sec)
Heartbeat CPU 0 instructions: 232001232 cycles: 89940741 heartbeat IPC: 2.177 cumulative IPC: 2.287 (Simulation time: 00 hr 23 min 44 sec)
Heartbeat CPU 0 instructions: 232501239 cycles: 90167835 heartbeat IPC: 2.202 cumulative IPC: 2.287 (Simulation time: 00 hr 23 min 47 sec)
Heartbeat CPU 0 instructions: 233001245 cycles: 90399365 heartbeat IPC: 2.16 cumulative IPC: 2.287 (Simulation time: 00 hr 23 min 51 sec)
Heartbeat CPU 0 instructions: 233501252 cycles: 90629308 heartbeat IPC: 2.174 cumulative IPC: 2.286 (Simulation time: 00 hr 23 min 54 sec)
Heartbeat CPU 0 instructions: 234001253 cycles: 90864827 heartbeat IPC: 2.123 cumulative IPC: 2.286 (Simulation time: 00 hr 23 min 58 sec)
Heartbeat CPU 0 instructions: 234501254 cycles: 91094836 heartbeat IPC: 2.174 cumulative IPC: 2.286 (Simulation time: 00 hr 24 min 01 sec)
Heartbeat CPU 0 instructions: 235001261 cycles: 91321055 heartbeat IPC: 2.21 cumulative IPC: 2.285 (Simulation time: 00 hr 24 min 04 sec)
Heartbeat CPU 0 instructions: 235501267 cycles: 91549840 heartbeat IPC: 2.185 cumulative IPC: 2.285 (Simulation time: 00 hr 24 min 08 sec)
Heartbeat CPU 0 instructions: 236001274 cycles: 91778749 heartbeat IPC: 2.184 cumulative IPC: 2.285 (Simulation time: 00 hr 24 min 11 sec)
Heartbeat CPU 0 instructions: 236501275 cycles: 92006413 heartbeat IPC: 2.196 cumulative IPC: 2.285 (Simulation time: 00 hr 24 min 15 sec)
Heartbeat CPU 0 instructions: 237001276 cycles: 92236414 heartbeat IPC: 2.174 cumulative IPC: 2.284 (Simulation time: 00 hr 24 min 18 sec)
Heartbeat CPU 0 instructions: 237501283 cycles: 92469897 heartbeat IPC: 2.142 cumulative IPC: 2.284 (Simulation time: 00 hr 24 min 21 sec)
Heartbeat CPU 0 instructions: 238001289 cycles: 92702980 heartbeat IPC: 2.145 cumulative IPC: 2.283 (Simulation time: 00 hr 24 min 25 sec)
Heartbeat CPU 0 instructions: 238501296 cycles: 92933672 heartbeat IPC: 2.167 cumulative IPC: 2.283 (Simulation time: 00 hr 24 min 28 sec)
Heartbeat CPU 0 instructions: 239001297 cycles: 93170961 heartbeat IPC: 2.107 cumulative IPC: 2.283 (Simulation time: 00 hr 24 min 32 sec)
Heartbeat CPU 0 instructions: 239501298 cycles: 93403513 heartbeat IPC: 2.15 cumulative IPC: 2.282 (Simulation time: 00 hr 24 min 35 sec)
Heartbeat CPU 0 instructions: 240001305 cycles: 93634720 heartbeat IPC: 2.163 cumulative IPC: 2.282 (Simulation time: 00 hr 24 min 39 sec)
Heartbeat CPU 0 instructions: 240501311 cycles: 93869201 heartbeat IPC: 2.132 cumulative IPC: 2.281 (Simulation time: 00 hr 24 min 42 sec)
Heartbeat CPU 0 instructions: 241001318 cycles: 94095675 heartbeat IPC: 2.208 cumulative IPC: 2.281 (Simulation time: 00 hr 24 min 45 sec)
Heartbeat CPU 0 instructions: 241501319 cycles: 94328084 heartbeat IPC: 2.151 cumulative IPC: 2.281 (Simulation time: 00 hr 24 min 49 sec)
Heartbeat CPU 0 instructions: 242001320 cycles: 94559629 heartbeat IPC: 2.159 cumulative IPC: 2.281 (Simulation time: 00 hr 24 min 52 sec)
Heartbeat CPU 0 instructions: 242501324 cycles: 94796099 heartbeat IPC: 2.114 cumulative IPC: 2.28 (Simulation time: 00 hr 24 min 56 sec)
Heartbeat CPU 0 instructions: 243001325 cycles: 95027758 heartbeat IPC: 2.158 cumulative IPC: 2.28 (Simulation time: 00 hr 24 min 59 sec)
Heartbeat CPU 0 instructions: 243501332 cycles: 95261669 heartbeat IPC: 2.138 cumulative IPC: 2.279 (Simulation time: 00 hr 25 min 03 sec)
Heartbeat CPU 0 instructions: 244001333 cycles: 95494130 heartbeat IPC: 2.151 cumulative IPC: 2.279 (Simulation time: 00 hr 25 min 06 sec)
Heartbeat CPU 0 instructions: 244501335 cycles: 95723513 heartbeat IPC: 2.18 cumulative IPC: 2.279 (Simulation time: 00 hr 25 min 09 sec)
Heartbeat CPU 0 instructions: 245001336 cycles: 95962071 heartbeat IPC: 2.096 cumulative IPC: 2.278 (Simulation time: 00 hr 25 min 13 sec)
Heartbeat CPU 0 instructions: 245501339 cycles: 96196550 heartbeat IPC: 2.132 cumulative IPC: 2.278 (Simulation time: 00 hr 25 min 16 sec)
Heartbeat CPU 0 instructions: 246001339 cycles: 96431372 heartbeat IPC: 2.129 cumulative IPC: 2.277 (Simulation time: 00 hr 25 min 20 sec)
Heartbeat CPU 0 instructions: 246501339 cycles: 96659309 heartbeat IPC: 2.194 cumulative IPC: 2.277 (Simulation time: 00 hr 25 min 23 sec)
Heartbeat CPU 0 instructions: 247001345 cycles: 96889022 heartbeat IPC: 2.177 cumulative IPC: 2.277 (Simulation time: 00 hr 25 min 27 sec)
Heartbeat CPU 0 instructions: 247501345 cycles: 97117167 heartbeat IPC: 2.192 cumulative IPC: 2.277 (Simulation time: 00 hr 25 min 30 sec)
Heartbeat CPU 0 instructions: 248001345 cycles: 97347280 heartbeat IPC: 2.173 cumulative IPC: 2.276 (Simulation time: 00 hr 25 min 33 sec)
Heartbeat CPU 0 instructions: 248501345 cycles: 97571541 heartbeat IPC: 2.23 cumulative IPC: 2.276 (Simulation time: 00 hr 25 min 37 sec)
Heartbeat CPU 0 instructions: 249001347 cycles: 97800635 heartbeat IPC: 2.183 cumulative IPC: 2.276 (Simulation time: 00 hr 25 min 40 sec)
Heartbeat CPU 0 instructions: 249501351 cycles: 98029366 heartbeat IPC: 2.186 cumulative IPC: 2.276 (Simulation time: 00 hr 25 min 44 sec)
Simulation finished CPU 0 instructions: 200000005 cycles: 87890850 cumulative IPC: 2.276 (Simulation time: 00 hr 25 min 47 sec)
Simulation complete CPU 0 instructions: 200000005 cycles: 87890850 cumulative IPC: 2.276 (Simulation time: 00 hr 25 min 47 sec)

ChampSim completed all CPUs

=== Simulation ===
CPU 0 runs /local-ssd/ben/dpc4-traces/SPEC17/603.bwaves_s-1740B.champsimtrace.xz

Region of Interest Statistics

CPU 0 cumulative IPC: 2.276 instructions: 200000005 cycles: 87890850
CPU 0 Branch Prediction Accuracy: 81.23% MPKI: 4.685 Average ROB Occupancy at Mispredict: 256.9
Branch type MPKI
BRANCH_DIRECT_JUMP: 0
BRANCH_INDIRECT: 0
BRANCH_CONDITIONAL: 4.685
BRANCH_DIRECT_CALL: 0
BRANCH_INDIRECT_CALL: 0
BRANCH_RETURN: 0

cpu0->cpu0_STLB TOTAL        ACCESS:     325823 HIT:     263248 MISS:      62575 MSHR_MERGE:          0
cpu0->cpu0_STLB LOAD         ACCESS:     325823 HIT:     263248 MISS:      62575 MSHR_MERGE:          0
cpu0->cpu0_STLB RFO          ACCESS:          0 HIT:          0 MISS:          0 MSHR_MERGE:          0
cpu0->cpu0_STLB PREFETCH     ACCESS:          0 HIT:          0 MISS:          0 MSHR_MERGE:          0
cpu0->cpu0_STLB WRITE        ACCESS:          0 HIT:          0 MISS:          0 MSHR_MERGE:          0
cpu0->cpu0_STLB TRANSLATION  ACCESS:          0 HIT:          0 MISS:          0 MSHR_MERGE:          0
cpu0->cpu0_STLB PREFETCH REQUESTED:          0 ISSUED:          0 USEFUL:          0 USELESS:          0
cpu0->cpu0_STLB AVERAGE MISS LATENCY: 247.7 cycles
cpu0->cpu0_L2C TOTAL        ACCESS:   16314701 HIT:   10412611 MISS:    5902090 MSHR_MERGE:    1899099
cpu0->cpu0_L2C LOAD         ACCESS:    1174641 HIT:     974744 MISS:     199897 MSHR_MERGE:      62653
cpu0->cpu0_L2C RFO          ACCESS:      97449 HIT:          0 MISS:      97449 MSHR_MERGE:          0
cpu0->cpu0_L2C PREFETCH     ACCESS:   14919607 HIT:    9322967 MISS:    5596640 MSHR_MERGE:    1836446
cpu0->cpu0_L2C WRITE        ACCESS:      98916 HIT:      98916 MISS:          0 MSHR_MERGE:          0
cpu0->cpu0_L2C TRANSLATION  ACCESS:      24088 HIT:      15984 MISS:       8104 MSHR_MERGE:          0
cpu0->cpu0_L2C PREFETCH REQUESTED:   17414278 ISSUED:   12034519 USEFUL:    3164923 USELESS:     282216
cpu0->cpu0_L2C AVERAGE MISS LATENCY: 303.5 cycles
cpu0->cpu0_L1I TOTAL        ACCESS:   17943610 HIT:   17943610 MISS:          0 MSHR_MERGE:          0
cpu0->cpu0_L1I LOAD         ACCESS:   17943610 HIT:   17943610 MISS:          0 MSHR_MERGE:          0
cpu0->cpu0_L1I RFO          ACCESS:          0 HIT:          0 MISS:          0 MSHR_MERGE:          0
cpu0->cpu0_L1I PREFETCH     ACCESS:          0 HIT:          0 MISS:          0 MSHR_MERGE:          0
cpu0->cpu0_L1I WRITE        ACCESS:          0 HIT:          0 MISS:          0 MSHR_MERGE:          0
cpu0->cpu0_L1I TRANSLATION  ACCESS:          0 HIT:          0 MISS:          0 MSHR_MERGE:          0
cpu0->cpu0_L1I PREFETCH REQUESTED:          0 ISSUED:          0 USEFUL:          0 USELESS:          0
cpu0->cpu0_L1I AVERAGE MISS LATENCY: - cycles
cpu0->cpu0_L1D TOTAL        ACCESS:   63087292 HIT:   58263351 MISS:    4823941 MSHR_MERGE:     642686
cpu0->cpu0_L1D LOAD         ACCESS:   47911533 HIT:   46654254 MISS:    1257279 MSHR_MERGE:      82638
cpu0->cpu0_L1D RFO          ACCESS:          0 HIT:          0 MISS:          0 MSHR_MERGE:          0
cpu0->cpu0_L1D PREFETCH     ACCESS:    3783624 HIT:     834093 MISS:    2949531 MSHR_MERGE:      64454
cpu0->cpu0_L1D WRITE        ACCESS:   11266825 HIT:   10673783 MISS:     593042 MSHR_MERGE:     495593
cpu0->cpu0_L1D TRANSLATION  ACCESS:     125310 HIT:     101221 MISS:      24089 MSHR_MERGE:          1
cpu0->cpu0_L1D PREFETCH REQUESTED:    6949022 ISSUED:    3783617 USEFUL:    2726262 USELESS:     158771
cpu0->cpu0_L1D AVERAGE MISS LATENCY: 87.64 cycles
cpu0->cpu0_ITLB TOTAL        ACCESS:   10924436 HIT:   10924436 MISS:          0 MSHR_MERGE:          0
cpu0->cpu0_ITLB LOAD         ACCESS:   10924436 HIT:   10924436 MISS:          0 MSHR_MERGE:          0
cpu0->cpu0_ITLB RFO          ACCESS:          0 HIT:          0 MISS:          0 MSHR_MERGE:          0
cpu0->cpu0_ITLB PREFETCH     ACCESS:          0 HIT:          0 MISS:          0 MSHR_MERGE:          0
cpu0->cpu0_ITLB WRITE        ACCESS:          0 HIT:          0 MISS:          0 MSHR_MERGE:          0
cpu0->cpu0_ITLB TRANSLATION  ACCESS:          0 HIT:          0 MISS:          0 MSHR_MERGE:          0
cpu0->cpu0_ITLB PREFETCH REQUESTED:          0 ISSUED:          0 USEFUL:          0 USELESS:          0
cpu0->cpu0_ITLB AVERAGE MISS LATENCY: - cycles
cpu0->cpu0_DTLB TOTAL        ACCESS:   60081770 HIT:   59663807 MISS:     417963 MSHR_MERGE:      92140
cpu0->cpu0_DTLB LOAD         ACCESS:   60081770 HIT:   59663807 MISS:     417963 MSHR_MERGE:      92140
cpu0->cpu0_DTLB RFO          ACCESS:          0 HIT:          0 MISS:          0 MSHR_MERGE:          0
cpu0->cpu0_DTLB PREFETCH     ACCESS:          0 HIT:          0 MISS:          0 MSHR_MERGE:          0
cpu0->cpu0_DTLB WRITE        ACCESS:          0 HIT:          0 MISS:          0 MSHR_MERGE:          0
cpu0->cpu0_DTLB TRANSLATION  ACCESS:          0 HIT:          0 MISS:          0 MSHR_MERGE:          0
cpu0->cpu0_DTLB PREFETCH REQUESTED:          0 ISSUED:          0 USEFUL:          0 USELESS:          0
cpu0->cpu0_DTLB AVERAGE MISS LATENCY: 52.77 cycles
cpu0->LLC TOTAL        ACCESS:    4100612 HIT:      25239 MISS:    4075373 MSHR_MERGE:          0
cpu0->LLC LOAD         ACCESS:     137244 HIT:        133 MISS:     137111 MSHR_MERGE:          0
cpu0->LLC RFO          ACCESS:      97449 HIT:          0 MISS:      97449 MSHR_MERGE:          0
cpu0->LLC PREFETCH     ACCESS:    3760194 HIT:      10828 MISS:    3749366 MSHR_MERGE:          0
cpu0->LLC WRITE        ACCESS:      97621 HIT:      14244 MISS:      83377 MSHR_MERGE:          0
cpu0->LLC TRANSLATION  ACCESS:       8104 HIT:         34 MISS:       8070 MSHR_MERGE:          0
cpu0->LLC PREFETCH REQUESTED:          0 ISSUED:          0 USEFUL:          0 USELESS:          0
cpu0->LLC AVERAGE MISS LATENCY: 225.1 cycles

DRAM Statistics

Channel 0 RQ ROW_BUFFER_HIT:       4100
  ROW_BUFFER_MISS:    3987883
  AVG DBUS CONGESTED CYCLE: 5.128
Channel 0 WQ ROW_BUFFER_HIT:      14391
  ROW_BUFFER_MISS:      80586
  FULL:          0
Channel 0 REFRESHES ISSUED:       7323
