[VMEM] WARNING: physical memory size is smaller than virtual memory size.

*** ChampSim Multicore Out-of-Order Simulator ***
Warmup Instructions: 50000000
Simulation Instructions: 200000000
Number of CPUs: 1
Page size: 4096
Core 0: /local-ssd/ben/dpc4-traces/ai-ml/stable-diffusion.cpp-v2-1_768-nonema-pruned.3.champsimtrace.gz
 L1D Berti prefetcher
Off-chip DRAM Size: 64 GiB Channels: 1 Width: 64-bit Data Rate: 4807 MT/s
Heartbeat CPU 0 instructions: 500006 cycles: 188119 heartbeat IPC: 2.658 cumulative IPC: 2.658 (Simulation time: 00 hr 00 min 05 sec)
Heartbeat CPU 0 instructions: 1000008 cycles: 351616 heartbeat IPC: 3.058 cumulative IPC: 2.844 (Simulation time: 00 hr 00 min 08 sec)
Heartbeat CPU 0 instructions: 1500010 cycles: 515216 heartbeat IPC: 3.056 cumulative IPC: 2.911 (Simulation time: 00 hr 00 min 12 sec)
Heartbeat CPU 0 instructions: 2000016 cycles: 686191 heartbeat IPC: 2.924 cumulative IPC: 2.915 (Simulation time: 00 hr 00 min 16 sec)
Heartbeat CPU 0 instructions: 2500022 cycles: 849856 heartbeat IPC: 3.055 cumulative IPC: 2.942 (Simulation time: 00 hr 00 min 20 sec)
Heartbeat CPU 0 instructions: 3000025 cycles: 1013619 heartbeat IPC: 3.053 cumulative IPC: 2.96 (Simulation time: 00 hr 00 min 23 sec)
Heartbeat CPU 0 instructions: 3500025 cycles: 1182505 heartbeat IPC: 2.961 cumulative IPC: 2.96 (Simulation time: 00 hr 00 min 27 sec)
Heartbeat CPU 0 instructions: 4000029 cycles: 1348319 heartbeat IPC: 3.015 cumulative IPC: 2.967 (Simulation time: 00 hr 00 min 31 sec)
Heartbeat CPU 0 instructions: 4500034 cycles: 1511857 heartbeat IPC: 3.057 cumulative IPC: 2.976 (Simulation time: 00 hr 00 min 35 sec)
Heartbeat CPU 0 instructions: 5000040 cycles: 1675762 heartbeat IPC: 3.051 cumulative IPC: 2.984 (Simulation time: 00 hr 00 min 38 sec)
Heartbeat CPU 0 instructions: 5500041 cycles: 1846786 heartbeat IPC: 2.924 cumulative IPC: 2.978 (Simulation time: 00 hr 00 min 42 sec)
Heartbeat CPU 0 instructions: 6000047 cycles: 2010323 heartbeat IPC: 3.057 cumulative IPC: 2.985 (Simulation time: 00 hr 00 min 46 sec)
Heartbeat CPU 0 instructions: 6500052 cycles: 2174256 heartbeat IPC: 3.05 cumulative IPC: 2.99 (Simulation time: 00 hr 00 min 50 sec)
Heartbeat CPU 0 instructions: 7000052 cycles: 2345492 heartbeat IPC: 2.92 cumulative IPC: 2.984 (Simulation time: 00 hr 00 min 53 sec)
Heartbeat CPU 0 instructions: 7500052 cycles: 2508902 heartbeat IPC: 3.06 cumulative IPC: 2.989 (Simulation time: 00 hr 00 min 57 sec)
Heartbeat CPU 0 instructions: 8000054 cycles: 2672354 heartbeat IPC: 3.059 cumulative IPC: 2.994 (Simulation time: 00 hr 01 min 01 sec)
Heartbeat CPU 0 instructions: 8500059 cycles: 2843426 heartbeat IPC: 2.923 cumulative IPC: 2.989 (Simulation time: 00 hr 01 min 05 sec)
Heartbeat CPU 0 instructions: 9000064 cycles: 3006996 heartbeat IPC: 3.057 cumulative IPC: 2.993 (Simulation time: 00 hr 01 min 08 sec)
Heartbeat CPU 0 instructions: 9500070 cycles: 3170530 heartbeat IPC: 3.058 cumulative IPC: 2.996 (Simulation time: 00 hr 01 min 12 sec)
Heartbeat CPU 0 instructions: 10000071 cycles: 3334067 heartbeat IPC: 3.057 cumulative IPC: 2.999 (Simulation time: 00 hr 01 min 16 sec)
Heartbeat CPU 0 instructions: 10500078 cycles: 3505118 heartbeat IPC: 2.923 cumulative IPC: 2.996 (Simulation time: 00 hr 01 min 20 sec)
Heartbeat CPU 0 instructions: 11000079 cycles: 3668540 heartbeat IPC: 3.06 cumulative IPC: 2.998 (Simulation time: 00 hr 01 min 24 sec)
Heartbeat CPU 0 instructions: 11500083 cycles: 3832213 heartbeat IPC: 3.055 cumulative IPC: 3.001 (Simulation time: 00 hr 01 min 27 sec)
Heartbeat CPU 0 instructions: 12000089 cycles: 4003338 heartbeat IPC: 2.922 cumulative IPC: 2.998 (Simulation time: 00 hr 01 min 31 sec)
Heartbeat CPU 0 instructions: 12500091 cycles: 4166856 heartbeat IPC: 3.058 cumulative IPC: 3 (Simulation time: 00 hr 01 min 35 sec)
Heartbeat CPU 0 instructions: 13000093 cycles: 4330436 heartbeat IPC: 3.057 cumulative IPC: 3.002 (Simulation time: 00 hr 01 min 39 sec)
Heartbeat CPU 0 instructions: 13500095 cycles: 4501790 heartbeat IPC: 2.918 cumulative IPC: 2.999 (Simulation time: 00 hr 01 min 43 sec)
Heartbeat CPU 0 instructions: 14000101 cycles: 4665189 heartbeat IPC: 3.06 cumulative IPC: 3.001 (Simulation time: 00 hr 01 min 46 sec)
Heartbeat CPU 0 instructions: 14500105 cycles: 4828705 heartbeat IPC: 3.058 cumulative IPC: 3.003 (Simulation time: 00 hr 01 min 50 sec)
Heartbeat CPU 0 instructions: 15000110 cycles: 4991980 heartbeat IPC: 3.062 cumulative IPC: 3.005 (Simulation time: 00 hr 01 min 54 sec)
Heartbeat CPU 0 instructions: 15500113 cycles: 5163242 heartbeat IPC: 2.92 cumulative IPC: 3.002 (Simulation time: 00 hr 01 min 58 sec)
Heartbeat CPU 0 instructions: 16000118 cycles: 5326973 heartbeat IPC: 3.054 cumulative IPC: 3.004 (Simulation time: 00 hr 02 min 01 sec)
Heartbeat CPU 0 instructions: 16500120 cycles: 5490598 heartbeat IPC: 3.056 cumulative IPC: 3.005 (Simulation time: 00 hr 02 min 05 sec)
Heartbeat CPU 0 instructions: 17000123 cycles: 5661913 heartbeat IPC: 2.919 cumulative IPC: 3.003 (Simulation time: 00 hr 02 min 09 sec)
Heartbeat CPU 0 instructions: 17500130 cycles: 5825451 heartbeat IPC: 3.057 cumulative IPC: 3.004 (Simulation time: 00 hr 02 min 13 sec)
Heartbeat CPU 0 instructions: 18000136 cycles: 5989152 heartbeat IPC: 3.054 cumulative IPC: 3.005 (Simulation time: 00 hr 02 min 17 sec)
Heartbeat CPU 0 instructions: 18500139 cycles: 6160196 heartbeat IPC: 2.923 cumulative IPC: 3.003 (Simulation time: 00 hr 02 min 20 sec)
Heartbeat CPU 0 instructions: 19000139 cycles: 6323629 heartbeat IPC: 3.059 cumulative IPC: 3.005 (Simulation time: 00 hr 02 min 24 sec)
Heartbeat CPU 0 instructions: 19500145 cycles: 6487300 heartbeat IPC: 3.055 cumulative IPC: 3.006 (Simulation time: 00 hr 02 min 28 sec)
Heartbeat CPU 0 instructions: 20000145 cycles: 6651635 heartbeat IPC: 3.043 cumulative IPC: 3.007 (Simulation time: 00 hr 02 min 32 sec)
Heartbeat CPU 0 instructions: 20500149 cycles: 6821825 heartbeat IPC: 2.938 cumulative IPC: 3.005 (Simulation time: 00 hr 02 min 36 sec)
Heartbeat CPU 0 instructions: 21000150 cycles: 6985458 heartbeat IPC: 3.056 cumulative IPC: 3.006 (Simulation time: 00 hr 02 min 39 sec)
Heartbeat CPU 0 instructions: 21500150 cycles: 7148816 heartbeat IPC: 3.061 cumulative IPC: 3.008 (Simulation time: 00 hr 02 min 43 sec)
Heartbeat CPU 0 instructions: 22000154 cycles: 7320044 heartbeat IPC: 2.92 cumulative IPC: 3.005 (Simulation time: 00 hr 02 min 47 sec)
Heartbeat CPU 0 instructions: 22500155 cycles: 7483834 heartbeat IPC: 3.053 cumulative IPC: 3.007 (Simulation time: 00 hr 02 min 51 sec)
Heartbeat CPU 0 instructions: 23000156 cycles: 7647178 heartbeat IPC: 3.061 cumulative IPC: 3.008 (Simulation time: 00 hr 02 min 55 sec)
Heartbeat CPU 0 instructions: 23500161 cycles: 7818890 heartbeat IPC: 2.912 cumulative IPC: 3.006 (Simulation time: 00 hr 02 min 58 sec)
Heartbeat CPU 0 instructions: 24000163 cycles: 7982641 heartbeat IPC: 3.053 cumulative IPC: 3.007 (Simulation time: 00 hr 03 min 02 sec)
Heartbeat CPU 0 instructions: 24500164 cycles: 8146130 heartbeat IPC: 3.058 cumulative IPC: 3.008 (Simulation time: 00 hr 03 min 06 sec)
Heartbeat CPU 0 instructions: 25000171 cycles: 8312885 heartbeat IPC: 2.998 cumulative IPC: 3.007 (Simulation time: 00 hr 03 min 10 sec)
Heartbeat CPU 0 instructions: 25500173 cycles: 8480853 heartbeat IPC: 2.977 cumulative IPC: 3.007 (Simulation time: 00 hr 03 min 14 sec)
Heartbeat CPU 0 instructions: 26000175 cycles: 8644099 heartbeat IPC: 3.063 cumulative IPC: 3.008 (Simulation time: 00 hr 03 min 17 sec)
Heartbeat CPU 0 instructions: 26500182 cycles: 8807796 heartbeat IPC: 3.054 cumulative IPC: 3.009 (Simulation time: 00 hr 03 min 21 sec)
Heartbeat CPU 0 instructions: 27000184 cycles: 8979122 heartbeat IPC: 2.918 cumulative IPC: 3.007 (Simulation time: 00 hr 03 min 25 sec)
Heartbeat CPU 0 instructions: 27500190 cycles: 9142479 heartbeat IPC: 3.061 cumulative IPC: 3.008 (Simulation time: 00 hr 03 min 29 sec)
Heartbeat CPU 0 instructions: 28000195 cycles: 9305857 heartbeat IPC: 3.06 cumulative IPC: 3.009 (Simulation time: 00 hr 03 min 33 sec)
Heartbeat CPU 0 instructions: 28500202 cycles: 9477215 heartbeat IPC: 2.918 cumulative IPC: 3.007 (Simulation time: 00 hr 03 min 36 sec)
Heartbeat CPU 0 instructions: 29000207 cycles: 9640740 heartbeat IPC: 3.058 cumulative IPC: 3.008 (Simulation time: 00 hr 03 min 40 sec)
Heartbeat CPU 0 instructions: 29500207 cycles: 9804198 heartbeat IPC: 3.059 cumulative IPC: 3.009 (Simulation time: 00 hr 03 min 44 sec)
Heartbeat CPU 0 instructions: 30000214 cycles: 9972891 heartbeat IPC: 2.964 cumulative IPC: 3.008 (Simulation time: 00 hr 03 min 48 sec)
Heartbeat CPU 0 instructions: 30500220 cycles: 10138587 heartbeat IPC: 3.018 cumulative IPC: 3.008 (Simulation time: 00 hr 03 min 52 sec)
Heartbeat CPU 0 instructions: 31000221 cycles: 10302455 heartbeat IPC: 3.051 cumulative IPC: 3.009 (Simulation time: 00 hr 03 min 55 sec)
Heartbeat CPU 0 instructions: 31500226 cycles: 10465887 heartbeat IPC: 3.059 cumulative IPC: 3.01 (Simulation time: 00 hr 03 min 59 sec)
Heartbeat CPU 0 instructions: 32000227 cycles: 10637106 heartbeat IPC: 2.92 cumulative IPC: 3.008 (Simulation time: 00 hr 04 min 03 sec)
Heartbeat CPU 0 instructions: 32500229 cycles: 10800468 heartbeat IPC: 3.061 cumulative IPC: 3.009 (Simulation time: 00 hr 04 min 07 sec)
Heartbeat CPU 0 instructions: 33000229 cycles: 10964282 heartbeat IPC: 3.052 cumulative IPC: 3.01 (Simulation time: 00 hr 04 min 11 sec)
Heartbeat CPU 0 instructions: 33500229 cycles: 11135504 heartbeat IPC: 2.92 cumulative IPC: 3.008 (Simulation time: 00 hr 04 min 14 sec)
Heartbeat CPU 0 instructions: 34000231 cycles: 11298854 heartbeat IPC: 3.061 cumulative IPC: 3.009 (Simulation time: 00 hr 04 min 18 sec)
Heartbeat CPU 0 instructions: 34500232 cycles: 11462267 heartbeat IPC: 3.06 cumulative IPC: 3.01 (Simulation time: 00 hr 04 min 22 sec)
Heartbeat CPU 0 instructions: 35000233 cycles: 11633484 heartbeat IPC: 2.92 cumulative IPC: 3.009 (Simulation time: 00 hr 04 min 26 sec)
Heartbeat CPU 0 instructions: 35500238 cycles: 11797217 heartbeat IPC: 3.054 cumulative IPC: 3.009 (Simulation time: 00 hr 04 min 30 sec)
Heartbeat CPU 0 instructions: 36000240 cycles: 11960691 heartbeat IPC: 3.059 cumulative IPC: 3.01 (Simulation time: 00 hr 04 min 33 sec)
Heartbeat CPU 0 instructions: 36500245 cycles: 12124136 heartbeat IPC: 3.059 cumulative IPC: 3.011 (Simulation time: 00 hr 04 min 37 sec)
Heartbeat CPU 0 instructions: 37000248 cycles: 12295296 heartbeat IPC: 2.921 cumulative IPC: 3.009 (Simulation time: 00 hr 04 min 41 sec)
Heartbeat CPU 0 instructions: 37500253 cycles: 12458630 heartbeat IPC: 3.061 cumulative IPC: 3.01 (Simulation time: 00 hr 04 min 45 sec)
Heartbeat CPU 0 instructions: 38000253 cycles: 12621857 heartbeat IPC: 3.063 cumulative IPC: 3.011 (Simulation time: 00 hr 04 min 48 sec)
Heartbeat CPU 0 instructions: 38500260 cycles: 12792993 heartbeat IPC: 2.922 cumulative IPC: 3.009 (Simulation time: 00 hr 04 min 52 sec)
Heartbeat CPU 0 instructions: 39000265 cycles: 12956676 heartbeat IPC: 3.055 cumulative IPC: 3.01 (Simulation time: 00 hr 04 min 56 sec)
Heartbeat CPU 0 instructions: 39500270 cycles: 13120021 heartbeat IPC: 3.061 cumulative IPC: 3.011 (Simulation time: 00 hr 05 min 00 sec)
Heartbeat CPU 0 instructions: 40000270 cycles: 13291231 heartbeat IPC: 2.92 cumulative IPC: 3.01 (Simulation time: 00 hr 05 min 04 sec)
Heartbeat CPU 0 instructions: 40500271 cycles: 13454580 heartbeat IPC: 3.061 cumulative IPC: 3.01 (Simulation time: 00 hr 05 min 07 sec)
Heartbeat CPU 0 instructions: 41000271 cycles: 13618047 heartbeat IPC: 3.059 cumulative IPC: 3.011 (Simulation time: 00 hr 05 min 11 sec)
Heartbeat CPU 0 instructions: 41500276 cycles: 13781486 heartbeat IPC: 3.059 cumulative IPC: 3.011 (Simulation time: 00 hr 05 min 15 sec)
Heartbeat CPU 0 instructions: 42000276 cycles: 13952864 heartbeat IPC: 2.918 cumulative IPC: 3.01 (Simulation time: 00 hr 05 min 19 sec)
Heartbeat CPU 0 instructions: 42500276 cycles: 14116320 heartbeat IPC: 3.059 cumulative IPC: 3.011 (Simulation time: 00 hr 05 min 22 sec)
Heartbeat CPU 0 instructions: 43000282 cycles: 14279940 heartbeat IPC: 3.056 cumulative IPC: 3.011 (Simulation time: 00 hr 05 min 26 sec)
Heartbeat CPU 0 instructions: 43500289 cycles: 14450965 heartbeat IPC: 2.924 cumulative IPC: 3.01 (Simulation time: 00 hr 05 min 30 sec)
Heartbeat CPU 0 instructions: 44000296 cycles: 14614495 heartbeat IPC: 3.058 cumulative IPC: 3.011 (Simulation time: 00 hr 05 min 34 sec)
Heartbeat CPU 0 instructions: 44500301 cycles: 14778363 heartbeat IPC: 3.051 cumulative IPC: 3.011 (Simulation time: 00 hr 05 min 38 sec)
Heartbeat CPU 0 instructions: 45000304 cycles: 14949586 heartbeat IPC: 2.92 cumulative IPC: 3.01 (Simulation time: 00 hr 05 min 41 sec)
Heartbeat CPU 0 instructions: 45500311 cycles: 15113155 heartbeat IPC: 3.057 cumulative IPC: 3.011 (Simulation time: 00 hr 05 min 45 sec)
Heartbeat CPU 0 instructions: 46000311 cycles: 15276573 heartbeat IPC: 3.06 cumulative IPC: 3.011 (Simulation time: 00 hr 05 min 49 sec)
Heartbeat CPU 0 instructions: 46500311 cycles: 15440818 heartbeat IPC: 3.044 cumulative IPC: 3.012 (Simulation time: 00 hr 05 min 53 sec)
Heartbeat CPU 0 instructions: 47000314 cycles: 15611393 heartbeat IPC: 2.931 cumulative IPC: 3.011 (Simulation time: 00 hr 05 min 57 sec)
Heartbeat CPU 0 instructions: 47500314 cycles: 15774947 heartbeat IPC: 3.057 cumulative IPC: 3.011 (Simulation time: 00 hr 06 min 00 sec)
Heartbeat CPU 0 instructions: 48000317 cycles: 15938587 heartbeat IPC: 3.056 cumulative IPC: 3.012 (Simulation time: 00 hr 06 min 04 sec)
Heartbeat CPU 0 instructions: 48500319 cycles: 16110058 heartbeat IPC: 2.916 cumulative IPC: 3.011 (Simulation time: 00 hr 06 min 08 sec)
Heartbeat CPU 0 instructions: 49000321 cycles: 16273680 heartbeat IPC: 3.056 cumulative IPC: 3.011 (Simulation time: 00 hr 06 min 12 sec)
Heartbeat CPU 0 instructions: 49500322 cycles: 16437231 heartbeat IPC: 3.057 cumulative IPC: 3.011 (Simulation time: 00 hr 06 min 16 sec)
Warmup halting CPU 0 at instruction 50000007 cycle 16608457 for remainder of phase
Warmup finished CPU 0 instructions: 50000007 cycles: 16608457 cumulative IPC: 3.011 (Simulation time: 00 hr 06 min 19 sec)
Warmup complete CPU 0 instructions: 50000007 cycles: 16608457 cumulative IPC: 3.011 (Simulation time: 00 hr 06 min 19 sec)
Heartbeat CPU 0 instructions: 50000327 cycles: 16608497 heartbeat IPC: 2.919 cumulative IPC: 8 (Simulation time: 00 hr 06 min 19 sec)
Heartbeat CPU 0 instructions: 50500332 cycles: 16799462 heartbeat IPC: 2.618 cumulative IPC: 2.619 (Simulation time: 00 hr 06 min 23 sec)
Heartbeat CPU 0 instructions: 51000335 cycles: 16990513 heartbeat IPC: 2.617 cumulative IPC: 2.618 (Simulation time: 00 hr 06 min 27 sec)
Heartbeat CPU 0 instructions: 51500337 cycles: 17195248 heartbeat IPC: 2.442 cumulative IPC: 2.557 (Simulation time: 00 hr 06 min 31 sec)
Heartbeat CPU 0 instructions: 52000344 cycles: 17410302 heartbeat IPC: 2.325 cumulative IPC: 2.495 (Simulation time: 00 hr 06 min 35 sec)
Heartbeat CPU 0 instructions: 52500345 cycles: 17602910 heartbeat IPC: 2.596 cumulative IPC: 2.514 (Simulation time: 00 hr 06 min 38 sec)
Heartbeat CPU 0 instructions: 53000348 cycles: 17795024 heartbeat IPC: 2.603 cumulative IPC: 2.529 (Simulation time: 00 hr 06 min 42 sec)
Heartbeat CPU 0 instructions: 53500352 cycles: 18023480 heartbeat IPC: 2.189 cumulative IPC: 2.474 (Simulation time: 00 hr 06 min 46 sec)
Heartbeat CPU 0 instructions: 54000357 cycles: 18214713 heartbeat IPC: 2.615 cumulative IPC: 2.49 (Simulation time: 00 hr 06 min 50 sec)
Heartbeat CPU 0 instructions: 54500358 cycles: 18405446 heartbeat IPC: 2.621 cumulative IPC: 2.504 (Simulation time: 00 hr 06 min 54 sec)
Heartbeat CPU 0 instructions: 55000362 cycles: 18629914 heartbeat IPC: 2.228 cumulative IPC: 2.474 (Simulation time: 00 hr 06 min 58 sec)
Heartbeat CPU 0 instructions: 55500364 cycles: 18821375 heartbeat IPC: 2.612 cumulative IPC: 2.486 (Simulation time: 00 hr 07 min 01 sec)
Heartbeat CPU 0 instructions: 56000368 cycles: 19011590 heartbeat IPC: 2.629 cumulative IPC: 2.497 (Simulation time: 00 hr 07 min 05 sec)
Heartbeat CPU 0 instructions: 56500368 cycles: 19226561 heartbeat IPC: 2.326 cumulative IPC: 2.483 (Simulation time: 00 hr 07 min 09 sec)
Heartbeat CPU 0 instructions: 57000371 cycles: 19428370 heartbeat IPC: 2.478 cumulative IPC: 2.482 (Simulation time: 00 hr 07 min 13 sec)
Heartbeat CPU 0 instructions: 57500376 cycles: 19618593 heartbeat IPC: 2.629 cumulative IPC: 2.492 (Simulation time: 00 hr 07 min 17 sec)
Heartbeat CPU 0 instructions: 58000383 cycles: 19808385 heartbeat IPC: 2.634 cumulative IPC: 2.5 (Simulation time: 00 hr 07 min 20 sec)
Heartbeat CPU 0 instructions: 58500383 cycles: 20032881 heartbeat IPC: 2.227 cumulative IPC: 2.482 (Simulation time: 00 hr 07 min 24 sec)
Heartbeat CPU 0 instructions: 59000388 cycles: 20224054 heartbeat IPC: 2.615 cumulative IPC: 2.489 (Simulation time: 00 hr 07 min 28 sec)
Heartbeat CPU 0 instructions: 59500395 cycles: 20414950 heartbeat IPC: 2.619 cumulative IPC: 2.496 (Simulation time: 00 hr 07 min 32 sec)
Heartbeat CPU 0 instructions: 60000401 cycles: 20639896 heartbeat IPC: 2.223 cumulative IPC: 2.481 (Simulation time: 00 hr 07 min 36 sec)
Heartbeat CPU 0 instructions: 60500406 cycles: 20829929 heartbeat IPC: 2.631 cumulative IPC: 2.487 (Simulation time: 00 hr 07 min 40 sec)
Heartbeat CPU 0 instructions: 61000408 cycles: 21019598 heartbeat IPC: 2.636 cumulative IPC: 2.494 (Simulation time: 00 hr 07 min 43 sec)
Heartbeat CPU 0 instructions: 61500413 cycles: 21245249 heartbeat IPC: 2.216 cumulative IPC: 2.48 (Simulation time: 00 hr 07 min 47 sec)
Heartbeat CPU 0 instructions: 62000418 cycles: 21437487 heartbeat IPC: 2.601 cumulative IPC: 2.485 (Simulation time: 00 hr 07 min 51 sec)
Heartbeat CPU 0 instructions: 62500423 cycles: 21629626 heartbeat IPC: 2.602 cumulative IPC: 2.49 (Simulation time: 00 hr 07 min 55 sec)
Heartbeat CPU 0 instructions: 63000428 cycles: 21821559 heartbeat IPC: 2.605 cumulative IPC: 2.494 (Simulation time: 00 hr 07 min 59 sec)
Heartbeat CPU 0 instructions: 63500428 cycles: 22049607 heartbeat IPC: 2.193 cumulative IPC: 2.481 (Simulation time: 00 hr 08 min 03 sec)
Heartbeat CPU 0 instructions: 64000435 cycles: 22240802 heartbeat IPC: 2.615 cumulative IPC: 2.486 (Simulation time: 00 hr 08 min 06 sec)
Heartbeat CPU 0 instructions: 64500442 cycles: 22433513 heartbeat IPC: 2.595 cumulative IPC: 2.489 (Simulation time: 00 hr 08 min 10 sec)
Heartbeat CPU 0 instructions: 65000443 cycles: 22663153 heartbeat IPC: 2.177 cumulative IPC: 2.477 (Simulation time: 00 hr 08 min 14 sec)
Heartbeat CPU 0 instructions: 65500445 cycles: 22872556 heartbeat IPC: 2.388 cumulative IPC: 2.474 (Simulation time: 00 hr 08 min 18 sec)
Heartbeat CPU 0 instructions: 66000450 cycles: 23084202 heartbeat IPC: 2.362 cumulative IPC: 2.471 (Simulation time: 00 hr 08 min 22 sec)
Heartbeat CPU 0 instructions: 66500452 cycles: 23312883 heartbeat IPC: 2.186 cumulative IPC: 2.461 (Simulation time: 00 hr 08 min 26 sec)
Heartbeat CPU 0 instructions: 67000458 cycles: 23505148 heartbeat IPC: 2.601 cumulative IPC: 2.465 (Simulation time: 00 hr 08 min 30 sec)
Heartbeat CPU 0 instructions: 67500459 cycles: 23696699 heartbeat IPC: 2.61 cumulative IPC: 2.469 (Simulation time: 00 hr 08 min 34 sec)
Heartbeat CPU 0 instructions: 68000459 cycles: 23888920 heartbeat IPC: 2.601 cumulative IPC: 2.472 (Simulation time: 00 hr 08 min 38 sec)
Heartbeat CPU 0 instructions: 68500462 cycles: 24117158 heartbeat IPC: 2.191 cumulative IPC: 2.464 (Simulation time: 00 hr 08 min 42 sec)
Heartbeat CPU 0 instructions: 69000467 cycles: 24308883 heartbeat IPC: 2.608 cumulative IPC: 2.467 (Simulation time: 00 hr 08 min 46 sec)
Heartbeat CPU 0 instructions: 69500469 cycles: 24500803 heartbeat IPC: 2.605 cumulative IPC: 2.471 (Simulation time: 00 hr 08 min 49 sec)
Heartbeat CPU 0 instructions: 70000470 cycles: 24729115 heartbeat IPC: 2.19 cumulative IPC: 2.463 (Simulation time: 00 hr 08 min 53 sec)
Heartbeat CPU 0 instructions: 70500471 cycles: 24921287 heartbeat IPC: 2.602 cumulative IPC: 2.466 (Simulation time: 00 hr 08 min 57 sec)
Heartbeat CPU 0 instructions: 71000472 cycles: 25112277 heartbeat IPC: 2.618 cumulative IPC: 2.47 (Simulation time: 00 hr 09 min 01 sec)
Heartbeat CPU 0 instructions: 71500476 cycles: 25340488 heartbeat IPC: 2.191 cumulative IPC: 2.462 (Simulation time: 00 hr 09 min 05 sec)
Heartbeat CPU 0 instructions: 72000483 cycles: 25532422 heartbeat IPC: 2.605 cumulative IPC: 2.465 (Simulation time: 00 hr 09 min 09 sec)
Heartbeat CPU 0 instructions: 72500488 cycles: 25723620 heartbeat IPC: 2.615 cumulative IPC: 2.468 (Simulation time: 00 hr 09 min 12 sec)
Heartbeat CPU 0 instructions: 73000494 cycles: 25918014 heartbeat IPC: 2.572 cumulative IPC: 2.471 (Simulation time: 00 hr 09 min 16 sec)
Heartbeat CPU 0 instructions: 73500501 cycles: 26144075 heartbeat IPC: 2.212 cumulative IPC: 2.464 (Simulation time: 00 hr 09 min 20 sec)
Heartbeat CPU 0 instructions: 74000503 cycles: 26336046 heartbeat IPC: 2.605 cumulative IPC: 2.467 (Simulation time: 00 hr 09 min 24 sec)
Heartbeat CPU 0 instructions: 74500510 cycles: 26527000 heartbeat IPC: 2.618 cumulative IPC: 2.47 (Simulation time: 00 hr 09 min 28 sec)
Heartbeat CPU 0 instructions: 75000511 cycles: 26753308 heartbeat IPC: 2.209 cumulative IPC: 2.464 (Simulation time: 00 hr 09 min 32 sec)
Heartbeat CPU 0 instructions: 75500513 cycles: 26943714 heartbeat IPC: 2.626 cumulative IPC: 2.467 (Simulation time: 00 hr 09 min 36 sec)
Heartbeat CPU 0 instructions: 76000518 cycles: 27136186 heartbeat IPC: 2.598 cumulative IPC: 2.47 (Simulation time: 00 hr 09 min 39 sec)
Heartbeat CPU 0 instructions: 76500525 cycles: 27362982 heartbeat IPC: 2.205 cumulative IPC: 2.464 (Simulation time: 00 hr 09 min 44 sec)
Heartbeat CPU 0 instructions: 77000532 cycles: 27555018 heartbeat IPC: 2.604 cumulative IPC: 2.467 (Simulation time: 00 hr 09 min 47 sec)
Heartbeat CPU 0 instructions: 77500533 cycles: 27747020 heartbeat IPC: 2.604 cumulative IPC: 2.469 (Simulation time: 00 hr 09 min 51 sec)
Heartbeat CPU 0 instructions: 78000538 cycles: 27953214 heartbeat IPC: 2.425 cumulative IPC: 2.468 (Simulation time: 00 hr 09 min 55 sec)
Heartbeat CPU 0 instructions: 78500538 cycles: 28166977 heartbeat IPC: 2.339 cumulative IPC: 2.466 (Simulation time: 00 hr 09 min 59 sec)
Heartbeat CPU 0 instructions: 79000540 cycles: 28358049 heartbeat IPC: 2.617 cumulative IPC: 2.468 (Simulation time: 00 hr 10 min 03 sec)
Heartbeat CPU 0 instructions: 79500542 cycles: 28549383 heartbeat IPC: 2.613 cumulative IPC: 2.471 (Simulation time: 00 hr 10 min 06 sec)
Heartbeat CPU 0 instructions: 80000547 cycles: 28778188 heartbeat IPC: 2.185 cumulative IPC: 2.465 (Simulation time: 00 hr 10 min 11 sec)
Heartbeat CPU 0 instructions: 80500547 cycles: 28969802 heartbeat IPC: 2.609 cumulative IPC: 2.467 (Simulation time: 00 hr 10 min 14 sec)
Heartbeat CPU 0 instructions: 81000549 cycles: 29161296 heartbeat IPC: 2.611 cumulative IPC: 2.47 (Simulation time: 00 hr 10 min 18 sec)
Heartbeat CPU 0 instructions: 81500551 cycles: 29389158 heartbeat IPC: 2.194 cumulative IPC: 2.465 (Simulation time: 00 hr 10 min 22 sec)
Heartbeat CPU 0 instructions: 82000557 cycles: 29581159 heartbeat IPC: 2.604 cumulative IPC: 2.467 (Simulation time: 00 hr 10 min 26 sec)
Heartbeat CPU 0 instructions: 82500558 cycles: 29772530 heartbeat IPC: 2.613 cumulative IPC: 2.469 (Simulation time: 00 hr 10 min 30 sec)
Heartbeat CPU 0 instructions: 83000561 cycles: 29988504 heartbeat IPC: 2.315 cumulative IPC: 2.466 (Simulation time: 00 hr 10 min 34 sec)
Heartbeat CPU 0 instructions: 83500563 cycles: 30191282 heartbeat IPC: 2.466 cumulative IPC: 2.466 (Simulation time: 00 hr 10 min 38 sec)
Heartbeat CPU 0 instructions: 84000569 cycles: 30382061 heartbeat IPC: 2.621 cumulative IPC: 2.469 (Simulation time: 00 hr 10 min 41 sec)
Heartbeat CPU 0 instructions: 84500573 cycles: 30573856 heartbeat IPC: 2.607 cumulative IPC: 2.47 (Simulation time: 00 hr 10 min 45 sec)
Heartbeat CPU 0 instructions: 85000573 cycles: 30800053 heartbeat IPC: 2.21 cumulative IPC: 2.466 (Simulation time: 00 hr 10 min 49 sec)
Heartbeat CPU 0 instructions: 85500574 cycles: 30992225 heartbeat IPC: 2.602 cumulative IPC: 2.468 (Simulation time: 00 hr 10 min 53 sec)
Heartbeat CPU 0 instructions: 86000575 cycles: 31184808 heartbeat IPC: 2.596 cumulative IPC: 2.47 (Simulation time: 00 hr 10 min 57 sec)
Heartbeat CPU 0 instructions: 86500582 cycles: 31412835 heartbeat IPC: 2.193 cumulative IPC: 2.466 (Simulation time: 00 hr 11 min 01 sec)
Heartbeat CPU 0 instructions: 87000586 cycles: 31604031 heartbeat IPC: 2.615 cumulative IPC: 2.467 (Simulation time: 00 hr 11 min 05 sec)
Heartbeat CPU 0 instructions: 87500593 cycles: 31795701 heartbeat IPC: 2.609 cumulative IPC: 2.469 (Simulation time: 00 hr 11 min 08 sec)
Heartbeat CPU 0 instructions: 88000598 cycles: 32022590 heartbeat IPC: 2.204 cumulative IPC: 2.465 (Simulation time: 00 hr 11 min 12 sec)
Heartbeat CPU 0 instructions: 88500605 cycles: 32215009 heartbeat IPC: 2.599 cumulative IPC: 2.467 (Simulation time: 00 hr 11 min 16 sec)
Heartbeat CPU 0 instructions: 89000607 cycles: 32406685 heartbeat IPC: 2.609 cumulative IPC: 2.469 (Simulation time: 00 hr 11 min 20 sec)
Heartbeat CPU 0 instructions: 89500609 cycles: 32599950 heartbeat IPC: 2.587 cumulative IPC: 2.47 (Simulation time: 00 hr 11 min 24 sec)
Heartbeat CPU 0 instructions: 90000615 cycles: 32828428 heartbeat IPC: 2.188 cumulative IPC: 2.466 (Simulation time: 00 hr 11 min 28 sec)
Heartbeat CPU 0 instructions: 90500621 cycles: 33020001 heartbeat IPC: 2.61 cumulative IPC: 2.468 (Simulation time: 00 hr 11 min 32 sec)
Heartbeat CPU 0 instructions: 91000622 cycles: 33211592 heartbeat IPC: 2.61 cumulative IPC: 2.469 (Simulation time: 00 hr 11 min 35 sec)
Heartbeat CPU 0 instructions: 91500625 cycles: 33439281 heartbeat IPC: 2.196 cumulative IPC: 2.466 (Simulation time: 00 hr 11 min 39 sec)
Heartbeat CPU 0 instructions: 92000630 cycles: 33630093 heartbeat IPC: 2.62 cumulative IPC: 2.467 (Simulation time: 00 hr 11 min 43 sec)
Heartbeat CPU 0 instructions: 92500631 cycles: 33822450 heartbeat IPC: 2.599 cumulative IPC: 2.469 (Simulation time: 00 hr 11 min 47 sec)
Heartbeat CPU 0 instructions: 93000635 cycles: 34049977 heartbeat IPC: 2.198 cumulative IPC: 2.465 (Simulation time: 00 hr 11 min 51 sec)
Heartbeat CPU 0 instructions: 93500640 cycles: 34242021 heartbeat IPC: 2.604 cumulative IPC: 2.467 (Simulation time: 00 hr 11 min 55 sec)
Heartbeat CPU 0 instructions: 94000642 cycles: 34432229 heartbeat IPC: 2.629 cumulative IPC: 2.469 (Simulation time: 00 hr 11 min 59 sec)
Heartbeat CPU 0 instructions: 94500649 cycles: 34623755 heartbeat IPC: 2.611 cumulative IPC: 2.47 (Simulation time: 00 hr 12 min 02 sec)
Heartbeat CPU 0 instructions: 95000654 cycles: 34849645 heartbeat IPC: 2.213 cumulative IPC: 2.467 (Simulation time: 00 hr 12 min 07 sec)
Heartbeat CPU 0 instructions: 95500659 cycles: 35040651 heartbeat IPC: 2.618 cumulative IPC: 2.469 (Simulation time: 00 hr 12 min 10 sec)
Heartbeat CPU 0 instructions: 96000659 cycles: 35232053 heartbeat IPC: 2.612 cumulative IPC: 2.47 (Simulation time: 00 hr 12 min 14 sec)
Heartbeat CPU 0 instructions: 96500661 cycles: 35460134 heartbeat IPC: 2.192 cumulative IPC: 2.467 (Simulation time: 00 hr 12 min 18 sec)
Heartbeat CPU 0 instructions: 97000665 cycles: 35651876 heartbeat IPC: 2.608 cumulative IPC: 2.468 (Simulation time: 00 hr 12 min 22 sec)
Heartbeat CPU 0 instructions: 97500669 cycles: 35844066 heartbeat IPC: 2.602 cumulative IPC: 2.469 (Simulation time: 00 hr 12 min 26 sec)
Heartbeat CPU 0 instructions: 98000674 cycles: 36062108 heartbeat IPC: 2.293 cumulative IPC: 2.467 (Simulation time: 00 hr 12 min 30 sec)
Heartbeat CPU 0 instructions: 98500674 cycles: 36244373 heartbeat IPC: 2.743 cumulative IPC: 2.47 (Simulation time: 00 hr 12 min 33 sec)
Heartbeat CPU 0 instructions: 99000676 cycles: 36426077 heartbeat IPC: 2.752 cumulative IPC: 2.473 (Simulation time: 00 hr 12 min 37 sec)
Heartbeat CPU 0 instructions: 99500679 cycles: 36610199 heartbeat IPC: 2.716 cumulative IPC: 2.475 (Simulation time: 00 hr 12 min 41 sec)
Heartbeat CPU 0 instructions: 100000683 cycles: 36817890 heartbeat IPC: 2.407 cumulative IPC: 2.474 (Simulation time: 00 hr 12 min 45 sec)
Heartbeat CPU 0 instructions: 100500688 cycles: 36999945 heartbeat IPC: 2.746 cumulative IPC: 2.477 (Simulation time: 00 hr 12 min 48 sec)
Heartbeat CPU 0 instructions: 101000688 cycles: 37182123 heartbeat IPC: 2.745 cumulative IPC: 2.479 (Simulation time: 00 hr 12 min 52 sec)
Heartbeat CPU 0 instructions: 101500688 cycles: 37390683 heartbeat IPC: 2.397 cumulative IPC: 2.478 (Simulation time: 00 hr 12 min 56 sec)
Heartbeat CPU 0 instructions: 102000692 cycles: 37572957 heartbeat IPC: 2.743 cumulative IPC: 2.48 (Simulation time: 00 hr 13 min 00 sec)
Heartbeat CPU 0 instructions: 102500692 cycles: 37754563 heartbeat IPC: 2.753 cumulative IPC: 2.483 (Simulation time: 00 hr 13 min 03 sec)
Heartbeat CPU 0 instructions: 103000695 cycles: 37962940 heartbeat IPC: 2.4 cumulative IPC: 2.482 (Simulation time: 00 hr 13 min 07 sec)
Heartbeat CPU 0 instructions: 103500699 cycles: 38144309 heartbeat IPC: 2.757 cumulative IPC: 2.484 (Simulation time: 00 hr 13 min 11 sec)
Heartbeat CPU 0 instructions: 104000699 cycles: 38327076 heartbeat IPC: 2.736 cumulative IPC: 2.486 (Simulation time: 00 hr 13 min 15 sec)
Heartbeat CPU 0 instructions: 104500704 cycles: 38518452 heartbeat IPC: 2.613 cumulative IPC: 2.487 (Simulation time: 00 hr 13 min 18 sec)
Heartbeat CPU 0 instructions: 105000706 cycles: 38717323 heartbeat IPC: 2.514 cumulative IPC: 2.488 (Simulation time: 00 hr 13 min 22 sec)
Heartbeat CPU 0 instructions: 105500706 cycles: 38899062 heartbeat IPC: 2.751 cumulative IPC: 2.49 (Simulation time: 00 hr 13 min 26 sec)
Heartbeat CPU 0 instructions: 106000712 cycles: 39081371 heartbeat IPC: 2.743 cumulative IPC: 2.492 (Simulation time: 00 hr 13 min 30 sec)
Heartbeat CPU 0 instructions: 106500719 cycles: 39290665 heartbeat IPC: 2.389 cumulative IPC: 2.491 (Simulation time: 00 hr 13 min 34 sec)
Heartbeat CPU 0 instructions: 107000725 cycles: 39473439 heartbeat IPC: 2.736 cumulative IPC: 2.493 (Simulation time: 00 hr 13 min 37 sec)
Heartbeat CPU 0 instructions: 107500728 cycles: 39656033 heartbeat IPC: 2.738 cumulative IPC: 2.495 (Simulation time: 00 hr 13 min 41 sec)
Heartbeat CPU 0 instructions: 108000728 cycles: 39863302 heartbeat IPC: 2.412 cumulative IPC: 2.494 (Simulation time: 00 hr 13 min 45 sec)
Heartbeat CPU 0 instructions: 108500733 cycles: 40045182 heartbeat IPC: 2.749 cumulative IPC: 2.496 (Simulation time: 00 hr 13 min 49 sec)
Heartbeat CPU 0 instructions: 109000738 cycles: 40226198 heartbeat IPC: 2.762 cumulative IPC: 2.498 (Simulation time: 00 hr 13 min 52 sec)
Heartbeat CPU 0 instructions: 109500743 cycles: 40425888 heartbeat IPC: 2.504 cumulative IPC: 2.498 (Simulation time: 00 hr 13 min 56 sec)
Heartbeat CPU 0 instructions: 110000743 cycles: 40617145 heartbeat IPC: 2.614 cumulative IPC: 2.499 (Simulation time: 00 hr 14 min 00 sec)
Heartbeat CPU 0 instructions: 110500748 cycles: 40798687 heartbeat IPC: 2.754 cumulative IPC: 2.501 (Simulation time: 00 hr 14 min 03 sec)
Heartbeat CPU 0 instructions: 111000749 cycles: 40981862 heartbeat IPC: 2.73 cumulative IPC: 2.503 (Simulation time: 00 hr 14 min 07 sec)
Heartbeat CPU 0 instructions: 111500749 cycles: 41190681 heartbeat IPC: 2.394 cumulative IPC: 2.502 (Simulation time: 00 hr 14 min 11 sec)
Heartbeat CPU 0 instructions: 112000752 cycles: 41373415 heartbeat IPC: 2.736 cumulative IPC: 2.504 (Simulation time: 00 hr 14 min 15 sec)
Heartbeat CPU 0 instructions: 112500754 cycles: 41555409 heartbeat IPC: 2.747 cumulative IPC: 2.505 (Simulation time: 00 hr 14 min 19 sec)
Heartbeat CPU 0 instructions: 113000760 cycles: 41763956 heartbeat IPC: 2.398 cumulative IPC: 2.504 (Simulation time: 00 hr 14 min 22 sec)
Heartbeat CPU 0 instructions: 113500767 cycles: 41945879 heartbeat IPC: 2.748 cumulative IPC: 2.506 (Simulation time: 00 hr 14 min 26 sec)
Heartbeat CPU 0 instructions: 114000767 cycles: 42127707 heartbeat IPC: 2.75 cumulative IPC: 2.508 (Simulation time: 00 hr 14 min 30 sec)
Heartbeat CPU 0 instructions: 114500771 cycles: 42335648 heartbeat IPC: 2.405 cumulative IPC: 2.507 (Simulation time: 00 hr 14 min 34 sec)
Heartbeat CPU 0 instructions: 115000772 cycles: 42517584 heartbeat IPC: 2.748 cumulative IPC: 2.509 (Simulation time: 00 hr 14 min 37 sec)
Heartbeat CPU 0 instructions: 115500775 cycles: 42698310 heartbeat IPC: 2.767 cumulative IPC: 2.511 (Simulation time: 00 hr 14 min 41 sec)
Heartbeat CPU 0 instructions: 116000776 cycles: 42880292 heartbeat IPC: 2.748 cumulative IPC: 2.512 (Simulation time: 00 hr 14 min 45 sec)
Heartbeat CPU 0 instructions: 116500776 cycles: 43089791 heartbeat IPC: 2.387 cumulative IPC: 2.511 (Simulation time: 00 hr 14 min 49 sec)
Heartbeat CPU 0 instructions: 117000780 cycles: 43272675 heartbeat IPC: 2.734 cumulative IPC: 2.513 (Simulation time: 00 hr 14 min 52 sec)
Heartbeat CPU 0 instructions: 117500780 cycles: 43454074 heartbeat IPC: 2.756 cumulative IPC: 2.514 (Simulation time: 00 hr 14 min 56 sec)
Heartbeat CPU 0 instructions: 118000783 cycles: 43661685 heartbeat IPC: 2.408 cumulative IPC: 2.514 (Simulation time: 00 hr 15 min 00 sec)
Heartbeat CPU 0 instructions: 118500788 cycles: 43844092 heartbeat IPC: 2.741 cumulative IPC: 2.515 (Simulation time: 00 hr 15 min 04 sec)
Heartbeat CPU 0 instructions: 119000792 cycles: 44026547 heartbeat IPC: 2.74 cumulative IPC: 2.517 (Simulation time: 00 hr 15 min 07 sec)
Heartbeat CPU 0 instructions: 119500795 cycles: 44235485 heartbeat IPC: 2.393 cumulative IPC: 2.516 (Simulation time: 00 hr 15 min 11 sec)
Heartbeat CPU 0 instructions: 120000798 cycles: 44416769 heartbeat IPC: 2.758 cumulative IPC: 2.517 (Simulation time: 00 hr 15 min 15 sec)
Heartbeat CPU 0 instructions: 120500801 cycles: 44598830 heartbeat IPC: 2.746 cumulative IPC: 2.519 (Simulation time: 00 hr 15 min 19 sec)
Heartbeat CPU 0 instructions: 121000807 cycles: 44780553 heartbeat IPC: 2.751 cumulative IPC: 2.52 (Simulation time: 00 hr 15 min 22 sec)
Heartbeat CPU 0 instructions: 121500814 cycles: 44990328 heartbeat IPC: 2.384 cumulative IPC: 2.519 (Simulation time: 00 hr 15 min 26 sec)
Heartbeat CPU 0 instructions: 122000815 cycles: 45171976 heartbeat IPC: 2.753 cumulative IPC: 2.521 (Simulation time: 00 hr 15 min 30 sec)
Heartbeat CPU 0 instructions: 122500817 cycles: 45353531 heartbeat IPC: 2.754 cumulative IPC: 2.522 (Simulation time: 00 hr 15 min 34 sec)
Heartbeat CPU 0 instructions: 123000819 cycles: 45562052 heartbeat IPC: 2.398 cumulative IPC: 2.521 (Simulation time: 00 hr 15 min 38 sec)
Heartbeat CPU 0 instructions: 123500819 cycles: 45744879 heartbeat IPC: 2.735 cumulative IPC: 2.523 (Simulation time: 00 hr 15 min 41 sec)
Heartbeat CPU 0 instructions: 124000826 cycles: 45926347 heartbeat IPC: 2.755 cumulative IPC: 2.524 (Simulation time: 00 hr 15 min 45 sec)
Heartbeat CPU 0 instructions: 124500827 cycles: 46133478 heartbeat IPC: 2.414 cumulative IPC: 2.523 (Simulation time: 00 hr 15 min 49 sec)
Heartbeat CPU 0 instructions: 125000831 cycles: 46314456 heartbeat IPC: 2.763 cumulative IPC: 2.525 (Simulation time: 00 hr 15 min 53 sec)
Heartbeat CPU 0 instructions: 125500834 cycles: 46497230 heartbeat IPC: 2.736 cumulative IPC: 2.526 (Simulation time: 00 hr 15 min 56 sec)
Heartbeat CPU 0 instructions: 126000837 cycles: 46680714 heartbeat IPC: 2.725 cumulative IPC: 2.527 (Simulation time: 00 hr 16 min 00 sec)
Heartbeat CPU 0 instructions: 126500841 cycles: 46886860 heartbeat IPC: 2.425 cumulative IPC: 2.527 (Simulation time: 00 hr 16 min 04 sec)
Heartbeat CPU 0 instructions: 127000848 cycles: 47069368 heartbeat IPC: 2.74 cumulative IPC: 2.528 (Simulation time: 00 hr 16 min 08 sec)
Heartbeat CPU 0 instructions: 127500851 cycles: 47250659 heartbeat IPC: 2.758 cumulative IPC: 2.529 (Simulation time: 00 hr 16 min 11 sec)
Heartbeat CPU 0 instructions: 128000851 cycles: 47458646 heartbeat IPC: 2.404 cumulative IPC: 2.528 (Simulation time: 00 hr 16 min 15 sec)
Heartbeat CPU 0 instructions: 128500858 cycles: 47641911 heartbeat IPC: 2.728 cumulative IPC: 2.53 (Simulation time: 00 hr 16 min 19 sec)
Heartbeat CPU 0 instructions: 129000858 cycles: 47824447 heartbeat IPC: 2.739 cumulative IPC: 2.531 (Simulation time: 00 hr 16 min 23 sec)
Heartbeat CPU 0 instructions: 129500858 cycles: 48032367 heartbeat IPC: 2.405 cumulative IPC: 2.53 (Simulation time: 00 hr 16 min 27 sec)
Heartbeat CPU 0 instructions: 130000862 cycles: 48215116 heartbeat IPC: 2.736 cumulative IPC: 2.531 (Simulation time: 00 hr 16 min 30 sec)
Heartbeat CPU 0 instructions: 130500865 cycles: 48397624 heartbeat IPC: 2.74 cumulative IPC: 2.532 (Simulation time: 00 hr 16 min 34 sec)
Heartbeat CPU 0 instructions: 131000868 cycles: 48589556 heartbeat IPC: 2.605 cumulative IPC: 2.533 (Simulation time: 00 hr 16 min 38 sec)
Heartbeat CPU 0 instructions: 131500874 cycles: 48788230 heartbeat IPC: 2.517 cumulative IPC: 2.533 (Simulation time: 00 hr 16 min 42 sec)
Heartbeat CPU 0 instructions: 132000875 cycles: 48968641 heartbeat IPC: 2.771 cumulative IPC: 2.534 (Simulation time: 00 hr 16 min 45 sec)
Heartbeat CPU 0 instructions: 132500882 cycles: 49149943 heartbeat IPC: 2.758 cumulative IPC: 2.535 (Simulation time: 00 hr 16 min 49 sec)
Heartbeat CPU 0 instructions: 133000889 cycles: 49359284 heartbeat IPC: 2.388 cumulative IPC: 2.534 (Simulation time: 00 hr 16 min 53 sec)
Heartbeat CPU 0 instructions: 133500895 cycles: 49542309 heartbeat IPC: 2.732 cumulative IPC: 2.535 (Simulation time: 00 hr 16 min 57 sec)
Heartbeat CPU 0 instructions: 134000896 cycles: 49725295 heartbeat IPC: 2.732 cumulative IPC: 2.537 (Simulation time: 00 hr 17 min 00 sec)
Heartbeat CPU 0 instructions: 134500903 cycles: 49932114 heartbeat IPC: 2.418 cumulative IPC: 2.536 (Simulation time: 00 hr 17 min 04 sec)
Heartbeat CPU 0 instructions: 135000905 cycles: 50114736 heartbeat IPC: 2.738 cumulative IPC: 2.537 (Simulation time: 00 hr 17 min 08 sec)
Heartbeat CPU 0 instructions: 135500906 cycles: 50297259 heartbeat IPC: 2.739 cumulative IPC: 2.538 (Simulation time: 00 hr 17 min 12 sec)
Heartbeat CPU 0 instructions: 136000907 cycles: 50496622 heartbeat IPC: 2.508 cumulative IPC: 2.538 (Simulation time: 00 hr 17 min 15 sec)
Heartbeat CPU 0 instructions: 136500908 cycles: 50686941 heartbeat IPC: 2.627 cumulative IPC: 2.538 (Simulation time: 00 hr 17 min 19 sec)
Heartbeat CPU 0 instructions: 137000911 cycles: 50868658 heartbeat IPC: 2.752 cumulative IPC: 2.539 (Simulation time: 00 hr 17 min 23 sec)
Heartbeat CPU 0 instructions: 137500915 cycles: 51050563 heartbeat IPC: 2.749 cumulative IPC: 2.541 (Simulation time: 00 hr 17 min 27 sec)
Heartbeat CPU 0 instructions: 138000920 cycles: 51259482 heartbeat IPC: 2.393 cumulative IPC: 2.54 (Simulation time: 00 hr 17 min 31 sec)
Heartbeat CPU 0 instructions: 138500922 cycles: 51442124 heartbeat IPC: 2.738 cumulative IPC: 2.541 (Simulation time: 00 hr 17 min 34 sec)
Heartbeat CPU 0 instructions: 139000927 cycles: 51623896 heartbeat IPC: 2.751 cumulative IPC: 2.542 (Simulation time: 00 hr 17 min 38 sec)
Heartbeat CPU 0 instructions: 139500934 cycles: 51832748 heartbeat IPC: 2.394 cumulative IPC: 2.541 (Simulation time: 00 hr 17 min 42 sec)
Heartbeat CPU 0 instructions: 140000935 cycles: 52014843 heartbeat IPC: 2.746 cumulative IPC: 2.542 (Simulation time: 00 hr 17 min 46 sec)
Heartbeat CPU 0 instructions: 140500935 cycles: 52197084 heartbeat IPC: 2.744 cumulative IPC: 2.543 (Simulation time: 00 hr 17 min 49 sec)
Heartbeat CPU 0 instructions: 141000940 cycles: 52405028 heartbeat IPC: 2.405 cumulative IPC: 2.542 (Simulation time: 00 hr 17 min 53 sec)
Heartbeat CPU 0 instructions: 141500943 cycles: 52586531 heartbeat IPC: 2.755 cumulative IPC: 2.543 (Simulation time: 00 hr 17 min 57 sec)
Heartbeat CPU 0 instructions: 142000944 cycles: 52768916 heartbeat IPC: 2.741 cumulative IPC: 2.544 (Simulation time: 00 hr 18 min 01 sec)
Heartbeat CPU 0 instructions: 142500945 cycles: 52950890 heartbeat IPC: 2.748 cumulative IPC: 2.545 (Simulation time: 00 hr 18 min 04 sec)
Heartbeat CPU 0 instructions: 143000947 cycles: 53158826 heartbeat IPC: 2.405 cumulative IPC: 2.544 (Simulation time: 00 hr 18 min 08 sec)
Heartbeat CPU 0 instructions: 143500952 cycles: 53340292 heartbeat IPC: 2.755 cumulative IPC: 2.546 (Simulation time: 00 hr 18 min 12 sec)
Heartbeat CPU 0 instructions: 144000954 cycles: 53521183 heartbeat IPC: 2.764 cumulative IPC: 2.547 (Simulation time: 00 hr 18 min 16 sec)
Heartbeat CPU 0 instructions: 144500957 cycles: 53725904 heartbeat IPC: 2.442 cumulative IPC: 2.546 (Simulation time: 00 hr 18 min 19 sec)
Heartbeat CPU 0 instructions: 145000964 cycles: 53906787 heartbeat IPC: 2.764 cumulative IPC: 2.547 (Simulation time: 00 hr 18 min 23 sec)
Heartbeat CPU 0 instructions: 145500970 cycles: 54086229 heartbeat IPC: 2.786 cumulative IPC: 2.548 (Simulation time: 00 hr 18 min 27 sec)
Heartbeat CPU 0 instructions: 146000971 cycles: 54290074 heartbeat IPC: 2.453 cumulative IPC: 2.548 (Simulation time: 00 hr 18 min 31 sec)
Heartbeat CPU 0 instructions: 146500971 cycles: 54469909 heartbeat IPC: 2.78 cumulative IPC: 2.549 (Simulation time: 00 hr 18 min 34 sec)
Heartbeat CPU 0 instructions: 147000975 cycles: 54649666 heartbeat IPC: 2.782 cumulative IPC: 2.55 (Simulation time: 00 hr 18 min 38 sec)
Heartbeat CPU 0 instructions: 147500981 cycles: 54830022 heartbeat IPC: 2.772 cumulative IPC: 2.551 (Simulation time: 00 hr 18 min 42 sec)
Heartbeat CPU 0 instructions: 148000984 cycles: 55034863 heartbeat IPC: 2.441 cumulative IPC: 2.55 (Simulation time: 00 hr 18 min 46 sec)
Heartbeat CPU 0 instructions: 148500986 cycles: 55214544 heartbeat IPC: 2.783 cumulative IPC: 2.551 (Simulation time: 00 hr 18 min 49 sec)
Heartbeat CPU 0 instructions: 149000986 cycles: 55395506 heartbeat IPC: 2.763 cumulative IPC: 2.552 (Simulation time: 00 hr 18 min 53 sec)
Heartbeat CPU 0 instructions: 149500991 cycles: 55602734 heartbeat IPC: 2.413 cumulative IPC: 2.552 (Simulation time: 00 hr 18 min 57 sec)
Heartbeat CPU 0 instructions: 150000993 cycles: 55784656 heartbeat IPC: 2.748 cumulative IPC: 2.553 (Simulation time: 00 hr 19 min 01 sec)
Heartbeat CPU 0 instructions: 150501000 cycles: 55966169 heartbeat IPC: 2.755 cumulative IPC: 2.554 (Simulation time: 00 hr 19 min 04 sec)
Heartbeat CPU 0 instructions: 151001004 cycles: 56175122 heartbeat IPC: 2.393 cumulative IPC: 2.553 (Simulation time: 00 hr 19 min 08 sec)
Heartbeat CPU 0 instructions: 151501010 cycles: 56357690 heartbeat IPC: 2.739 cumulative IPC: 2.554 (Simulation time: 00 hr 19 min 12 sec)
Heartbeat CPU 0 instructions: 152001016 cycles: 56538347 heartbeat IPC: 2.768 cumulative IPC: 2.555 (Simulation time: 00 hr 19 min 16 sec)
Heartbeat CPU 0 instructions: 152501018 cycles: 56720363 heartbeat IPC: 2.747 cumulative IPC: 2.555 (Simulation time: 00 hr 19 min 19 sec)
Heartbeat CPU 0 instructions: 153001023 cycles: 56926259 heartbeat IPC: 2.428 cumulative IPC: 2.555 (Simulation time: 00 hr 19 min 23 sec)
Heartbeat CPU 0 instructions: 153501028 cycles: 57108868 heartbeat IPC: 2.738 cumulative IPC: 2.556 (Simulation time: 00 hr 19 min 27 sec)
Heartbeat CPU 0 instructions: 154001033 cycles: 57291212 heartbeat IPC: 2.742 cumulative IPC: 2.556 (Simulation time: 00 hr 19 min 31 sec)
Heartbeat CPU 0 instructions: 154501039 cycles: 57498907 heartbeat IPC: 2.407 cumulative IPC: 2.556 (Simulation time: 00 hr 19 min 35 sec)
Heartbeat CPU 0 instructions: 155001046 cycles: 57680062 heartbeat IPC: 2.76 cumulative IPC: 2.557 (Simulation time: 00 hr 19 min 38 sec)
Heartbeat CPU 0 instructions: 155501048 cycles: 57861166 heartbeat IPC: 2.761 cumulative IPC: 2.557 (Simulation time: 00 hr 19 min 42 sec)
Heartbeat CPU 0 instructions: 156001048 cycles: 58069277 heartbeat IPC: 2.403 cumulative IPC: 2.557 (Simulation time: 00 hr 19 min 46 sec)
Heartbeat CPU 0 instructions: 156501052 cycles: 58250935 heartbeat IPC: 2.752 cumulative IPC: 2.558 (Simulation time: 00 hr 19 min 50 sec)
Heartbeat CPU 0 instructions: 157001055 cycles: 58433076 heartbeat IPC: 2.745 cumulative IPC: 2.558 (Simulation time: 00 hr 19 min 53 sec)
Heartbeat CPU 0 instructions: 157501060 cycles: 58623711 heartbeat IPC: 2.623 cumulative IPC: 2.559 (Simulation time: 00 hr 19 min 57 sec)
Heartbeat CPU 0 instructions: 158001066 cycles: 58821652 heartbeat IPC: 2.526 cumulative IPC: 2.558 (Simulation time: 00 hr 20 min 01 sec)
Heartbeat CPU 0 instructions: 158501073 cycles: 59001951 heartbeat IPC: 2.773 cumulative IPC: 2.559 (Simulation time: 00 hr 20 min 05 sec)
Heartbeat CPU 0 instructions: 159001074 cycles: 59182682 heartbeat IPC: 2.767 cumulative IPC: 2.56 (Simulation time: 00 hr 20 min 08 sec)
Heartbeat CPU 0 instructions: 159501079 cycles: 59391934 heartbeat IPC: 2.389 cumulative IPC: 2.559 (Simulation time: 00 hr 20 min 12 sec)
Heartbeat CPU 0 instructions: 160001082 cycles: 59574441 heartbeat IPC: 2.74 cumulative IPC: 2.56 (Simulation time: 00 hr 20 min 16 sec)
Heartbeat CPU 0 instructions: 160501082 cycles: 59756559 heartbeat IPC: 2.745 cumulative IPC: 2.561 (Simulation time: 00 hr 20 min 20 sec)
Heartbeat CPU 0 instructions: 161001085 cycles: 59963731 heartbeat IPC: 2.413 cumulative IPC: 2.56 (Simulation time: 00 hr 20 min 24 sec)
Heartbeat CPU 0 instructions: 161501085 cycles: 60143998 heartbeat IPC: 2.774 cumulative IPC: 2.561 (Simulation time: 00 hr 20 min 27 sec)
Heartbeat CPU 0 instructions: 162001086 cycles: 60324603 heartbeat IPC: 2.768 cumulative IPC: 2.562 (Simulation time: 00 hr 20 min 31 sec)
Heartbeat CPU 0 instructions: 162501089 cycles: 60523445 heartbeat IPC: 2.515 cumulative IPC: 2.562 (Simulation time: 00 hr 20 min 35 sec)
Heartbeat CPU 0 instructions: 163001094 cycles: 60714856 heartbeat IPC: 2.612 cumulative IPC: 2.562 (Simulation time: 00 hr 20 min 39 sec)
Heartbeat CPU 0 instructions: 163501096 cycles: 60896338 heartbeat IPC: 2.755 cumulative IPC: 2.563 (Simulation time: 00 hr 20 min 42 sec)
Heartbeat CPU 0 instructions: 164001098 cycles: 61115271 heartbeat IPC: 2.284 cumulative IPC: 2.561 (Simulation time: 00 hr 20 min 46 sec)
Heartbeat CPU 0 instructions: 164501098 cycles: 61323645 heartbeat IPC: 2.4 cumulative IPC: 2.561 (Simulation time: 00 hr 20 min 50 sec)
Heartbeat CPU 0 instructions: 165001098 cycles: 61505281 heartbeat IPC: 2.753 cumulative IPC: 2.561 (Simulation time: 00 hr 20 min 54 sec)
Heartbeat CPU 0 instructions: 165501104 cycles: 61687348 heartbeat IPC: 2.746 cumulative IPC: 2.562 (Simulation time: 00 hr 20 min 58 sec)
Heartbeat CPU 0 instructions: 166001105 cycles: 61895682 heartbeat IPC: 2.4 cumulative IPC: 2.561 (Simulation time: 00 hr 21 min 02 sec)
Heartbeat CPU 0 instructions: 166501105 cycles: 62077134 heartbeat IPC: 2.756 cumulative IPC: 2.562 (Simulation time: 00 hr 21 min 05 sec)
Heartbeat CPU 0 instructions: 167001107 cycles: 62257598 heartbeat IPC: 2.771 cumulative IPC: 2.563 (Simulation time: 00 hr 21 min 09 sec)
Heartbeat CPU 0 instructions: 167501112 cycles: 62462686 heartbeat IPC: 2.438 cumulative IPC: 2.562 (Simulation time: 00 hr 21 min 13 sec)
Heartbeat CPU 0 instructions: 168001119 cycles: 62645564 heartbeat IPC: 2.734 cumulative IPC: 2.563 (Simulation time: 00 hr 21 min 17 sec)
Heartbeat CPU 0 instructions: 168501122 cycles: 62827313 heartbeat IPC: 2.751 cumulative IPC: 2.564 (Simulation time: 00 hr 21 min 20 sec)
Heartbeat CPU 0 instructions: 169001124 cycles: 63009719 heartbeat IPC: 2.741 cumulative IPC: 2.565 (Simulation time: 00 hr 21 min 24 sec)
Heartbeat CPU 0 instructions: 169501127 cycles: 63217460 heartbeat IPC: 2.407 cumulative IPC: 2.564 (Simulation time: 00 hr 21 min 28 sec)
Heartbeat CPU 0 instructions: 170001129 cycles: 63398037 heartbeat IPC: 2.769 cumulative IPC: 2.565 (Simulation time: 00 hr 21 min 32 sec)
Heartbeat CPU 0 instructions: 170501130 cycles: 63579120 heartbeat IPC: 2.761 cumulative IPC: 2.565 (Simulation time: 00 hr 21 min 35 sec)
Heartbeat CPU 0 instructions: 171001130 cycles: 63786499 heartbeat IPC: 2.411 cumulative IPC: 2.565 (Simulation time: 00 hr 21 min 39 sec)
Heartbeat CPU 0 instructions: 171501132 cycles: 63969200 heartbeat IPC: 2.737 cumulative IPC: 2.565 (Simulation time: 00 hr 21 min 43 sec)
Heartbeat CPU 0 instructions: 172001133 cycles: 64150944 heartbeat IPC: 2.751 cumulative IPC: 2.566 (Simulation time: 00 hr 21 min 47 sec)
Heartbeat CPU 0 instructions: 172501135 cycles: 64359867 heartbeat IPC: 2.393 cumulative IPC: 2.565 (Simulation time: 00 hr 21 min 51 sec)
Heartbeat CPU 0 instructions: 173001138 cycles: 64540641 heartbeat IPC: 2.766 cumulative IPC: 2.566 (Simulation time: 00 hr 21 min 54 sec)
Heartbeat CPU 0 instructions: 173501142 cycles: 64721859 heartbeat IPC: 2.759 cumulative IPC: 2.567 (Simulation time: 00 hr 21 min 58 sec)
Heartbeat CPU 0 instructions: 174001149 cycles: 64903993 heartbeat IPC: 2.745 cumulative IPC: 2.568 (Simulation time: 00 hr 22 min 01 sec)
Heartbeat CPU 0 instructions: 174501150 cycles: 65111969 heartbeat IPC: 2.404 cumulative IPC: 2.567 (Simulation time: 00 hr 22 min 05 sec)
Heartbeat CPU 0 instructions: 175001155 cycles: 65293472 heartbeat IPC: 2.755 cumulative IPC: 2.568 (Simulation time: 00 hr 22 min 09 sec)
Heartbeat CPU 0 instructions: 175501160 cycles: 65475185 heartbeat IPC: 2.752 cumulative IPC: 2.568 (Simulation time: 00 hr 22 min 13 sec)
Heartbeat CPU 0 instructions: 176001160 cycles: 65682156 heartbeat IPC: 2.416 cumulative IPC: 2.568 (Simulation time: 00 hr 22 min 17 sec)
Heartbeat CPU 0 instructions: 176501163 cycles: 65863232 heartbeat IPC: 2.761 cumulative IPC: 2.568 (Simulation time: 00 hr 22 min 20 sec)
Heartbeat CPU 0 instructions: 177001168 cycles: 66045855 heartbeat IPC: 2.738 cumulative IPC: 2.569 (Simulation time: 00 hr 22 min 24 sec)
Heartbeat CPU 0 instructions: 177501171 cycles: 66254281 heartbeat IPC: 2.399 cumulative IPC: 2.568 (Simulation time: 00 hr 22 min 28 sec)
Heartbeat CPU 0 instructions: 178001172 cycles: 66436801 heartbeat IPC: 2.739 cumulative IPC: 2.569 (Simulation time: 00 hr 22 min 31 sec)
Heartbeat CPU 0 instructions: 178501178 cycles: 66618042 heartbeat IPC: 2.759 cumulative IPC: 2.57 (Simulation time: 00 hr 22 min 35 sec)
Heartbeat CPU 0 instructions: 179001185 cycles: 66800875 heartbeat IPC: 2.735 cumulative IPC: 2.57 (Simulation time: 00 hr 22 min 39 sec)
Heartbeat CPU 0 instructions: 179501188 cycles: 67008183 heartbeat IPC: 2.412 cumulative IPC: 2.569 (Simulation time: 00 hr 22 min 43 sec)
Heartbeat CPU 0 instructions: 180001194 cycles: 67190757 heartbeat IPC: 2.739 cumulative IPC: 2.57 (Simulation time: 00 hr 22 min 46 sec)
Heartbeat CPU 0 instructions: 180501196 cycles: 67372696 heartbeat IPC: 2.748 cumulative IPC: 2.571 (Simulation time: 00 hr 22 min 50 sec)
Heartbeat CPU 0 instructions: 181001196 cycles: 67579788 heartbeat IPC: 2.414 cumulative IPC: 2.57 (Simulation time: 00 hr 22 min 54 sec)
Heartbeat CPU 0 instructions: 181501198 cycles: 67760855 heartbeat IPC: 2.761 cumulative IPC: 2.571 (Simulation time: 00 hr 22 min 57 sec)
Heartbeat CPU 0 instructions: 182001205 cycles: 67943704 heartbeat IPC: 2.735 cumulative IPC: 2.571 (Simulation time: 00 hr 23 min 01 sec)
Heartbeat CPU 0 instructions: 182501210 cycles: 68152124 heartbeat IPC: 2.399 cumulative IPC: 2.571 (Simulation time: 00 hr 23 min 05 sec)
Heartbeat CPU 0 instructions: 183001210 cycles: 68333802 heartbeat IPC: 2.752 cumulative IPC: 2.571 (Simulation time: 00 hr 23 min 09 sec)
Heartbeat CPU 0 instructions: 183501212 cycles: 68515488 heartbeat IPC: 2.752 cumulative IPC: 2.572 (Simulation time: 00 hr 23 min 12 sec)
Heartbeat CPU 0 instructions: 184001216 cycles: 68705901 heartbeat IPC: 2.626 cumulative IPC: 2.572 (Simulation time: 00 hr 23 min 16 sec)
Heartbeat CPU 0 instructions: 184501221 cycles: 68903804 heartbeat IPC: 2.527 cumulative IPC: 2.572 (Simulation time: 00 hr 23 min 20 sec)
Heartbeat CPU 0 instructions: 185001222 cycles: 69085915 heartbeat IPC: 2.746 cumulative IPC: 2.573 (Simulation time: 00 hr 23 min 23 sec)
Heartbeat CPU 0 instructions: 185501222 cycles: 69267276 heartbeat IPC: 2.757 cumulative IPC: 2.573 (Simulation time: 00 hr 23 min 27 sec)
Heartbeat CPU 0 instructions: 186001229 cycles: 69476148 heartbeat IPC: 2.394 cumulative IPC: 2.572 (Simulation time: 00 hr 23 min 31 sec)
Heartbeat CPU 0 instructions: 186501229 cycles: 69658230 heartbeat IPC: 2.746 cumulative IPC: 2.573 (Simulation time: 00 hr 23 min 35 sec)
Heartbeat CPU 0 instructions: 187001232 cycles: 69839612 heartbeat IPC: 2.757 cumulative IPC: 2.574 (Simulation time: 00 hr 23 min 38 sec)
Heartbeat CPU 0 instructions: 187501235 cycles: 70046874 heartbeat IPC: 2.412 cumulative IPC: 2.573 (Simulation time: 00 hr 23 min 42 sec)
Heartbeat CPU 0 instructions: 188001242 cycles: 70228927 heartbeat IPC: 2.746 cumulative IPC: 2.574 (Simulation time: 00 hr 23 min 46 sec)
Heartbeat CPU 0 instructions: 188501244 cycles: 70410473 heartbeat IPC: 2.754 cumulative IPC: 2.574 (Simulation time: 00 hr 23 min 49 sec)
Heartbeat CPU 0 instructions: 189001247 cycles: 70609611 heartbeat IPC: 2.511 cumulative IPC: 2.574 (Simulation time: 00 hr 23 min 53 sec)
Heartbeat CPU 0 instructions: 189501247 cycles: 70799924 heartbeat IPC: 2.627 cumulative IPC: 2.574 (Simulation time: 00 hr 23 min 57 sec)
Heartbeat CPU 0 instructions: 190001254 cycles: 70981248 heartbeat IPC: 2.758 cumulative IPC: 2.575 (Simulation time: 00 hr 24 min 00 sec)
Heartbeat CPU 0 instructions: 190501259 cycles: 71162049 heartbeat IPC: 2.765 cumulative IPC: 2.575 (Simulation time: 00 hr 24 min 04 sec)
Heartbeat CPU 0 instructions: 191001266 cycles: 71370582 heartbeat IPC: 2.398 cumulative IPC: 2.575 (Simulation time: 00 hr 24 min 08 sec)
Heartbeat CPU 0 instructions: 191501268 cycles: 71552087 heartbeat IPC: 2.755 cumulative IPC: 2.575 (Simulation time: 00 hr 24 min 11 sec)
Heartbeat CPU 0 instructions: 192001273 cycles: 71733978 heartbeat IPC: 2.749 cumulative IPC: 2.576 (Simulation time: 00 hr 24 min 15 sec)
Heartbeat CPU 0 instructions: 192501274 cycles: 71941332 heartbeat IPC: 2.411 cumulative IPC: 2.575 (Simulation time: 00 hr 24 min 19 sec)
Heartbeat CPU 0 instructions: 193001279 cycles: 72122536 heartbeat IPC: 2.759 cumulative IPC: 2.576 (Simulation time: 00 hr 24 min 22 sec)
Heartbeat CPU 0 instructions: 193501281 cycles: 72303209 heartbeat IPC: 2.767 cumulative IPC: 2.577 (Simulation time: 00 hr 24 min 26 sec)
Heartbeat CPU 0 instructions: 194001286 cycles: 72510769 heartbeat IPC: 2.409 cumulative IPC: 2.576 (Simulation time: 00 hr 24 min 30 sec)
Heartbeat CPU 0 instructions: 194501291 cycles: 72694424 heartbeat IPC: 2.723 cumulative IPC: 2.576 (Simulation time: 00 hr 24 min 34 sec)
Heartbeat CPU 0 instructions: 195001296 cycles: 72876279 heartbeat IPC: 2.749 cumulative IPC: 2.577 (Simulation time: 00 hr 24 min 37 sec)
Heartbeat CPU 0 instructions: 195501300 cycles: 73058030 heartbeat IPC: 2.751 cumulative IPC: 2.578 (Simulation time: 00 hr 24 min 41 sec)
Heartbeat CPU 0 instructions: 196001301 cycles: 73264624 heartbeat IPC: 2.42 cumulative IPC: 2.577 (Simulation time: 00 hr 24 min 45 sec)
Heartbeat CPU 0 instructions: 196501308 cycles: 73446726 heartbeat IPC: 2.746 cumulative IPC: 2.578 (Simulation time: 00 hr 24 min 48 sec)
Heartbeat CPU 0 instructions: 197001309 cycles: 73628569 heartbeat IPC: 2.75 cumulative IPC: 2.578 (Simulation time: 00 hr 24 min 52 sec)
Heartbeat CPU 0 instructions: 197501312 cycles: 73836640 heartbeat IPC: 2.403 cumulative IPC: 2.577 (Simulation time: 00 hr 24 min 56 sec)
Heartbeat CPU 0 instructions: 198001318 cycles: 74019681 heartbeat IPC: 2.732 cumulative IPC: 2.578 (Simulation time: 00 hr 24 min 59 sec)
Heartbeat CPU 0 instructions: 198501319 cycles: 74199774 heartbeat IPC: 2.776 cumulative IPC: 2.579 (Simulation time: 00 hr 25 min 03 sec)
Heartbeat CPU 0 instructions: 199001321 cycles: 74405897 heartbeat IPC: 2.426 cumulative IPC: 2.578 (Simulation time: 00 hr 25 min 07 sec)
Heartbeat CPU 0 instructions: 199501324 cycles: 74586355 heartbeat IPC: 2.771 cumulative IPC: 2.579 (Simulation time: 00 hr 25 min 10 sec)
Heartbeat CPU 0 instructions: 200001324 cycles: 74768431 heartbeat IPC: 2.746 cumulative IPC: 2.579 (Simulation time: 00 hr 25 min 14 sec)
Heartbeat CPU 0 instructions: 200501327 cycles: 74950578 heartbeat IPC: 2.745 cumulative IPC: 2.58 (Simulation time: 00 hr 25 min 17 sec)
Heartbeat CPU 0 instructions: 201001327 cycles: 75159266 heartbeat IPC: 2.396 cumulative IPC: 2.579 (Simulation time: 00 hr 25 min 21 sec)
Heartbeat CPU 0 instructions: 201501331 cycles: 75341682 heartbeat IPC: 2.741 cumulative IPC: 2.579 (Simulation time: 00 hr 25 min 25 sec)
Heartbeat CPU 0 instructions: 202001334 cycles: 75521785 heartbeat IPC: 2.776 cumulative IPC: 2.58 (Simulation time: 00 hr 25 min 28 sec)
Heartbeat CPU 0 instructions: 202501340 cycles: 75730007 heartbeat IPC: 2.401 cumulative IPC: 2.579 (Simulation time: 00 hr 25 min 32 sec)
Heartbeat CPU 0 instructions: 203001341 cycles: 75911546 heartbeat IPC: 2.754 cumulative IPC: 2.58 (Simulation time: 00 hr 25 min 36 sec)
Heartbeat CPU 0 instructions: 203501346 cycles: 76094034 heartbeat IPC: 2.74 cumulative IPC: 2.58 (Simulation time: 00 hr 25 min 39 sec)
Heartbeat CPU 0 instructions: 204001346 cycles: 76302157 heartbeat IPC: 2.402 cumulative IPC: 2.58 (Simulation time: 00 hr 25 min 43 sec)
Heartbeat CPU 0 instructions: 204501353 cycles: 76482595 heartbeat IPC: 2.771 cumulative IPC: 2.58 (Simulation time: 00 hr 25 min 47 sec)
Heartbeat CPU 0 instructions: 205001358 cycles: 76662831 heartbeat IPC: 2.774 cumulative IPC: 2.581 (Simulation time: 00 hr 25 min 50 sec)
Heartbeat CPU 0 instructions: 205501358 cycles: 76844372 heartbeat IPC: 2.754 cumulative IPC: 2.582 (Simulation time: 00 hr 25 min 54 sec)
Heartbeat CPU 0 instructions: 206001358 cycles: 77049596 heartbeat IPC: 2.436 cumulative IPC: 2.581 (Simulation time: 00 hr 25 min 58 sec)
Heartbeat CPU 0 instructions: 206501360 cycles: 77231263 heartbeat IPC: 2.752 cumulative IPC: 2.582 (Simulation time: 00 hr 26 min 01 sec)
Heartbeat CPU 0 instructions: 207001361 cycles: 77412815 heartbeat IPC: 2.754 cumulative IPC: 2.582 (Simulation time: 00 hr 26 min 05 sec)
Heartbeat CPU 0 instructions: 207501368 cycles: 77620725 heartbeat IPC: 2.405 cumulative IPC: 2.581 (Simulation time: 00 hr 26 min 09 sec)
Heartbeat CPU 0 instructions: 208001370 cycles: 77802403 heartbeat IPC: 2.752 cumulative IPC: 2.582 (Simulation time: 00 hr 26 min 12 sec)
Heartbeat CPU 0 instructions: 208501372 cycles: 77984655 heartbeat IPC: 2.743 cumulative IPC: 2.582 (Simulation time: 00 hr 26 min 16 sec)
Heartbeat CPU 0 instructions: 209001374 cycles: 78193023 heartbeat IPC: 2.4 cumulative IPC: 2.582 (Simulation time: 00 hr 26 min 20 sec)
Heartbeat CPU 0 instructions: 209501374 cycles: 78375511 heartbeat IPC: 2.74 cumulative IPC: 2.582 (Simulation time: 00 hr 26 min 23 sec)
Heartbeat CPU 0 instructions: 210001379 cycles: 78557327 heartbeat IPC: 2.75 cumulative IPC: 2.583 (Simulation time: 00 hr 26 min 27 sec)
Heartbeat CPU 0 instructions: 210501381 cycles: 78747584 heartbeat IPC: 2.628 cumulative IPC: 2.583 (Simulation time: 00 hr 26 min 31 sec)
Heartbeat CPU 0 instructions: 211001387 cycles: 78946123 heartbeat IPC: 2.518 cumulative IPC: 2.583 (Simulation time: 00 hr 26 min 34 sec)
Heartbeat CPU 0 instructions: 211501394 cycles: 79126682 heartbeat IPC: 2.769 cumulative IPC: 2.583 (Simulation time: 00 hr 26 min 38 sec)
Heartbeat CPU 0 instructions: 212001396 cycles: 79307565 heartbeat IPC: 2.764 cumulative IPC: 2.584 (Simulation time: 00 hr 26 min 41 sec)
Heartbeat CPU 0 instructions: 212501399 cycles: 79516205 heartbeat IPC: 2.396 cumulative IPC: 2.583 (Simulation time: 00 hr 26 min 45 sec)
Heartbeat CPU 0 instructions: 213001406 cycles: 79698126 heartbeat IPC: 2.748 cumulative IPC: 2.584 (Simulation time: 00 hr 26 min 49 sec)
Heartbeat CPU 0 instructions: 213501411 cycles: 79880857 heartbeat IPC: 2.736 cumulative IPC: 2.584 (Simulation time: 00 hr 26 min 52 sec)
Heartbeat CPU 0 instructions: 214001417 cycles: 80088268 heartbeat IPC: 2.411 cumulative IPC: 2.584 (Simulation time: 00 hr 26 min 56 sec)
Heartbeat CPU 0 instructions: 214501420 cycles: 80269820 heartbeat IPC: 2.754 cumulative IPC: 2.584 (Simulation time: 00 hr 27 min 00 sec)
Heartbeat CPU 0 instructions: 215001423 cycles: 80451544 heartbeat IPC: 2.751 cumulative IPC: 2.584 (Simulation time: 00 hr 27 min 03 sec)
Heartbeat CPU 0 instructions: 215501429 cycles: 80651042 heartbeat IPC: 2.506 cumulative IPC: 2.584 (Simulation time: 00 hr 27 min 07 sec)
Heartbeat CPU 0 instructions: 216001434 cycles: 80842385 heartbeat IPC: 2.613 cumulative IPC: 2.584 (Simulation time: 00 hr 27 min 11 sec)
Heartbeat CPU 0 instructions: 216501441 cycles: 81024843 heartbeat IPC: 2.74 cumulative IPC: 2.585 (Simulation time: 00 hr 27 min 14 sec)
Heartbeat CPU 0 instructions: 217001441 cycles: 81205251 heartbeat IPC: 2.771 cumulative IPC: 2.585 (Simulation time: 00 hr 27 min 18 sec)
Heartbeat CPU 0 instructions: 217501442 cycles: 81411450 heartbeat IPC: 2.425 cumulative IPC: 2.585 (Simulation time: 00 hr 27 min 21 sec)
Heartbeat CPU 0 instructions: 218001447 cycles: 81593167 heartbeat IPC: 2.752 cumulative IPC: 2.585 (Simulation time: 00 hr 27 min 25 sec)
Heartbeat CPU 0 instructions: 218501449 cycles: 81774994 heartbeat IPC: 2.75 cumulative IPC: 2.586 (Simulation time: 00 hr 27 min 29 sec)
Heartbeat CPU 0 instructions: 219001456 cycles: 81982674 heartbeat IPC: 2.408 cumulative IPC: 2.585 (Simulation time: 00 hr 27 min 32 sec)
Heartbeat CPU 0 instructions: 219501463 cycles: 82164500 heartbeat IPC: 2.75 cumulative IPC: 2.586 (Simulation time: 00 hr 27 min 36 sec)
Heartbeat CPU 0 instructions: 220001466 cycles: 82345668 heartbeat IPC: 2.76 cumulative IPC: 2.586 (Simulation time: 00 hr 27 min 39 sec)
Heartbeat CPU 0 instructions: 220501467 cycles: 82550644 heartbeat IPC: 2.439 cumulative IPC: 2.586 (Simulation time: 00 hr 27 min 43 sec)
Heartbeat CPU 0 instructions: 221001473 cycles: 82734165 heartbeat IPC: 2.725 cumulative IPC: 2.586 (Simulation time: 00 hr 27 min 47 sec)
Heartbeat CPU 0 instructions: 221501477 cycles: 82915633 heartbeat IPC: 2.755 cumulative IPC: 2.586 (Simulation time: 00 hr 27 min 50 sec)
Heartbeat CPU 0 instructions: 222001482 cycles: 83096919 heartbeat IPC: 2.758 cumulative IPC: 2.587 (Simulation time: 00 hr 27 min 54 sec)
Heartbeat CPU 0 instructions: 222501483 cycles: 83304231 heartbeat IPC: 2.412 cumulative IPC: 2.586 (Simulation time: 00 hr 27 min 58 sec)
Heartbeat CPU 0 instructions: 223001484 cycles: 83485422 heartbeat IPC: 2.76 cumulative IPC: 2.587 (Simulation time: 00 hr 28 min 01 sec)
Heartbeat CPU 0 instructions: 223501484 cycles: 83667061 heartbeat IPC: 2.753 cumulative IPC: 2.587 (Simulation time: 00 hr 28 min 05 sec)
Heartbeat CPU 0 instructions: 224001484 cycles: 83872714 heartbeat IPC: 2.431 cumulative IPC: 2.587 (Simulation time: 00 hr 28 min 08 sec)
Heartbeat CPU 0 instructions: 224501484 cycles: 84053215 heartbeat IPC: 2.77 cumulative IPC: 2.587 (Simulation time: 00 hr 28 min 12 sec)
Heartbeat CPU 0 instructions: 225001485 cycles: 84234361 heartbeat IPC: 2.76 cumulative IPC: 2.588 (Simulation time: 00 hr 28 min 15 sec)
Heartbeat CPU 0 instructions: 225501486 cycles: 84442160 heartbeat IPC: 2.406 cumulative IPC: 2.587 (Simulation time: 00 hr 28 min 19 sec)
Heartbeat CPU 0 instructions: 226001486 cycles: 84623360 heartbeat IPC: 2.759 cumulative IPC: 2.588 (Simulation time: 00 hr 28 min 23 sec)
Heartbeat CPU 0 instructions: 226501487 cycles: 84804752 heartbeat IPC: 2.756 cumulative IPC: 2.588 (Simulation time: 00 hr 28 min 26 sec)
Heartbeat CPU 0 instructions: 227001490 cycles: 84986392 heartbeat IPC: 2.753 cumulative IPC: 2.589 (Simulation time: 00 hr 28 min 30 sec)
Heartbeat CPU 0 instructions: 227501490 cycles: 85193976 heartbeat IPC: 2.409 cumulative IPC: 2.588 (Simulation time: 00 hr 28 min 34 sec)
Heartbeat CPU 0 instructions: 228001494 cycles: 85374377 heartbeat IPC: 2.772 cumulative IPC: 2.589 (Simulation time: 00 hr 28 min 37 sec)
Heartbeat CPU 0 instructions: 228501497 cycles: 85554710 heartbeat IPC: 2.773 cumulative IPC: 2.589 (Simulation time: 00 hr 28 min 41 sec)
Heartbeat CPU 0 instructions: 229001500 cycles: 85758740 heartbeat IPC: 2.451 cumulative IPC: 2.589 (Simulation time: 00 hr 28 min 44 sec)
Heartbeat CPU 0 instructions: 229501501 cycles: 85939162 heartbeat IPC: 2.771 cumulative IPC: 2.589 (Simulation time: 00 hr 28 min 48 sec)
Heartbeat CPU 0 instructions: 230001508 cycles: 86118740 heartbeat IPC: 2.784 cumulative IPC: 2.59 (Simulation time: 00 hr 28 min 51 sec)
Heartbeat CPU 0 instructions: 230501512 cycles: 86321218 heartbeat IPC: 2.469 cumulative IPC: 2.589 (Simulation time: 00 hr 28 min 55 sec)
Heartbeat CPU 0 instructions: 231001513 cycles: 86499373 heartbeat IPC: 2.807 cumulative IPC: 2.59 (Simulation time: 00 hr 28 min 58 sec)
Heartbeat CPU 0 instructions: 231501516 cycles: 86677822 heartbeat IPC: 2.802 cumulative IPC: 2.59 (Simulation time: 00 hr 29 min 02 sec)
Heartbeat CPU 0 instructions: 232001519 cycles: 86857394 heartbeat IPC: 2.784 cumulative IPC: 2.591 (Simulation time: 00 hr 29 min 05 sec)
Heartbeat CPU 0 instructions: 232501519 cycles: 87053027 heartbeat IPC: 2.556 cumulative IPC: 2.591 (Simulation time: 00 hr 29 min 09 sec)
Heartbeat CPU 0 instructions: 233001526 cycles: 87231097 heartbeat IPC: 2.808 cumulative IPC: 2.591 (Simulation time: 00 hr 29 min 12 sec)
Heartbeat CPU 0 instructions: 233501527 cycles: 87406283 heartbeat IPC: 2.854 cumulative IPC: 2.592 (Simulation time: 00 hr 29 min 16 sec)
Heartbeat CPU 0 instructions: 234001529 cycles: 87602181 heartbeat IPC: 2.552 cumulative IPC: 2.592 (Simulation time: 00 hr 29 min 19 sec)
Heartbeat CPU 0 instructions: 234501533 cycles: 87777263 heartbeat IPC: 2.856 cumulative IPC: 2.592 (Simulation time: 00 hr 29 min 23 sec)
Heartbeat CPU 0 instructions: 235001538 cycles: 87952321 heartbeat IPC: 2.856 cumulative IPC: 2.593 (Simulation time: 00 hr 29 min 26 sec)
Heartbeat CPU 0 instructions: 235501543 cycles: 88146057 heartbeat IPC: 2.581 cumulative IPC: 2.593 (Simulation time: 00 hr 29 min 30 sec)
Heartbeat CPU 0 instructions: 236001547 cycles: 88320189 heartbeat IPC: 2.871 cumulative IPC: 2.594 (Simulation time: 00 hr 29 min 33 sec)
Heartbeat CPU 0 instructions: 236501547 cycles: 88494521 heartbeat IPC: 2.868 cumulative IPC: 2.594 (Simulation time: 00 hr 29 min 36 sec)
Heartbeat CPU 0 instructions: 237001548 cycles: 88684691 heartbeat IPC: 2.629 cumulative IPC: 2.594 (Simulation time: 00 hr 29 min 40 sec)
Heartbeat CPU 0 instructions: 237501549 cycles: 88882518 heartbeat IPC: 2.527 cumulative IPC: 2.594 (Simulation time: 00 hr 29 min 44 sec)
Heartbeat CPU 0 instructions: 238001549 cycles: 89063226 heartbeat IPC: 2.767 cumulative IPC: 2.595 (Simulation time: 00 hr 29 min 47 sec)
Heartbeat CPU 0 instructions: 238501556 cycles: 89243908 heartbeat IPC: 2.767 cumulative IPC: 2.595 (Simulation time: 00 hr 29 min 50 sec)
Heartbeat CPU 0 instructions: 239001562 cycles: 89451052 heartbeat IPC: 2.414 cumulative IPC: 2.595 (Simulation time: 00 hr 29 min 54 sec)
Heartbeat CPU 0 instructions: 239501567 cycles: 89632030 heartbeat IPC: 2.763 cumulative IPC: 2.595 (Simulation time: 00 hr 29 min 58 sec)
Heartbeat CPU 0 instructions: 240001568 cycles: 89813790 heartbeat IPC: 2.751 cumulative IPC: 2.595 (Simulation time: 00 hr 30 min 01 sec)
Heartbeat CPU 0 instructions: 240501569 cycles: 90021624 heartbeat IPC: 2.406 cumulative IPC: 2.595 (Simulation time: 00 hr 30 min 05 sec)
Heartbeat CPU 0 instructions: 241001570 cycles: 90203083 heartbeat IPC: 2.755 cumulative IPC: 2.595 (Simulation time: 00 hr 30 min 08 sec)
Heartbeat CPU 0 instructions: 241501570 cycles: 90383597 heartbeat IPC: 2.77 cumulative IPC: 2.596 (Simulation time: 00 hr 30 min 12 sec)
Heartbeat CPU 0 instructions: 242001570 cycles: 90579340 heartbeat IPC: 2.554 cumulative IPC: 2.596 (Simulation time: 00 hr 30 min 15 sec)
Heartbeat CPU 0 instructions: 242501576 cycles: 90767758 heartbeat IPC: 2.654 cumulative IPC: 2.596 (Simulation time: 00 hr 30 min 19 sec)
Heartbeat CPU 0 instructions: 243001581 cycles: 90947816 heartbeat IPC: 2.777 cumulative IPC: 2.596 (Simulation time: 00 hr 30 min 22 sec)
Heartbeat CPU 0 instructions: 243501583 cycles: 91128274 heartbeat IPC: 2.771 cumulative IPC: 2.597 (Simulation time: 00 hr 30 min 26 sec)
Heartbeat CPU 0 instructions: 244001585 cycles: 91332797 heartbeat IPC: 2.445 cumulative IPC: 2.596 (Simulation time: 00 hr 30 min 29 sec)
Heartbeat CPU 0 instructions: 244501585 cycles: 91512820 heartbeat IPC: 2.777 cumulative IPC: 2.597 (Simulation time: 00 hr 30 min 33 sec)
Heartbeat CPU 0 instructions: 245001586 cycles: 91692728 heartbeat IPC: 2.779 cumulative IPC: 2.597 (Simulation time: 00 hr 30 min 36 sec)
Heartbeat CPU 0 instructions: 245501592 cycles: 91897508 heartbeat IPC: 2.442 cumulative IPC: 2.597 (Simulation time: 00 hr 30 min 40 sec)
Heartbeat CPU 0 instructions: 246001599 cycles: 92077787 heartbeat IPC: 2.774 cumulative IPC: 2.597 (Simulation time: 00 hr 30 min 43 sec)
Heartbeat CPU 0 instructions: 246501604 cycles: 92257884 heartbeat IPC: 2.776 cumulative IPC: 2.598 (Simulation time: 00 hr 30 min 46 sec)
Heartbeat CPU 0 instructions: 247001604 cycles: 92462457 heartbeat IPC: 2.444 cumulative IPC: 2.597 (Simulation time: 00 hr 30 min 50 sec)
Heartbeat CPU 0 instructions: 247501611 cycles: 92644055 heartbeat IPC: 2.753 cumulative IPC: 2.597 (Simulation time: 00 hr 30 min 53 sec)
Heartbeat CPU 0 instructions: 248001614 cycles: 92825023 heartbeat IPC: 2.763 cumulative IPC: 2.598 (Simulation time: 00 hr 30 min 57 sec)
Heartbeat CPU 0 instructions: 248501618 cycles: 93005661 heartbeat IPC: 2.768 cumulative IPC: 2.598 (Simulation time: 00 hr 31 min 00 sec)
Heartbeat CPU 0 instructions: 249001619 cycles: 93213979 heartbeat IPC: 2.4 cumulative IPC: 2.598 (Simulation time: 00 hr 31 min 04 sec)
Heartbeat CPU 0 instructions: 249501621 cycles: 93395930 heartbeat IPC: 2.748 cumulative IPC: 2.598 (Simulation time: 00 hr 31 min 07 sec)
Simulation finished CPU 0 instructions: 200000003 cycles: 76968058 cumulative IPC: 2.598 (Simulation time: 00 hr 31 min 11 sec)
Simulation complete CPU 0 instructions: 200000003 cycles: 76968058 cumulative IPC: 2.598 (Simulation time: 00 hr 31 min 11 sec)

ChampSim completed all CPUs

=== Simulation ===
CPU 0 runs /local-ssd/ben/dpc4-traces/ai-ml/stable-diffusion.cpp-v2-1_768-nonema-pruned.3.champsimtrace.gz

Region of Interest Statistics

CPU 0 cumulative IPC: 2.598 instructions: 200000003 cycles: 76968058
CPU 0 Branch Prediction Accuracy: 98.9% MPKI: 0.7108 Average ROB Occupancy at Mispredict: 528.3
Branch type MPKI
BRANCH_DIRECT_JUMP: 0
BRANCH_INDIRECT: 0
BRANCH_CONDITIONAL: 0.7108
BRANCH_DIRECT_CALL: 0
BRANCH_INDIRECT_CALL: 0
BRANCH_RETURN: 0

cpu0->cpu0_STLB TOTAL        ACCESS:      95678 HIT:      72022 MISS:      23656 MSHR_MERGE:          0
cpu0->cpu0_STLB LOAD         ACCESS:      95678 HIT:      72022 MISS:      23656 MSHR_MERGE:          0
cpu0->cpu0_STLB RFO          ACCESS:          0 HIT:          0 MISS:          0 MSHR_MERGE:          0
cpu0->cpu0_STLB PREFETCH     ACCESS:          0 HIT:          0 MISS:          0 MSHR_MERGE:          0
cpu0->cpu0_STLB WRITE        ACCESS:          0 HIT:          0 MISS:          0 MSHR_MERGE:          0
cpu0->cpu0_STLB TRANSLATION  ACCESS:          0 HIT:          0 MISS:          0 MSHR_MERGE:          0
cpu0->cpu0_STLB PREFETCH REQUESTED:          0 ISSUED:          0 USEFUL:          0 USELESS:          0
cpu0->cpu0_STLB AVERAGE MISS LATENCY: 93.44 cycles
cpu0->cpu0_L2C TOTAL        ACCESS:   48446753 HIT:   44857745 MISS:    3589008 MSHR_MERGE:    2073693
cpu0->cpu0_L2C LOAD         ACCESS:   19029050 HIT:   17981174 MISS:    1047876 MSHR_MERGE:     568396
cpu0->cpu0_L2C RFO          ACCESS:      47269 HIT:      38937 MISS:       8332 MSHR_MERGE:          0
cpu0->cpu0_L2C PREFETCH     ACCESS:   29300147 HIT:   26770365 MISS:    2529782 MSHR_MERGE:    1505297
cpu0->cpu0_L2C WRITE        ACCESS:      66693 HIT:      66693 MISS:          0 MSHR_MERGE:          0
cpu0->cpu0_L2C TRANSLATION  ACCESS:       3594 HIT:        576 MISS:       3018 MSHR_MERGE:          0
cpu0->cpu0_L2C PREFETCH REQUESTED:   36997404 ISSUED:   22719550 USEFUL:     905815 USELESS:        311
cpu0->cpu0_L2C AVERAGE MISS LATENCY: 172 cycles
cpu0->cpu0_L1I TOTAL        ACCESS:   43910988 HIT:   43910988 MISS:          0 MSHR_MERGE:          0
cpu0->cpu0_L1I LOAD         ACCESS:   43910988 HIT:   43910988 MISS:          0 MSHR_MERGE:          0
cpu0->cpu0_L1I RFO          ACCESS:          0 HIT:          0 MISS:          0 MSHR_MERGE:          0
cpu0->cpu0_L1I PREFETCH     ACCESS:          0 HIT:          0 MISS:          0 MSHR_MERGE:          0
cpu0->cpu0_L1I WRITE        ACCESS:          0 HIT:          0 MISS:          0 MSHR_MERGE:          0
cpu0->cpu0_L1I TRANSLATION  ACCESS:          0 HIT:          0 MISS:          0 MSHR_MERGE:          0
cpu0->cpu0_L1I PREFETCH REQUESTED:          0 ISSUED:          0 USEFUL:          0 USELESS:          0
cpu0->cpu0_L1I AVERAGE MISS LATENCY: - cycles
cpu0->cpu0_L1D TOTAL        ACCESS:   74873686 HIT:   42883130 MISS:   31990556 MSHR_MERGE:    6329945
cpu0->cpu0_L1D LOAD         ACCESS:   58589259 HIT:   36616222 MISS:   21973037 MSHR_MERGE:    2943986
cpu0->cpu0_L1D RFO          ACCESS:          0 HIT:          0 MISS:          0 MSHR_MERGE:          0
cpu0->cpu0_L1D PREFETCH     ACCESS:   15611095 HIT:    5655065 MISS:    9956030 MSHR_MERGE:    3375445
cpu0->cpu0_L1D WRITE        ACCESS:     626011 HIT:     568118 MISS:      57893 MSHR_MERGE:      10512
cpu0->cpu0_L1D TRANSLATION  ACCESS:      47321 HIT:      43725 MISS:       3596 MSHR_MERGE:          2
cpu0->cpu0_L1D PREFETCH REQUESTED:   23301596 ISSUED:   15611098 USEFUL:    6534520 USELESS:      46066
cpu0->cpu0_L1D AVERAGE MISS LATENCY: 17.83 cycles
cpu0->cpu0_ITLB TOTAL        ACCESS:   27001718 HIT:   27001718 MISS:          0 MSHR_MERGE:          0
cpu0->cpu0_ITLB LOAD         ACCESS:   27001718 HIT:   27001718 MISS:          0 MSHR_MERGE:          0
cpu0->cpu0_ITLB RFO          ACCESS:          0 HIT:          0 MISS:          0 MSHR_MERGE:          0
cpu0->cpu0_ITLB PREFETCH     ACCESS:          0 HIT:          0 MISS:          0 MSHR_MERGE:          0
cpu0->cpu0_ITLB WRITE        ACCESS:          0 HIT:          0 MISS:          0 MSHR_MERGE:          0
cpu0->cpu0_ITLB TRANSLATION  ACCESS:          0 HIT:          0 MISS:          0 MSHR_MERGE:          0
cpu0->cpu0_ITLB PREFETCH REQUESTED:          0 ISSUED:          0 USEFUL:          0 USELESS:          0
cpu0->cpu0_ITLB AVERAGE MISS LATENCY: - cycles
cpu0->cpu0_DTLB TOTAL        ACCESS:   60788632 HIT:   60381996 MISS:     406636 MSHR_MERGE:     310958
cpu0->cpu0_DTLB LOAD         ACCESS:   60788632 HIT:   60381996 MISS:     406636 MSHR_MERGE:     310958
cpu0->cpu0_DTLB RFO          ACCESS:          0 HIT:          0 MISS:          0 MSHR_MERGE:          0
cpu0->cpu0_DTLB PREFETCH     ACCESS:          0 HIT:          0 MISS:          0 MSHR_MERGE:          0
cpu0->cpu0_DTLB WRITE        ACCESS:          0 HIT:          0 MISS:          0 MSHR_MERGE:          0
cpu0->cpu0_DTLB TRANSLATION  ACCESS:          0 HIT:          0 MISS:          0 MSHR_MERGE:          0
cpu0->cpu0_DTLB PREFETCH REQUESTED:          0 ISSUED:          0 USEFUL:          0 USELESS:          0
cpu0->cpu0_DTLB AVERAGE MISS LATENCY: 28.35 cycles
cpu0->LLC TOTAL        ACCESS:    2083555 HIT:      89601 MISS:    1993954 MSHR_MERGE:     497282
cpu0->LLC LOAD         ACCESS:     479480 HIT:      24184 MISS:     455296 MSHR_MERGE:      81953
cpu0->LLC RFO          ACCESS:       8332 HIT:          0 MISS:       8332 MSHR_MERGE:          0
cpu0->LLC PREFETCH     ACCESS:    1584396 HIT:      61823 MISS:    1522573 MSHR_MERGE:     415329
cpu0->LLC WRITE        ACCESS:       8329 HIT:       3591 MISS:       4738 MSHR_MERGE:          0
cpu0->LLC TRANSLATION  ACCESS:       3018 HIT:          3 MISS:       3015 MSHR_MERGE:          0
cpu0->LLC PREFETCH REQUESTED:     559911 ISSUED:     559911 USEFUL:     119864 USELESS:     129527
cpu0->LLC AVERAGE MISS LATENCY: 213.1 cycles

DRAM Statistics

Channel 0 RQ ROW_BUFFER_HIT:     704405
  ROW_BUFFER_MISS:     787529
  AVG DBUS CONGESTED CYCLE: 4.868
Channel 0 WQ ROW_BUFFER_HIT:       2785
  ROW_BUFFER_MISS:       3347
  FULL:          0
Channel 0 REFRESHES ISSUED:       6414
