[VMEM] WARNING: physical memory size is smaller than virtual memory size.

*** ChampSim Multicore Out-of-Order Simulator ***
Warmup Instructions: 50000000
Simulation Instructions: 200000000
Number of CPUs: 1
Page size: 4096
Core 0: /local-ssd/ben/dpc4-traces/gtraces_v2/yankee_0003.champsim.gz
 L1D Berti prefetcher
Off-chip DRAM Size: 64 GiB Channels: 1 Width: 64-bit Data Rate: 4807 MT/s
[BTB] WARNING: target of return is a lower address than the corresponding call. This is usually a problem with your trace.
[BTB] WARNING: target of return is a lower address than the corresponding call. This is usually a problem with your trace.
[BTB] WARNING: target of return is a lower address than the corresponding call. This is usually a problem with your trace.
Heartbeat CPU 0 instructions: 500000 cycles: 235161 heartbeat IPC: 2.126 cumulative IPC: 2.126 (Simulation time: 00 hr 00 min 05 sec)
[BTB] WARNING: target of return is a lower address than the corresponding call. This is usually a problem with your trace.
[BTB] WARNING: target of return is a lower address than the corresponding call. This is usually a problem with your trace.
[BTB] WARNING: target of return is a lower address than the corresponding call. This is usually a problem with your trace.
Heartbeat CPU 0 instructions: 1000006 cycles: 445275 heartbeat IPC: 2.38 cumulative IPC: 2.246 (Simulation time: 00 hr 00 min 09 sec)
[BTB] WARNING: target of return is a lower address than the corresponding call. This is usually a problem with your trace.
Heartbeat CPU 0 instructions: 1500012 cycles: 574256 heartbeat IPC: 3.877 cumulative IPC: 2.612 (Simulation time: 00 hr 00 min 11 sec)
[BTB] WARNING: target of return is a lower address than the corresponding call. This is usually a problem with your trace.
[BTB] WARNING: target of return is a lower address than the corresponding call. This is usually a problem with your trace.
Heartbeat CPU 0 instructions: 2000012 cycles: 704882 heartbeat IPC: 3.828 cumulative IPC: 2.837 (Simulation time: 00 hr 00 min 13 sec)
[BTB] WARNING: target of return is a lower address than the corresponding call. This is usually a problem with your trace.
Heartbeat CPU 0 instructions: 2500012 cycles: 880712 heartbeat IPC: 2.844 cumulative IPC: 2.839 (Simulation time: 00 hr 00 min 16 sec)
Heartbeat CPU 0 instructions: 3000018 cycles: 1074646 heartbeat IPC: 2.578 cumulative IPC: 2.792 (Simulation time: 00 hr 00 min 19 sec)
Heartbeat CPU 0 instructions: 3500021 cycles: 1216411 heartbeat IPC: 3.527 cumulative IPC: 2.877 (Simulation time: 00 hr 00 min 22 sec)
Heartbeat CPU 0 instructions: 4000023 cycles: 1347464 heartbeat IPC: 3.815 cumulative IPC: 2.969 (Simulation time: 00 hr 00 min 24 sec)
Heartbeat CPU 0 instructions: 4500028 cycles: 1464222 heartbeat IPC: 4.282 cumulative IPC: 3.073 (Simulation time: 00 hr 00 min 26 sec)
Heartbeat CPU 0 instructions: 5000034 cycles: 1571250 heartbeat IPC: 4.672 cumulative IPC: 3.182 (Simulation time: 00 hr 00 min 28 sec)
Heartbeat CPU 0 instructions: 5500040 cycles: 1694576 heartbeat IPC: 4.054 cumulative IPC: 3.246 (Simulation time: 00 hr 00 min 31 sec)
Heartbeat CPU 0 instructions: 6000040 cycles: 1826395 heartbeat IPC: 3.793 cumulative IPC: 3.285 (Simulation time: 00 hr 00 min 33 sec)
Heartbeat CPU 0 instructions: 6500044 cycles: 1953886 heartbeat IPC: 3.922 cumulative IPC: 3.327 (Simulation time: 00 hr 00 min 36 sec)
Heartbeat CPU 0 instructions: 7000047 cycles: 2088835 heartbeat IPC: 3.705 cumulative IPC: 3.351 (Simulation time: 00 hr 00 min 38 sec)
Heartbeat CPU 0 instructions: 7500048 cycles: 2210191 heartbeat IPC: 4.12 cumulative IPC: 3.393 (Simulation time: 00 hr 00 min 40 sec)
Heartbeat CPU 0 instructions: 8000050 cycles: 2323336 heartbeat IPC: 4.419 cumulative IPC: 3.443 (Simulation time: 00 hr 00 min 42 sec)
Heartbeat CPU 0 instructions: 8500055 cycles: 2449195 heartbeat IPC: 3.973 cumulative IPC: 3.471 (Simulation time: 00 hr 00 min 45 sec)
Heartbeat CPU 0 instructions: 9000061 cycles: 2616040 heartbeat IPC: 2.997 cumulative IPC: 3.44 (Simulation time: 00 hr 00 min 48 sec)
Heartbeat CPU 0 instructions: 9500067 cycles: 2741704 heartbeat IPC: 3.979 cumulative IPC: 3.465 (Simulation time: 00 hr 00 min 50 sec)
Heartbeat CPU 0 instructions: 10000067 cycles: 2855181 heartbeat IPC: 4.406 cumulative IPC: 3.502 (Simulation time: 00 hr 00 min 52 sec)
Heartbeat CPU 0 instructions: 10500071 cycles: 2971855 heartbeat IPC: 4.285 cumulative IPC: 3.533 (Simulation time: 00 hr 00 min 54 sec)
Heartbeat CPU 0 instructions: 11000078 cycles: 3079505 heartbeat IPC: 4.645 cumulative IPC: 3.572 (Simulation time: 00 hr 00 min 56 sec)
Heartbeat CPU 0 instructions: 11500080 cycles: 3205523 heartbeat IPC: 3.968 cumulative IPC: 3.588 (Simulation time: 00 hr 00 min 58 sec)
Heartbeat CPU 0 instructions: 12000083 cycles: 3319380 heartbeat IPC: 4.391 cumulative IPC: 3.615 (Simulation time: 00 hr 01 min 01 sec)
Heartbeat CPU 0 instructions: 12500089 cycles: 3429945 heartbeat IPC: 4.522 cumulative IPC: 3.644 (Simulation time: 00 hr 01 min 03 sec)
Heartbeat CPU 0 instructions: 13000096 cycles: 3561150 heartbeat IPC: 3.811 cumulative IPC: 3.651 (Simulation time: 00 hr 01 min 05 sec)
Heartbeat CPU 0 instructions: 13500096 cycles: 3709819 heartbeat IPC: 3.363 cumulative IPC: 3.639 (Simulation time: 00 hr 01 min 08 sec)
Heartbeat CPU 0 instructions: 14000101 cycles: 3840763 heartbeat IPC: 3.818 cumulative IPC: 3.645 (Simulation time: 00 hr 01 min 11 sec)
Heartbeat CPU 0 instructions: 14500107 cycles: 3960231 heartbeat IPC: 4.185 cumulative IPC: 3.661 (Simulation time: 00 hr 01 min 13 sec)
Heartbeat CPU 0 instructions: 15000113 cycles: 4090817 heartbeat IPC: 3.829 cumulative IPC: 3.667 (Simulation time: 00 hr 01 min 15 sec)
Heartbeat CPU 0 instructions: 15500118 cycles: 4197264 heartbeat IPC: 4.697 cumulative IPC: 3.693 (Simulation time: 00 hr 01 min 17 sec)
Heartbeat CPU 0 instructions: 16000124 cycles: 4315579 heartbeat IPC: 4.226 cumulative IPC: 3.708 (Simulation time: 00 hr 01 min 20 sec)
Heartbeat CPU 0 instructions: 16500129 cycles: 4467266 heartbeat IPC: 3.296 cumulative IPC: 3.694 (Simulation time: 00 hr 01 min 23 sec)
Heartbeat CPU 0 instructions: 17000129 cycles: 4588951 heartbeat IPC: 4.109 cumulative IPC: 3.705 (Simulation time: 00 hr 01 min 25 sec)
Heartbeat CPU 0 instructions: 17500129 cycles: 4713435 heartbeat IPC: 4.017 cumulative IPC: 3.713 (Simulation time: 00 hr 01 min 27 sec)
Heartbeat CPU 0 instructions: 18000132 cycles: 4829332 heartbeat IPC: 4.314 cumulative IPC: 3.727 (Simulation time: 00 hr 01 min 30 sec)
Heartbeat CPU 0 instructions: 18500134 cycles: 4963668 heartbeat IPC: 3.722 cumulative IPC: 3.727 (Simulation time: 00 hr 01 min 32 sec)
Heartbeat CPU 0 instructions: 19000139 cycles: 5074114 heartbeat IPC: 4.527 cumulative IPC: 3.745 (Simulation time: 00 hr 01 min 34 sec)
Heartbeat CPU 0 instructions: 19500146 cycles: 5195421 heartbeat IPC: 4.122 cumulative IPC: 3.753 (Simulation time: 00 hr 01 min 37 sec)
Heartbeat CPU 0 instructions: 20000152 cycles: 5312861 heartbeat IPC: 4.258 cumulative IPC: 3.764 (Simulation time: 00 hr 01 min 39 sec)
Heartbeat CPU 0 instructions: 20500153 cycles: 5449491 heartbeat IPC: 3.66 cumulative IPC: 3.762 (Simulation time: 00 hr 01 min 42 sec)
Heartbeat CPU 0 instructions: 21000158 cycles: 5564106 heartbeat IPC: 4.362 cumulative IPC: 3.774 (Simulation time: 00 hr 01 min 44 sec)
Heartbeat CPU 0 instructions: 21500160 cycles: 5674285 heartbeat IPC: 4.538 cumulative IPC: 3.789 (Simulation time: 00 hr 01 min 46 sec)
Heartbeat CPU 0 instructions: 22000167 cycles: 5782020 heartbeat IPC: 4.641 cumulative IPC: 3.805 (Simulation time: 00 hr 01 min 47 sec)
Heartbeat CPU 0 instructions: 22500169 cycles: 5892356 heartbeat IPC: 4.532 cumulative IPC: 3.819 (Simulation time: 00 hr 01 min 49 sec)
Heartbeat CPU 0 instructions: 23000173 cycles: 6009730 heartbeat IPC: 4.26 cumulative IPC: 3.827 (Simulation time: 00 hr 01 min 52 sec)
Heartbeat CPU 0 instructions: 23500178 cycles: 6130866 heartbeat IPC: 4.128 cumulative IPC: 3.833 (Simulation time: 00 hr 01 min 54 sec)
Heartbeat CPU 0 instructions: 24000185 cycles: 6270914 heartbeat IPC: 3.57 cumulative IPC: 3.827 (Simulation time: 00 hr 01 min 57 sec)
Heartbeat CPU 0 instructions: 24500191 cycles: 6419679 heartbeat IPC: 3.361 cumulative IPC: 3.816 (Simulation time: 00 hr 02 min 00 sec)
Heartbeat CPU 0 instructions: 25000198 cycles: 6534063 heartbeat IPC: 4.371 cumulative IPC: 3.826 (Simulation time: 00 hr 02 min 02 sec)
Heartbeat CPU 0 instructions: 25500200 cycles: 6653238 heartbeat IPC: 4.196 cumulative IPC: 3.833 (Simulation time: 00 hr 02 min 04 sec)
Heartbeat CPU 0 instructions: 26000204 cycles: 6825202 heartbeat IPC: 2.908 cumulative IPC: 3.809 (Simulation time: 00 hr 02 min 07 sec)
Heartbeat CPU 0 instructions: 26500208 cycles: 6944820 heartbeat IPC: 4.18 cumulative IPC: 3.816 (Simulation time: 00 hr 02 min 10 sec)
Heartbeat CPU 0 instructions: 27000212 cycles: 7079120 heartbeat IPC: 3.723 cumulative IPC: 3.814 (Simulation time: 00 hr 02 min 12 sec)
Heartbeat CPU 0 instructions: 27500216 cycles: 7213786 heartbeat IPC: 3.713 cumulative IPC: 3.812 (Simulation time: 00 hr 02 min 15 sec)
Heartbeat CPU 0 instructions: 28000216 cycles: 7328335 heartbeat IPC: 4.365 cumulative IPC: 3.821 (Simulation time: 00 hr 02 min 17 sec)
Heartbeat CPU 0 instructions: 28500218 cycles: 7447649 heartbeat IPC: 4.191 cumulative IPC: 3.827 (Simulation time: 00 hr 02 min 20 sec)
Heartbeat CPU 0 instructions: 29000218 cycles: 7591477 heartbeat IPC: 3.476 cumulative IPC: 3.82 (Simulation time: 00 hr 02 min 22 sec)
Heartbeat CPU 0 instructions: 29500221 cycles: 7711042 heartbeat IPC: 4.182 cumulative IPC: 3.826 (Simulation time: 00 hr 02 min 25 sec)
Heartbeat CPU 0 instructions: 30000227 cycles: 7869340 heartbeat IPC: 3.159 cumulative IPC: 3.812 (Simulation time: 00 hr 02 min 28 sec)
Heartbeat CPU 0 instructions: 30500227 cycles: 7996497 heartbeat IPC: 3.932 cumulative IPC: 3.814 (Simulation time: 00 hr 02 min 30 sec)
Heartbeat CPU 0 instructions: 31000231 cycles: 8114538 heartbeat IPC: 4.236 cumulative IPC: 3.82 (Simulation time: 00 hr 02 min 32 sec)
Heartbeat CPU 0 instructions: 31500232 cycles: 8284666 heartbeat IPC: 2.939 cumulative IPC: 3.802 (Simulation time: 00 hr 02 min 35 sec)
Heartbeat CPU 0 instructions: 32000239 cycles: 8412912 heartbeat IPC: 3.899 cumulative IPC: 3.804 (Simulation time: 00 hr 02 min 38 sec)
Heartbeat CPU 0 instructions: 32500246 cycles: 8538403 heartbeat IPC: 3.984 cumulative IPC: 3.806 (Simulation time: 00 hr 02 min 40 sec)
Heartbeat CPU 0 instructions: 33000248 cycles: 8681035 heartbeat IPC: 3.506 cumulative IPC: 3.801 (Simulation time: 00 hr 02 min 43 sec)
Heartbeat CPU 0 instructions: 33500252 cycles: 8820206 heartbeat IPC: 3.593 cumulative IPC: 3.798 (Simulation time: 00 hr 02 min 45 sec)
Heartbeat CPU 0 instructions: 34000255 cycles: 8921404 heartbeat IPC: 4.941 cumulative IPC: 3.811 (Simulation time: 00 hr 02 min 47 sec)
Heartbeat CPU 0 instructions: 34500256 cycles: 9040482 heartbeat IPC: 4.199 cumulative IPC: 3.816 (Simulation time: 00 hr 02 min 49 sec)
Heartbeat CPU 0 instructions: 35000261 cycles: 9171210 heartbeat IPC: 3.825 cumulative IPC: 3.816 (Simulation time: 00 hr 02 min 52 sec)
Heartbeat CPU 0 instructions: 35500267 cycles: 9323668 heartbeat IPC: 3.28 cumulative IPC: 3.808 (Simulation time: 00 hr 02 min 55 sec)
Heartbeat CPU 0 instructions: 36000268 cycles: 9436745 heartbeat IPC: 4.422 cumulative IPC: 3.815 (Simulation time: 00 hr 02 min 57 sec)
Heartbeat CPU 0 instructions: 36500273 cycles: 9549444 heartbeat IPC: 4.437 cumulative IPC: 3.822 (Simulation time: 00 hr 02 min 59 sec)
Heartbeat CPU 0 instructions: 37000276 cycles: 9658092 heartbeat IPC: 4.602 cumulative IPC: 3.831 (Simulation time: 00 hr 03 min 01 sec)
Heartbeat CPU 0 instructions: 37500278 cycles: 9804646 heartbeat IPC: 3.412 cumulative IPC: 3.825 (Simulation time: 00 hr 03 min 03 sec)
Heartbeat CPU 0 instructions: 38000284 cycles: 9961824 heartbeat IPC: 3.181 cumulative IPC: 3.815 (Simulation time: 00 hr 03 min 07 sec)
Heartbeat CPU 0 instructions: 38500286 cycles: 10104684 heartbeat IPC: 3.5 cumulative IPC: 3.81 (Simulation time: 00 hr 03 min 09 sec)
Heartbeat CPU 0 instructions: 39000288 cycles: 10238065 heartbeat IPC: 3.749 cumulative IPC: 3.809 (Simulation time: 00 hr 03 min 12 sec)
Heartbeat CPU 0 instructions: 39500295 cycles: 10386063 heartbeat IPC: 3.378 cumulative IPC: 3.803 (Simulation time: 00 hr 03 min 15 sec)
Heartbeat CPU 0 instructions: 40000297 cycles: 10529095 heartbeat IPC: 3.496 cumulative IPC: 3.799 (Simulation time: 00 hr 03 min 18 sec)
Heartbeat CPU 0 instructions: 40500302 cycles: 10634536 heartbeat IPC: 4.742 cumulative IPC: 3.808 (Simulation time: 00 hr 03 min 20 sec)
Heartbeat CPU 0 instructions: 41000303 cycles: 10791189 heartbeat IPC: 3.192 cumulative IPC: 3.799 (Simulation time: 00 hr 03 min 23 sec)
Heartbeat CPU 0 instructions: 41500305 cycles: 10938164 heartbeat IPC: 3.402 cumulative IPC: 3.794 (Simulation time: 00 hr 03 min 26 sec)
Heartbeat CPU 0 instructions: 42000305 cycles: 11074186 heartbeat IPC: 3.676 cumulative IPC: 3.793 (Simulation time: 00 hr 03 min 29 sec)
Heartbeat CPU 0 instructions: 42500307 cycles: 11249332 heartbeat IPC: 2.855 cumulative IPC: 3.778 (Simulation time: 00 hr 03 min 32 sec)
Heartbeat CPU 0 instructions: 43000311 cycles: 11391688 heartbeat IPC: 3.512 cumulative IPC: 3.775 (Simulation time: 00 hr 03 min 35 sec)
Heartbeat CPU 0 instructions: 43500314 cycles: 11543977 heartbeat IPC: 3.283 cumulative IPC: 3.768 (Simulation time: 00 hr 03 min 38 sec)
Heartbeat CPU 0 instructions: 44000320 cycles: 11692594 heartbeat IPC: 3.364 cumulative IPC: 3.763 (Simulation time: 00 hr 03 min 41 sec)
Heartbeat CPU 0 instructions: 44500320 cycles: 11835539 heartbeat IPC: 3.498 cumulative IPC: 3.76 (Simulation time: 00 hr 03 min 44 sec)
Heartbeat CPU 0 instructions: 45000322 cycles: 11982389 heartbeat IPC: 3.405 cumulative IPC: 3.756 (Simulation time: 00 hr 03 min 47 sec)
Heartbeat CPU 0 instructions: 45500324 cycles: 12122179 heartbeat IPC: 3.577 cumulative IPC: 3.753 (Simulation time: 00 hr 03 min 49 sec)
Heartbeat CPU 0 instructions: 46000329 cycles: 12240522 heartbeat IPC: 4.225 cumulative IPC: 3.758 (Simulation time: 00 hr 03 min 52 sec)
Heartbeat CPU 0 instructions: 46500331 cycles: 12394246 heartbeat IPC: 3.253 cumulative IPC: 3.752 (Simulation time: 00 hr 03 min 55 sec)
Heartbeat CPU 0 instructions: 47000333 cycles: 12526212 heartbeat IPC: 3.789 cumulative IPC: 3.752 (Simulation time: 00 hr 03 min 57 sec)
Heartbeat CPU 0 instructions: 47500334 cycles: 12639949 heartbeat IPC: 4.396 cumulative IPC: 3.758 (Simulation time: 00 hr 03 min 59 sec)
Heartbeat CPU 0 instructions: 48000339 cycles: 12750381 heartbeat IPC: 4.528 cumulative IPC: 3.765 (Simulation time: 00 hr 04 min 01 sec)
Heartbeat CPU 0 instructions: 48500341 cycles: 12858137 heartbeat IPC: 4.64 cumulative IPC: 3.772 (Simulation time: 00 hr 04 min 03 sec)
Heartbeat CPU 0 instructions: 49000347 cycles: 12976439 heartbeat IPC: 4.227 cumulative IPC: 3.776 (Simulation time: 00 hr 04 min 05 sec)
Heartbeat CPU 0 instructions: 49500348 cycles: 13117020 heartbeat IPC: 3.557 cumulative IPC: 3.774 (Simulation time: 00 hr 04 min 08 sec)
Warmup halting CPU 0 at instruction 50000006 cycle 13265872 for remainder of phase
Warmup finished CPU 0 instructions: 50000006 cycles: 13265872 cumulative IPC: 3.769 (Simulation time: 00 hr 04 min 11 sec)
Warmup complete CPU 0 instructions: 50000006 cycles: 13265872 cumulative IPC: 3.769 (Simulation time: 00 hr 04 min 11 sec)
Heartbeat CPU 0 instructions: 50000348 cycles: 13266531 heartbeat IPC: 3.344 cumulative IPC: 0.519 (Simulation time: 00 hr 04 min 11 sec)
Heartbeat CPU 0 instructions: 50500348 cycles: 14008322 heartbeat IPC: 0.674 cumulative IPC: 0.6739 (Simulation time: 00 hr 04 min 17 sec)
Heartbeat CPU 0 instructions: 51000349 cycles: 14514186 heartbeat IPC: 0.9884 cumulative IPC: 0.8014 (Simulation time: 00 hr 04 min 22 sec)
Heartbeat CPU 0 instructions: 51500355 cycles: 15018711 heartbeat IPC: 0.991 cumulative IPC: 0.856 (Simulation time: 00 hr 04 min 26 sec)
Heartbeat CPU 0 instructions: 52000355 cycles: 16372743 heartbeat IPC: 0.3693 cumulative IPC: 0.6438 (Simulation time: 00 hr 04 min 36 sec)
Heartbeat CPU 0 instructions: 52500358 cycles: 17156598 heartbeat IPC: 0.6379 cumulative IPC: 0.6426 (Simulation time: 00 hr 04 min 43 sec)
Heartbeat CPU 0 instructions: 53000360 cycles: 17847428 heartbeat IPC: 0.7238 cumulative IPC: 0.6549 (Simulation time: 00 hr 04 min 49 sec)
Heartbeat CPU 0 instructions: 53500360 cycles: 18499738 heartbeat IPC: 0.7665 cumulative IPC: 0.6688 (Simulation time: 00 hr 04 min 54 sec)
Heartbeat CPU 0 instructions: 54000364 cycles: 19367428 heartbeat IPC: 0.5762 cumulative IPC: 0.6556 (Simulation time: 00 hr 05 min 01 sec)
Heartbeat CPU 0 instructions: 54500367 cycles: 20546969 heartbeat IPC: 0.4239 cumulative IPC: 0.6181 (Simulation time: 00 hr 05 min 11 sec)
Heartbeat CPU 0 instructions: 55000368 cycles: 21200593 heartbeat IPC: 0.765 cumulative IPC: 0.6302 (Simulation time: 00 hr 05 min 16 sec)
Heartbeat CPU 0 instructions: 55500368 cycles: 21590473 heartbeat IPC: 1.282 cumulative IPC: 0.6607 (Simulation time: 00 hr 05 min 20 sec)
Heartbeat CPU 0 instructions: 56000369 cycles: 22771088 heartbeat IPC: 0.4235 cumulative IPC: 0.6313 (Simulation time: 00 hr 05 min 29 sec)
Heartbeat CPU 0 instructions: 56500375 cycles: 23971152 heartbeat IPC: 0.4166 cumulative IPC: 0.6072 (Simulation time: 00 hr 05 min 38 sec)
Heartbeat CPU 0 instructions: 57000376 cycles: 24725903 heartbeat IPC: 0.6625 cumulative IPC: 0.6109 (Simulation time: 00 hr 05 min 44 sec)
Heartbeat CPU 0 instructions: 57500376 cycles: 25220038 heartbeat IPC: 1.012 cumulative IPC: 0.6274 (Simulation time: 00 hr 05 min 49 sec)
Heartbeat CPU 0 instructions: 58000376 cycles: 26938352 heartbeat IPC: 0.291 cumulative IPC: 0.5851 (Simulation time: 00 hr 06 min 02 sec)
Heartbeat CPU 0 instructions: 58500376 cycles: 28506799 heartbeat IPC: 0.3188 cumulative IPC: 0.5577 (Simulation time: 00 hr 06 min 13 sec)
Heartbeat CPU 0 instructions: 59000376 cycles: 29359240 heartbeat IPC: 0.5866 cumulative IPC: 0.5593 (Simulation time: 00 hr 06 min 20 sec)
Heartbeat CPU 0 instructions: 59500376 cycles: 30032488 heartbeat IPC: 0.7427 cumulative IPC: 0.5666 (Simulation time: 00 hr 06 min 26 sec)
Heartbeat CPU 0 instructions: 60000379 cycles: 30714943 heartbeat IPC: 0.7327 cumulative IPC: 0.5731 (Simulation time: 00 hr 06 min 32 sec)
Heartbeat CPU 0 instructions: 60500384 cycles: 31487344 heartbeat IPC: 0.6473 cumulative IPC: 0.5763 (Simulation time: 00 hr 06 min 38 sec)
Heartbeat CPU 0 instructions: 61000385 cycles: 33909745 heartbeat IPC: 0.2064 cumulative IPC: 0.5329 (Simulation time: 00 hr 06 min 55 sec)
Heartbeat CPU 0 instructions: 61500387 cycles: 34849326 heartbeat IPC: 0.5322 cumulative IPC: 0.5328 (Simulation time: 00 hr 07 min 03 sec)
Heartbeat CPU 0 instructions: 62000390 cycles: 35816207 heartbeat IPC: 0.5171 cumulative IPC: 0.5322 (Simulation time: 00 hr 07 min 11 sec)
Heartbeat CPU 0 instructions: 62500391 cycles: 36695744 heartbeat IPC: 0.5685 cumulative IPC: 0.5335 (Simulation time: 00 hr 07 min 18 sec)
Heartbeat CPU 0 instructions: 63000392 cycles: 38310273 heartbeat IPC: 0.3097 cumulative IPC: 0.5191 (Simulation time: 00 hr 07 min 30 sec)
Heartbeat CPU 0 instructions: 63500392 cycles: 39476320 heartbeat IPC: 0.4288 cumulative IPC: 0.5151 (Simulation time: 00 hr 07 min 39 sec)
Heartbeat CPU 0 instructions: 64000394 cycles: 40229190 heartbeat IPC: 0.6641 cumulative IPC: 0.5192 (Simulation time: 00 hr 07 min 45 sec)
Heartbeat CPU 0 instructions: 64500401 cycles: 40844790 heartbeat IPC: 0.8122 cumulative IPC: 0.5258 (Simulation time: 00 hr 07 min 50 sec)
Heartbeat CPU 0 instructions: 65000404 cycles: 41975056 heartbeat IPC: 0.4424 cumulative IPC: 0.5225 (Simulation time: 00 hr 07 min 59 sec)
Heartbeat CPU 0 instructions: 65500410 cycles: 42762209 heartbeat IPC: 0.6352 cumulative IPC: 0.5255 (Simulation time: 00 hr 08 min 05 sec)
Heartbeat CPU 0 instructions: 66000412 cycles: 43616426 heartbeat IPC: 0.5853 cumulative IPC: 0.5272 (Simulation time: 00 hr 08 min 12 sec)
Heartbeat CPU 0 instructions: 66500415 cycles: 44698101 heartbeat IPC: 0.4622 cumulative IPC: 0.525 (Simulation time: 00 hr 08 min 20 sec)
Heartbeat CPU 0 instructions: 67000416 cycles: 47286092 heartbeat IPC: 0.1932 cumulative IPC: 0.4997 (Simulation time: 00 hr 08 min 39 sec)
Heartbeat CPU 0 instructions: 67500416 cycles: 48897242 heartbeat IPC: 0.3103 cumulative IPC: 0.4912 (Simulation time: 00 hr 08 min 50 sec)
Heartbeat CPU 0 instructions: 68000422 cycles: 49688701 heartbeat IPC: 0.6318 cumulative IPC: 0.4942 (Simulation time: 00 hr 08 min 57 sec)
Heartbeat CPU 0 instructions: 68500426 cycles: 50340844 heartbeat IPC: 0.7667 cumulative IPC: 0.499 (Simulation time: 00 hr 09 min 03 sec)
Heartbeat CPU 0 instructions: 69000429 cycles: 51061630 heartbeat IPC: 0.6937 cumulative IPC: 0.5027 (Simulation time: 00 hr 09 min 09 sec)
Heartbeat CPU 0 instructions: 69500431 cycles: 51741299 heartbeat IPC: 0.7357 cumulative IPC: 0.5068 (Simulation time: 00 hr 09 min 14 sec)
Heartbeat CPU 0 instructions: 70000435 cycles: 53109363 heartbeat IPC: 0.3655 cumulative IPC: 0.502 (Simulation time: 00 hr 09 min 24 sec)
Heartbeat CPU 0 instructions: 70500436 cycles: 54203834 heartbeat IPC: 0.4568 cumulative IPC: 0.5008 (Simulation time: 00 hr 09 min 33 sec)
Heartbeat CPU 0 instructions: 71000438 cycles: 55898435 heartbeat IPC: 0.2951 cumulative IPC: 0.4926 (Simulation time: 00 hr 09 min 45 sec)
Heartbeat CPU 0 instructions: 71500439 cycles: 58244097 heartbeat IPC: 0.2132 cumulative IPC: 0.478 (Simulation time: 00 hr 10 min 02 sec)
Heartbeat CPU 0 instructions: 72000439 cycles: 59645033 heartbeat IPC: 0.3569 cumulative IPC: 0.4744 (Simulation time: 00 hr 10 min 13 sec)
Heartbeat CPU 0 instructions: 72500444 cycles: 60922627 heartbeat IPC: 0.3914 cumulative IPC: 0.4721 (Simulation time: 00 hr 10 min 23 sec)
Heartbeat CPU 0 instructions: 73000445 cycles: 61482824 heartbeat IPC: 0.8925 cumulative IPC: 0.477 (Simulation time: 00 hr 10 min 28 sec)
Heartbeat CPU 0 instructions: 73500447 cycles: 62924228 heartbeat IPC: 0.3469 cumulative IPC: 0.4732 (Simulation time: 00 hr 10 min 39 sec)
Heartbeat CPU 0 instructions: 74000454 cycles: 64015206 heartbeat IPC: 0.4583 cumulative IPC: 0.4729 (Simulation time: 00 hr 10 min 48 sec)
Heartbeat CPU 0 instructions: 74500457 cycles: 64839735 heartbeat IPC: 0.6064 cumulative IPC: 0.4751 (Simulation time: 00 hr 10 min 55 sec)
Heartbeat CPU 0 instructions: 75000458 cycles: 65620507 heartbeat IPC: 0.6404 cumulative IPC: 0.4775 (Simulation time: 00 hr 11 min 01 sec)
Heartbeat CPU 0 instructions: 75500461 cycles: 66215201 heartbeat IPC: 0.8408 cumulative IPC: 0.4816 (Simulation time: 00 hr 11 min 06 sec)
Heartbeat CPU 0 instructions: 76000461 cycles: 66587427 heartbeat IPC: 1.343 cumulative IPC: 0.4876 (Simulation time: 00 hr 11 min 11 sec)
Heartbeat CPU 0 instructions: 76500463 cycles: 67866739 heartbeat IPC: 0.3908 cumulative IPC: 0.4853 (Simulation time: 00 hr 11 min 20 sec)
Heartbeat CPU 0 instructions: 77000463 cycles: 69205248 heartbeat IPC: 0.3735 cumulative IPC: 0.4827 (Simulation time: 00 hr 11 min 31 sec)
Heartbeat CPU 0 instructions: 77500466 cycles: 69845477 heartbeat IPC: 0.781 cumulative IPC: 0.486 (Simulation time: 00 hr 11 min 36 sec)
Heartbeat CPU 0 instructions: 78000473 cycles: 70323379 heartbeat IPC: 1.046 cumulative IPC: 0.4907 (Simulation time: 00 hr 11 min 40 sec)
Heartbeat CPU 0 instructions: 78500474 cycles: 70981498 heartbeat IPC: 0.7597 cumulative IPC: 0.4938 (Simulation time: 00 hr 11 min 46 sec)
Heartbeat CPU 0 instructions: 79000475 cycles: 71321107 heartbeat IPC: 1.472 cumulative IPC: 0.4995 (Simulation time: 00 hr 11 min 49 sec)
Heartbeat CPU 0 instructions: 79500475 cycles: 71832596 heartbeat IPC: 0.9775 cumulative IPC: 0.5037 (Simulation time: 00 hr 11 min 54 sec)
Heartbeat CPU 0 instructions: 80000479 cycles: 72215830 heartbeat IPC: 1.305 cumulative IPC: 0.5089 (Simulation time: 00 hr 11 min 58 sec)
Heartbeat CPU 0 instructions: 80500482 cycles: 73696687 heartbeat IPC: 0.3376 cumulative IPC: 0.5047 (Simulation time: 00 hr 12 min 09 sec)
Heartbeat CPU 0 instructions: 81000484 cycles: 75250550 heartbeat IPC: 0.3218 cumulative IPC: 0.5001 (Simulation time: 00 hr 12 min 21 sec)
Heartbeat CPU 0 instructions: 81500486 cycles: 76195217 heartbeat IPC: 0.5293 cumulative IPC: 0.5006 (Simulation time: 00 hr 12 min 28 sec)
Heartbeat CPU 0 instructions: 82000493 cycles: 76780100 heartbeat IPC: 0.8549 cumulative IPC: 0.5038 (Simulation time: 00 hr 12 min 33 sec)
Heartbeat CPU 0 instructions: 82500496 cycles: 77440320 heartbeat IPC: 0.7573 cumulative IPC: 0.5064 (Simulation time: 00 hr 12 min 39 sec)
Heartbeat CPU 0 instructions: 83000501 cycles: 78128996 heartbeat IPC: 0.726 cumulative IPC: 0.5088 (Simulation time: 00 hr 12 min 45 sec)
Heartbeat CPU 0 instructions: 83500508 cycles: 78716139 heartbeat IPC: 0.8516 cumulative IPC: 0.5118 (Simulation time: 00 hr 12 min 50 sec)
Heartbeat CPU 0 instructions: 84000513 cycles: 79231050 heartbeat IPC: 0.9711 cumulative IPC: 0.5154 (Simulation time: 00 hr 12 min 54 sec)
Heartbeat CPU 0 instructions: 84500513 cycles: 80130574 heartbeat IPC: 0.5558 cumulative IPC: 0.516 (Simulation time: 00 hr 13 min 02 sec)
Heartbeat CPU 0 instructions: 85000514 cycles: 82211671 heartbeat IPC: 0.2403 cumulative IPC: 0.5077 (Simulation time: 00 hr 13 min 17 sec)
Heartbeat CPU 0 instructions: 85500519 cycles: 83158390 heartbeat IPC: 0.5281 cumulative IPC: 0.5079 (Simulation time: 00 hr 13 min 25 sec)
Heartbeat CPU 0 instructions: 86000520 cycles: 83858739 heartbeat IPC: 0.7139 cumulative IPC: 0.51 (Simulation time: 00 hr 13 min 31 sec)
Heartbeat CPU 0 instructions: 86500520 cycles: 84297826 heartbeat IPC: 1.139 cumulative IPC: 0.5139 (Simulation time: 00 hr 13 min 35 sec)
Heartbeat CPU 0 instructions: 87000520 cycles: 84881277 heartbeat IPC: 0.857 cumulative IPC: 0.5167 (Simulation time: 00 hr 13 min 40 sec)
Heartbeat CPU 0 instructions: 87500520 cycles: 85570246 heartbeat IPC: 0.7257 cumulative IPC: 0.5186 (Simulation time: 00 hr 13 min 46 sec)
Heartbeat CPU 0 instructions: 88000522 cycles: 87105434 heartbeat IPC: 0.3257 cumulative IPC: 0.5146 (Simulation time: 00 hr 13 min 57 sec)
Heartbeat CPU 0 instructions: 88500523 cycles: 88017363 heartbeat IPC: 0.5483 cumulative IPC: 0.515 (Simulation time: 00 hr 14 min 04 sec)
Heartbeat CPU 0 instructions: 89000525 cycles: 89855126 heartbeat IPC: 0.2721 cumulative IPC: 0.5092 (Simulation time: 00 hr 14 min 19 sec)
Heartbeat CPU 0 instructions: 89500525 cycles: 90824340 heartbeat IPC: 0.5159 cumulative IPC: 0.5093 (Simulation time: 00 hr 14 min 26 sec)
Heartbeat CPU 0 instructions: 90000526 cycles: 92168847 heartbeat IPC: 0.3719 cumulative IPC: 0.507 (Simulation time: 00 hr 14 min 36 sec)
Heartbeat CPU 0 instructions: 90500532 cycles: 93859874 heartbeat IPC: 0.2957 cumulative IPC: 0.5025 (Simulation time: 00 hr 14 min 48 sec)
Heartbeat CPU 0 instructions: 91000536 cycles: 94850601 heartbeat IPC: 0.5047 cumulative IPC: 0.5026 (Simulation time: 00 hr 14 min 56 sec)
Heartbeat CPU 0 instructions: 91500538 cycles: 96203179 heartbeat IPC: 0.3697 cumulative IPC: 0.5004 (Simulation time: 00 hr 15 min 05 sec)
Heartbeat CPU 0 instructions: 92000541 cycles: 97484304 heartbeat IPC: 0.3903 cumulative IPC: 0.4987 (Simulation time: 00 hr 15 min 15 sec)
Heartbeat CPU 0 instructions: 92500543 cycles: 98854039 heartbeat IPC: 0.365 cumulative IPC: 0.4966 (Simulation time: 00 hr 15 min 25 sec)
Heartbeat CPU 0 instructions: 93000547 cycles: 99784591 heartbeat IPC: 0.5373 cumulative IPC: 0.497 (Simulation time: 00 hr 15 min 32 sec)
Heartbeat CPU 0 instructions: 93500547 cycles: 100591665 heartbeat IPC: 0.6195 cumulative IPC: 0.4981 (Simulation time: 00 hr 15 min 38 sec)
Heartbeat CPU 0 instructions: 94000549 cycles: 101354004 heartbeat IPC: 0.6559 cumulative IPC: 0.4995 (Simulation time: 00 hr 15 min 44 sec)
Heartbeat CPU 0 instructions: 94500549 cycles: 102296231 heartbeat IPC: 0.5307 cumulative IPC: 0.4998 (Simulation time: 00 hr 15 min 52 sec)
Heartbeat CPU 0 instructions: 95000549 cycles: 103220565 heartbeat IPC: 0.5409 cumulative IPC: 0.5003 (Simulation time: 00 hr 15 min 59 sec)
Heartbeat CPU 0 instructions: 95500549 cycles: 104211890 heartbeat IPC: 0.5044 cumulative IPC: 0.5003 (Simulation time: 00 hr 16 min 06 sec)
Heartbeat CPU 0 instructions: 96000551 cycles: 106012733 heartbeat IPC: 0.2776 cumulative IPC: 0.496 (Simulation time: 00 hr 16 min 19 sec)
Heartbeat CPU 0 instructions: 96500551 cycles: 106959513 heartbeat IPC: 0.5281 cumulative IPC: 0.4963 (Simulation time: 00 hr 16 min 26 sec)
Heartbeat CPU 0 instructions: 97000551 cycles: 107635756 heartbeat IPC: 0.7394 cumulative IPC: 0.498 (Simulation time: 00 hr 16 min 32 sec)
Heartbeat CPU 0 instructions: 97500557 cycles: 108659184 heartbeat IPC: 0.4886 cumulative IPC: 0.4979 (Simulation time: 00 hr 16 min 39 sec)
Heartbeat CPU 0 instructions: 98000557 cycles: 110896746 heartbeat IPC: 0.2235 cumulative IPC: 0.4917 (Simulation time: 00 hr 16 min 55 sec)
Heartbeat CPU 0 instructions: 98500557 cycles: 112432559 heartbeat IPC: 0.3256 cumulative IPC: 0.4891 (Simulation time: 00 hr 17 min 06 sec)
Heartbeat CPU 0 instructions: 99000557 cycles: 113376546 heartbeat IPC: 0.5297 cumulative IPC: 0.4895 (Simulation time: 00 hr 17 min 14 sec)
Heartbeat CPU 0 instructions: 99500557 cycles: 114485697 heartbeat IPC: 0.4508 cumulative IPC: 0.489 (Simulation time: 00 hr 17 min 22 sec)
Heartbeat CPU 0 instructions: 100000559 cycles: 115722654 heartbeat IPC: 0.4042 cumulative IPC: 0.488 (Simulation time: 00 hr 17 min 31 sec)
Heartbeat CPU 0 instructions: 100500561 cycles: 116500086 heartbeat IPC: 0.6431 cumulative IPC: 0.4892 (Simulation time: 00 hr 17 min 38 sec)
Heartbeat CPU 0 instructions: 101000561 cycles: 117409907 heartbeat IPC: 0.5496 cumulative IPC: 0.4897 (Simulation time: 00 hr 17 min 45 sec)
Heartbeat CPU 0 instructions: 101500561 cycles: 117933053 heartbeat IPC: 0.9558 cumulative IPC: 0.492 (Simulation time: 00 hr 17 min 49 sec)
Heartbeat CPU 0 instructions: 102000562 cycles: 118310175 heartbeat IPC: 1.326 cumulative IPC: 0.495 (Simulation time: 00 hr 17 min 53 sec)
Heartbeat CPU 0 instructions: 102500568 cycles: 118805142 heartbeat IPC: 1.01 cumulative IPC: 0.4975 (Simulation time: 00 hr 17 min 57 sec)
Heartbeat CPU 0 instructions: 103000570 cycles: 119298324 heartbeat IPC: 1.014 cumulative IPC: 0.4999 (Simulation time: 00 hr 18 min 01 sec)
Heartbeat CPU 0 instructions: 103500572 cycles: 119589480 heartbeat IPC: 1.717 cumulative IPC: 0.5032 (Simulation time: 00 hr 18 min 04 sec)
Heartbeat CPU 0 instructions: 104000573 cycles: 120135882 heartbeat IPC: 0.9151 cumulative IPC: 0.5053 (Simulation time: 00 hr 18 min 09 sec)
Heartbeat CPU 0 instructions: 104500574 cycles: 121450332 heartbeat IPC: 0.3804 cumulative IPC: 0.5038 (Simulation time: 00 hr 18 min 19 sec)
Heartbeat CPU 0 instructions: 105000576 cycles: 122257821 heartbeat IPC: 0.6192 cumulative IPC: 0.5046 (Simulation time: 00 hr 18 min 25 sec)
Heartbeat CPU 0 instructions: 105500576 cycles: 122935370 heartbeat IPC: 0.738 cumulative IPC: 0.5061 (Simulation time: 00 hr 18 min 31 sec)
Heartbeat CPU 0 instructions: 106000578 cycles: 123684806 heartbeat IPC: 0.6672 cumulative IPC: 0.5072 (Simulation time: 00 hr 18 min 37 sec)
Heartbeat CPU 0 instructions: 106500580 cycles: 124482919 heartbeat IPC: 0.6265 cumulative IPC: 0.508 (Simulation time: 00 hr 18 min 43 sec)
Heartbeat CPU 0 instructions: 107000586 cycles: 126335676 heartbeat IPC: 0.2699 cumulative IPC: 0.5041 (Simulation time: 00 hr 18 min 56 sec)
Heartbeat CPU 0 instructions: 107500588 cycles: 127431620 heartbeat IPC: 0.4562 cumulative IPC: 0.5037 (Simulation time: 00 hr 19 min 04 sec)
Heartbeat CPU 0 instructions: 108000588 cycles: 129374863 heartbeat IPC: 0.2573 cumulative IPC: 0.4995 (Simulation time: 00 hr 19 min 18 sec)
Heartbeat CPU 0 instructions: 108500595 cycles: 130276863 heartbeat IPC: 0.5543 cumulative IPC: 0.5 (Simulation time: 00 hr 19 min 25 sec)
Heartbeat CPU 0 instructions: 109000601 cycles: 130807215 heartbeat IPC: 0.9428 cumulative IPC: 0.502 (Simulation time: 00 hr 19 min 29 sec)
Heartbeat CPU 0 instructions: 109500605 cycles: 131963914 heartbeat IPC: 0.4323 cumulative IPC: 0.5013 (Simulation time: 00 hr 19 min 37 sec)
Heartbeat CPU 0 instructions: 110000606 cycles: 133751027 heartbeat IPC: 0.2798 cumulative IPC: 0.498 (Simulation time: 00 hr 19 min 50 sec)
Heartbeat CPU 0 instructions: 110500607 cycles: 135580306 heartbeat IPC: 0.2733 cumulative IPC: 0.4946 (Simulation time: 00 hr 20 min 02 sec)
Heartbeat CPU 0 instructions: 111000609 cycles: 136876933 heartbeat IPC: 0.3856 cumulative IPC: 0.4935 (Simulation time: 00 hr 20 min 12 sec)
Heartbeat CPU 0 instructions: 111500610 cycles: 138061474 heartbeat IPC: 0.4221 cumulative IPC: 0.4928 (Simulation time: 00 hr 20 min 21 sec)
Heartbeat CPU 0 instructions: 112000611 cycles: 139167073 heartbeat IPC: 0.4522 cumulative IPC: 0.4925 (Simulation time: 00 hr 20 min 28 sec)
Heartbeat CPU 0 instructions: 112500611 cycles: 140408396 heartbeat IPC: 0.4028 cumulative IPC: 0.4916 (Simulation time: 00 hr 20 min 37 sec)
Heartbeat CPU 0 instructions: 113000614 cycles: 142457686 heartbeat IPC: 0.244 cumulative IPC: 0.4877 (Simulation time: 00 hr 20 min 51 sec)
Heartbeat CPU 0 instructions: 113500621 cycles: 143312296 heartbeat IPC: 0.5851 cumulative IPC: 0.4883 (Simulation time: 00 hr 20 min 57 sec)
Heartbeat CPU 0 instructions: 114000621 cycles: 143780450 heartbeat IPC: 1.068 cumulative IPC: 0.4904 (Simulation time: 00 hr 21 min 01 sec)
Heartbeat CPU 0 instructions: 114500624 cycles: 144263260 heartbeat IPC: 1.036 cumulative IPC: 0.4924 (Simulation time: 00 hr 21 min 05 sec)
Heartbeat CPU 0 instructions: 115000625 cycles: 145025489 heartbeat IPC: 0.656 cumulative IPC: 0.4933 (Simulation time: 00 hr 21 min 11 sec)
Heartbeat CPU 0 instructions: 115500627 cycles: 145419865 heartbeat IPC: 1.268 cumulative IPC: 0.4956 (Simulation time: 00 hr 21 min 14 sec)
Heartbeat CPU 0 instructions: 116000629 cycles: 145782777 heartbeat IPC: 1.378 cumulative IPC: 0.4981 (Simulation time: 00 hr 21 min 17 sec)
Heartbeat CPU 0 instructions: 116500631 cycles: 146075686 heartbeat IPC: 1.707 cumulative IPC: 0.5007 (Simulation time: 00 hr 21 min 20 sec)
Heartbeat CPU 0 instructions: 117000635 cycles: 146350051 heartbeat IPC: 1.822 cumulative IPC: 0.5034 (Simulation time: 00 hr 21 min 23 sec)
Heartbeat CPU 0 instructions: 117500641 cycles: 146873400 heartbeat IPC: 0.9554 cumulative IPC: 0.5052 (Simulation time: 00 hr 21 min 27 sec)
Heartbeat CPU 0 instructions: 118000643 cycles: 148282459 heartbeat IPC: 0.3548 cumulative IPC: 0.5036 (Simulation time: 00 hr 21 min 36 sec)
Heartbeat CPU 0 instructions: 118500648 cycles: 149318654 heartbeat IPC: 0.4825 cumulative IPC: 0.5035 (Simulation time: 00 hr 21 min 44 sec)
Heartbeat CPU 0 instructions: 119000655 cycles: 150544947 heartbeat IPC: 0.4077 cumulative IPC: 0.5026 (Simulation time: 00 hr 21 min 52 sec)
Heartbeat CPU 0 instructions: 119500657 cycles: 152058133 heartbeat IPC: 0.3304 cumulative IPC: 0.5008 (Simulation time: 00 hr 22 min 02 sec)
Heartbeat CPU 0 instructions: 120000659 cycles: 153100554 heartbeat IPC: 0.4797 cumulative IPC: 0.5006 (Simulation time: 00 hr 22 min 10 sec)
Heartbeat CPU 0 instructions: 120500666 cycles: 154015987 heartbeat IPC: 0.5462 cumulative IPC: 0.5009 (Simulation time: 00 hr 22 min 16 sec)
Heartbeat CPU 0 instructions: 121000666 cycles: 154718718 heartbeat IPC: 0.7115 cumulative IPC: 0.5019 (Simulation time: 00 hr 22 min 22 sec)
Heartbeat CPU 0 instructions: 121500666 cycles: 155668230 heartbeat IPC: 0.5266 cumulative IPC: 0.5021 (Simulation time: 00 hr 22 min 29 sec)
Heartbeat CPU 0 instructions: 122000669 cycles: 157270463 heartbeat IPC: 0.3121 cumulative IPC: 0.5 (Simulation time: 00 hr 22 min 40 sec)
Heartbeat CPU 0 instructions: 122500674 cycles: 158103054 heartbeat IPC: 0.6005 cumulative IPC: 0.5006 (Simulation time: 00 hr 22 min 46 sec)
Heartbeat CPU 0 instructions: 123000674 cycles: 158718980 heartbeat IPC: 0.8118 cumulative IPC: 0.5019 (Simulation time: 00 hr 22 min 50 sec)
Heartbeat CPU 0 instructions: 123500678 cycles: 159281199 heartbeat IPC: 0.8893 cumulative IPC: 0.5034 (Simulation time: 00 hr 22 min 55 sec)
Heartbeat CPU 0 instructions: 124000678 cycles: 160425004 heartbeat IPC: 0.4371 cumulative IPC: 0.5029 (Simulation time: 00 hr 23 min 02 sec)
Heartbeat CPU 0 instructions: 124500678 cycles: 162021732 heartbeat IPC: 0.3131 cumulative IPC: 0.5008 (Simulation time: 00 hr 23 min 13 sec)
Heartbeat CPU 0 instructions: 125000678 cycles: 162715478 heartbeat IPC: 0.7207 cumulative IPC: 0.5018 (Simulation time: 00 hr 23 min 18 sec)
Heartbeat CPU 0 instructions: 125500679 cycles: 163306646 heartbeat IPC: 0.8458 cumulative IPC: 0.5032 (Simulation time: 00 hr 23 min 23 sec)
Heartbeat CPU 0 instructions: 126000679 cycles: 164088712 heartbeat IPC: 0.6393 cumulative IPC: 0.5039 (Simulation time: 00 hr 23 min 29 sec)
Heartbeat CPU 0 instructions: 126500681 cycles: 165806245 heartbeat IPC: 0.2911 cumulative IPC: 0.5015 (Simulation time: 00 hr 23 min 40 sec)
Heartbeat CPU 0 instructions: 127000686 cycles: 166874401 heartbeat IPC: 0.4681 cumulative IPC: 0.5013 (Simulation time: 00 hr 23 min 47 sec)
Heartbeat CPU 0 instructions: 127500686 cycles: 167640468 heartbeat IPC: 0.6527 cumulative IPC: 0.502 (Simulation time: 00 hr 23 min 53 sec)
Heartbeat CPU 0 instructions: 128000686 cycles: 168331233 heartbeat IPC: 0.7238 cumulative IPC: 0.503 (Simulation time: 00 hr 23 min 58 sec)
Heartbeat CPU 0 instructions: 128500693 cycles: 170196425 heartbeat IPC: 0.2681 cumulative IPC: 0.5002 (Simulation time: 00 hr 24 min 10 sec)
Heartbeat CPU 0 instructions: 129000693 cycles: 171674227 heartbeat IPC: 0.3383 cumulative IPC: 0.4987 (Simulation time: 00 hr 24 min 20 sec)
Heartbeat CPU 0 instructions: 129500693 cycles: 173041413 heartbeat IPC: 0.3657 cumulative IPC: 0.4976 (Simulation time: 00 hr 24 min 28 sec)
Heartbeat CPU 0 instructions: 130000698 cycles: 174234443 heartbeat IPC: 0.4191 cumulative IPC: 0.497 (Simulation time: 00 hr 24 min 37 sec)
Heartbeat CPU 0 instructions: 130500698 cycles: 174860192 heartbeat IPC: 0.799 cumulative IPC: 0.4982 (Simulation time: 00 hr 24 min 41 sec)
Heartbeat CPU 0 instructions: 131000703 cycles: 175712770 heartbeat IPC: 0.5865 cumulative IPC: 0.4986 (Simulation time: 00 hr 24 min 48 sec)
Heartbeat CPU 0 instructions: 131500703 cycles: 176210245 heartbeat IPC: 1.005 cumulative IPC: 0.5002 (Simulation time: 00 hr 24 min 52 sec)
Heartbeat CPU 0 instructions: 132000707 cycles: 176562730 heartbeat IPC: 1.419 cumulative IPC: 0.5022 (Simulation time: 00 hr 24 min 55 sec)
Heartbeat CPU 0 instructions: 132500713 cycles: 177250440 heartbeat IPC: 0.7271 cumulative IPC: 0.5031 (Simulation time: 00 hr 25 min 00 sec)
Heartbeat CPU 0 instructions: 133000713 cycles: 177607552 heartbeat IPC: 1.4 cumulative IPC: 0.505 (Simulation time: 00 hr 25 min 03 sec)
Heartbeat CPU 0 instructions: 133500718 cycles: 177884961 heartbeat IPC: 1.802 cumulative IPC: 0.5072 (Simulation time: 00 hr 25 min 05 sec)
Heartbeat CPU 0 instructions: 134000718 cycles: 178084918 heartbeat IPC: 2.501 cumulative IPC: 0.5097 (Simulation time: 00 hr 25 min 07 sec)
Heartbeat CPU 0 instructions: 134500718 cycles: 178388686 heartbeat IPC: 1.646 cumulative IPC: 0.5117 (Simulation time: 00 hr 25 min 10 sec)
Heartbeat CPU 0 instructions: 135000719 cycles: 179168521 heartbeat IPC: 0.6412 cumulative IPC: 0.5124 (Simulation time: 00 hr 25 min 16 sec)
Heartbeat CPU 0 instructions: 135500724 cycles: 180095398 heartbeat IPC: 0.5395 cumulative IPC: 0.5125 (Simulation time: 00 hr 25 min 22 sec)
Heartbeat CPU 0 instructions: 136000725 cycles: 180875770 heartbeat IPC: 0.6407 cumulative IPC: 0.5131 (Simulation time: 00 hr 25 min 28 sec)
Heartbeat CPU 0 instructions: 136500727 cycles: 181372373 heartbeat IPC: 1.007 cumulative IPC: 0.5146 (Simulation time: 00 hr 25 min 32 sec)
Heartbeat CPU 0 instructions: 137000727 cycles: 181657682 heartbeat IPC: 1.752 cumulative IPC: 0.5167 (Simulation time: 00 hr 25 min 35 sec)
Heartbeat CPU 0 instructions: 137500730 cycles: 181863968 heartbeat IPC: 2.424 cumulative IPC: 0.519 (Simulation time: 00 hr 25 min 37 sec)
Heartbeat CPU 0 instructions: 138000731 cycles: 182376305 heartbeat IPC: 0.9759 cumulative IPC: 0.5204 (Simulation time: 00 hr 25 min 41 sec)
Heartbeat CPU 0 instructions: 138500733 cycles: 183359766 heartbeat IPC: 0.5084 cumulative IPC: 0.5203 (Simulation time: 00 hr 25 min 48 sec)
Heartbeat CPU 0 instructions: 139000737 cycles: 185485948 heartbeat IPC: 0.2352 cumulative IPC: 0.5168 (Simulation time: 00 hr 26 min 01 sec)
Heartbeat CPU 0 instructions: 139500739 cycles: 185963915 heartbeat IPC: 1.046 cumulative IPC: 0.5182 (Simulation time: 00 hr 26 min 06 sec)
Heartbeat CPU 0 instructions: 140000745 cycles: 186465547 heartbeat IPC: 0.9968 cumulative IPC: 0.5196 (Simulation time: 00 hr 26 min 10 sec)
Heartbeat CPU 0 instructions: 140500745 cycles: 186921077 heartbeat IPC: 1.098 cumulative IPC: 0.5212 (Simulation time: 00 hr 26 min 14 sec)
Heartbeat CPU 0 instructions: 141000747 cycles: 189189575 heartbeat IPC: 0.2204 cumulative IPC: 0.5173 (Simulation time: 00 hr 26 min 29 sec)
Heartbeat CPU 0 instructions: 141500749 cycles: 190257140 heartbeat IPC: 0.4684 cumulative IPC: 0.517 (Simulation time: 00 hr 26 min 36 sec)
Heartbeat CPU 0 instructions: 142000749 cycles: 191160819 heartbeat IPC: 0.5533 cumulative IPC: 0.5172 (Simulation time: 00 hr 26 min 42 sec)
Heartbeat CPU 0 instructions: 142500749 cycles: 192510752 heartbeat IPC: 0.3704 cumulative IPC: 0.5161 (Simulation time: 00 hr 26 min 50 sec)
Heartbeat CPU 0 instructions: 143000749 cycles: 193591950 heartbeat IPC: 0.4624 cumulative IPC: 0.5157 (Simulation time: 00 hr 26 min 57 sec)
Heartbeat CPU 0 instructions: 143500749 cycles: 194246798 heartbeat IPC: 0.7635 cumulative IPC: 0.5166 (Simulation time: 00 hr 27 min 02 sec)
Heartbeat CPU 0 instructions: 144000751 cycles: 194626708 heartbeat IPC: 1.316 cumulative IPC: 0.5183 (Simulation time: 00 hr 27 min 05 sec)
Heartbeat CPU 0 instructions: 144500753 cycles: 194967580 heartbeat IPC: 1.467 cumulative IPC: 0.5201 (Simulation time: 00 hr 27 min 07 sec)
Heartbeat CPU 0 instructions: 145000758 cycles: 195330728 heartbeat IPC: 1.377 cumulative IPC: 0.5218 (Simulation time: 00 hr 27 min 10 sec)
Heartbeat CPU 0 instructions: 145500759 cycles: 195646349 heartbeat IPC: 1.584 cumulative IPC: 0.5236 (Simulation time: 00 hr 27 min 13 sec)
Heartbeat CPU 0 instructions: 146000760 cycles: 196127294 heartbeat IPC: 1.04 cumulative IPC: 0.525 (Simulation time: 00 hr 27 min 17 sec)
Heartbeat CPU 0 instructions: 146500760 cycles: 196344230 heartbeat IPC: 2.305 cumulative IPC: 0.5271 (Simulation time: 00 hr 27 min 19 sec)
Heartbeat CPU 0 instructions: 147000760 cycles: 196806911 heartbeat IPC: 1.081 cumulative IPC: 0.5285 (Simulation time: 00 hr 27 min 23 sec)
Heartbeat CPU 0 instructions: 147500761 cycles: 198180672 heartbeat IPC: 0.364 cumulative IPC: 0.5273 (Simulation time: 00 hr 27 min 31 sec)
Heartbeat CPU 0 instructions: 148000764 cycles: 200606036 heartbeat IPC: 0.2062 cumulative IPC: 0.5231 (Simulation time: 00 hr 27 min 46 sec)
Heartbeat CPU 0 instructions: 148500766 cycles: 202339585 heartbeat IPC: 0.2884 cumulative IPC: 0.521 (Simulation time: 00 hr 27 min 57 sec)
Heartbeat CPU 0 instructions: 149000767 cycles: 203873908 heartbeat IPC: 0.3259 cumulative IPC: 0.5194 (Simulation time: 00 hr 28 min 07 sec)
Heartbeat CPU 0 instructions: 149500769 cycles: 205529235 heartbeat IPC: 0.3021 cumulative IPC: 0.5175 (Simulation time: 00 hr 28 min 18 sec)
Heartbeat CPU 0 instructions: 150000769 cycles: 206485566 heartbeat IPC: 0.5228 cumulative IPC: 0.5175 (Simulation time: 00 hr 28 min 24 sec)
Heartbeat CPU 0 instructions: 150500769 cycles: 207333741 heartbeat IPC: 0.5895 cumulative IPC: 0.5179 (Simulation time: 00 hr 28 min 29 sec)
Heartbeat CPU 0 instructions: 151000775 cycles: 208065307 heartbeat IPC: 0.6835 cumulative IPC: 0.5185 (Simulation time: 00 hr 28 min 34 sec)
Heartbeat CPU 0 instructions: 151500779 cycles: 209043199 heartbeat IPC: 0.5113 cumulative IPC: 0.5185 (Simulation time: 00 hr 28 min 40 sec)
Heartbeat CPU 0 instructions: 152000784 cycles: 210498444 heartbeat IPC: 0.3436 cumulative IPC: 0.5172 (Simulation time: 00 hr 28 min 50 sec)
Heartbeat CPU 0 instructions: 152500784 cycles: 211558912 heartbeat IPC: 0.4715 cumulative IPC: 0.5169 (Simulation time: 00 hr 28 min 56 sec)
Heartbeat CPU 0 instructions: 153000791 cycles: 212817270 heartbeat IPC: 0.3973 cumulative IPC: 0.5162 (Simulation time: 00 hr 29 min 04 sec)
Heartbeat CPU 0 instructions: 153500791 cycles: 213586905 heartbeat IPC: 0.6497 cumulative IPC: 0.5167 (Simulation time: 00 hr 29 min 09 sec)
Heartbeat CPU 0 instructions: 154000792 cycles: 214721214 heartbeat IPC: 0.4408 cumulative IPC: 0.5162 (Simulation time: 00 hr 29 min 16 sec)
Heartbeat CPU 0 instructions: 154500795 cycles: 215794046 heartbeat IPC: 0.4661 cumulative IPC: 0.516 (Simulation time: 00 hr 29 min 23 sec)
Heartbeat CPU 0 instructions: 155000800 cycles: 216532615 heartbeat IPC: 0.677 cumulative IPC: 0.5166 (Simulation time: 00 hr 29 min 28 sec)
Heartbeat CPU 0 instructions: 155500801 cycles: 217401837 heartbeat IPC: 0.5752 cumulative IPC: 0.5168 (Simulation time: 00 hr 29 min 34 sec)
Heartbeat CPU 0 instructions: 156000801 cycles: 217935775 heartbeat IPC: 0.9364 cumulative IPC: 0.5179 (Simulation time: 00 hr 29 min 38 sec)
Heartbeat CPU 0 instructions: 156500801 cycles: 219460435 heartbeat IPC: 0.3279 cumulative IPC: 0.5165 (Simulation time: 00 hr 29 min 47 sec)
Heartbeat CPU 0 instructions: 157000801 cycles: 220297843 heartbeat IPC: 0.5971 cumulative IPC: 0.5168 (Simulation time: 00 hr 29 min 53 sec)
Heartbeat CPU 0 instructions: 157500801 cycles: 220995389 heartbeat IPC: 0.7168 cumulative IPC: 0.5175 (Simulation time: 00 hr 29 min 57 sec)
Heartbeat CPU 0 instructions: 158000801 cycles: 221904419 heartbeat IPC: 0.55 cumulative IPC: 0.5176 (Simulation time: 00 hr 30 min 03 sec)
Heartbeat CPU 0 instructions: 158500802 cycles: 223426679 heartbeat IPC: 0.3285 cumulative IPC: 0.5163 (Simulation time: 00 hr 30 min 13 sec)
Heartbeat CPU 0 instructions: 159000804 cycles: 224214273 heartbeat IPC: 0.6348 cumulative IPC: 0.5167 (Simulation time: 00 hr 30 min 18 sec)
Heartbeat CPU 0 instructions: 159500805 cycles: 224859758 heartbeat IPC: 0.7746 cumulative IPC: 0.5175 (Simulation time: 00 hr 30 min 22 sec)
Heartbeat CPU 0 instructions: 160000805 cycles: 226045906 heartbeat IPC: 0.4215 cumulative IPC: 0.517 (Simulation time: 00 hr 30 min 30 sec)
Heartbeat CPU 0 instructions: 160500810 cycles: 227257612 heartbeat IPC: 0.4126 cumulative IPC: 0.5164 (Simulation time: 00 hr 30 min 37 sec)
Heartbeat CPU 0 instructions: 161000811 cycles: 227881025 heartbeat IPC: 0.802 cumulative IPC: 0.5172 (Simulation time: 00 hr 30 min 42 sec)
Heartbeat CPU 0 instructions: 161500814 cycles: 229789039 heartbeat IPC: 0.2621 cumulative IPC: 0.515 (Simulation time: 00 hr 30 min 53 sec)
Heartbeat CPU 0 instructions: 162000814 cycles: 230844394 heartbeat IPC: 0.4738 cumulative IPC: 0.5148 (Simulation time: 00 hr 30 min 59 sec)
Heartbeat CPU 0 instructions: 162500821 cycles: 231652415 heartbeat IPC: 0.6188 cumulative IPC: 0.5151 (Simulation time: 00 hr 31 min 04 sec)
Heartbeat CPU 0 instructions: 163000821 cycles: 232458783 heartbeat IPC: 0.6201 cumulative IPC: 0.5155 (Simulation time: 00 hr 31 min 10 sec)
Heartbeat CPU 0 instructions: 163500824 cycles: 234616952 heartbeat IPC: 0.2317 cumulative IPC: 0.5128 (Simulation time: 00 hr 31 min 23 sec)
Heartbeat CPU 0 instructions: 164000827 cycles: 235755791 heartbeat IPC: 0.439 cumulative IPC: 0.5124 (Simulation time: 00 hr 31 min 30 sec)
Heartbeat CPU 0 instructions: 164500829 cycles: 236617510 heartbeat IPC: 0.5802 cumulative IPC: 0.5126 (Simulation time: 00 hr 31 min 35 sec)
Heartbeat CPU 0 instructions: 165000836 cycles: 237391832 heartbeat IPC: 0.6457 cumulative IPC: 0.5131 (Simulation time: 00 hr 31 min 41 sec)
Heartbeat CPU 0 instructions: 165500836 cycles: 239219184 heartbeat IPC: 0.2736 cumulative IPC: 0.5112 (Simulation time: 00 hr 31 min 51 sec)
Heartbeat CPU 0 instructions: 166000838 cycles: 240132139 heartbeat IPC: 0.5477 cumulative IPC: 0.5113 (Simulation time: 00 hr 31 min 57 sec)
Heartbeat CPU 0 instructions: 166500838 cycles: 240849749 heartbeat IPC: 0.6968 cumulative IPC: 0.5119 (Simulation time: 00 hr 32 min 02 sec)
Heartbeat CPU 0 instructions: 167000839 cycles: 242693841 heartbeat IPC: 0.2711 cumulative IPC: 0.51 (Simulation time: 00 hr 32 min 12 sec)
Heartbeat CPU 0 instructions: 167500839 cycles: 243936427 heartbeat IPC: 0.4024 cumulative IPC: 0.5094 (Simulation time: 00 hr 32 min 20 sec)
Heartbeat CPU 0 instructions: 168000839 cycles: 245542951 heartbeat IPC: 0.3112 cumulative IPC: 0.508 (Simulation time: 00 hr 32 min 29 sec)
Heartbeat CPU 0 instructions: 168500839 cycles: 246633985 heartbeat IPC: 0.4583 cumulative IPC: 0.5078 (Simulation time: 00 hr 32 min 36 sec)
Heartbeat CPU 0 instructions: 169000839 cycles: 247057873 heartbeat IPC: 1.18 cumulative IPC: 0.509 (Simulation time: 00 hr 32 min 39 sec)
Heartbeat CPU 0 instructions: 169500840 cycles: 247819929 heartbeat IPC: 0.6561 cumulative IPC: 0.5095 (Simulation time: 00 hr 32 min 44 sec)
Heartbeat CPU 0 instructions: 170000843 cycles: 249311332 heartbeat IPC: 0.3353 cumulative IPC: 0.5084 (Simulation time: 00 hr 32 min 53 sec)
Heartbeat CPU 0 instructions: 170500849 cycles: 250366295 heartbeat IPC: 0.474 cumulative IPC: 0.5082 (Simulation time: 00 hr 32 min 59 sec)
Heartbeat CPU 0 instructions: 171000852 cycles: 251515884 heartbeat IPC: 0.4349 cumulative IPC: 0.5079 (Simulation time: 00 hr 33 min 06 sec)
Heartbeat CPU 0 instructions: 171500853 cycles: 252383921 heartbeat IPC: 0.576 cumulative IPC: 0.5081 (Simulation time: 00 hr 33 min 12 sec)
Heartbeat CPU 0 instructions: 172000855 cycles: 253305019 heartbeat IPC: 0.5428 cumulative IPC: 0.5083 (Simulation time: 00 hr 33 min 18 sec)
Heartbeat CPU 0 instructions: 172500862 cycles: 254353143 heartbeat IPC: 0.477 cumulative IPC: 0.5081 (Simulation time: 00 hr 33 min 24 sec)
Heartbeat CPU 0 instructions: 173000869 cycles: 254847519 heartbeat IPC: 1.011 cumulative IPC: 0.5091 (Simulation time: 00 hr 33 min 28 sec)
Heartbeat CPU 0 instructions: 173500874 cycles: 256242828 heartbeat IPC: 0.3583 cumulative IPC: 0.5083 (Simulation time: 00 hr 33 min 36 sec)
Heartbeat CPU 0 instructions: 174000874 cycles: 257872091 heartbeat IPC: 0.3069 cumulative IPC: 0.5069 (Simulation time: 00 hr 33 min 46 sec)
Heartbeat CPU 0 instructions: 174500876 cycles: 258782731 heartbeat IPC: 0.5491 cumulative IPC: 0.5071 (Simulation time: 00 hr 33 min 51 sec)
Heartbeat CPU 0 instructions: 175000876 cycles: 259774534 heartbeat IPC: 0.5041 cumulative IPC: 0.5071 (Simulation time: 00 hr 33 min 57 sec)
Heartbeat CPU 0 instructions: 175500883 cycles: 261482811 heartbeat IPC: 0.2927 cumulative IPC: 0.5056 (Simulation time: 00 hr 34 min 07 sec)
Heartbeat CPU 0 instructions: 176000883 cycles: 262022134 heartbeat IPC: 0.9271 cumulative IPC: 0.5065 (Simulation time: 00 hr 34 min 11 sec)
Heartbeat CPU 0 instructions: 176500883 cycles: 262771837 heartbeat IPC: 0.6669 cumulative IPC: 0.507 (Simulation time: 00 hr 34 min 16 sec)
Heartbeat CPU 0 instructions: 177000883 cycles: 264506365 heartbeat IPC: 0.2883 cumulative IPC: 0.5055 (Simulation time: 00 hr 34 min 26 sec)
Heartbeat CPU 0 instructions: 177500884 cycles: 265076782 heartbeat IPC: 0.8766 cumulative IPC: 0.5063 (Simulation time: 00 hr 34 min 30 sec)
Heartbeat CPU 0 instructions: 178000887 cycles: 266717612 heartbeat IPC: 0.3047 cumulative IPC: 0.505 (Simulation time: 00 hr 34 min 40 sec)
Heartbeat CPU 0 instructions: 178500887 cycles: 267777761 heartbeat IPC: 0.4716 cumulative IPC: 0.5049 (Simulation time: 00 hr 34 min 46 sec)
Heartbeat CPU 0 instructions: 179000892 cycles: 268328555 heartbeat IPC: 0.9078 cumulative IPC: 0.5058 (Simulation time: 00 hr 34 min 50 sec)
Heartbeat CPU 0 instructions: 179500894 cycles: 268946029 heartbeat IPC: 0.8098 cumulative IPC: 0.5065 (Simulation time: 00 hr 34 min 54 sec)
Heartbeat CPU 0 instructions: 180000894 cycles: 270427449 heartbeat IPC: 0.3375 cumulative IPC: 0.5055 (Simulation time: 00 hr 35 min 02 sec)
Heartbeat CPU 0 instructions: 180500896 cycles: 271409842 heartbeat IPC: 0.509 cumulative IPC: 0.5055 (Simulation time: 00 hr 35 min 08 sec)
Heartbeat CPU 0 instructions: 181000899 cycles: 272300511 heartbeat IPC: 0.5614 cumulative IPC: 0.5057 (Simulation time: 00 hr 35 min 14 sec)
Heartbeat CPU 0 instructions: 181500899 cycles: 273134341 heartbeat IPC: 0.5996 cumulative IPC: 0.506 (Simulation time: 00 hr 35 min 19 sec)
Heartbeat CPU 0 instructions: 182000902 cycles: 274407990 heartbeat IPC: 0.3926 cumulative IPC: 0.5055 (Simulation time: 00 hr 35 min 26 sec)
Heartbeat CPU 0 instructions: 182500902 cycles: 275113208 heartbeat IPC: 0.709 cumulative IPC: 0.506 (Simulation time: 00 hr 35 min 31 sec)
Heartbeat CPU 0 instructions: 183000905 cycles: 275515386 heartbeat IPC: 1.243 cumulative IPC: 0.5072 (Simulation time: 00 hr 35 min 34 sec)
Heartbeat CPU 0 instructions: 183500908 cycles: 276003079 heartbeat IPC: 1.025 cumulative IPC: 0.5081 (Simulation time: 00 hr 35 min 37 sec)
Heartbeat CPU 0 instructions: 184000914 cycles: 277180708 heartbeat IPC: 0.4246 cumulative IPC: 0.5077 (Simulation time: 00 hr 35 min 44 sec)
Heartbeat CPU 0 instructions: 184500921 cycles: 278348643 heartbeat IPC: 0.4281 cumulative IPC: 0.5074 (Simulation time: 00 hr 35 min 51 sec)
Heartbeat CPU 0 instructions: 185000922 cycles: 279103606 heartbeat IPC: 0.6623 cumulative IPC: 0.5078 (Simulation time: 00 hr 35 min 56 sec)
Heartbeat CPU 0 instructions: 185500922 cycles: 279586126 heartbeat IPC: 1.036 cumulative IPC: 0.5088 (Simulation time: 00 hr 35 min 59 sec)
Heartbeat CPU 0 instructions: 186000922 cycles: 281239201 heartbeat IPC: 0.3025 cumulative IPC: 0.5075 (Simulation time: 00 hr 36 min 09 sec)
Heartbeat CPU 0 instructions: 186500923 cycles: 282308507 heartbeat IPC: 0.4676 cumulative IPC: 0.5074 (Simulation time: 00 hr 36 min 15 sec)
Heartbeat CPU 0 instructions: 187000923 cycles: 283525996 heartbeat IPC: 0.4107 cumulative IPC: 0.5069 (Simulation time: 00 hr 36 min 22 sec)
Heartbeat CPU 0 instructions: 187500925 cycles: 285158565 heartbeat IPC: 0.3063 cumulative IPC: 0.5057 (Simulation time: 00 hr 36 min 32 sec)
Heartbeat CPU 0 instructions: 188000928 cycles: 286326270 heartbeat IPC: 0.4282 cumulative IPC: 0.5054 (Simulation time: 00 hr 36 min 39 sec)
Heartbeat CPU 0 instructions: 188500928 cycles: 287020932 heartbeat IPC: 0.7198 cumulative IPC: 0.5059 (Simulation time: 00 hr 36 min 43 sec)
Heartbeat CPU 0 instructions: 189000933 cycles: 287598528 heartbeat IPC: 0.8657 cumulative IPC: 0.5067 (Simulation time: 00 hr 36 min 47 sec)
Heartbeat CPU 0 instructions: 189500934 cycles: 288284832 heartbeat IPC: 0.7285 cumulative IPC: 0.5072 (Simulation time: 00 hr 36 min 51 sec)
Heartbeat CPU 0 instructions: 190000937 cycles: 288666397 heartbeat IPC: 1.31 cumulative IPC: 0.5084 (Simulation time: 00 hr 36 min 54 sec)
Heartbeat CPU 0 instructions: 190500937 cycles: 288954387 heartbeat IPC: 1.736 cumulative IPC: 0.5096 (Simulation time: 00 hr 36 min 57 sec)
Heartbeat CPU 0 instructions: 191000941 cycles: 289556815 heartbeat IPC: 0.83 cumulative IPC: 0.5103 (Simulation time: 00 hr 37 min 01 sec)
Heartbeat CPU 0 instructions: 191500941 cycles: 290661190 heartbeat IPC: 0.4527 cumulative IPC: 0.5101 (Simulation time: 00 hr 37 min 07 sec)
Heartbeat CPU 0 instructions: 192000944 cycles: 293280589 heartbeat IPC: 0.1909 cumulative IPC: 0.5071 (Simulation time: 00 hr 37 min 22 sec)
Heartbeat CPU 0 instructions: 192500946 cycles: 294808970 heartbeat IPC: 0.3271 cumulative IPC: 0.5061 (Simulation time: 00 hr 37 min 31 sec)
Heartbeat CPU 0 instructions: 193000946 cycles: 295867057 heartbeat IPC: 0.4726 cumulative IPC: 0.506 (Simulation time: 00 hr 37 min 38 sec)
Heartbeat CPU 0 instructions: 193500949 cycles: 296519501 heartbeat IPC: 0.7664 cumulative IPC: 0.5066 (Simulation time: 00 hr 37 min 42 sec)
Heartbeat CPU 0 instructions: 194000949 cycles: 296936563 heartbeat IPC: 1.199 cumulative IPC: 0.5076 (Simulation time: 00 hr 37 min 45 sec)
Heartbeat CPU 0 instructions: 194500954 cycles: 297612621 heartbeat IPC: 0.7396 cumulative IPC: 0.5082 (Simulation time: 00 hr 37 min 49 sec)
Heartbeat CPU 0 instructions: 195000954 cycles: 298588836 heartbeat IPC: 0.5122 cumulative IPC: 0.5082 (Simulation time: 00 hr 37 min 55 sec)
Heartbeat CPU 0 instructions: 195500955 cycles: 299873026 heartbeat IPC: 0.3894 cumulative IPC: 0.5077 (Simulation time: 00 hr 38 min 02 sec)
Heartbeat CPU 0 instructions: 196000956 cycles: 300684752 heartbeat IPC: 0.616 cumulative IPC: 0.508 (Simulation time: 00 hr 38 min 07 sec)
Heartbeat CPU 0 instructions: 196500956 cycles: 302264857 heartbeat IPC: 0.3164 cumulative IPC: 0.5069 (Simulation time: 00 hr 38 min 16 sec)
Heartbeat CPU 0 instructions: 197000957 cycles: 303312144 heartbeat IPC: 0.4774 cumulative IPC: 0.5068 (Simulation time: 00 hr 38 min 23 sec)
Heartbeat CPU 0 instructions: 197500958 cycles: 303995521 heartbeat IPC: 0.7317 cumulative IPC: 0.5073 (Simulation time: 00 hr 38 min 27 sec)
Heartbeat CPU 0 instructions: 198000962 cycles: 304373552 heartbeat IPC: 1.323 cumulative IPC: 0.5084 (Simulation time: 00 hr 38 min 30 sec)
Heartbeat CPU 0 instructions: 198500964 cycles: 305221291 heartbeat IPC: 0.5898 cumulative IPC: 0.5086 (Simulation time: 00 hr 38 min 35 sec)
Heartbeat CPU 0 instructions: 199000964 cycles: 306396731 heartbeat IPC: 0.4254 cumulative IPC: 0.5083 (Simulation time: 00 hr 38 min 42 sec)
Heartbeat CPU 0 instructions: 199500970 cycles: 308358444 heartbeat IPC: 0.2549 cumulative IPC: 0.5066 (Simulation time: 00 hr 38 min 53 sec)
Heartbeat CPU 0 instructions: 200000971 cycles: 309461611 heartbeat IPC: 0.4532 cumulative IPC: 0.5064 (Simulation time: 00 hr 39 min 00 sec)
Heartbeat CPU 0 instructions: 200500976 cycles: 311091239 heartbeat IPC: 0.3068 cumulative IPC: 0.5053 (Simulation time: 00 hr 39 min 09 sec)
Heartbeat CPU 0 instructions: 201000983 cycles: 312006160 heartbeat IPC: 0.5465 cumulative IPC: 0.5055 (Simulation time: 00 hr 39 min 15 sec)
Heartbeat CPU 0 instructions: 201500984 cycles: 313127144 heartbeat IPC: 0.446 cumulative IPC: 0.5052 (Simulation time: 00 hr 39 min 21 sec)
Heartbeat CPU 0 instructions: 202000984 cycles: 314911429 heartbeat IPC: 0.2802 cumulative IPC: 0.5039 (Simulation time: 00 hr 39 min 31 sec)
Heartbeat CPU 0 instructions: 202500986 cycles: 315525516 heartbeat IPC: 0.8142 cumulative IPC: 0.5045 (Simulation time: 00 hr 39 min 35 sec)
Heartbeat CPU 0 instructions: 203000986 cycles: 316229288 heartbeat IPC: 0.7105 cumulative IPC: 0.505 (Simulation time: 00 hr 39 min 39 sec)
Heartbeat CPU 0 instructions: 203500988 cycles: 316849188 heartbeat IPC: 0.8066 cumulative IPC: 0.5056 (Simulation time: 00 hr 39 min 43 sec)
Heartbeat CPU 0 instructions: 204000991 cycles: 318133992 heartbeat IPC: 0.3892 cumulative IPC: 0.5051 (Simulation time: 00 hr 39 min 51 sec)
Heartbeat CPU 0 instructions: 204500992 cycles: 319810151 heartbeat IPC: 0.2983 cumulative IPC: 0.504 (Simulation time: 00 hr 40 min 00 sec)
Heartbeat CPU 0 instructions: 205000992 cycles: 320382013 heartbeat IPC: 0.8743 cumulative IPC: 0.5047 (Simulation time: 00 hr 40 min 04 sec)
Heartbeat CPU 0 instructions: 205500998 cycles: 321202298 heartbeat IPC: 0.6096 cumulative IPC: 0.505 (Simulation time: 00 hr 40 min 09 sec)
Heartbeat CPU 0 instructions: 206001004 cycles: 322654664 heartbeat IPC: 0.3443 cumulative IPC: 0.5042 (Simulation time: 00 hr 40 min 17 sec)
Heartbeat CPU 0 instructions: 206501004 cycles: 323375745 heartbeat IPC: 0.6934 cumulative IPC: 0.5047 (Simulation time: 00 hr 40 min 22 sec)
Heartbeat CPU 0 instructions: 207001005 cycles: 323951448 heartbeat IPC: 0.8685 cumulative IPC: 0.5053 (Simulation time: 00 hr 40 min 25 sec)
Heartbeat CPU 0 instructions: 207501005 cycles: 324300771 heartbeat IPC: 1.431 cumulative IPC: 0.5064 (Simulation time: 00 hr 40 min 28 sec)
Heartbeat CPU 0 instructions: 208001006 cycles: 325138883 heartbeat IPC: 0.5966 cumulative IPC: 0.5066 (Simulation time: 00 hr 40 min 33 sec)
Heartbeat CPU 0 instructions: 208501007 cycles: 327145459 heartbeat IPC: 0.2492 cumulative IPC: 0.505 (Simulation time: 00 hr 40 min 44 sec)
Heartbeat CPU 0 instructions: 209001009 cycles: 328094390 heartbeat IPC: 0.5269 cumulative IPC: 0.505 (Simulation time: 00 hr 40 min 50 sec)
Heartbeat CPU 0 instructions: 209501009 cycles: 329597158 heartbeat IPC: 0.3327 cumulative IPC: 0.5042 (Simulation time: 00 hr 40 min 59 sec)
Heartbeat CPU 0 instructions: 210001009 cycles: 330394355 heartbeat IPC: 0.6272 cumulative IPC: 0.5045 (Simulation time: 00 hr 41 min 04 sec)
Heartbeat CPU 0 instructions: 210501009 cycles: 330735844 heartbeat IPC: 1.464 cumulative IPC: 0.5056 (Simulation time: 00 hr 41 min 07 sec)
Heartbeat CPU 0 instructions: 211001011 cycles: 331033303 heartbeat IPC: 1.681 cumulative IPC: 0.5067 (Simulation time: 00 hr 41 min 09 sec)
Heartbeat CPU 0 instructions: 211501011 cycles: 331950964 heartbeat IPC: 0.5449 cumulative IPC: 0.5068 (Simulation time: 00 hr 41 min 15 sec)
Heartbeat CPU 0 instructions: 212001012 cycles: 333061941 heartbeat IPC: 0.4501 cumulative IPC: 0.5066 (Simulation time: 00 hr 41 min 21 sec)
Heartbeat CPU 0 instructions: 212501012 cycles: 334173289 heartbeat IPC: 0.4499 cumulative IPC: 0.5064 (Simulation time: 00 hr 41 min 28 sec)
Heartbeat CPU 0 instructions: 213001013 cycles: 334637803 heartbeat IPC: 1.076 cumulative IPC: 0.5072 (Simulation time: 00 hr 41 min 31 sec)
Heartbeat CPU 0 instructions: 213501015 cycles: 335236408 heartbeat IPC: 0.8353 cumulative IPC: 0.5078 (Simulation time: 00 hr 41 min 35 sec)
Heartbeat CPU 0 instructions: 214001016 cycles: 336108362 heartbeat IPC: 0.5734 cumulative IPC: 0.508 (Simulation time: 00 hr 41 min 40 sec)
Heartbeat CPU 0 instructions: 214501018 cycles: 338684280 heartbeat IPC: 0.1941 cumulative IPC: 0.5055 (Simulation time: 00 hr 41 min 55 sec)
Heartbeat CPU 0 instructions: 215001018 cycles: 340019958 heartbeat IPC: 0.3743 cumulative IPC: 0.505 (Simulation time: 00 hr 42 min 03 sec)
Heartbeat CPU 0 instructions: 215501023 cycles: 340846209 heartbeat IPC: 0.6051 cumulative IPC: 0.5052 (Simulation time: 00 hr 42 min 08 sec)
Heartbeat CPU 0 instructions: 216001025 cycles: 341861315 heartbeat IPC: 0.4926 cumulative IPC: 0.5052 (Simulation time: 00 hr 42 min 14 sec)
Heartbeat CPU 0 instructions: 216501030 cycles: 342673687 heartbeat IPC: 0.6155 cumulative IPC: 0.5055 (Simulation time: 00 hr 42 min 19 sec)
Heartbeat CPU 0 instructions: 217001030 cycles: 343460405 heartbeat IPC: 0.6356 cumulative IPC: 0.5058 (Simulation time: 00 hr 42 min 24 sec)
Heartbeat CPU 0 instructions: 217501034 cycles: 344102297 heartbeat IPC: 0.779 cumulative IPC: 0.5063 (Simulation time: 00 hr 42 min 28 sec)
Heartbeat CPU 0 instructions: 218001035 cycles: 345735790 heartbeat IPC: 0.3061 cumulative IPC: 0.5053 (Simulation time: 00 hr 42 min 37 sec)
Heartbeat CPU 0 instructions: 218501035 cycles: 347005423 heartbeat IPC: 0.3938 cumulative IPC: 0.5049 (Simulation time: 00 hr 42 min 45 sec)
Heartbeat CPU 0 instructions: 219001037 cycles: 347357438 heartbeat IPC: 1.42 cumulative IPC: 0.5059 (Simulation time: 00 hr 42 min 47 sec)
Heartbeat CPU 0 instructions: 219501038 cycles: 348072759 heartbeat IPC: 0.699 cumulative IPC: 0.5063 (Simulation time: 00 hr 42 min 52 sec)
Heartbeat CPU 0 instructions: 220001040 cycles: 349979731 heartbeat IPC: 0.2622 cumulative IPC: 0.5049 (Simulation time: 00 hr 43 min 03 sec)
Heartbeat CPU 0 instructions: 220501040 cycles: 351061058 heartbeat IPC: 0.4624 cumulative IPC: 0.5047 (Simulation time: 00 hr 43 min 09 sec)
Heartbeat CPU 0 instructions: 221001042 cycles: 351902056 heartbeat IPC: 0.5945 cumulative IPC: 0.505 (Simulation time: 00 hr 43 min 14 sec)
Heartbeat CPU 0 instructions: 221501042 cycles: 353104402 heartbeat IPC: 0.4159 cumulative IPC: 0.5047 (Simulation time: 00 hr 43 min 21 sec)
Heartbeat CPU 0 instructions: 222001046 cycles: 354331892 heartbeat IPC: 0.4073 cumulative IPC: 0.5043 (Simulation time: 00 hr 43 min 28 sec)
Heartbeat CPU 0 instructions: 222501048 cycles: 355099997 heartbeat IPC: 0.651 cumulative IPC: 0.5046 (Simulation time: 00 hr 43 min 33 sec)
Heartbeat CPU 0 instructions: 223001055 cycles: 355764581 heartbeat IPC: 0.7524 cumulative IPC: 0.5051 (Simulation time: 00 hr 43 min 37 sec)
Heartbeat CPU 0 instructions: 223501056 cycles: 356660824 heartbeat IPC: 0.5579 cumulative IPC: 0.5053 (Simulation time: 00 hr 43 min 43 sec)
Heartbeat CPU 0 instructions: 224001056 cycles: 357502825 heartbeat IPC: 0.5938 cumulative IPC: 0.5055 (Simulation time: 00 hr 43 min 48 sec)
Heartbeat CPU 0 instructions: 224501056 cycles: 359269974 heartbeat IPC: 0.2829 cumulative IPC: 0.5043 (Simulation time: 00 hr 43 min 58 sec)
Heartbeat CPU 0 instructions: 225001057 cycles: 361165086 heartbeat IPC: 0.2638 cumulative IPC: 0.503 (Simulation time: 00 hr 44 min 08 sec)
Heartbeat CPU 0 instructions: 225501058 cycles: 362171545 heartbeat IPC: 0.4968 cumulative IPC: 0.503 (Simulation time: 00 hr 44 min 15 sec)
Heartbeat CPU 0 instructions: 226001060 cycles: 363607326 heartbeat IPC: 0.3482 cumulative IPC: 0.5024 (Simulation time: 00 hr 44 min 23 sec)
Heartbeat CPU 0 instructions: 226501060 cycles: 365191714 heartbeat IPC: 0.3156 cumulative IPC: 0.5015 (Simulation time: 00 hr 44 min 33 sec)
Heartbeat CPU 0 instructions: 227001064 cycles: 366520304 heartbeat IPC: 0.3763 cumulative IPC: 0.5011 (Simulation time: 00 hr 44 min 40 sec)
Heartbeat CPU 0 instructions: 227501064 cycles: 367215315 heartbeat IPC: 0.7194 cumulative IPC: 0.5015 (Simulation time: 00 hr 44 min 45 sec)
Heartbeat CPU 0 instructions: 228001070 cycles: 368197745 heartbeat IPC: 0.5089 cumulative IPC: 0.5015 (Simulation time: 00 hr 44 min 50 sec)
Heartbeat CPU 0 instructions: 228501070 cycles: 368745604 heartbeat IPC: 0.9126 cumulative IPC: 0.5021 (Simulation time: 00 hr 44 min 54 sec)
Heartbeat CPU 0 instructions: 229001071 cycles: 370641259 heartbeat IPC: 0.2638 cumulative IPC: 0.5009 (Simulation time: 00 hr 45 min 05 sec)
Heartbeat CPU 0 instructions: 229501077 cycles: 372721464 heartbeat IPC: 0.2404 cumulative IPC: 0.4994 (Simulation time: 00 hr 45 min 16 sec)
Heartbeat CPU 0 instructions: 230001079 cycles: 373507332 heartbeat IPC: 0.6362 cumulative IPC: 0.4997 (Simulation time: 00 hr 45 min 21 sec)
Heartbeat CPU 0 instructions: 230501080 cycles: 374178599 heartbeat IPC: 0.7449 cumulative IPC: 0.5001 (Simulation time: 00 hr 45 min 25 sec)
Heartbeat CPU 0 instructions: 231001081 cycles: 375522882 heartbeat IPC: 0.3719 cumulative IPC: 0.4996 (Simulation time: 00 hr 45 min 33 sec)
Heartbeat CPU 0 instructions: 231501088 cycles: 376456693 heartbeat IPC: 0.5354 cumulative IPC: 0.4997 (Simulation time: 00 hr 45 min 39 sec)
Heartbeat CPU 0 instructions: 232001089 cycles: 377462559 heartbeat IPC: 0.4971 cumulative IPC: 0.4997 (Simulation time: 00 hr 45 min 44 sec)
Heartbeat CPU 0 instructions: 232501092 cycles: 378750630 heartbeat IPC: 0.3882 cumulative IPC: 0.4993 (Simulation time: 00 hr 45 min 52 sec)
Heartbeat CPU 0 instructions: 233001092 cycles: 379721313 heartbeat IPC: 0.5151 cumulative IPC: 0.4994 (Simulation time: 00 hr 45 min 58 sec)
Heartbeat CPU 0 instructions: 233501092 cycles: 380749836 heartbeat IPC: 0.4861 cumulative IPC: 0.4993 (Simulation time: 00 hr 46 min 04 sec)
Heartbeat CPU 0 instructions: 234001094 cycles: 383253124 heartbeat IPC: 0.1997 cumulative IPC: 0.4973 (Simulation time: 00 hr 46 min 17 sec)
Heartbeat CPU 0 instructions: 234501096 cycles: 384771118 heartbeat IPC: 0.3294 cumulative IPC: 0.4966 (Simulation time: 00 hr 46 min 26 sec)
Heartbeat CPU 0 instructions: 235001098 cycles: 385643661 heartbeat IPC: 0.573 cumulative IPC: 0.4968 (Simulation time: 00 hr 46 min 32 sec)
Heartbeat CPU 0 instructions: 235501098 cycles: 386373605 heartbeat IPC: 0.685 cumulative IPC: 0.4972 (Simulation time: 00 hr 46 min 36 sec)
Heartbeat CPU 0 instructions: 236001099 cycles: 386725255 heartbeat IPC: 1.422 cumulative IPC: 0.498 (Simulation time: 00 hr 46 min 39 sec)
Heartbeat CPU 0 instructions: 236501102 cycles: 387301375 heartbeat IPC: 0.8679 cumulative IPC: 0.4986 (Simulation time: 00 hr 46 min 42 sec)
Heartbeat CPU 0 instructions: 237001102 cycles: 387910587 heartbeat IPC: 0.8207 cumulative IPC: 0.4991 (Simulation time: 00 hr 46 min 46 sec)
Heartbeat CPU 0 instructions: 237501108 cycles: 388961858 heartbeat IPC: 0.4756 cumulative IPC: 0.4991 (Simulation time: 00 hr 46 min 53 sec)
Heartbeat CPU 0 instructions: 238001114 cycles: 390642112 heartbeat IPC: 0.2976 cumulative IPC: 0.4982 (Simulation time: 00 hr 47 min 02 sec)
Heartbeat CPU 0 instructions: 238501115 cycles: 391597118 heartbeat IPC: 0.5236 cumulative IPC: 0.4982 (Simulation time: 00 hr 47 min 08 sec)
Heartbeat CPU 0 instructions: 239001116 cycles: 393004699 heartbeat IPC: 0.3552 cumulative IPC: 0.4977 (Simulation time: 00 hr 47 min 16 sec)
Heartbeat CPU 0 instructions: 239501117 cycles: 393883981 heartbeat IPC: 0.5686 cumulative IPC: 0.4979 (Simulation time: 00 hr 47 min 22 sec)
Heartbeat CPU 0 instructions: 240001118 cycles: 394575438 heartbeat IPC: 0.7231 cumulative IPC: 0.4983 (Simulation time: 00 hr 47 min 26 sec)
Heartbeat CPU 0 instructions: 240501119 cycles: 395378366 heartbeat IPC: 0.6227 cumulative IPC: 0.4985 (Simulation time: 00 hr 47 min 31 sec)
Heartbeat CPU 0 instructions: 241001120 cycles: 395871176 heartbeat IPC: 1.015 cumulative IPC: 0.4992 (Simulation time: 00 hr 47 min 35 sec)
Heartbeat CPU 0 instructions: 241501120 cycles: 397525021 heartbeat IPC: 0.3023 cumulative IPC: 0.4984 (Simulation time: 00 hr 47 min 44 sec)
Heartbeat CPU 0 instructions: 242001123 cycles: 399644625 heartbeat IPC: 0.2359 cumulative IPC: 0.4969 (Simulation time: 00 hr 47 min 56 sec)
Heartbeat CPU 0 instructions: 242501123 cycles: 400979996 heartbeat IPC: 0.3744 cumulative IPC: 0.4965 (Simulation time: 00 hr 48 min 04 sec)
Heartbeat CPU 0 instructions: 243001130 cycles: 402754910 heartbeat IPC: 0.2817 cumulative IPC: 0.4955 (Simulation time: 00 hr 48 min 14 sec)
Heartbeat CPU 0 instructions: 243501131 cycles: 403818916 heartbeat IPC: 0.4699 cumulative IPC: 0.4955 (Simulation time: 00 hr 48 min 21 sec)
Heartbeat CPU 0 instructions: 244001131 cycles: 404750370 heartbeat IPC: 0.5368 cumulative IPC: 0.4956 (Simulation time: 00 hr 48 min 27 sec)
Heartbeat CPU 0 instructions: 244501138 cycles: 406823031 heartbeat IPC: 0.2412 cumulative IPC: 0.4942 (Simulation time: 00 hr 48 min 39 sec)
Heartbeat CPU 0 instructions: 245001140 cycles: 407985439 heartbeat IPC: 0.4301 cumulative IPC: 0.494 (Simulation time: 00 hr 48 min 46 sec)
Heartbeat CPU 0 instructions: 245501146 cycles: 409081934 heartbeat IPC: 0.456 cumulative IPC: 0.4939 (Simulation time: 00 hr 48 min 52 sec)
Heartbeat CPU 0 instructions: 246001146 cycles: 411225228 heartbeat IPC: 0.2333 cumulative IPC: 0.4925 (Simulation time: 00 hr 49 min 04 sec)
Heartbeat CPU 0 instructions: 246501146 cycles: 413292443 heartbeat IPC: 0.2419 cumulative IPC: 0.4912 (Simulation time: 00 hr 49 min 15 sec)
Heartbeat CPU 0 instructions: 247001146 cycles: 414421067 heartbeat IPC: 0.443 cumulative IPC: 0.4911 (Simulation time: 00 hr 49 min 22 sec)
Heartbeat CPU 0 instructions: 247501153 cycles: 415824639 heartbeat IPC: 0.3562 cumulative IPC: 0.4906 (Simulation time: 00 hr 49 min 30 sec)
Heartbeat CPU 0 instructions: 248001159 cycles: 418423828 heartbeat IPC: 0.1924 cumulative IPC: 0.4887 (Simulation time: 00 hr 49 min 44 sec)
Heartbeat CPU 0 instructions: 248501160 cycles: 419848459 heartbeat IPC: 0.351 cumulative IPC: 0.4882 (Simulation time: 00 hr 49 min 52 sec)
Heartbeat CPU 0 instructions: 249001163 cycles: 420721519 heartbeat IPC: 0.5727 cumulative IPC: 0.4884 (Simulation time: 00 hr 49 min 57 sec)
Heartbeat CPU 0 instructions: 249501169 cycles: 421740009 heartbeat IPC: 0.4909 cumulative IPC: 0.4884 (Simulation time: 00 hr 50 min 03 sec)
Simulation finished CPU 0 instructions: 200000002 cycles: 410174420 cumulative IPC: 0.4876 (Simulation time: 00 hr 50 min 12 sec)
Simulation complete CPU 0 instructions: 200000002 cycles: 410174420 cumulative IPC: 0.4876 (Simulation time: 00 hr 50 min 12 sec)

ChampSim completed all CPUs

=== Simulation ===
CPU 0 runs /local-ssd/ben/dpc4-traces/gtraces_v2/yankee_0003.champsim.gz

Region of Interest Statistics

CPU 0 cumulative IPC: 0.4876 instructions: 200000002 cycles: 410174420
CPU 0 Branch Prediction Accuracy: 88.49% MPKI: 21.3 Average ROB Occupancy at Mispredict: 21.72
Branch type MPKI
BRANCH_DIRECT_JUMP: 0.9222
BRANCH_INDIRECT: 0.5046
BRANCH_CONDITIONAL: 16.95
BRANCH_DIRECT_CALL: 1.572
BRANCH_INDIRECT_CALL: 0.4834
BRANCH_RETURN: 0.8707

cpu0->cpu0_STLB TOTAL        ACCESS:    1654364 HIT:    1130698 MISS:     523666 MSHR_MERGE:          0
cpu0->cpu0_STLB LOAD         ACCESS:    1654364 HIT:    1130698 MISS:     523666 MSHR_MERGE:          0
cpu0->cpu0_STLB RFO          ACCESS:          0 HIT:          0 MISS:          0 MSHR_MERGE:          0
cpu0->cpu0_STLB PREFETCH     ACCESS:          0 HIT:          0 MISS:          0 MSHR_MERGE:          0
cpu0->cpu0_STLB WRITE        ACCESS:          0 HIT:          0 MISS:          0 MSHR_MERGE:          0
cpu0->cpu0_STLB TRANSLATION  ACCESS:          0 HIT:          0 MISS:          0 MSHR_MERGE:          0
cpu0->cpu0_STLB PREFETCH REQUESTED:          0 ISSUED:          0 USEFUL:          0 USELESS:          0
cpu0->cpu0_STLB AVERAGE MISS LATENCY: 171 cycles
cpu0->cpu0_L2C TOTAL        ACCESS:   14189734 HIT:    9011136 MISS:    5178598 MSHR_MERGE:     730021
cpu0->cpu0_L2C LOAD         ACCESS:    3883288 HIT:    1888629 MISS:    1994659 MSHR_MERGE:      25683
cpu0->cpu0_L2C RFO          ACCESS:     733688 HIT:     241582 MISS:     492106 MSHR_MERGE:       8997
cpu0->cpu0_L2C PREFETCH     ACCESS:    7748639 HIT:    5334951 MISS:    2413688 MSHR_MERGE:     695341
cpu0->cpu0_L2C WRITE        ACCESS:    1223308 HIT:    1223298 MISS:         10 MSHR_MERGE:          0
cpu0->cpu0_L2C TRANSLATION  ACCESS:     600811 HIT:     322676 MISS:     278135 MSHR_MERGE:          0
cpu0->cpu0_L2C PREFETCH REQUESTED:    6775747 ISSUED:    6480249 USEFUL:     584365 USELESS:     777434
cpu0->cpu0_L2C AVERAGE MISS LATENCY: 182.9 cycles
cpu0->cpu0_L1I TOTAL        ACCESS:   13250371 HIT:   10378712 MISS:    2871659 MSHR_MERGE:     642365
cpu0->cpu0_L1I LOAD         ACCESS:   13250371 HIT:   10378712 MISS:    2871659 MSHR_MERGE:     642365
cpu0->cpu0_L1I RFO          ACCESS:          0 HIT:          0 MISS:          0 MSHR_MERGE:          0
cpu0->cpu0_L1I PREFETCH     ACCESS:          0 HIT:          0 MISS:          0 MSHR_MERGE:          0
cpu0->cpu0_L1I WRITE        ACCESS:          0 HIT:          0 MISS:          0 MSHR_MERGE:          0
cpu0->cpu0_L1I TRANSLATION  ACCESS:          0 HIT:          0 MISS:          0 MSHR_MERGE:          0
cpu0->cpu0_L1I PREFETCH REQUESTED:          0 ISSUED:          0 USEFUL:          0 USELESS:          0
cpu0->cpu0_L1I AVERAGE MISS LATENCY: 114.5 cycles
cpu0->cpu0_L1D TOTAL        ACCESS:   61342627 HIT:   54421388 MISS:    6921239 MSHR_MERGE:    2664325
cpu0->cpu0_L1D LOAD         ACCESS:   34633899 HIT:   32475694 MISS:    2158205 MSHR_MERGE:     504205
cpu0->cpu0_L1D RFO          ACCESS:          0 HIT:          0 MISS:          0 MSHR_MERGE:          0
cpu0->cpu0_L1D PREFETCH     ACCESS:    2199444 HIT:     869836 MISS:    1329608 MSHR_MERGE:      61214
cpu0->cpu0_L1D WRITE        ACCESS:   23149874 HIT:   20321032 MISS:    2828842 MSHR_MERGE:    2095133
cpu0->cpu0_L1D TRANSLATION  ACCESS:    1359410 HIT:     754826 MISS:     604584 MSHR_MERGE:       3773
cpu0->cpu0_L1D PREFETCH REQUESTED:    2219534 ISSUED:    2199441 USEFUL:     644617 USELESS:     623736
cpu0->cpu0_L1D AVERAGE MISS LATENCY: 97.95 cycles
cpu0->cpu0_ITLB TOTAL        ACCESS:   10681363 HIT:   10433700 MISS:     247663 MSHR_MERGE:     121034
cpu0->cpu0_ITLB LOAD         ACCESS:   10681363 HIT:   10433700 MISS:     247663 MSHR_MERGE:     121034
cpu0->cpu0_ITLB RFO          ACCESS:          0 HIT:          0 MISS:          0 MSHR_MERGE:          0
cpu0->cpu0_ITLB PREFETCH     ACCESS:          0 HIT:          0 MISS:          0 MSHR_MERGE:          0
cpu0->cpu0_ITLB WRITE        ACCESS:          0 HIT:          0 MISS:          0 MSHR_MERGE:          0
cpu0->cpu0_ITLB TRANSLATION  ACCESS:          0 HIT:          0 MISS:          0 MSHR_MERGE:          0
cpu0->cpu0_ITLB PREFETCH REQUESTED:          0 ISSUED:          0 USEFUL:          0 USELESS:          0
cpu0->cpu0_ITLB AVERAGE MISS LATENCY: 35.26 cycles
cpu0->cpu0_DTLB TOTAL        ACCESS:   57219885 HIT:   54572694 MISS:    2647191 MSHR_MERGE:    1119456
cpu0->cpu0_DTLB LOAD         ACCESS:   57219885 HIT:   54572694 MISS:    2647191 MSHR_MERGE:    1119456
cpu0->cpu0_DTLB RFO          ACCESS:          0 HIT:          0 MISS:          0 MSHR_MERGE:          0
cpu0->cpu0_DTLB PREFETCH     ACCESS:          0 HIT:          0 MISS:          0 MSHR_MERGE:          0
cpu0->cpu0_DTLB WRITE        ACCESS:          0 HIT:          0 MISS:          0 MSHR_MERGE:          0
cpu0->cpu0_DTLB TRANSLATION  ACCESS:          0 HIT:          0 MISS:          0 MSHR_MERGE:          0
cpu0->cpu0_DTLB PREFETCH REQUESTED:          0 ISSUED:          0 USEFUL:          0 USELESS:          0
cpu0->cpu0_DTLB AVERAGE MISS LATENCY: 61.44 cycles
cpu0->LLC TOTAL        ACCESS:    5736073 HIT:    1352765 MISS:    4383308 MSHR_MERGE:      52070
cpu0->LLC LOAD         ACCESS:    1968976 HIT:     670344 MISS:    1298632 MSHR_MERGE:        866
cpu0->LLC RFO          ACCESS:     483109 HIT:      24951 MISS:     458158 MSHR_MERGE:        280
cpu0->LLC PREFETCH     ACCESS:    2134008 HIT:     460630 MISS:    1673378 MSHR_MERGE:      50924
cpu0->LLC WRITE        ACCESS:     871845 HIT:     152275 MISS:     719570 MSHR_MERGE:          0
cpu0->LLC TRANSLATION  ACCESS:     278135 HIT:      44565 MISS:     233570 MSHR_MERGE:          0
cpu0->LLC PREFETCH REQUESTED:     415661 ISSUED:     415661 USEFUL:      38934 USELESS:     223032
cpu0->LLC AVERAGE MISS LATENCY: 166.3 cycles

DRAM Statistics

Channel 0 RQ ROW_BUFFER_HIT:      98364
  ROW_BUFFER_MISS:    3513258
  AVG DBUS CONGESTED CYCLE: 24.73
Channel 0 WQ ROW_BUFFER_HIT:     215197
  ROW_BUFFER_MISS:     579418
  FULL:          0
Channel 0 REFRESHES ISSUED:      34179
