[VMEM] WARNING: physical memory size is smaller than virtual memory size.

*** ChampSim Multicore Out-of-Order Simulator ***
Warmup Instructions: 50000000
Simulation Instructions: 200000000
Number of CPUs: 1
Page size: 4096
Core 0: /local-ssd/ben/dpc4-traces/gtraces_v2/yankee_0004.champsim.gz
 L1D Berti prefetcher
Off-chip DRAM Size: 64 GiB Channels: 1 Width: 64-bit Data Rate: 4807 MT/s
Heartbeat CPU 0 instructions: 500004 cycles: 263879 heartbeat IPC: 1.895 cumulative IPC: 1.895 (Simulation time: 00 hr 00 min 05 sec)
[BTB] WARNING: target of return is a lower address than the corresponding call. This is usually a problem with your trace.
[BTB] WARNING: target of return is a lower address than the corresponding call. This is usually a problem with your trace.
[BTB] WARNING: target of return is a lower address than the corresponding call. This is usually a problem with your trace.
[BTB] WARNING: target of return is a lower address than the corresponding call. This is usually a problem with your trace.
[BTB] WARNING: target of return is a lower address than the corresponding call. This is usually a problem with your trace.
[BTB] WARNING: target of return is a lower address than the corresponding call. This is usually a problem with your trace.
[BTB] WARNING: target of return is a lower address than the corresponding call. This is usually a problem with your trace.
Heartbeat CPU 0 instructions: 1000005 cycles: 484083 heartbeat IPC: 2.271 cumulative IPC: 2.066 (Simulation time: 00 hr 00 min 08 sec)
[BTB] WARNING: target of return is a lower address than the corresponding call. This is usually a problem with your trace.
[BTB] WARNING: target of return is a lower address than the corresponding call. This is usually a problem with your trace.
[BTB] WARNING: target of return is a lower address than the corresponding call. This is usually a problem with your trace.
Heartbeat CPU 0 instructions: 1500009 cycles: 668840 heartbeat IPC: 2.706 cumulative IPC: 2.243 (Simulation time: 00 hr 00 min 12 sec)
Heartbeat CPU 0 instructions: 2000012 cycles: 841110 heartbeat IPC: 2.902 cumulative IPC: 2.378 (Simulation time: 00 hr 00 min 15 sec)
Heartbeat CPU 0 instructions: 2500012 cycles: 985514 heartbeat IPC: 3.463 cumulative IPC: 2.537 (Simulation time: 00 hr 00 min 17 sec)
Heartbeat CPU 0 instructions: 3000018 cycles: 1147686 heartbeat IPC: 3.083 cumulative IPC: 2.614 (Simulation time: 00 hr 00 min 20 sec)
Heartbeat CPU 0 instructions: 3500018 cycles: 1320146 heartbeat IPC: 2.899 cumulative IPC: 2.651 (Simulation time: 00 hr 00 min 23 sec)
Heartbeat CPU 0 instructions: 4000019 cycles: 1449296 heartbeat IPC: 3.871 cumulative IPC: 2.76 (Simulation time: 00 hr 00 min 26 sec)
Heartbeat CPU 0 instructions: 4500019 cycles: 1575345 heartbeat IPC: 3.967 cumulative IPC: 2.857 (Simulation time: 00 hr 00 min 28 sec)
Heartbeat CPU 0 instructions: 5000020 cycles: 1720784 heartbeat IPC: 3.438 cumulative IPC: 2.906 (Simulation time: 00 hr 00 min 31 sec)
Heartbeat CPU 0 instructions: 5500020 cycles: 1840711 heartbeat IPC: 4.169 cumulative IPC: 2.988 (Simulation time: 00 hr 00 min 33 sec)
Heartbeat CPU 0 instructions: 6000021 cycles: 1975872 heartbeat IPC: 3.699 cumulative IPC: 3.037 (Simulation time: 00 hr 00 min 36 sec)
Heartbeat CPU 0 instructions: 6500023 cycles: 2108436 heartbeat IPC: 3.772 cumulative IPC: 3.083 (Simulation time: 00 hr 00 min 38 sec)
Heartbeat CPU 0 instructions: 7000028 cycles: 2235014 heartbeat IPC: 3.95 cumulative IPC: 3.132 (Simulation time: 00 hr 00 min 41 sec)
Heartbeat CPU 0 instructions: 7500029 cycles: 2377998 heartbeat IPC: 3.497 cumulative IPC: 3.154 (Simulation time: 00 hr 00 min 44 sec)
Heartbeat CPU 0 instructions: 8000029 cycles: 2516458 heartbeat IPC: 3.611 cumulative IPC: 3.179 (Simulation time: 00 hr 00 min 46 sec)
Heartbeat CPU 0 instructions: 8500033 cycles: 2672021 heartbeat IPC: 3.214 cumulative IPC: 3.181 (Simulation time: 00 hr 00 min 49 sec)
Heartbeat CPU 0 instructions: 9000036 cycles: 2787413 heartbeat IPC: 4.333 cumulative IPC: 3.229 (Simulation time: 00 hr 00 min 51 sec)
Heartbeat CPU 0 instructions: 9500038 cycles: 2914734 heartbeat IPC: 3.927 cumulative IPC: 3.259 (Simulation time: 00 hr 00 min 54 sec)
Heartbeat CPU 0 instructions: 10000039 cycles: 3044160 heartbeat IPC: 3.863 cumulative IPC: 3.285 (Simulation time: 00 hr 00 min 56 sec)
Heartbeat CPU 0 instructions: 10500042 cycles: 3181017 heartbeat IPC: 3.653 cumulative IPC: 3.301 (Simulation time: 00 hr 00 min 59 sec)
Heartbeat CPU 0 instructions: 11000045 cycles: 3314361 heartbeat IPC: 3.75 cumulative IPC: 3.319 (Simulation time: 00 hr 01 min 01 sec)
Heartbeat CPU 0 instructions: 11500049 cycles: 3450485 heartbeat IPC: 3.673 cumulative IPC: 3.333 (Simulation time: 00 hr 01 min 04 sec)
Heartbeat CPU 0 instructions: 12000050 cycles: 3572051 heartbeat IPC: 4.113 cumulative IPC: 3.359 (Simulation time: 00 hr 01 min 06 sec)
Heartbeat CPU 0 instructions: 12500051 cycles: 3699250 heartbeat IPC: 3.931 cumulative IPC: 3.379 (Simulation time: 00 hr 01 min 09 sec)
Heartbeat CPU 0 instructions: 13000058 cycles: 3856493 heartbeat IPC: 3.18 cumulative IPC: 3.371 (Simulation time: 00 hr 01 min 12 sec)
Heartbeat CPU 0 instructions: 13500064 cycles: 3991934 heartbeat IPC: 3.692 cumulative IPC: 3.382 (Simulation time: 00 hr 01 min 14 sec)
Heartbeat CPU 0 instructions: 14000064 cycles: 4118749 heartbeat IPC: 3.943 cumulative IPC: 3.399 (Simulation time: 00 hr 01 min 17 sec)
Heartbeat CPU 0 instructions: 14500065 cycles: 4223176 heartbeat IPC: 4.788 cumulative IPC: 3.433 (Simulation time: 00 hr 01 min 19 sec)
Heartbeat CPU 0 instructions: 15000066 cycles: 4343294 heartbeat IPC: 4.163 cumulative IPC: 3.454 (Simulation time: 00 hr 01 min 21 sec)
Heartbeat CPU 0 instructions: 15500068 cycles: 4469960 heartbeat IPC: 3.947 cumulative IPC: 3.468 (Simulation time: 00 hr 01 min 23 sec)
Heartbeat CPU 0 instructions: 16000070 cycles: 4629855 heartbeat IPC: 3.127 cumulative IPC: 3.456 (Simulation time: 00 hr 01 min 27 sec)
Heartbeat CPU 0 instructions: 16500073 cycles: 4781655 heartbeat IPC: 3.294 cumulative IPC: 3.451 (Simulation time: 00 hr 01 min 30 sec)
Heartbeat CPU 0 instructions: 17000077 cycles: 4957133 heartbeat IPC: 2.849 cumulative IPC: 3.429 (Simulation time: 00 hr 01 min 33 sec)
Heartbeat CPU 0 instructions: 17500081 cycles: 5117520 heartbeat IPC: 3.117 cumulative IPC: 3.42 (Simulation time: 00 hr 01 min 36 sec)
Heartbeat CPU 0 instructions: 18000088 cycles: 5274907 heartbeat IPC: 3.177 cumulative IPC: 3.412 (Simulation time: 00 hr 01 min 39 sec)
Heartbeat CPU 0 instructions: 18500095 cycles: 5411690 heartbeat IPC: 3.655 cumulative IPC: 3.419 (Simulation time: 00 hr 01 min 42 sec)
Heartbeat CPU 0 instructions: 19000096 cycles: 5534466 heartbeat IPC: 4.072 cumulative IPC: 3.433 (Simulation time: 00 hr 01 min 44 sec)
Heartbeat CPU 0 instructions: 19500099 cycles: 5654104 heartbeat IPC: 4.179 cumulative IPC: 3.449 (Simulation time: 00 hr 01 min 46 sec)
Heartbeat CPU 0 instructions: 20000103 cycles: 5781049 heartbeat IPC: 3.939 cumulative IPC: 3.46 (Simulation time: 00 hr 01 min 49 sec)
Heartbeat CPU 0 instructions: 20500108 cycles: 5928722 heartbeat IPC: 3.386 cumulative IPC: 3.458 (Simulation time: 00 hr 01 min 52 sec)
Heartbeat CPU 0 instructions: 21000112 cycles: 6074714 heartbeat IPC: 3.425 cumulative IPC: 3.457 (Simulation time: 00 hr 01 min 54 sec)
Heartbeat CPU 0 instructions: 21500119 cycles: 6212648 heartbeat IPC: 3.625 cumulative IPC: 3.461 (Simulation time: 00 hr 01 min 57 sec)
Heartbeat CPU 0 instructions: 22000125 cycles: 6331066 heartbeat IPC: 4.222 cumulative IPC: 3.475 (Simulation time: 00 hr 01 min 59 sec)
Heartbeat CPU 0 instructions: 22500132 cycles: 6451057 heartbeat IPC: 4.167 cumulative IPC: 3.488 (Simulation time: 00 hr 02 min 01 sec)
Heartbeat CPU 0 instructions: 23000137 cycles: 6562501 heartbeat IPC: 4.487 cumulative IPC: 3.505 (Simulation time: 00 hr 02 min 03 sec)
Heartbeat CPU 0 instructions: 23500142 cycles: 6674540 heartbeat IPC: 4.463 cumulative IPC: 3.521 (Simulation time: 00 hr 02 min 05 sec)
Heartbeat CPU 0 instructions: 24000147 cycles: 6831593 heartbeat IPC: 3.184 cumulative IPC: 3.513 (Simulation time: 00 hr 02 min 08 sec)
Heartbeat CPU 0 instructions: 24500154 cycles: 6956099 heartbeat IPC: 4.016 cumulative IPC: 3.522 (Simulation time: 00 hr 02 min 11 sec)
Heartbeat CPU 0 instructions: 25000157 cycles: 7094674 heartbeat IPC: 3.608 cumulative IPC: 3.524 (Simulation time: 00 hr 02 min 13 sec)
Heartbeat CPU 0 instructions: 25500160 cycles: 7209356 heartbeat IPC: 4.36 cumulative IPC: 3.537 (Simulation time: 00 hr 02 min 15 sec)
Heartbeat CPU 0 instructions: 26000160 cycles: 7322846 heartbeat IPC: 4.406 cumulative IPC: 3.551 (Simulation time: 00 hr 02 min 17 sec)
Heartbeat CPU 0 instructions: 26500160 cycles: 7438242 heartbeat IPC: 4.333 cumulative IPC: 3.563 (Simulation time: 00 hr 02 min 19 sec)
Heartbeat CPU 0 instructions: 27000164 cycles: 7578327 heartbeat IPC: 3.569 cumulative IPC: 3.563 (Simulation time: 00 hr 02 min 22 sec)
Heartbeat CPU 0 instructions: 27500168 cycles: 7704684 heartbeat IPC: 3.957 cumulative IPC: 3.569 (Simulation time: 00 hr 02 min 25 sec)
Heartbeat CPU 0 instructions: 28000171 cycles: 7814522 heartbeat IPC: 4.552 cumulative IPC: 3.583 (Simulation time: 00 hr 02 min 27 sec)
Heartbeat CPU 0 instructions: 28500178 cycles: 7955349 heartbeat IPC: 3.551 cumulative IPC: 3.583 (Simulation time: 00 hr 02 min 29 sec)
Heartbeat CPU 0 instructions: 29000183 cycles: 8078518 heartbeat IPC: 4.06 cumulative IPC: 3.59 (Simulation time: 00 hr 02 min 32 sec)
Heartbeat CPU 0 instructions: 29500187 cycles: 8224782 heartbeat IPC: 3.419 cumulative IPC: 3.587 (Simulation time: 00 hr 02 min 35 sec)
Heartbeat CPU 0 instructions: 30000193 cycles: 8347104 heartbeat IPC: 4.088 cumulative IPC: 3.594 (Simulation time: 00 hr 02 min 37 sec)
Heartbeat CPU 0 instructions: 30500199 cycles: 8462078 heartbeat IPC: 4.349 cumulative IPC: 3.604 (Simulation time: 00 hr 02 min 39 sec)
Heartbeat CPU 0 instructions: 31000206 cycles: 8600538 heartbeat IPC: 3.611 cumulative IPC: 3.604 (Simulation time: 00 hr 02 min 42 sec)
Heartbeat CPU 0 instructions: 31500206 cycles: 8714295 heartbeat IPC: 4.395 cumulative IPC: 3.615 (Simulation time: 00 hr 02 min 44 sec)
Heartbeat CPU 0 instructions: 32000211 cycles: 8826929 heartbeat IPC: 4.439 cumulative IPC: 3.625 (Simulation time: 00 hr 02 min 46 sec)
Heartbeat CPU 0 instructions: 32500216 cycles: 8950129 heartbeat IPC: 4.058 cumulative IPC: 3.631 (Simulation time: 00 hr 02 min 48 sec)
Heartbeat CPU 0 instructions: 33000223 cycles: 9097976 heartbeat IPC: 3.382 cumulative IPC: 3.627 (Simulation time: 00 hr 02 min 51 sec)
Heartbeat CPU 0 instructions: 33500227 cycles: 9245333 heartbeat IPC: 3.393 cumulative IPC: 3.623 (Simulation time: 00 hr 02 min 54 sec)
Heartbeat CPU 0 instructions: 34000233 cycles: 9380024 heartbeat IPC: 3.712 cumulative IPC: 3.625 (Simulation time: 00 hr 02 min 57 sec)
Heartbeat CPU 0 instructions: 34500239 cycles: 9490580 heartbeat IPC: 4.523 cumulative IPC: 3.635 (Simulation time: 00 hr 02 min 59 sec)
Heartbeat CPU 0 instructions: 35000239 cycles: 9603789 heartbeat IPC: 4.417 cumulative IPC: 3.644 (Simulation time: 00 hr 03 min 01 sec)
Heartbeat CPU 0 instructions: 35500246 cycles: 9749255 heartbeat IPC: 3.437 cumulative IPC: 3.641 (Simulation time: 00 hr 03 min 04 sec)
Heartbeat CPU 0 instructions: 36000246 cycles: 9917075 heartbeat IPC: 2.979 cumulative IPC: 3.63 (Simulation time: 00 hr 03 min 07 sec)
Heartbeat CPU 0 instructions: 36500250 cycles: 10046486 heartbeat IPC: 3.864 cumulative IPC: 3.633 (Simulation time: 00 hr 03 min 10 sec)
Heartbeat CPU 0 instructions: 37000256 cycles: 10168255 heartbeat IPC: 4.106 cumulative IPC: 3.639 (Simulation time: 00 hr 03 min 12 sec)
Heartbeat CPU 0 instructions: 37500259 cycles: 10288125 heartbeat IPC: 4.171 cumulative IPC: 3.645 (Simulation time: 00 hr 03 min 14 sec)
Heartbeat CPU 0 instructions: 38000260 cycles: 10410839 heartbeat IPC: 4.075 cumulative IPC: 3.65 (Simulation time: 00 hr 03 min 17 sec)
Heartbeat CPU 0 instructions: 38500267 cycles: 10546826 heartbeat IPC: 3.677 cumulative IPC: 3.65 (Simulation time: 00 hr 03 min 20 sec)
Heartbeat CPU 0 instructions: 39000270 cycles: 10669190 heartbeat IPC: 4.086 cumulative IPC: 3.655 (Simulation time: 00 hr 03 min 22 sec)
Heartbeat CPU 0 instructions: 39500270 cycles: 10796898 heartbeat IPC: 3.915 cumulative IPC: 3.658 (Simulation time: 00 hr 03 min 24 sec)
Heartbeat CPU 0 instructions: 40000272 cycles: 10918758 heartbeat IPC: 4.103 cumulative IPC: 3.663 (Simulation time: 00 hr 03 min 27 sec)
Heartbeat CPU 0 instructions: 40500274 cycles: 11048245 heartbeat IPC: 3.861 cumulative IPC: 3.666 (Simulation time: 00 hr 03 min 29 sec)
Heartbeat CPU 0 instructions: 41000281 cycles: 11170324 heartbeat IPC: 4.096 cumulative IPC: 3.67 (Simulation time: 00 hr 03 min 31 sec)
Heartbeat CPU 0 instructions: 41500287 cycles: 11294458 heartbeat IPC: 4.028 cumulative IPC: 3.674 (Simulation time: 00 hr 03 min 34 sec)
Heartbeat CPU 0 instructions: 42000288 cycles: 11422003 heartbeat IPC: 3.92 cumulative IPC: 3.677 (Simulation time: 00 hr 03 min 36 sec)
Heartbeat CPU 0 instructions: 42500291 cycles: 11538101 heartbeat IPC: 4.307 cumulative IPC: 3.683 (Simulation time: 00 hr 03 min 38 sec)
Heartbeat CPU 0 instructions: 43000293 cycles: 11643205 heartbeat IPC: 4.757 cumulative IPC: 3.693 (Simulation time: 00 hr 03 min 40 sec)
Heartbeat CPU 0 instructions: 43500298 cycles: 11746455 heartbeat IPC: 4.843 cumulative IPC: 3.703 (Simulation time: 00 hr 03 min 42 sec)
Heartbeat CPU 0 instructions: 44000301 cycles: 11868013 heartbeat IPC: 4.113 cumulative IPC: 3.707 (Simulation time: 00 hr 03 min 45 sec)
Heartbeat CPU 0 instructions: 44500301 cycles: 12004134 heartbeat IPC: 3.673 cumulative IPC: 3.707 (Simulation time: 00 hr 03 min 47 sec)
Heartbeat CPU 0 instructions: 45000304 cycles: 12124122 heartbeat IPC: 4.167 cumulative IPC: 3.712 (Simulation time: 00 hr 03 min 49 sec)
Heartbeat CPU 0 instructions: 45500311 cycles: 12239829 heartbeat IPC: 4.321 cumulative IPC: 3.717 (Simulation time: 00 hr 03 min 51 sec)
Heartbeat CPU 0 instructions: 46000317 cycles: 12348960 heartbeat IPC: 4.582 cumulative IPC: 3.725 (Simulation time: 00 hr 03 min 54 sec)
Heartbeat CPU 0 instructions: 46500321 cycles: 12468931 heartbeat IPC: 4.168 cumulative IPC: 3.729 (Simulation time: 00 hr 03 min 56 sec)
Heartbeat CPU 0 instructions: 47000322 cycles: 12587526 heartbeat IPC: 4.216 cumulative IPC: 3.734 (Simulation time: 00 hr 03 min 58 sec)
Heartbeat CPU 0 instructions: 47500327 cycles: 12736755 heartbeat IPC: 3.351 cumulative IPC: 3.729 (Simulation time: 00 hr 04 min 01 sec)
Heartbeat CPU 0 instructions: 48000332 cycles: 12883886 heartbeat IPC: 3.398 cumulative IPC: 3.726 (Simulation time: 00 hr 04 min 04 sec)
Heartbeat CPU 0 instructions: 48500333 cycles: 12993311 heartbeat IPC: 4.569 cumulative IPC: 3.733 (Simulation time: 00 hr 04 min 06 sec)
Heartbeat CPU 0 instructions: 49000340 cycles: 13103843 heartbeat IPC: 4.524 cumulative IPC: 3.739 (Simulation time: 00 hr 04 min 08 sec)
Heartbeat CPU 0 instructions: 49500341 cycles: 13221865 heartbeat IPC: 4.237 cumulative IPC: 3.744 (Simulation time: 00 hr 04 min 10 sec)
Warmup halting CPU 0 at instruction 50000004 cycle 13355634 for remainder of phase
Warmup finished CPU 0 instructions: 50000004 cycles: 13355634 cumulative IPC: 3.744 (Simulation time: 00 hr 04 min 13 sec)
Warmup complete CPU 0 instructions: 50000004 cycles: 13355634 cumulative IPC: 3.744 (Simulation time: 00 hr 04 min 13 sec)
Heartbeat CPU 0 instructions: 50000341 cycles: 13355884 heartbeat IPC: 3.731 cumulative IPC: 1.348 (Simulation time: 00 hr 04 min 13 sec)
Heartbeat CPU 0 instructions: 50500341 cycles: 14396711 heartbeat IPC: 0.4804 cumulative IPC: 0.4806 (Simulation time: 00 hr 04 min 21 sec)
Heartbeat CPU 0 instructions: 51000341 cycles: 15287094 heartbeat IPC: 0.5616 cumulative IPC: 0.5179 (Simulation time: 00 hr 04 min 28 sec)
Heartbeat CPU 0 instructions: 51500345 cycles: 16567488 heartbeat IPC: 0.3905 cumulative IPC: 0.4671 (Simulation time: 00 hr 04 min 38 sec)
Heartbeat CPU 0 instructions: 52000352 cycles: 17118653 heartbeat IPC: 0.9072 cumulative IPC: 0.5316 (Simulation time: 00 hr 04 min 43 sec)
Heartbeat CPU 0 instructions: 52500354 cycles: 19007998 heartbeat IPC: 0.2646 cumulative IPC: 0.4424 (Simulation time: 00 hr 04 min 57 sec)
Heartbeat CPU 0 instructions: 53000354 cycles: 20158155 heartbeat IPC: 0.4347 cumulative IPC: 0.4411 (Simulation time: 00 hr 05 min 06 sec)
Heartbeat CPU 0 instructions: 53500354 cycles: 20968562 heartbeat IPC: 0.617 cumulative IPC: 0.4598 (Simulation time: 00 hr 05 min 12 sec)
Heartbeat CPU 0 instructions: 54000355 cycles: 22584188 heartbeat IPC: 0.3095 cumulative IPC: 0.4335 (Simulation time: 00 hr 05 min 25 sec)
Heartbeat CPU 0 instructions: 54500355 cycles: 24099047 heartbeat IPC: 0.3301 cumulative IPC: 0.4189 (Simulation time: 00 hr 05 min 36 sec)
Heartbeat CPU 0 instructions: 55000355 cycles: 25785815 heartbeat IPC: 0.2964 cumulative IPC: 0.4023 (Simulation time: 00 hr 05 min 48 sec)
Heartbeat CPU 0 instructions: 55500356 cycles: 26560970 heartbeat IPC: 0.645 cumulative IPC: 0.4165 (Simulation time: 00 hr 05 min 55 sec)
Heartbeat CPU 0 instructions: 56000363 cycles: 27602905 heartbeat IPC: 0.4799 cumulative IPC: 0.4212 (Simulation time: 00 hr 06 min 02 sec)
Heartbeat CPU 0 instructions: 56500364 cycles: 29062624 heartbeat IPC: 0.3425 cumulative IPC: 0.4139 (Simulation time: 00 hr 06 min 14 sec)
Heartbeat CPU 0 instructions: 57000371 cycles: 30128432 heartbeat IPC: 0.4691 cumulative IPC: 0.4174 (Simulation time: 00 hr 06 min 22 sec)
Heartbeat CPU 0 instructions: 57500372 cycles: 30913883 heartbeat IPC: 0.6366 cumulative IPC: 0.4272 (Simulation time: 00 hr 06 min 28 sec)
Heartbeat CPU 0 instructions: 58000374 cycles: 31580357 heartbeat IPC: 0.7502 cumulative IPC: 0.439 (Simulation time: 00 hr 06 min 34 sec)
Heartbeat CPU 0 instructions: 58500375 cycles: 32509411 heartbeat IPC: 0.5382 cumulative IPC: 0.4438 (Simulation time: 00 hr 06 min 41 sec)
Heartbeat CPU 0 instructions: 59000376 cycles: 33717888 heartbeat IPC: 0.4137 cumulative IPC: 0.442 (Simulation time: 00 hr 06 min 50 sec)
Heartbeat CPU 0 instructions: 59500376 cycles: 35028358 heartbeat IPC: 0.3815 cumulative IPC: 0.4384 (Simulation time: 00 hr 07 min 00 sec)
Heartbeat CPU 0 instructions: 60000376 cycles: 35564495 heartbeat IPC: 0.9326 cumulative IPC: 0.4503 (Simulation time: 00 hr 07 min 05 sec)
Heartbeat CPU 0 instructions: 60500376 cycles: 36578173 heartbeat IPC: 0.4933 cumulative IPC: 0.4522 (Simulation time: 00 hr 07 min 13 sec)
Heartbeat CPU 0 instructions: 61000377 cycles: 37430583 heartbeat IPC: 0.5866 cumulative IPC: 0.4569 (Simulation time: 00 hr 07 min 20 sec)
Heartbeat CPU 0 instructions: 61500379 cycles: 38687448 heartbeat IPC: 0.3978 cumulative IPC: 0.454 (Simulation time: 00 hr 07 min 29 sec)
Heartbeat CPU 0 instructions: 62000381 cycles: 39704712 heartbeat IPC: 0.4915 cumulative IPC: 0.4554 (Simulation time: 00 hr 07 min 37 sec)
Heartbeat CPU 0 instructions: 62500384 cycles: 40348842 heartbeat IPC: 0.7762 cumulative IPC: 0.4631 (Simulation time: 00 hr 07 min 43 sec)
Heartbeat CPU 0 instructions: 63000388 cycles: 40987548 heartbeat IPC: 0.7828 cumulative IPC: 0.4705 (Simulation time: 00 hr 07 min 48 sec)
Heartbeat CPU 0 instructions: 63500389 cycles: 42000769 heartbeat IPC: 0.4935 cumulative IPC: 0.4713 (Simulation time: 00 hr 07 min 56 sec)
Heartbeat CPU 0 instructions: 64000390 cycles: 43726861 heartbeat IPC: 0.2897 cumulative IPC: 0.461 (Simulation time: 00 hr 08 min 09 sec)
Heartbeat CPU 0 instructions: 64500391 cycles: 44557249 heartbeat IPC: 0.6021 cumulative IPC: 0.4647 (Simulation time: 00 hr 08 min 16 sec)
Heartbeat CPU 0 instructions: 65000393 cycles: 45505828 heartbeat IPC: 0.5271 cumulative IPC: 0.4666 (Simulation time: 00 hr 08 min 24 sec)
Heartbeat CPU 0 instructions: 65500393 cycles: 46017058 heartbeat IPC: 0.978 cumulative IPC: 0.4746 (Simulation time: 00 hr 08 min 29 sec)
Heartbeat CPU 0 instructions: 66000393 cycles: 47341150 heartbeat IPC: 0.3776 cumulative IPC: 0.4708 (Simulation time: 00 hr 08 min 39 sec)
Heartbeat CPU 0 instructions: 66500399 cycles: 49356083 heartbeat IPC: 0.2482 cumulative IPC: 0.4583 (Simulation time: 00 hr 08 min 53 sec)
Heartbeat CPU 0 instructions: 67000404 cycles: 50643581 heartbeat IPC: 0.3884 cumulative IPC: 0.4559 (Simulation time: 00 hr 09 min 03 sec)
Heartbeat CPU 0 instructions: 67500409 cycles: 51214415 heartbeat IPC: 0.8759 cumulative IPC: 0.4623 (Simulation time: 00 hr 09 min 08 sec)
Heartbeat CPU 0 instructions: 68000409 cycles: 52999873 heartbeat IPC: 0.28 cumulative IPC: 0.454 (Simulation time: 00 hr 09 min 20 sec)
Heartbeat CPU 0 instructions: 68500414 cycles: 54616565 heartbeat IPC: 0.3093 cumulative IPC: 0.4484 (Simulation time: 00 hr 09 min 32 sec)
Heartbeat CPU 0 instructions: 69000416 cycles: 55590846 heartbeat IPC: 0.5132 cumulative IPC: 0.4499 (Simulation time: 00 hr 09 min 40 sec)
Heartbeat CPU 0 instructions: 69500416 cycles: 56287356 heartbeat IPC: 0.7179 cumulative IPC: 0.4542 (Simulation time: 00 hr 09 min 46 sec)
Heartbeat CPU 0 instructions: 70000423 cycles: 56711904 heartbeat IPC: 1.178 cumulative IPC: 0.4613 (Simulation time: 00 hr 09 min 50 sec)
Heartbeat CPU 0 instructions: 70500430 cycles: 58248111 heartbeat IPC: 0.3255 cumulative IPC: 0.4567 (Simulation time: 00 hr 10 min 02 sec)
Heartbeat CPU 0 instructions: 71000432 cycles: 59690986 heartbeat IPC: 0.3465 cumulative IPC: 0.4532 (Simulation time: 00 hr 10 min 12 sec)
Heartbeat CPU 0 instructions: 71500433 cycles: 60958149 heartbeat IPC: 0.3946 cumulative IPC: 0.4517 (Simulation time: 00 hr 10 min 22 sec)
Heartbeat CPU 0 instructions: 72000435 cycles: 61622607 heartbeat IPC: 0.7525 cumulative IPC: 0.4558 (Simulation time: 00 hr 10 min 28 sec)
Heartbeat CPU 0 instructions: 72500439 cycles: 62358868 heartbeat IPC: 0.6791 cumulative IPC: 0.4592 (Simulation time: 00 hr 10 min 34 sec)
Heartbeat CPU 0 instructions: 73000442 cycles: 62644932 heartbeat IPC: 1.748 cumulative IPC: 0.4666 (Simulation time: 00 hr 10 min 37 sec)
Heartbeat CPU 0 instructions: 73500442 cycles: 62928238 heartbeat IPC: 1.765 cumulative IPC: 0.4741 (Simulation time: 00 hr 10 min 41 sec)
Heartbeat CPU 0 instructions: 74000446 cycles: 63515602 heartbeat IPC: 0.8513 cumulative IPC: 0.4785 (Simulation time: 00 hr 10 min 46 sec)
Heartbeat CPU 0 instructions: 74500451 cycles: 64855351 heartbeat IPC: 0.3732 cumulative IPC: 0.4757 (Simulation time: 00 hr 10 min 56 sec)
Heartbeat CPU 0 instructions: 75000451 cycles: 65780361 heartbeat IPC: 0.5405 cumulative IPC: 0.4769 (Simulation time: 00 hr 11 min 03 sec)
Heartbeat CPU 0 instructions: 75500452 cycles: 66502921 heartbeat IPC: 0.692 cumulative IPC: 0.4798 (Simulation time: 00 hr 11 min 09 sec)
Heartbeat CPU 0 instructions: 76000452 cycles: 67124469 heartbeat IPC: 0.8044 cumulative IPC: 0.4836 (Simulation time: 00 hr 11 min 15 sec)
Heartbeat CPU 0 instructions: 76500452 cycles: 67438843 heartbeat IPC: 1.59 cumulative IPC: 0.49 (Simulation time: 00 hr 11 min 18 sec)
Heartbeat CPU 0 instructions: 77000455 cycles: 69348845 heartbeat IPC: 0.2618 cumulative IPC: 0.4822 (Simulation time: 00 hr 11 min 32 sec)
Heartbeat CPU 0 instructions: 77500455 cycles: 70213586 heartbeat IPC: 0.5782 cumulative IPC: 0.4837 (Simulation time: 00 hr 11 min 39 sec)
Heartbeat CPU 0 instructions: 78000455 cycles: 70930990 heartbeat IPC: 0.697 cumulative IPC: 0.4863 (Simulation time: 00 hr 11 min 45 sec)
Heartbeat CPU 0 instructions: 78500455 cycles: 71496789 heartbeat IPC: 0.8837 cumulative IPC: 0.4902 (Simulation time: 00 hr 11 min 50 sec)
Heartbeat CPU 0 instructions: 79000459 cycles: 72949235 heartbeat IPC: 0.3442 cumulative IPC: 0.4866 (Simulation time: 00 hr 12 min 01 sec)
Heartbeat CPU 0 instructions: 79500460 cycles: 74829857 heartbeat IPC: 0.2659 cumulative IPC: 0.4799 (Simulation time: 00 hr 12 min 15 sec)
Heartbeat CPU 0 instructions: 80000466 cycles: 76418887 heartbeat IPC: 0.3147 cumulative IPC: 0.4757 (Simulation time: 00 hr 12 min 26 sec)
Heartbeat CPU 0 instructions: 80500468 cycles: 77534658 heartbeat IPC: 0.4481 cumulative IPC: 0.4752 (Simulation time: 00 hr 12 min 35 sec)
Heartbeat CPU 0 instructions: 81000469 cycles: 78478572 heartbeat IPC: 0.5297 cumulative IPC: 0.476 (Simulation time: 00 hr 12 min 42 sec)
Heartbeat CPU 0 instructions: 81500469 cycles: 80346990 heartbeat IPC: 0.2676 cumulative IPC: 0.4702 (Simulation time: 00 hr 12 min 56 sec)
Heartbeat CPU 0 instructions: 82000470 cycles: 81819204 heartbeat IPC: 0.3396 cumulative IPC: 0.4674 (Simulation time: 00 hr 13 min 07 sec)
Heartbeat CPU 0 instructions: 82500470 cycles: 82895696 heartbeat IPC: 0.4645 cumulative IPC: 0.4674 (Simulation time: 00 hr 13 min 15 sec)
Heartbeat CPU 0 instructions: 83000472 cycles: 84116161 heartbeat IPC: 0.4097 cumulative IPC: 0.4664 (Simulation time: 00 hr 13 min 24 sec)
Heartbeat CPU 0 instructions: 83500474 cycles: 85106890 heartbeat IPC: 0.5047 cumulative IPC: 0.4669 (Simulation time: 00 hr 13 min 31 sec)
Heartbeat CPU 0 instructions: 84000474 cycles: 86464850 heartbeat IPC: 0.3682 cumulative IPC: 0.4651 (Simulation time: 00 hr 13 min 41 sec)
Heartbeat CPU 0 instructions: 84500475 cycles: 88172333 heartbeat IPC: 0.2928 cumulative IPC: 0.4611 (Simulation time: 00 hr 13 min 54 sec)
Heartbeat CPU 0 instructions: 85000475 cycles: 89240262 heartbeat IPC: 0.4682 cumulative IPC: 0.4612 (Simulation time: 00 hr 14 min 02 sec)
Heartbeat CPU 0 instructions: 85500475 cycles: 90054406 heartbeat IPC: 0.6141 cumulative IPC: 0.4629 (Simulation time: 00 hr 14 min 08 sec)
Heartbeat CPU 0 instructions: 86000475 cycles: 91790569 heartbeat IPC: 0.288 cumulative IPC: 0.459 (Simulation time: 00 hr 14 min 21 sec)
Heartbeat CPU 0 instructions: 86500477 cycles: 93374365 heartbeat IPC: 0.3157 cumulative IPC: 0.4561 (Simulation time: 00 hr 14 min 33 sec)
Heartbeat CPU 0 instructions: 87000478 cycles: 94712716 heartbeat IPC: 0.3736 cumulative IPC: 0.4548 (Simulation time: 00 hr 14 min 44 sec)
Heartbeat CPU 0 instructions: 87500481 cycles: 95824322 heartbeat IPC: 0.4498 cumulative IPC: 0.4547 (Simulation time: 00 hr 14 min 52 sec)
Heartbeat CPU 0 instructions: 88000488 cycles: 96327573 heartbeat IPC: 0.9936 cumulative IPC: 0.458 (Simulation time: 00 hr 14 min 56 sec)
Heartbeat CPU 0 instructions: 88500488 cycles: 97628630 heartbeat IPC: 0.3843 cumulative IPC: 0.4569 (Simulation time: 00 hr 15 min 06 sec)
Heartbeat CPU 0 instructions: 89000489 cycles: 98866695 heartbeat IPC: 0.4039 cumulative IPC: 0.4561 (Simulation time: 00 hr 15 min 16 sec)
Heartbeat CPU 0 instructions: 89500492 cycles: 99858548 heartbeat IPC: 0.5041 cumulative IPC: 0.4566 (Simulation time: 00 hr 15 min 23 sec)
Heartbeat CPU 0 instructions: 90000492 cycles: 100677177 heartbeat IPC: 0.6108 cumulative IPC: 0.4581 (Simulation time: 00 hr 15 min 30 sec)
Heartbeat CPU 0 instructions: 90500492 cycles: 101267120 heartbeat IPC: 0.8475 cumulative IPC: 0.4607 (Simulation time: 00 hr 15 min 35 sec)
Heartbeat CPU 0 instructions: 91000493 cycles: 102258812 heartbeat IPC: 0.5042 cumulative IPC: 0.4612 (Simulation time: 00 hr 15 min 43 sec)
Heartbeat CPU 0 instructions: 91500494 cycles: 104045861 heartbeat IPC: 0.2798 cumulative IPC: 0.4576 (Simulation time: 00 hr 15 min 56 sec)
Heartbeat CPU 0 instructions: 92000494 cycles: 105349545 heartbeat IPC: 0.3835 cumulative IPC: 0.4566 (Simulation time: 00 hr 16 min 06 sec)
Heartbeat CPU 0 instructions: 92500497 cycles: 106600229 heartbeat IPC: 0.3998 cumulative IPC: 0.4558 (Simulation time: 00 hr 16 min 15 sec)
Heartbeat CPU 0 instructions: 93000503 cycles: 107918060 heartbeat IPC: 0.3794 cumulative IPC: 0.4547 (Simulation time: 00 hr 16 min 25 sec)
Heartbeat CPU 0 instructions: 93500508 cycles: 108951446 heartbeat IPC: 0.4839 cumulative IPC: 0.455 (Simulation time: 00 hr 16 min 33 sec)
Heartbeat CPU 0 instructions: 94000509 cycles: 110687385 heartbeat IPC: 0.288 cumulative IPC: 0.4521 (Simulation time: 00 hr 16 min 46 sec)
Heartbeat CPU 0 instructions: 94500510 cycles: 111263523 heartbeat IPC: 0.8678 cumulative IPC: 0.4545 (Simulation time: 00 hr 16 min 51 sec)
Heartbeat CPU 0 instructions: 95000514 cycles: 112924561 heartbeat IPC: 0.301 cumulative IPC: 0.452 (Simulation time: 00 hr 17 min 03 sec)
Heartbeat CPU 0 instructions: 95500514 cycles: 114065519 heartbeat IPC: 0.4382 cumulative IPC: 0.4518 (Simulation time: 00 hr 17 min 12 sec)
Heartbeat CPU 0 instructions: 96000518 cycles: 116109426 heartbeat IPC: 0.2446 cumulative IPC: 0.4477 (Simulation time: 00 hr 17 min 26 sec)
Heartbeat CPU 0 instructions: 96500524 cycles: 117581902 heartbeat IPC: 0.3396 cumulative IPC: 0.4461 (Simulation time: 00 hr 17 min 37 sec)
Heartbeat CPU 0 instructions: 97000524 cycles: 118408389 heartbeat IPC: 0.605 cumulative IPC: 0.4474 (Simulation time: 00 hr 17 min 44 sec)
Heartbeat CPU 0 instructions: 97500528 cycles: 119872738 heartbeat IPC: 0.3415 cumulative IPC: 0.4459 (Simulation time: 00 hr 17 min 55 sec)
Heartbeat CPU 0 instructions: 98000529 cycles: 120668888 heartbeat IPC: 0.628 cumulative IPC: 0.4473 (Simulation time: 00 hr 18 min 01 sec)
Heartbeat CPU 0 instructions: 98500536 cycles: 121036016 heartbeat IPC: 1.362 cumulative IPC: 0.4504 (Simulation time: 00 hr 18 min 05 sec)
Heartbeat CPU 0 instructions: 99000536 cycles: 121820152 heartbeat IPC: 0.6376 cumulative IPC: 0.4518 (Simulation time: 00 hr 18 min 11 sec)
Heartbeat CPU 0 instructions: 99500536 cycles: 122916258 heartbeat IPC: 0.4562 cumulative IPC: 0.4518 (Simulation time: 00 hr 18 min 19 sec)
Heartbeat CPU 0 instructions: 100000536 cycles: 123704264 heartbeat IPC: 0.6345 cumulative IPC: 0.4531 (Simulation time: 00 hr 18 min 26 sec)
Heartbeat CPU 0 instructions: 100500538 cycles: 124286412 heartbeat IPC: 0.8589 cumulative IPC: 0.4552 (Simulation time: 00 hr 18 min 31 sec)
Heartbeat CPU 0 instructions: 101000543 cycles: 125084101 heartbeat IPC: 0.6268 cumulative IPC: 0.4565 (Simulation time: 00 hr 18 min 37 sec)
Heartbeat CPU 0 instructions: 101500543 cycles: 125815461 heartbeat IPC: 0.6837 cumulative IPC: 0.4579 (Simulation time: 00 hr 18 min 43 sec)
Heartbeat CPU 0 instructions: 102000543 cycles: 127129462 heartbeat IPC: 0.3805 cumulative IPC: 0.4571 (Simulation time: 00 hr 18 min 53 sec)
Heartbeat CPU 0 instructions: 102500543 cycles: 128377015 heartbeat IPC: 0.4008 cumulative IPC: 0.4564 (Simulation time: 00 hr 19 min 02 sec)
Heartbeat CPU 0 instructions: 103000544 cycles: 129906009 heartbeat IPC: 0.327 cumulative IPC: 0.4547 (Simulation time: 00 hr 19 min 14 sec)
Heartbeat CPU 0 instructions: 103500551 cycles: 131955929 heartbeat IPC: 0.2439 cumulative IPC: 0.4511 (Simulation time: 00 hr 19 min 28 sec)
Heartbeat CPU 0 instructions: 104000553 cycles: 132937905 heartbeat IPC: 0.5092 cumulative IPC: 0.4516 (Simulation time: 00 hr 19 min 35 sec)
Heartbeat CPU 0 instructions: 104500555 cycles: 133789141 heartbeat IPC: 0.5874 cumulative IPC: 0.4525 (Simulation time: 00 hr 19 min 42 sec)
Heartbeat CPU 0 instructions: 105000556 cycles: 135879693 heartbeat IPC: 0.2392 cumulative IPC: 0.4489 (Simulation time: 00 hr 19 min 56 sec)
Heartbeat CPU 0 instructions: 105500557 cycles: 136963020 heartbeat IPC: 0.4615 cumulative IPC: 0.449 (Simulation time: 00 hr 20 min 04 sec)
Heartbeat CPU 0 instructions: 106000559 cycles: 137687550 heartbeat IPC: 0.6901 cumulative IPC: 0.4504 (Simulation time: 00 hr 20 min 10 sec)
Heartbeat CPU 0 instructions: 106500562 cycles: 138199719 heartbeat IPC: 0.9762 cumulative IPC: 0.4526 (Simulation time: 00 hr 20 min 14 sec)
Heartbeat CPU 0 instructions: 107000563 cycles: 139087565 heartbeat IPC: 0.5632 cumulative IPC: 0.4533 (Simulation time: 00 hr 20 min 21 sec)
Heartbeat CPU 0 instructions: 107500563 cycles: 140574648 heartbeat IPC: 0.3362 cumulative IPC: 0.452 (Simulation time: 00 hr 20 min 32 sec)
Heartbeat CPU 0 instructions: 108000563 cycles: 141434334 heartbeat IPC: 0.5816 cumulative IPC: 0.4529 (Simulation time: 00 hr 20 min 39 sec)
Heartbeat CPU 0 instructions: 108500563 cycles: 142110503 heartbeat IPC: 0.7395 cumulative IPC: 0.4544 (Simulation time: 00 hr 20 min 44 sec)
Heartbeat CPU 0 instructions: 109000563 cycles: 143265361 heartbeat IPC: 0.433 cumulative IPC: 0.4542 (Simulation time: 00 hr 20 min 53 sec)
Heartbeat CPU 0 instructions: 109500563 cycles: 144239162 heartbeat IPC: 0.5135 cumulative IPC: 0.4546 (Simulation time: 00 hr 21 min 00 sec)
Heartbeat CPU 0 instructions: 110000563 cycles: 145197098 heartbeat IPC: 0.522 cumulative IPC: 0.4551 (Simulation time: 00 hr 21 min 08 sec)
Heartbeat CPU 0 instructions: 110500563 cycles: 145710472 heartbeat IPC: 0.9739 cumulative IPC: 0.4571 (Simulation time: 00 hr 21 min 12 sec)
Heartbeat CPU 0 instructions: 111000565 cycles: 146527593 heartbeat IPC: 0.6119 cumulative IPC: 0.4581 (Simulation time: 00 hr 21 min 19 sec)
Heartbeat CPU 0 instructions: 111500569 cycles: 148581315 heartbeat IPC: 0.2435 cumulative IPC: 0.4548 (Simulation time: 00 hr 21 min 34 sec)
Heartbeat CPU 0 instructions: 112000569 cycles: 149283948 heartbeat IPC: 0.7116 cumulative IPC: 0.4561 (Simulation time: 00 hr 21 min 40 sec)
Heartbeat CPU 0 instructions: 112500569 cycles: 150793713 heartbeat IPC: 0.3312 cumulative IPC: 0.4548 (Simulation time: 00 hr 21 min 51 sec)
Heartbeat CPU 0 instructions: 113000570 cycles: 152005553 heartbeat IPC: 0.4126 cumulative IPC: 0.4544 (Simulation time: 00 hr 22 min 00 sec)
Heartbeat CPU 0 instructions: 113500570 cycles: 152701078 heartbeat IPC: 0.7189 cumulative IPC: 0.4557 (Simulation time: 00 hr 22 min 05 sec)
Heartbeat CPU 0 instructions: 114000570 cycles: 153376142 heartbeat IPC: 0.7407 cumulative IPC: 0.4571 (Simulation time: 00 hr 22 min 11 sec)
Heartbeat CPU 0 instructions: 114500574 cycles: 154747742 heartbeat IPC: 0.3645 cumulative IPC: 0.4562 (Simulation time: 00 hr 22 min 20 sec)
Heartbeat CPU 0 instructions: 115000574 cycles: 155674095 heartbeat IPC: 0.5398 cumulative IPC: 0.4567 (Simulation time: 00 hr 22 min 27 sec)
Heartbeat CPU 0 instructions: 115500574 cycles: 156348351 heartbeat IPC: 0.7416 cumulative IPC: 0.4581 (Simulation time: 00 hr 22 min 32 sec)
Heartbeat CPU 0 instructions: 116000576 cycles: 157189263 heartbeat IPC: 0.5946 cumulative IPC: 0.4589 (Simulation time: 00 hr 22 min 39 sec)
Heartbeat CPU 0 instructions: 116500577 cycles: 158686820 heartbeat IPC: 0.3339 cumulative IPC: 0.4576 (Simulation time: 00 hr 22 min 50 sec)
Heartbeat CPU 0 instructions: 117000578 cycles: 159611017 heartbeat IPC: 0.541 cumulative IPC: 0.4581 (Simulation time: 00 hr 22 min 57 sec)
Heartbeat CPU 0 instructions: 117500581 cycles: 160274113 heartbeat IPC: 0.754 cumulative IPC: 0.4594 (Simulation time: 00 hr 23 min 03 sec)
Heartbeat CPU 0 instructions: 118000586 cycles: 161428442 heartbeat IPC: 0.4332 cumulative IPC: 0.4592 (Simulation time: 00 hr 23 min 11 sec)
Heartbeat CPU 0 instructions: 118500589 cycles: 162292684 heartbeat IPC: 0.5785 cumulative IPC: 0.4599 (Simulation time: 00 hr 23 min 18 sec)
Heartbeat CPU 0 instructions: 119000589 cycles: 163185074 heartbeat IPC: 0.5603 cumulative IPC: 0.4605 (Simulation time: 00 hr 23 min 25 sec)
Heartbeat CPU 0 instructions: 119500590 cycles: 164330293 heartbeat IPC: 0.4366 cumulative IPC: 0.4603 (Simulation time: 00 hr 23 min 33 sec)
Heartbeat CPU 0 instructions: 120000590 cycles: 165351907 heartbeat IPC: 0.4894 cumulative IPC: 0.4605 (Simulation time: 00 hr 23 min 41 sec)
Heartbeat CPU 0 instructions: 120500590 cycles: 165865899 heartbeat IPC: 0.9728 cumulative IPC: 0.4623 (Simulation time: 00 hr 23 min 45 sec)
Heartbeat CPU 0 instructions: 121000592 cycles: 166597398 heartbeat IPC: 0.6835 cumulative IPC: 0.4633 (Simulation time: 00 hr 23 min 51 sec)
Heartbeat CPU 0 instructions: 121500598 cycles: 167775803 heartbeat IPC: 0.4243 cumulative IPC: 0.463 (Simulation time: 00 hr 24 min 00 sec)
Heartbeat CPU 0 instructions: 122000598 cycles: 168414227 heartbeat IPC: 0.7832 cumulative IPC: 0.4643 (Simulation time: 00 hr 24 min 05 sec)
Heartbeat CPU 0 instructions: 122500598 cycles: 168868908 heartbeat IPC: 1.1 cumulative IPC: 0.4662 (Simulation time: 00 hr 24 min 09 sec)
Heartbeat CPU 0 instructions: 123000599 cycles: 169423498 heartbeat IPC: 0.9016 cumulative IPC: 0.4677 (Simulation time: 00 hr 24 min 13 sec)
Heartbeat CPU 0 instructions: 123500599 cycles: 171099643 heartbeat IPC: 0.2983 cumulative IPC: 0.4659 (Simulation time: 00 hr 24 min 25 sec)
Heartbeat CPU 0 instructions: 124000604 cycles: 172240033 heartbeat IPC: 0.4385 cumulative IPC: 0.4658 (Simulation time: 00 hr 24 min 34 sec)
Heartbeat CPU 0 instructions: 124500606 cycles: 173508401 heartbeat IPC: 0.3942 cumulative IPC: 0.4652 (Simulation time: 00 hr 24 min 43 sec)
Heartbeat CPU 0 instructions: 125000612 cycles: 175297425 heartbeat IPC: 0.2795 cumulative IPC: 0.4631 (Simulation time: 00 hr 24 min 55 sec)
Heartbeat CPU 0 instructions: 125500614 cycles: 176349443 heartbeat IPC: 0.4753 cumulative IPC: 0.4632 (Simulation time: 00 hr 25 min 03 sec)
Heartbeat CPU 0 instructions: 126000615 cycles: 177318680 heartbeat IPC: 0.5159 cumulative IPC: 0.4635 (Simulation time: 00 hr 25 min 09 sec)
Heartbeat CPU 0 instructions: 126500617 cycles: 178419614 heartbeat IPC: 0.4542 cumulative IPC: 0.4635 (Simulation time: 00 hr 25 min 17 sec)
Heartbeat CPU 0 instructions: 127000618 cycles: 180482789 heartbeat IPC: 0.2423 cumulative IPC: 0.4607 (Simulation time: 00 hr 25 min 31 sec)
Heartbeat CPU 0 instructions: 127500618 cycles: 182441162 heartbeat IPC: 0.2553 cumulative IPC: 0.4584 (Simulation time: 00 hr 25 min 43 sec)
Heartbeat CPU 0 instructions: 128000618 cycles: 183547804 heartbeat IPC: 0.4518 cumulative IPC: 0.4583 (Simulation time: 00 hr 25 min 51 sec)
Heartbeat CPU 0 instructions: 128500621 cycles: 184602964 heartbeat IPC: 0.4739 cumulative IPC: 0.4584 (Simulation time: 00 hr 25 min 59 sec)
Heartbeat CPU 0 instructions: 129000627 cycles: 185376141 heartbeat IPC: 0.6467 cumulative IPC: 0.4593 (Simulation time: 00 hr 26 min 04 sec)
Heartbeat CPU 0 instructions: 129500628 cycles: 186045507 heartbeat IPC: 0.747 cumulative IPC: 0.4604 (Simulation time: 00 hr 26 min 10 sec)
Heartbeat CPU 0 instructions: 130000628 cycles: 187493795 heartbeat IPC: 0.3452 cumulative IPC: 0.4594 (Simulation time: 00 hr 26 min 19 sec)
Heartbeat CPU 0 instructions: 130500630 cycles: 188615564 heartbeat IPC: 0.4457 cumulative IPC: 0.4593 (Simulation time: 00 hr 26 min 27 sec)
Heartbeat CPU 0 instructions: 131000633 cycles: 189581645 heartbeat IPC: 0.5176 cumulative IPC: 0.4596 (Simulation time: 00 hr 26 min 34 sec)
Heartbeat CPU 0 instructions: 131500636 cycles: 190886491 heartbeat IPC: 0.3832 cumulative IPC: 0.4591 (Simulation time: 00 hr 26 min 43 sec)
Heartbeat CPU 0 instructions: 132000637 cycles: 191546941 heartbeat IPC: 0.7571 cumulative IPC: 0.4602 (Simulation time: 00 hr 26 min 48 sec)
Heartbeat CPU 0 instructions: 132500644 cycles: 191918284 heartbeat IPC: 1.346 cumulative IPC: 0.462 (Simulation time: 00 hr 26 min 51 sec)
Heartbeat CPU 0 instructions: 133000644 cycles: 192789534 heartbeat IPC: 0.5739 cumulative IPC: 0.4626 (Simulation time: 00 hr 26 min 57 sec)
Heartbeat CPU 0 instructions: 133500644 cycles: 194794483 heartbeat IPC: 0.2494 cumulative IPC: 0.4602 (Simulation time: 00 hr 27 min 11 sec)
Heartbeat CPU 0 instructions: 134000647 cycles: 196544171 heartbeat IPC: 0.2858 cumulative IPC: 0.4585 (Simulation time: 00 hr 27 min 23 sec)
Heartbeat CPU 0 instructions: 134500651 cycles: 197458370 heartbeat IPC: 0.5469 cumulative IPC: 0.459 (Simulation time: 00 hr 27 min 29 sec)
Heartbeat CPU 0 instructions: 135000651 cycles: 198690812 heartbeat IPC: 0.4057 cumulative IPC: 0.4586 (Simulation time: 00 hr 27 min 38 sec)
Heartbeat CPU 0 instructions: 135500654 cycles: 199701924 heartbeat IPC: 0.4945 cumulative IPC: 0.4588 (Simulation time: 00 hr 27 min 45 sec)
Heartbeat CPU 0 instructions: 136000657 cycles: 200515811 heartbeat IPC: 0.6143 cumulative IPC: 0.4595 (Simulation time: 00 hr 27 min 51 sec)
Heartbeat CPU 0 instructions: 136500658 cycles: 201909230 heartbeat IPC: 0.3588 cumulative IPC: 0.4588 (Simulation time: 00 hr 28 min 00 sec)
Heartbeat CPU 0 instructions: 137000658 cycles: 202877105 heartbeat IPC: 0.5166 cumulative IPC: 0.4591 (Simulation time: 00 hr 28 min 07 sec)
Heartbeat CPU 0 instructions: 137500659 cycles: 203544895 heartbeat IPC: 0.7487 cumulative IPC: 0.4601 (Simulation time: 00 hr 28 min 12 sec)
Heartbeat CPU 0 instructions: 138000659 cycles: 204143072 heartbeat IPC: 0.8359 cumulative IPC: 0.4612 (Simulation time: 00 hr 28 min 16 sec)
Heartbeat CPU 0 instructions: 138500662 cycles: 204573757 heartbeat IPC: 1.161 cumulative IPC: 0.4628 (Simulation time: 00 hr 28 min 20 sec)
Heartbeat CPU 0 instructions: 139000667 cycles: 205076079 heartbeat IPC: 0.9954 cumulative IPC: 0.4642 (Simulation time: 00 hr 28 min 24 sec)
Heartbeat CPU 0 instructions: 139500667 cycles: 205624546 heartbeat IPC: 0.9116 cumulative IPC: 0.4655 (Simulation time: 00 hr 28 min 28 sec)
Heartbeat CPU 0 instructions: 140000668 cycles: 206433253 heartbeat IPC: 0.6183 cumulative IPC: 0.4661 (Simulation time: 00 hr 28 min 34 sec)
Heartbeat CPU 0 instructions: 140500668 cycles: 207792071 heartbeat IPC: 0.368 cumulative IPC: 0.4655 (Simulation time: 00 hr 28 min 43 sec)
Heartbeat CPU 0 instructions: 141000669 cycles: 208364577 heartbeat IPC: 0.8734 cumulative IPC: 0.4666 (Simulation time: 00 hr 28 min 48 sec)
Heartbeat CPU 0 instructions: 141500672 cycles: 208942712 heartbeat IPC: 0.8649 cumulative IPC: 0.4678 (Simulation time: 00 hr 28 min 53 sec)
Heartbeat CPU 0 instructions: 142000677 cycles: 209407630 heartbeat IPC: 1.075 cumulative IPC: 0.4693 (Simulation time: 00 hr 28 min 56 sec)
Heartbeat CPU 0 instructions: 142500680 cycles: 209687161 heartbeat IPC: 1.789 cumulative IPC: 0.4711 (Simulation time: 00 hr 28 min 59 sec)
Heartbeat CPU 0 instructions: 143000684 cycles: 210112895 heartbeat IPC: 1.174 cumulative IPC: 0.4727 (Simulation time: 00 hr 29 min 03 sec)
Heartbeat CPU 0 instructions: 143500685 cycles: 210675352 heartbeat IPC: 0.889 cumulative IPC: 0.4739 (Simulation time: 00 hr 29 min 08 sec)
Heartbeat CPU 0 instructions: 144000685 cycles: 212326347 heartbeat IPC: 0.3028 cumulative IPC: 0.4724 (Simulation time: 00 hr 29 min 19 sec)
Heartbeat CPU 0 instructions: 144500685 cycles: 214247104 heartbeat IPC: 0.2603 cumulative IPC: 0.4704 (Simulation time: 00 hr 29 min 31 sec)
Heartbeat CPU 0 instructions: 145000685 cycles: 215956519 heartbeat IPC: 0.2925 cumulative IPC: 0.4689 (Simulation time: 00 hr 29 min 43 sec)
Heartbeat CPU 0 instructions: 145500692 cycles: 216835941 heartbeat IPC: 0.5686 cumulative IPC: 0.4693 (Simulation time: 00 hr 29 min 49 sec)
Heartbeat CPU 0 instructions: 146000695 cycles: 217927033 heartbeat IPC: 0.4583 cumulative IPC: 0.4693 (Simulation time: 00 hr 29 min 56 sec)
Heartbeat CPU 0 instructions: 146500695 cycles: 219368223 heartbeat IPC: 0.3469 cumulative IPC: 0.4684 (Simulation time: 00 hr 30 min 05 sec)
Heartbeat CPU 0 instructions: 147000698 cycles: 220213782 heartbeat IPC: 0.5913 cumulative IPC: 0.4689 (Simulation time: 00 hr 30 min 11 sec)
Heartbeat CPU 0 instructions: 147500699 cycles: 220918166 heartbeat IPC: 0.7098 cumulative IPC: 0.4697 (Simulation time: 00 hr 30 min 16 sec)
Heartbeat CPU 0 instructions: 148000701 cycles: 222629410 heartbeat IPC: 0.2922 cumulative IPC: 0.4683 (Simulation time: 00 hr 30 min 27 sec)
Heartbeat CPU 0 instructions: 148500701 cycles: 224564264 heartbeat IPC: 0.2584 cumulative IPC: 0.4664 (Simulation time: 00 hr 30 min 39 sec)
Heartbeat CPU 0 instructions: 149000703 cycles: 225290017 heartbeat IPC: 0.6889 cumulative IPC: 0.4671 (Simulation time: 00 hr 30 min 44 sec)
Heartbeat CPU 0 instructions: 149500703 cycles: 226560682 heartbeat IPC: 0.3935 cumulative IPC: 0.4667 (Simulation time: 00 hr 30 min 52 sec)
Heartbeat CPU 0 instructions: 150000703 cycles: 228283012 heartbeat IPC: 0.2903 cumulative IPC: 0.4653 (Simulation time: 00 hr 31 min 03 sec)
Heartbeat CPU 0 instructions: 150500703 cycles: 229794231 heartbeat IPC: 0.3309 cumulative IPC: 0.4643 (Simulation time: 00 hr 31 min 13 sec)
Heartbeat CPU 0 instructions: 151000706 cycles: 230866856 heartbeat IPC: 0.4661 cumulative IPC: 0.4643 (Simulation time: 00 hr 31 min 20 sec)
Heartbeat CPU 0 instructions: 151500710 cycles: 232192578 heartbeat IPC: 0.3772 cumulative IPC: 0.4638 (Simulation time: 00 hr 31 min 28 sec)
Heartbeat CPU 0 instructions: 152000712 cycles: 233025066 heartbeat IPC: 0.6006 cumulative IPC: 0.4643 (Simulation time: 00 hr 31 min 34 sec)
Heartbeat CPU 0 instructions: 152500719 cycles: 234236292 heartbeat IPC: 0.4128 cumulative IPC: 0.4641 (Simulation time: 00 hr 31 min 41 sec)
Heartbeat CPU 0 instructions: 153000723 cycles: 236370502 heartbeat IPC: 0.2343 cumulative IPC: 0.4619 (Simulation time: 00 hr 31 min 55 sec)
Heartbeat CPU 0 instructions: 153500730 cycles: 237335829 heartbeat IPC: 0.518 cumulative IPC: 0.4621 (Simulation time: 00 hr 32 min 01 sec)
Heartbeat CPU 0 instructions: 154000732 cycles: 237758198 heartbeat IPC: 1.184 cumulative IPC: 0.4635 (Simulation time: 00 hr 32 min 04 sec)
Heartbeat CPU 0 instructions: 154500733 cycles: 238202285 heartbeat IPC: 1.126 cumulative IPC: 0.4648 (Simulation time: 00 hr 32 min 07 sec)
Heartbeat CPU 0 instructions: 155000733 cycles: 238784092 heartbeat IPC: 0.8594 cumulative IPC: 0.4658 (Simulation time: 00 hr 32 min 12 sec)
Heartbeat CPU 0 instructions: 155500737 cycles: 239352938 heartbeat IPC: 0.879 cumulative IPC: 0.4668 (Simulation time: 00 hr 32 min 16 sec)
Heartbeat CPU 0 instructions: 156000740 cycles: 240685784 heartbeat IPC: 0.3751 cumulative IPC: 0.4663 (Simulation time: 00 hr 32 min 24 sec)
Heartbeat CPU 0 instructions: 156500740 cycles: 241660492 heartbeat IPC: 0.513 cumulative IPC: 0.4665 (Simulation time: 00 hr 32 min 30 sec)
Heartbeat CPU 0 instructions: 157000743 cycles: 242202189 heartbeat IPC: 0.923 cumulative IPC: 0.4676 (Simulation time: 00 hr 32 min 34 sec)
Heartbeat CPU 0 instructions: 157500744 cycles: 242571324 heartbeat IPC: 1.355 cumulative IPC: 0.469 (Simulation time: 00 hr 32 min 37 sec)
Heartbeat CPU 0 instructions: 158000751 cycles: 242841508 heartbeat IPC: 1.851 cumulative IPC: 0.4706 (Simulation time: 00 hr 32 min 40 sec)
Heartbeat CPU 0 instructions: 158500751 cycles: 243102469 heartbeat IPC: 1.916 cumulative IPC: 0.4723 (Simulation time: 00 hr 32 min 42 sec)
Heartbeat CPU 0 instructions: 159000753 cycles: 243352604 heartbeat IPC: 1.999 cumulative IPC: 0.4739 (Simulation time: 00 hr 32 min 45 sec)
Heartbeat CPU 0 instructions: 159500754 cycles: 244146223 heartbeat IPC: 0.63 cumulative IPC: 0.4745 (Simulation time: 00 hr 32 min 50 sec)
Heartbeat CPU 0 instructions: 160000761 cycles: 246046926 heartbeat IPC: 0.2631 cumulative IPC: 0.4727 (Simulation time: 00 hr 33 min 02 sec)
Heartbeat CPU 0 instructions: 160500761 cycles: 246754934 heartbeat IPC: 0.7062 cumulative IPC: 0.4734 (Simulation time: 00 hr 33 min 07 sec)
Heartbeat CPU 0 instructions: 161000761 cycles: 247962050 heartbeat IPC: 0.4142 cumulative IPC: 0.4731 (Simulation time: 00 hr 33 min 15 sec)
Heartbeat CPU 0 instructions: 161500763 cycles: 249210783 heartbeat IPC: 0.4004 cumulative IPC: 0.4728 (Simulation time: 00 hr 33 min 23 sec)
Heartbeat CPU 0 instructions: 162000765 cycles: 249724129 heartbeat IPC: 0.974 cumulative IPC: 0.4738 (Simulation time: 00 hr 33 min 28 sec)
Heartbeat CPU 0 instructions: 162500765 cycles: 250340974 heartbeat IPC: 0.8106 cumulative IPC: 0.4747 (Simulation time: 00 hr 33 min 33 sec)
Heartbeat CPU 0 instructions: 163000766 cycles: 250490138 heartbeat IPC: 3.352 cumulative IPC: 0.4765 (Simulation time: 00 hr 33 min 35 sec)
Heartbeat CPU 0 instructions: 163500771 cycles: 251267148 heartbeat IPC: 0.6435 cumulative IPC: 0.4771 (Simulation time: 00 hr 33 min 41 sec)
Heartbeat CPU 0 instructions: 164000772 cycles: 251651724 heartbeat IPC: 1.3 cumulative IPC: 0.4784 (Simulation time: 00 hr 33 min 44 sec)
Heartbeat CPU 0 instructions: 164500773 cycles: 251969891 heartbeat IPC: 1.572 cumulative IPC: 0.4799 (Simulation time: 00 hr 33 min 47 sec)
Heartbeat CPU 0 instructions: 165000779 cycles: 252578965 heartbeat IPC: 0.8209 cumulative IPC: 0.4807 (Simulation time: 00 hr 33 min 51 sec)
Heartbeat CPU 0 instructions: 165500779 cycles: 252971497 heartbeat IPC: 1.274 cumulative IPC: 0.482 (Simulation time: 00 hr 33 min 54 sec)
Heartbeat CPU 0 instructions: 166000779 cycles: 253901535 heartbeat IPC: 0.5376 cumulative IPC: 0.4822 (Simulation time: 00 hr 34 min 01 sec)
Heartbeat CPU 0 instructions: 166500780 cycles: 255513034 heartbeat IPC: 0.3103 cumulative IPC: 0.4811 (Simulation time: 00 hr 34 min 10 sec)
Heartbeat CPU 0 instructions: 167000785 cycles: 256235662 heartbeat IPC: 0.6919 cumulative IPC: 0.4817 (Simulation time: 00 hr 34 min 15 sec)
Heartbeat CPU 0 instructions: 167500788 cycles: 256806727 heartbeat IPC: 0.8756 cumulative IPC: 0.4826 (Simulation time: 00 hr 34 min 19 sec)
Heartbeat CPU 0 instructions: 168000788 cycles: 257475358 heartbeat IPC: 0.7478 cumulative IPC: 0.4834 (Simulation time: 00 hr 34 min 24 sec)
Heartbeat CPU 0 instructions: 168500791 cycles: 258868350 heartbeat IPC: 0.3589 cumulative IPC: 0.4827 (Simulation time: 00 hr 34 min 33 sec)
Heartbeat CPU 0 instructions: 169000791 cycles: 259692308 heartbeat IPC: 0.6068 cumulative IPC: 0.4831 (Simulation time: 00 hr 34 min 38 sec)
Heartbeat CPU 0 instructions: 169500791 cycles: 260383519 heartbeat IPC: 0.7234 cumulative IPC: 0.4838 (Simulation time: 00 hr 34 min 43 sec)
Heartbeat CPU 0 instructions: 170000798 cycles: 261081323 heartbeat IPC: 0.7165 cumulative IPC: 0.4844 (Simulation time: 00 hr 34 min 48 sec)
Heartbeat CPU 0 instructions: 170500799 cycles: 262378938 heartbeat IPC: 0.3853 cumulative IPC: 0.4839 (Simulation time: 00 hr 34 min 56 sec)
Heartbeat CPU 0 instructions: 171000799 cycles: 263242388 heartbeat IPC: 0.5791 cumulative IPC: 0.4842 (Simulation time: 00 hr 35 min 02 sec)
Heartbeat CPU 0 instructions: 171500799 cycles: 263799633 heartbeat IPC: 0.8973 cumulative IPC: 0.4851 (Simulation time: 00 hr 35 min 06 sec)
Heartbeat CPU 0 instructions: 172000804 cycles: 264748531 heartbeat IPC: 0.5269 cumulative IPC: 0.4853 (Simulation time: 00 hr 35 min 12 sec)
Heartbeat CPU 0 instructions: 172500804 cycles: 267268263 heartbeat IPC: 0.1984 cumulative IPC: 0.4825 (Simulation time: 00 hr 35 min 27 sec)
Heartbeat CPU 0 instructions: 173000804 cycles: 268483444 heartbeat IPC: 0.4115 cumulative IPC: 0.4821 (Simulation time: 00 hr 35 min 35 sec)
Heartbeat CPU 0 instructions: 173500811 cycles: 269158107 heartbeat IPC: 0.7411 cumulative IPC: 0.4828 (Simulation time: 00 hr 35 min 40 sec)
Heartbeat CPU 0 instructions: 174000815 cycles: 270037081 heartbeat IPC: 0.5688 cumulative IPC: 0.4831 (Simulation time: 00 hr 35 min 45 sec)
Heartbeat CPU 0 instructions: 174500822 cycles: 270422384 heartbeat IPC: 1.298 cumulative IPC: 0.4843 (Simulation time: 00 hr 35 min 49 sec)
Heartbeat CPU 0 instructions: 175000822 cycles: 272008607 heartbeat IPC: 0.3152 cumulative IPC: 0.4833 (Simulation time: 00 hr 35 min 58 sec)
Heartbeat CPU 0 instructions: 175500828 cycles: 274116000 heartbeat IPC: 0.2373 cumulative IPC: 0.4813 (Simulation time: 00 hr 36 min 10 sec)
Heartbeat CPU 0 instructions: 176000831 cycles: 275123281 heartbeat IPC: 0.4964 cumulative IPC: 0.4813 (Simulation time: 00 hr 36 min 17 sec)
Heartbeat CPU 0 instructions: 176500831 cycles: 275711407 heartbeat IPC: 0.8502 cumulative IPC: 0.4822 (Simulation time: 00 hr 36 min 21 sec)
Heartbeat CPU 0 instructions: 177000831 cycles: 276193342 heartbeat IPC: 1.037 cumulative IPC: 0.4832 (Simulation time: 00 hr 36 min 24 sec)
Heartbeat CPU 0 instructions: 177500834 cycles: 276919248 heartbeat IPC: 0.6888 cumulative IPC: 0.4838 (Simulation time: 00 hr 36 min 29 sec)
Heartbeat CPU 0 instructions: 178000835 cycles: 278553848 heartbeat IPC: 0.3059 cumulative IPC: 0.4827 (Simulation time: 00 hr 36 min 38 sec)
Heartbeat CPU 0 instructions: 178500836 cycles: 278991507 heartbeat IPC: 1.142 cumulative IPC: 0.4837 (Simulation time: 00 hr 36 min 42 sec)
Heartbeat CPU 0 instructions: 179000837 cycles: 280220668 heartbeat IPC: 0.4068 cumulative IPC: 0.4834 (Simulation time: 00 hr 36 min 50 sec)
Heartbeat CPU 0 instructions: 179500839 cycles: 281856850 heartbeat IPC: 0.3056 cumulative IPC: 0.4823 (Simulation time: 00 hr 36 min 59 sec)
Heartbeat CPU 0 instructions: 180000839 cycles: 282877501 heartbeat IPC: 0.4899 cumulative IPC: 0.4823 (Simulation time: 00 hr 37 min 06 sec)
Heartbeat CPU 0 instructions: 180500842 cycles: 283967153 heartbeat IPC: 0.4589 cumulative IPC: 0.4822 (Simulation time: 00 hr 37 min 13 sec)
Heartbeat CPU 0 instructions: 181000845 cycles: 285407632 heartbeat IPC: 0.3471 cumulative IPC: 0.4815 (Simulation time: 00 hr 37 min 21 sec)
Heartbeat CPU 0 instructions: 181500850 cycles: 286459781 heartbeat IPC: 0.4752 cumulative IPC: 0.4815 (Simulation time: 00 hr 37 min 29 sec)
Heartbeat CPU 0 instructions: 182000852 cycles: 287561978 heartbeat IPC: 0.4536 cumulative IPC: 0.4814 (Simulation time: 00 hr 37 min 36 sec)
Heartbeat CPU 0 instructions: 182500852 cycles: 288786813 heartbeat IPC: 0.4082 cumulative IPC: 0.4811 (Simulation time: 00 hr 37 min 43 sec)
Heartbeat CPU 0 instructions: 183000853 cycles: 289713826 heartbeat IPC: 0.5394 cumulative IPC: 0.4813 (Simulation time: 00 hr 37 min 49 sec)
Heartbeat CPU 0 instructions: 183500853 cycles: 290883139 heartbeat IPC: 0.4276 cumulative IPC: 0.481 (Simulation time: 00 hr 37 min 56 sec)
Heartbeat CPU 0 instructions: 184000853 cycles: 292428978 heartbeat IPC: 0.3234 cumulative IPC: 0.4802 (Simulation time: 00 hr 38 min 05 sec)
Heartbeat CPU 0 instructions: 184500855 cycles: 293106564 heartbeat IPC: 0.7379 cumulative IPC: 0.4808 (Simulation time: 00 hr 38 min 09 sec)
Heartbeat CPU 0 instructions: 185000861 cycles: 294333126 heartbeat IPC: 0.4076 cumulative IPC: 0.4805 (Simulation time: 00 hr 38 min 16 sec)
Heartbeat CPU 0 instructions: 185500861 cycles: 296377227 heartbeat IPC: 0.2446 cumulative IPC: 0.4788 (Simulation time: 00 hr 38 min 27 sec)
Heartbeat CPU 0 instructions: 186000862 cycles: 297789326 heartbeat IPC: 0.3541 cumulative IPC: 0.4781 (Simulation time: 00 hr 38 min 36 sec)
Heartbeat CPU 0 instructions: 186500869 cycles: 298607629 heartbeat IPC: 0.611 cumulative IPC: 0.4785 (Simulation time: 00 hr 38 min 41 sec)
Heartbeat CPU 0 instructions: 187000871 cycles: 299835308 heartbeat IPC: 0.4073 cumulative IPC: 0.4782 (Simulation time: 00 hr 38 min 48 sec)
Heartbeat CPU 0 instructions: 187500872 cycles: 300643303 heartbeat IPC: 0.6188 cumulative IPC: 0.4786 (Simulation time: 00 hr 38 min 53 sec)
Heartbeat CPU 0 instructions: 188000877 cycles: 301083813 heartbeat IPC: 1.135 cumulative IPC: 0.4796 (Simulation time: 00 hr 38 min 57 sec)
Heartbeat CPU 0 instructions: 188500883 cycles: 301306975 heartbeat IPC: 2.241 cumulative IPC: 0.481 (Simulation time: 00 hr 38 min 59 sec)
Heartbeat CPU 0 instructions: 189000885 cycles: 301774969 heartbeat IPC: 1.068 cumulative IPC: 0.4819 (Simulation time: 00 hr 39 min 02 sec)
Heartbeat CPU 0 instructions: 189500890 cycles: 302476077 heartbeat IPC: 0.7132 cumulative IPC: 0.4825 (Simulation time: 00 hr 39 min 06 sec)
Heartbeat CPU 0 instructions: 190000890 cycles: 302769467 heartbeat IPC: 1.704 cumulative IPC: 0.4837 (Simulation time: 00 hr 39 min 09 sec)
Heartbeat CPU 0 instructions: 190500893 cycles: 303085340 heartbeat IPC: 1.583 cumulative IPC: 0.4849 (Simulation time: 00 hr 39 min 11 sec)
Heartbeat CPU 0 instructions: 191000900 cycles: 304023424 heartbeat IPC: 0.533 cumulative IPC: 0.4851 (Simulation time: 00 hr 39 min 17 sec)
Heartbeat CPU 0 instructions: 191500900 cycles: 305632688 heartbeat IPC: 0.3107 cumulative IPC: 0.4841 (Simulation time: 00 hr 39 min 27 sec)
Heartbeat CPU 0 instructions: 192000903 cycles: 306645807 heartbeat IPC: 0.4935 cumulative IPC: 0.4842 (Simulation time: 00 hr 39 min 33 sec)
Heartbeat CPU 0 instructions: 192500905 cycles: 307478198 heartbeat IPC: 0.6007 cumulative IPC: 0.4845 (Simulation time: 00 hr 39 min 38 sec)
Heartbeat CPU 0 instructions: 193000905 cycles: 308173636 heartbeat IPC: 0.719 cumulative IPC: 0.485 (Simulation time: 00 hr 39 min 43 sec)
Heartbeat CPU 0 instructions: 193500905 cycles: 309323916 heartbeat IPC: 0.4347 cumulative IPC: 0.4849 (Simulation time: 00 hr 39 min 50 sec)
Heartbeat CPU 0 instructions: 194000909 cycles: 310145783 heartbeat IPC: 0.6084 cumulative IPC: 0.4852 (Simulation time: 00 hr 39 min 55 sec)
Heartbeat CPU 0 instructions: 194500909 cycles: 310987895 heartbeat IPC: 0.5937 cumulative IPC: 0.4855 (Simulation time: 00 hr 40 min 00 sec)
Heartbeat CPU 0 instructions: 195000909 cycles: 312569907 heartbeat IPC: 0.3161 cumulative IPC: 0.4846 (Simulation time: 00 hr 40 min 09 sec)
Heartbeat CPU 0 instructions: 195500912 cycles: 314454853 heartbeat IPC: 0.2653 cumulative IPC: 0.4832 (Simulation time: 00 hr 40 min 20 sec)
Heartbeat CPU 0 instructions: 196000912 cycles: 315407984 heartbeat IPC: 0.5246 cumulative IPC: 0.4834 (Simulation time: 00 hr 40 min 26 sec)
Heartbeat CPU 0 instructions: 196500916 cycles: 316437775 heartbeat IPC: 0.4855 cumulative IPC: 0.4834 (Simulation time: 00 hr 40 min 32 sec)
Heartbeat CPU 0 instructions: 197000916 cycles: 317631163 heartbeat IPC: 0.419 cumulative IPC: 0.4831 (Simulation time: 00 hr 40 min 39 sec)
Heartbeat CPU 0 instructions: 197500916 cycles: 319175088 heartbeat IPC: 0.3238 cumulative IPC: 0.4823 (Simulation time: 00 hr 40 min 47 sec)
Heartbeat CPU 0 instructions: 198000921 cycles: 320422433 heartbeat IPC: 0.4009 cumulative IPC: 0.482 (Simulation time: 00 hr 40 min 54 sec)
Heartbeat CPU 0 instructions: 198500923 cycles: 322271666 heartbeat IPC: 0.2704 cumulative IPC: 0.4807 (Simulation time: 00 hr 41 min 05 sec)
Heartbeat CPU 0 instructions: 199000926 cycles: 322835549 heartbeat IPC: 0.8867 cumulative IPC: 0.4815 (Simulation time: 00 hr 41 min 09 sec)
Heartbeat CPU 0 instructions: 199500926 cycles: 324140817 heartbeat IPC: 0.3831 cumulative IPC: 0.481 (Simulation time: 00 hr 41 min 17 sec)
Heartbeat CPU 0 instructions: 200000928 cycles: 325082904 heartbeat IPC: 0.5307 cumulative IPC: 0.4812 (Simulation time: 00 hr 41 min 23 sec)
Heartbeat CPU 0 instructions: 200500935 cycles: 325858332 heartbeat IPC: 0.6448 cumulative IPC: 0.4816 (Simulation time: 00 hr 41 min 28 sec)
Heartbeat CPU 0 instructions: 201000937 cycles: 326415109 heartbeat IPC: 0.898 cumulative IPC: 0.4823 (Simulation time: 00 hr 41 min 31 sec)
Heartbeat CPU 0 instructions: 201500942 cycles: 327051170 heartbeat IPC: 0.7861 cumulative IPC: 0.483 (Simulation time: 00 hr 41 min 35 sec)
Heartbeat CPU 0 instructions: 202000948 cycles: 327372623 heartbeat IPC: 1.555 cumulative IPC: 0.4841 (Simulation time: 00 hr 41 min 38 sec)
Heartbeat CPU 0 instructions: 202500949 cycles: 327656962 heartbeat IPC: 1.758 cumulative IPC: 0.4852 (Simulation time: 00 hr 41 min 40 sec)
Heartbeat CPU 0 instructions: 203000952 cycles: 327886051 heartbeat IPC: 2.183 cumulative IPC: 0.4864 (Simulation time: 00 hr 41 min 42 sec)
Heartbeat CPU 0 instructions: 203500953 cycles: 328106045 heartbeat IPC: 2.273 cumulative IPC: 0.4877 (Simulation time: 00 hr 41 min 44 sec)
Heartbeat CPU 0 instructions: 204000953 cycles: 328322003 heartbeat IPC: 2.315 cumulative IPC: 0.4889 (Simulation time: 00 hr 41 min 46 sec)
Heartbeat CPU 0 instructions: 204500955 cycles: 328534588 heartbeat IPC: 2.352 cumulative IPC: 0.4902 (Simulation time: 00 hr 41 min 48 sec)
Heartbeat CPU 0 instructions: 205000962 cycles: 328931323 heartbeat IPC: 1.26 cumulative IPC: 0.4912 (Simulation time: 00 hr 41 min 50 sec)
Heartbeat CPU 0 instructions: 205500962 cycles: 329975507 heartbeat IPC: 0.4788 cumulative IPC: 0.4911 (Simulation time: 00 hr 41 min 57 sec)
Heartbeat CPU 0 instructions: 206000962 cycles: 331929191 heartbeat IPC: 0.2559 cumulative IPC: 0.4897 (Simulation time: 00 hr 42 min 08 sec)
Heartbeat CPU 0 instructions: 206500966 cycles: 333377460 heartbeat IPC: 0.3452 cumulative IPC: 0.489 (Simulation time: 00 hr 42 min 16 sec)
Heartbeat CPU 0 instructions: 207000966 cycles: 334798634 heartbeat IPC: 0.3518 cumulative IPC: 0.4884 (Simulation time: 00 hr 42 min 24 sec)
Heartbeat CPU 0 instructions: 207500967 cycles: 335833600 heartbeat IPC: 0.4831 cumulative IPC: 0.4884 (Simulation time: 00 hr 42 min 31 sec)
Heartbeat CPU 0 instructions: 208000971 cycles: 337286206 heartbeat IPC: 0.3442 cumulative IPC: 0.4878 (Simulation time: 00 hr 42 min 39 sec)
Heartbeat CPU 0 instructions: 208500974 cycles: 338178304 heartbeat IPC: 0.5605 cumulative IPC: 0.488 (Simulation time: 00 hr 42 min 45 sec)
Heartbeat CPU 0 instructions: 209000975 cycles: 339350909 heartbeat IPC: 0.4264 cumulative IPC: 0.4877 (Simulation time: 00 hr 42 min 53 sec)
Heartbeat CPU 0 instructions: 209500975 cycles: 340423417 heartbeat IPC: 0.4662 cumulative IPC: 0.4877 (Simulation time: 00 hr 42 min 59 sec)
Heartbeat CPU 0 instructions: 210000979 cycles: 341107368 heartbeat IPC: 0.7311 cumulative IPC: 0.4882 (Simulation time: 00 hr 43 min 04 sec)
Heartbeat CPU 0 instructions: 210500981 cycles: 342324509 heartbeat IPC: 0.4108 cumulative IPC: 0.4879 (Simulation time: 00 hr 43 min 11 sec)
Heartbeat CPU 0 instructions: 211000984 cycles: 343417774 heartbeat IPC: 0.4573 cumulative IPC: 0.4878 (Simulation time: 00 hr 43 min 18 sec)
Heartbeat CPU 0 instructions: 211500985 cycles: 344712762 heartbeat IPC: 0.3861 cumulative IPC: 0.4874 (Simulation time: 00 hr 43 min 25 sec)
Heartbeat CPU 0 instructions: 212000986 cycles: 345621159 heartbeat IPC: 0.5504 cumulative IPC: 0.4876 (Simulation time: 00 hr 43 min 31 sec)
Heartbeat CPU 0 instructions: 212500988 cycles: 347193157 heartbeat IPC: 0.3181 cumulative IPC: 0.4868 (Simulation time: 00 hr 43 min 39 sec)
Heartbeat CPU 0 instructions: 213000989 cycles: 348678769 heartbeat IPC: 0.3366 cumulative IPC: 0.4861 (Simulation time: 00 hr 43 min 48 sec)
Heartbeat CPU 0 instructions: 213500989 cycles: 349805671 heartbeat IPC: 0.4437 cumulative IPC: 0.486 (Simulation time: 00 hr 43 min 54 sec)
Heartbeat CPU 0 instructions: 214000993 cycles: 350777242 heartbeat IPC: 0.5146 cumulative IPC: 0.486 (Simulation time: 00 hr 44 min 00 sec)
Heartbeat CPU 0 instructions: 214500993 cycles: 351344925 heartbeat IPC: 0.8808 cumulative IPC: 0.4867 (Simulation time: 00 hr 44 min 04 sec)
Heartbeat CPU 0 instructions: 215001000 cycles: 351995346 heartbeat IPC: 0.7687 cumulative IPC: 0.4872 (Simulation time: 00 hr 44 min 08 sec)
Heartbeat CPU 0 instructions: 215501005 cycles: 353186221 heartbeat IPC: 0.4199 cumulative IPC: 0.487 (Simulation time: 00 hr 44 min 15 sec)
Heartbeat CPU 0 instructions: 216001005 cycles: 355401741 heartbeat IPC: 0.2257 cumulative IPC: 0.4853 (Simulation time: 00 hr 44 min 27 sec)
Heartbeat CPU 0 instructions: 216501005 cycles: 357006374 heartbeat IPC: 0.3116 cumulative IPC: 0.4845 (Simulation time: 00 hr 44 min 36 sec)
Heartbeat CPU 0 instructions: 217001005 cycles: 357952452 heartbeat IPC: 0.5285 cumulative IPC: 0.4846 (Simulation time: 00 hr 44 min 42 sec)
Heartbeat CPU 0 instructions: 217501006 cycles: 358733300 heartbeat IPC: 0.6403 cumulative IPC: 0.485 (Simulation time: 00 hr 44 min 47 sec)
Heartbeat CPU 0 instructions: 218001006 cycles: 359154165 heartbeat IPC: 1.188 cumulative IPC: 0.4858 (Simulation time: 00 hr 44 min 50 sec)
Heartbeat CPU 0 instructions: 218501011 cycles: 359665009 heartbeat IPC: 0.9788 cumulative IPC: 0.4866 (Simulation time: 00 hr 44 min 53 sec)
Heartbeat CPU 0 instructions: 219001014 cycles: 360846141 heartbeat IPC: 0.4233 cumulative IPC: 0.4863 (Simulation time: 00 hr 45 min 00 sec)
Heartbeat CPU 0 instructions: 219501014 cycles: 362828244 heartbeat IPC: 0.2523 cumulative IPC: 0.485 (Simulation time: 00 hr 45 min 12 sec)
Heartbeat CPU 0 instructions: 220001016 cycles: 364122834 heartbeat IPC: 0.3862 cumulative IPC: 0.4847 (Simulation time: 00 hr 45 min 20 sec)
Heartbeat CPU 0 instructions: 220501016 cycles: 364662054 heartbeat IPC: 0.9273 cumulative IPC: 0.4853 (Simulation time: 00 hr 45 min 24 sec)
Heartbeat CPU 0 instructions: 221001016 cycles: 365631088 heartbeat IPC: 0.516 cumulative IPC: 0.4854 (Simulation time: 00 hr 45 min 30 sec)
Heartbeat CPU 0 instructions: 221501020 cycles: 367778632 heartbeat IPC: 0.2328 cumulative IPC: 0.4839 (Simulation time: 00 hr 45 min 42 sec)
Heartbeat CPU 0 instructions: 222001020 cycles: 369060949 heartbeat IPC: 0.3899 cumulative IPC: 0.4835 (Simulation time: 00 hr 45 min 50 sec)
Heartbeat CPU 0 instructions: 222501023 cycles: 369945619 heartbeat IPC: 0.5652 cumulative IPC: 0.4838 (Simulation time: 00 hr 45 min 55 sec)
Heartbeat CPU 0 instructions: 223001023 cycles: 370922960 heartbeat IPC: 0.5116 cumulative IPC: 0.4838 (Simulation time: 00 hr 46 min 01 sec)
Heartbeat CPU 0 instructions: 223501025 cycles: 372840078 heartbeat IPC: 0.2608 cumulative IPC: 0.4826 (Simulation time: 00 hr 46 min 11 sec)
Heartbeat CPU 0 instructions: 224001026 cycles: 374312338 heartbeat IPC: 0.3396 cumulative IPC: 0.4821 (Simulation time: 00 hr 46 min 20 sec)
Heartbeat CPU 0 instructions: 224501026 cycles: 375392637 heartbeat IPC: 0.4628 cumulative IPC: 0.482 (Simulation time: 00 hr 46 min 27 sec)
Heartbeat CPU 0 instructions: 225001032 cycles: 375991798 heartbeat IPC: 0.8345 cumulative IPC: 0.4826 (Simulation time: 00 hr 46 min 30 sec)
Heartbeat CPU 0 instructions: 225501033 cycles: 376502930 heartbeat IPC: 0.9782 cumulative IPC: 0.4833 (Simulation time: 00 hr 46 min 34 sec)
Heartbeat CPU 0 instructions: 226001033 cycles: 376859005 heartbeat IPC: 1.404 cumulative IPC: 0.4842 (Simulation time: 00 hr 46 min 37 sec)
Heartbeat CPU 0 instructions: 226501040 cycles: 377716046 heartbeat IPC: 0.5834 cumulative IPC: 0.4844 (Simulation time: 00 hr 46 min 42 sec)
Heartbeat CPU 0 instructions: 227001041 cycles: 379848148 heartbeat IPC: 0.2345 cumulative IPC: 0.483 (Simulation time: 00 hr 46 min 55 sec)
Heartbeat CPU 0 instructions: 227501042 cycles: 381455056 heartbeat IPC: 0.3112 cumulative IPC: 0.4822 (Simulation time: 00 hr 47 min 04 sec)
Heartbeat CPU 0 instructions: 228001046 cycles: 382587767 heartbeat IPC: 0.4414 cumulative IPC: 0.4821 (Simulation time: 00 hr 47 min 10 sec)
Heartbeat CPU 0 instructions: 228501046 cycles: 384360751 heartbeat IPC: 0.282 cumulative IPC: 0.4811 (Simulation time: 00 hr 47 min 20 sec)
Heartbeat CPU 0 instructions: 229001047 cycles: 386240703 heartbeat IPC: 0.266 cumulative IPC: 0.48 (Simulation time: 00 hr 47 min 31 sec)
Heartbeat CPU 0 instructions: 229501048 cycles: 387527450 heartbeat IPC: 0.3886 cumulative IPC: 0.4797 (Simulation time: 00 hr 47 min 38 sec)
Heartbeat CPU 0 instructions: 230001048 cycles: 388580168 heartbeat IPC: 0.475 cumulative IPC: 0.4797 (Simulation time: 00 hr 47 min 44 sec)
Heartbeat CPU 0 instructions: 230501049 cycles: 389370635 heartbeat IPC: 0.6325 cumulative IPC: 0.48 (Simulation time: 00 hr 47 min 49 sec)
Heartbeat CPU 0 instructions: 231001051 cycles: 390045117 heartbeat IPC: 0.7413 cumulative IPC: 0.4805 (Simulation time: 00 hr 47 min 54 sec)
Heartbeat CPU 0 instructions: 231501051 cycles: 391715605 heartbeat IPC: 0.2993 cumulative IPC: 0.4797 (Simulation time: 00 hr 48 min 03 sec)
Heartbeat CPU 0 instructions: 232001056 cycles: 392542133 heartbeat IPC: 0.6049 cumulative IPC: 0.48 (Simulation time: 00 hr 48 min 09 sec)
Heartbeat CPU 0 instructions: 232501058 cycles: 393095135 heartbeat IPC: 0.9042 cumulative IPC: 0.4806 (Simulation time: 00 hr 48 min 12 sec)
Heartbeat CPU 0 instructions: 233001058 cycles: 393654036 heartbeat IPC: 0.8946 cumulative IPC: 0.4812 (Simulation time: 00 hr 48 min 16 sec)
Heartbeat CPU 0 instructions: 233501058 cycles: 393938416 heartbeat IPC: 1.758 cumulative IPC: 0.4822 (Simulation time: 00 hr 48 min 19 sec)
Heartbeat CPU 0 instructions: 234001062 cycles: 394509019 heartbeat IPC: 0.8763 cumulative IPC: 0.4827 (Simulation time: 00 hr 48 min 23 sec)
Heartbeat CPU 0 instructions: 234501062 cycles: 396137385 heartbeat IPC: 0.3071 cumulative IPC: 0.482 (Simulation time: 00 hr 48 min 32 sec)
Heartbeat CPU 0 instructions: 235001065 cycles: 397421350 heartbeat IPC: 0.3894 cumulative IPC: 0.4817 (Simulation time: 00 hr 48 min 40 sec)
Heartbeat CPU 0 instructions: 235501071 cycles: 398253021 heartbeat IPC: 0.6012 cumulative IPC: 0.4819 (Simulation time: 00 hr 48 min 45 sec)
Heartbeat CPU 0 instructions: 236001072 cycles: 398875003 heartbeat IPC: 0.8039 cumulative IPC: 0.4825 (Simulation time: 00 hr 48 min 49 sec)
Heartbeat CPU 0 instructions: 236501075 cycles: 399436405 heartbeat IPC: 0.8906 cumulative IPC: 0.4831 (Simulation time: 00 hr 48 min 53 sec)
Heartbeat CPU 0 instructions: 237001075 cycles: 399890266 heartbeat IPC: 1.102 cumulative IPC: 0.4838 (Simulation time: 00 hr 48 min 56 sec)
Heartbeat CPU 0 instructions: 237501075 cycles: 400785243 heartbeat IPC: 0.5587 cumulative IPC: 0.484 (Simulation time: 00 hr 49 min 02 sec)
Heartbeat CPU 0 instructions: 238001077 cycles: 402707018 heartbeat IPC: 0.2602 cumulative IPC: 0.4829 (Simulation time: 00 hr 49 min 13 sec)
Heartbeat CPU 0 instructions: 238501081 cycles: 404843863 heartbeat IPC: 0.234 cumulative IPC: 0.4815 (Simulation time: 00 hr 49 min 25 sec)
Heartbeat CPU 0 instructions: 239001081 cycles: 405412288 heartbeat IPC: 0.8796 cumulative IPC: 0.4821 (Simulation time: 00 hr 49 min 29 sec)
Heartbeat CPU 0 instructions: 239501081 cycles: 405939663 heartbeat IPC: 0.9481 cumulative IPC: 0.4827 (Simulation time: 00 hr 49 min 33 sec)
Heartbeat CPU 0 instructions: 240001083 cycles: 406775578 heartbeat IPC: 0.5981 cumulative IPC: 0.4829 (Simulation time: 00 hr 49 min 38 sec)
Heartbeat CPU 0 instructions: 240501083 cycles: 407147581 heartbeat IPC: 1.344 cumulative IPC: 0.4838 (Simulation time: 00 hr 49 min 41 sec)
Heartbeat CPU 0 instructions: 241001083 cycles: 407358603 heartbeat IPC: 2.369 cumulative IPC: 0.4848 (Simulation time: 00 hr 49 min 43 sec)
Heartbeat CPU 0 instructions: 241501086 cycles: 407569962 heartbeat IPC: 2.366 cumulative IPC: 0.4858 (Simulation time: 00 hr 49 min 46 sec)
Heartbeat CPU 0 instructions: 242001086 cycles: 408118792 heartbeat IPC: 0.911 cumulative IPC: 0.4864 (Simulation time: 00 hr 49 min 50 sec)
Heartbeat CPU 0 instructions: 242501088 cycles: 409815879 heartbeat IPC: 0.2946 cumulative IPC: 0.4855 (Simulation time: 00 hr 49 min 59 sec)
Heartbeat CPU 0 instructions: 243001091 cycles: 411163292 heartbeat IPC: 0.3711 cumulative IPC: 0.4852 (Simulation time: 00 hr 50 min 07 sec)
Heartbeat CPU 0 instructions: 243501091 cycles: 411973186 heartbeat IPC: 0.6174 cumulative IPC: 0.4854 (Simulation time: 00 hr 50 min 12 sec)
Heartbeat CPU 0 instructions: 244001094 cycles: 412532209 heartbeat IPC: 0.8944 cumulative IPC: 0.486 (Simulation time: 00 hr 50 min 16 sec)
Heartbeat CPU 0 instructions: 244501101 cycles: 414145902 heartbeat IPC: 0.3099 cumulative IPC: 0.4853 (Simulation time: 00 hr 50 min 25 sec)
Heartbeat CPU 0 instructions: 245001101 cycles: 416296384 heartbeat IPC: 0.2325 cumulative IPC: 0.4839 (Simulation time: 00 hr 50 min 37 sec)
Heartbeat CPU 0 instructions: 245501102 cycles: 417522954 heartbeat IPC: 0.4076 cumulative IPC: 0.4837 (Simulation time: 00 hr 50 min 44 sec)
Heartbeat CPU 0 instructions: 246001104 cycles: 418791261 heartbeat IPC: 0.3942 cumulative IPC: 0.4834 (Simulation time: 00 hr 50 min 52 sec)
Heartbeat CPU 0 instructions: 246501109 cycles: 420181556 heartbeat IPC: 0.3596 cumulative IPC: 0.483 (Simulation time: 00 hr 50 min 59 sec)
Heartbeat CPU 0 instructions: 247001113 cycles: 421474778 heartbeat IPC: 0.3866 cumulative IPC: 0.4827 (Simulation time: 00 hr 51 min 07 sec)
Heartbeat CPU 0 instructions: 247501113 cycles: 422312025 heartbeat IPC: 0.5972 cumulative IPC: 0.4829 (Simulation time: 00 hr 51 min 12 sec)
Heartbeat CPU 0 instructions: 248001117 cycles: 423032567 heartbeat IPC: 0.6939 cumulative IPC: 0.4833 (Simulation time: 00 hr 51 min 17 sec)
Heartbeat CPU 0 instructions: 248501117 cycles: 423482606 heartbeat IPC: 1.111 cumulative IPC: 0.484 (Simulation time: 00 hr 51 min 20 sec)
Heartbeat CPU 0 instructions: 249001120 cycles: 423978215 heartbeat IPC: 1.009 cumulative IPC: 0.4846 (Simulation time: 00 hr 51 min 24 sec)
Heartbeat CPU 0 instructions: 249501123 cycles: 424957558 heartbeat IPC: 0.5105 cumulative IPC: 0.4847 (Simulation time: 00 hr 51 min 30 sec)
Simulation finished CPU 0 instructions: 200000005 cycles: 413757675 cumulative IPC: 0.4834 (Simulation time: 00 hr 51 min 42 sec)
Simulation complete CPU 0 instructions: 200000005 cycles: 413757675 cumulative IPC: 0.4834 (Simulation time: 00 hr 51 min 42 sec)

ChampSim completed all CPUs

=== Simulation ===
CPU 0 runs /local-ssd/ben/dpc4-traces/gtraces_v2/yankee_0004.champsim.gz

Region of Interest Statistics

CPU 0 cumulative IPC: 0.4834 instructions: 200000005 cycles: 413757675
CPU 0 Branch Prediction Accuracy: 88.26% MPKI: 21.66 Average ROB Occupancy at Mispredict: 21.16
Branch type MPKI
BRANCH_DIRECT_JUMP: 0.9291
BRANCH_INDIRECT: 0.5295
BRANCH_CONDITIONAL: 17.16
BRANCH_DIRECT_CALL: 1.633
BRANCH_INDIRECT_CALL: 0.4901
BRANCH_RETURN: 0.918

cpu0->cpu0_STLB TOTAL        ACCESS:    1621716 HIT:    1082472 MISS:     539244 MSHR_MERGE:          0
cpu0->cpu0_STLB LOAD         ACCESS:    1621716 HIT:    1082472 MISS:     539244 MSHR_MERGE:          0
cpu0->cpu0_STLB RFO          ACCESS:          0 HIT:          0 MISS:          0 MSHR_MERGE:          0
cpu0->cpu0_STLB PREFETCH     ACCESS:          0 HIT:          0 MISS:          0 MSHR_MERGE:          0
cpu0->cpu0_STLB WRITE        ACCESS:          0 HIT:          0 MISS:          0 MSHR_MERGE:          0
cpu0->cpu0_STLB TRANSLATION  ACCESS:          0 HIT:          0 MISS:          0 MSHR_MERGE:          0
cpu0->cpu0_STLB PREFETCH REQUESTED:          0 ISSUED:          0 USEFUL:          0 USELESS:          0
cpu0->cpu0_STLB AVERAGE MISS LATENCY: 161.2 cycles
cpu0->cpu0_L2C TOTAL        ACCESS:   14522830 HIT:    9210576 MISS:    5312254 MSHR_MERGE:     846865
cpu0->cpu0_L2C LOAD         ACCESS:    3790218 HIT:    1824843 MISS:    1965375 MSHR_MERGE:      29728
cpu0->cpu0_L2C RFO          ACCESS:     767224 HIT:     250070 MISS:     517154 MSHR_MERGE:       9987
cpu0->cpu0_L2C PREFETCH     ACCESS:    8115681 HIT:    5558992 MISS:    2556689 MSHR_MERGE:     807150
cpu0->cpu0_L2C WRITE        ACCESS:    1239918 HIT:    1239905 MISS:         13 MSHR_MERGE:          0
cpu0->cpu0_L2C TRANSLATION  ACCESS:     609789 HIT:     336766 MISS:     273023 MSHR_MERGE:          0
cpu0->cpu0_L2C PREFETCH REQUESTED:    7084549 ISSUED:    6801429 USEFUL:     607243 USELESS:     784513
cpu0->cpu0_L2C AVERAGE MISS LATENCY: 184.4 cycles
cpu0->cpu0_L1I TOTAL        ACCESS:   13335100 HIT:   10635470 MISS:    2699630 MSHR_MERGE:     579505
cpu0->cpu0_L1I LOAD         ACCESS:   13335100 HIT:   10635470 MISS:    2699630 MSHR_MERGE:     579505
cpu0->cpu0_L1I RFO          ACCESS:          0 HIT:          0 MISS:          0 MSHR_MERGE:          0
cpu0->cpu0_L1I PREFETCH     ACCESS:          0 HIT:          0 MISS:          0 MSHR_MERGE:          0
cpu0->cpu0_L1I WRITE        ACCESS:          0 HIT:          0 MISS:          0 MSHR_MERGE:          0
cpu0->cpu0_L1I TRANSLATION  ACCESS:          0 HIT:          0 MISS:          0 MSHR_MERGE:          0
cpu0->cpu0_L1I PREFETCH REQUESTED:          0 ISSUED:          0 USEFUL:          0 USELESS:          0
cpu0->cpu0_L1I AVERAGE MISS LATENCY: 115.5 cycles
cpu0->cpu0_L1D TOTAL        ACCESS:   61677876 HIT:   54478170 MISS:    7199706 MSHR_MERGE:    2838296
cpu0->cpu0_L1D LOAD         ACCESS:   34589512 HIT:   32387134 MISS:    2202378 MSHR_MERGE:     532277
cpu0->cpu0_L1D RFO          ACCESS:          0 HIT:          0 MISS:          0 MSHR_MERGE:          0
cpu0->cpu0_L1D PREFETCH     ACCESS:    2258634 HIT:     882845 MISS:    1375789 MSHR_MERGE:      61534
cpu0->cpu0_L1D WRITE        ACCESS:   23436169 HIT:   20428141 MISS:    3008028 MSHR_MERGE:    2240763
cpu0->cpu0_L1D TRANSLATION  ACCESS:    1393561 HIT:     780050 MISS:     613511 MSHR_MERGE:       3722
cpu0->cpu0_L1D PREFETCH REQUESTED:    2288244 ISSUED:    2258634 USEFUL:     679996 USELESS:     634278
cpu0->cpu0_L1D AVERAGE MISS LATENCY: 100.2 cycles
cpu0->cpu0_ITLB TOTAL        ACCESS:   10831953 HIT:   10587748 MISS:     244205 MSHR_MERGE:     115559
cpu0->cpu0_ITLB LOAD         ACCESS:   10831953 HIT:   10587748 MISS:     244205 MSHR_MERGE:     115559
cpu0->cpu0_ITLB RFO          ACCESS:          0 HIT:          0 MISS:          0 MSHR_MERGE:          0
cpu0->cpu0_ITLB PREFETCH     ACCESS:          0 HIT:          0 MISS:          0 MSHR_MERGE:          0
cpu0->cpu0_ITLB WRITE        ACCESS:          0 HIT:          0 MISS:          0 MSHR_MERGE:          0
cpu0->cpu0_ITLB TRANSLATION  ACCESS:          0 HIT:          0 MISS:          0 MSHR_MERGE:          0
cpu0->cpu0_ITLB PREFETCH REQUESTED:          0 ISSUED:          0 USEFUL:          0 USELESS:          0
cpu0->cpu0_ITLB AVERAGE MISS LATENCY: 34.81 cycles
cpu0->cpu0_DTLB TOTAL        ACCESS:   57475594 HIT:   54871104 MISS:    2604490 MSHR_MERGE:    1111420
cpu0->cpu0_DTLB LOAD         ACCESS:   57475594 HIT:   54871104 MISS:    2604490 MSHR_MERGE:    1111420
cpu0->cpu0_DTLB RFO          ACCESS:          0 HIT:          0 MISS:          0 MSHR_MERGE:          0
cpu0->cpu0_DTLB PREFETCH     ACCESS:          0 HIT:          0 MISS:          0 MSHR_MERGE:          0
cpu0->cpu0_DTLB WRITE        ACCESS:          0 HIT:          0 MISS:          0 MSHR_MERGE:          0
cpu0->cpu0_DTLB TRANSLATION  ACCESS:          0 HIT:          0 MISS:          0 MSHR_MERGE:          0
cpu0->cpu0_DTLB PREFETCH REQUESTED:          0 ISSUED:          0 USEFUL:          0 USELESS:          0
cpu0->cpu0_DTLB AVERAGE MISS LATENCY: 61.03 cycles
cpu0->LLC TOTAL        ACCESS:    5748508 HIT:    1359789 MISS:    4388719 MSHR_MERGE:      53428
cpu0->LLC LOAD         ACCESS:    1935647 HIT:     663691 MISS:    1271956 MSHR_MERGE:       1510
cpu0->LLC RFO          ACCESS:     507167 HIT:      14344 MISS:     492823 MSHR_MERGE:        287
cpu0->LLC PREFETCH     ACCESS:    2148264 HIT:     420750 MISS:    1727514 MSHR_MERGE:      51631
cpu0->LLC WRITE        ACCESS:     884407 HIT:     211740 MISS:     672667 MSHR_MERGE:          0
cpu0->LLC TRANSLATION  ACCESS:     273023 HIT:      49264 MISS:     223759 MSHR_MERGE:          0
cpu0->LLC PREFETCH REQUESTED:     398745 ISSUED:     398725 USEFUL:      40228 USELESS:     216821
cpu0->LLC AVERAGE MISS LATENCY: 169.7 cycles

DRAM Statistics

Channel 0 RQ ROW_BUFFER_HIT:     113851
  ROW_BUFFER_MISS:    3548715
  AVG DBUS CONGESTED CYCLE: 24.21
Channel 0 WQ ROW_BUFFER_HIT:     224195
  ROW_BUFFER_MISS:     615120
  FULL:         60
Channel 0 REFRESHES ISSUED:      34478
