[VMEM] WARNING: physical memory size is smaller than virtual memory size.

*** ChampSim Multicore Out-of-Order Simulator ***
Warmup Instructions: 50000000
Simulation Instructions: 200000000
Number of CPUs: 1
Page size: 4096
Core 0: /local-ssd/ben/dpc4-traces/SPEC17/605.mcf_s-472B.champsimtrace.xz
 L1D Berti prefetcher
Off-chip DRAM Size: 64 GiB Channels: 1 Width: 64-bit Data Rate: 4807 MT/s
Heartbeat CPU 0 instructions: 500002 cycles: 212093 heartbeat IPC: 2.357 cumulative IPC: 2.357 (Simulation time: 00 hr 00 min 03 sec)
Heartbeat CPU 0 instructions: 1000008 cycles: 420879 heartbeat IPC: 2.395 cumulative IPC: 2.376 (Simulation time: 00 hr 00 min 06 sec)
Heartbeat CPU 0 instructions: 1500009 cycles: 675023 heartbeat IPC: 1.967 cumulative IPC: 2.222 (Simulation time: 00 hr 00 min 11 sec)
Heartbeat CPU 0 instructions: 2000013 cycles: 930603 heartbeat IPC: 1.956 cumulative IPC: 2.149 (Simulation time: 00 hr 00 min 15 sec)
Heartbeat CPU 0 instructions: 2500019 cycles: 1143244 heartbeat IPC: 2.351 cumulative IPC: 2.187 (Simulation time: 00 hr 00 min 18 sec)
Heartbeat CPU 0 instructions: 3000025 cycles: 1340393 heartbeat IPC: 2.536 cumulative IPC: 2.238 (Simulation time: 00 hr 00 min 20 sec)
Heartbeat CPU 0 instructions: 3500025 cycles: 1558947 heartbeat IPC: 2.288 cumulative IPC: 2.245 (Simulation time: 00 hr 00 min 23 sec)
Heartbeat CPU 0 instructions: 4000032 cycles: 1755792 heartbeat IPC: 2.54 cumulative IPC: 2.278 (Simulation time: 00 hr 00 min 26 sec)
Heartbeat CPU 0 instructions: 4500039 cycles: 1910769 heartbeat IPC: 3.226 cumulative IPC: 2.355 (Simulation time: 00 hr 00 min 30 sec)
Heartbeat CPU 0 instructions: 5000040 cycles: 2115855 heartbeat IPC: 2.438 cumulative IPC: 2.363 (Simulation time: 00 hr 00 min 33 sec)
Heartbeat CPU 0 instructions: 5500041 cycles: 2321085 heartbeat IPC: 2.436 cumulative IPC: 2.37 (Simulation time: 00 hr 00 min 36 sec)
Heartbeat CPU 0 instructions: 6000048 cycles: 2523140 heartbeat IPC: 2.475 cumulative IPC: 2.378 (Simulation time: 00 hr 00 min 39 sec)
Heartbeat CPU 0 instructions: 6500053 cycles: 2727191 heartbeat IPC: 2.45 cumulative IPC: 2.383 (Simulation time: 00 hr 00 min 42 sec)
Heartbeat CPU 0 instructions: 7000056 cycles: 2896585 heartbeat IPC: 2.952 cumulative IPC: 2.417 (Simulation time: 00 hr 00 min 45 sec)
Heartbeat CPU 0 instructions: 7500059 cycles: 3077418 heartbeat IPC: 2.765 cumulative IPC: 2.437 (Simulation time: 00 hr 00 min 48 sec)
Heartbeat CPU 0 instructions: 8000061 cycles: 3266085 heartbeat IPC: 2.65 cumulative IPC: 2.449 (Simulation time: 00 hr 00 min 51 sec)
Heartbeat CPU 0 instructions: 8500065 cycles: 3456897 heartbeat IPC: 2.62 cumulative IPC: 2.459 (Simulation time: 00 hr 00 min 53 sec)
Heartbeat CPU 0 instructions: 9000066 cycles: 3642588 heartbeat IPC: 2.693 cumulative IPC: 2.471 (Simulation time: 00 hr 00 min 56 sec)
Heartbeat CPU 0 instructions: 9500069 cycles: 3799828 heartbeat IPC: 3.18 cumulative IPC: 2.5 (Simulation time: 00 hr 01 min 00 sec)
Heartbeat CPU 0 instructions: 10000069 cycles: 4004842 heartbeat IPC: 2.439 cumulative IPC: 2.497 (Simulation time: 00 hr 01 min 03 sec)
Heartbeat CPU 0 instructions: 10500070 cycles: 4212001 heartbeat IPC: 2.414 cumulative IPC: 2.493 (Simulation time: 00 hr 01 min 06 sec)
Heartbeat CPU 0 instructions: 11000072 cycles: 4409775 heartbeat IPC: 2.528 cumulative IPC: 2.494 (Simulation time: 00 hr 01 min 09 sec)
Heartbeat CPU 0 instructions: 11500078 cycles: 4557064 heartbeat IPC: 3.395 cumulative IPC: 2.524 (Simulation time: 00 hr 01 min 12 sec)
Heartbeat CPU 0 instructions: 12000078 cycles: 4696767 heartbeat IPC: 3.579 cumulative IPC: 2.555 (Simulation time: 00 hr 01 min 15 sec)
Heartbeat CPU 0 instructions: 12500080 cycles: 4903779 heartbeat IPC: 2.415 cumulative IPC: 2.549 (Simulation time: 00 hr 01 min 18 sec)
Heartbeat CPU 0 instructions: 13000084 cycles: 5106472 heartbeat IPC: 2.467 cumulative IPC: 2.546 (Simulation time: 00 hr 01 min 21 sec)
Heartbeat CPU 0 instructions: 13500090 cycles: 5305705 heartbeat IPC: 2.51 cumulative IPC: 2.544 (Simulation time: 00 hr 01 min 24 sec)
Heartbeat CPU 0 instructions: 14000090 cycles: 5453035 heartbeat IPC: 3.394 cumulative IPC: 2.567 (Simulation time: 00 hr 01 min 27 sec)
Heartbeat CPU 0 instructions: 14500095 cycles: 5595463 heartbeat IPC: 3.511 cumulative IPC: 2.591 (Simulation time: 00 hr 01 min 31 sec)
Heartbeat CPU 0 instructions: 15000096 cycles: 5823377 heartbeat IPC: 2.194 cumulative IPC: 2.576 (Simulation time: 00 hr 01 min 34 sec)
Heartbeat CPU 0 instructions: 15500096 cycles: 6043708 heartbeat IPC: 2.269 cumulative IPC: 2.565 (Simulation time: 00 hr 01 min 37 sec)
Heartbeat CPU 0 instructions: 16000100 cycles: 6260424 heartbeat IPC: 2.307 cumulative IPC: 2.556 (Simulation time: 00 hr 01 min 40 sec)
Heartbeat CPU 0 instructions: 16500103 cycles: 6440427 heartbeat IPC: 2.778 cumulative IPC: 2.562 (Simulation time: 00 hr 01 min 43 sec)
Heartbeat CPU 0 instructions: 17000109 cycles: 6596313 heartbeat IPC: 3.208 cumulative IPC: 2.577 (Simulation time: 00 hr 01 min 47 sec)
Heartbeat CPU 0 instructions: 17500110 cycles: 6738023 heartbeat IPC: 3.528 cumulative IPC: 2.597 (Simulation time: 00 hr 01 min 50 sec)
Heartbeat CPU 0 instructions: 18000111 cycles: 6876288 heartbeat IPC: 3.616 cumulative IPC: 2.618 (Simulation time: 00 hr 01 min 53 sec)
Heartbeat CPU 0 instructions: 18500112 cycles: 7018631 heartbeat IPC: 3.513 cumulative IPC: 2.636 (Simulation time: 00 hr 01 min 56 sec)
Heartbeat CPU 0 instructions: 19000116 cycles: 7166204 heartbeat IPC: 3.388 cumulative IPC: 2.651 (Simulation time: 00 hr 01 min 59 sec)
Heartbeat CPU 0 instructions: 19500121 cycles: 7367056 heartbeat IPC: 2.489 cumulative IPC: 2.647 (Simulation time: 00 hr 02 min 02 sec)
Heartbeat CPU 0 instructions: 20000122 cycles: 7571630 heartbeat IPC: 2.444 cumulative IPC: 2.641 (Simulation time: 00 hr 02 min 05 sec)
Heartbeat CPU 0 instructions: 20500126 cycles: 7795756 heartbeat IPC: 2.231 cumulative IPC: 2.63 (Simulation time: 00 hr 02 min 09 sec)
Heartbeat CPU 0 instructions: 21000132 cycles: 8018919 heartbeat IPC: 2.241 cumulative IPC: 2.619 (Simulation time: 00 hr 02 min 12 sec)
Heartbeat CPU 0 instructions: 21500136 cycles: 8229250 heartbeat IPC: 2.377 cumulative IPC: 2.613 (Simulation time: 00 hr 02 min 15 sec)
Heartbeat CPU 0 instructions: 22000139 cycles: 8386916 heartbeat IPC: 3.171 cumulative IPC: 2.623 (Simulation time: 00 hr 02 min 19 sec)
Heartbeat CPU 0 instructions: 22500139 cycles: 8518185 heartbeat IPC: 3.809 cumulative IPC: 2.641 (Simulation time: 00 hr 02 min 22 sec)
Heartbeat CPU 0 instructions: 23000144 cycles: 8656343 heartbeat IPC: 3.619 cumulative IPC: 2.657 (Simulation time: 00 hr 02 min 25 sec)
Heartbeat CPU 0 instructions: 23500148 cycles: 8794677 heartbeat IPC: 3.614 cumulative IPC: 2.672 (Simulation time: 00 hr 02 min 28 sec)
Heartbeat CPU 0 instructions: 24000150 cycles: 8933302 heartbeat IPC: 3.607 cumulative IPC: 2.687 (Simulation time: 00 hr 02 min 31 sec)
Heartbeat CPU 0 instructions: 24500151 cycles: 9072443 heartbeat IPC: 3.593 cumulative IPC: 2.701 (Simulation time: 00 hr 02 min 35 sec)
Heartbeat CPU 0 instructions: 25000155 cycles: 9216010 heartbeat IPC: 3.483 cumulative IPC: 2.713 (Simulation time: 00 hr 02 min 38 sec)
Heartbeat CPU 0 instructions: 25500158 cycles: 9356062 heartbeat IPC: 3.57 cumulative IPC: 2.726 (Simulation time: 00 hr 02 min 41 sec)
Heartbeat CPU 0 instructions: 26000164 cycles: 9497671 heartbeat IPC: 3.531 cumulative IPC: 2.738 (Simulation time: 00 hr 02 min 45 sec)
Heartbeat CPU 0 instructions: 26500166 cycles: 9641613 heartbeat IPC: 3.474 cumulative IPC: 2.749 (Simulation time: 00 hr 02 min 48 sec)
Heartbeat CPU 0 instructions: 27000167 cycles: 9785968 heartbeat IPC: 3.464 cumulative IPC: 2.759 (Simulation time: 00 hr 02 min 51 sec)
Heartbeat CPU 0 instructions: 27500169 cycles: 9985691 heartbeat IPC: 2.503 cumulative IPC: 2.754 (Simulation time: 00 hr 02 min 54 sec)
Heartbeat CPU 0 instructions: 28000175 cycles: 10186917 heartbeat IPC: 2.485 cumulative IPC: 2.749 (Simulation time: 00 hr 02 min 57 sec)
Heartbeat CPU 0 instructions: 28500179 cycles: 10387224 heartbeat IPC: 2.496 cumulative IPC: 2.744 (Simulation time: 00 hr 03 min 00 sec)
Heartbeat CPU 0 instructions: 29000181 cycles: 10589864 heartbeat IPC: 2.467 cumulative IPC: 2.738 (Simulation time: 00 hr 03 min 03 sec)
Heartbeat CPU 0 instructions: 29500181 cycles: 10789648 heartbeat IPC: 2.503 cumulative IPC: 2.734 (Simulation time: 00 hr 03 min 06 sec)
Heartbeat CPU 0 instructions: 30000181 cycles: 10949618 heartbeat IPC: 3.126 cumulative IPC: 2.74 (Simulation time: 00 hr 03 min 10 sec)
Heartbeat CPU 0 instructions: 30500183 cycles: 11134999 heartbeat IPC: 2.697 cumulative IPC: 2.739 (Simulation time: 00 hr 03 min 13 sec)
Heartbeat CPU 0 instructions: 31000187 cycles: 11343218 heartbeat IPC: 2.401 cumulative IPC: 2.733 (Simulation time: 00 hr 03 min 16 sec)
Heartbeat CPU 0 instructions: 31500187 cycles: 11551137 heartbeat IPC: 2.405 cumulative IPC: 2.727 (Simulation time: 00 hr 03 min 19 sec)
Heartbeat CPU 0 instructions: 32000193 cycles: 11751686 heartbeat IPC: 2.493 cumulative IPC: 2.723 (Simulation time: 00 hr 03 min 22 sec)
Heartbeat CPU 0 instructions: 32500199 cycles: 11942937 heartbeat IPC: 2.614 cumulative IPC: 2.721 (Simulation time: 00 hr 03 min 25 sec)
Heartbeat CPU 0 instructions: 33000200 cycles: 12110446 heartbeat IPC: 2.985 cumulative IPC: 2.725 (Simulation time: 00 hr 03 min 28 sec)
Heartbeat CPU 0 instructions: 33500203 cycles: 12333261 heartbeat IPC: 2.244 cumulative IPC: 2.716 (Simulation time: 00 hr 03 min 31 sec)
Heartbeat CPU 0 instructions: 34000210 cycles: 12550866 heartbeat IPC: 2.298 cumulative IPC: 2.709 (Simulation time: 00 hr 03 min 35 sec)
Heartbeat CPU 0 instructions: 34500211 cycles: 12784040 heartbeat IPC: 2.144 cumulative IPC: 2.699 (Simulation time: 00 hr 03 min 38 sec)
Heartbeat CPU 0 instructions: 35000215 cycles: 12983886 heartbeat IPC: 2.502 cumulative IPC: 2.696 (Simulation time: 00 hr 03 min 41 sec)
Heartbeat CPU 0 instructions: 35500219 cycles: 13164793 heartbeat IPC: 2.764 cumulative IPC: 2.697 (Simulation time: 00 hr 03 min 44 sec)
Heartbeat CPU 0 instructions: 36000223 cycles: 13329029 heartbeat IPC: 3.044 cumulative IPC: 2.701 (Simulation time: 00 hr 03 min 47 sec)
Heartbeat CPU 0 instructions: 36500225 cycles: 13527033 heartbeat IPC: 2.525 cumulative IPC: 2.698 (Simulation time: 00 hr 03 min 50 sec)
Heartbeat CPU 0 instructions: 37000230 cycles: 13720304 heartbeat IPC: 2.587 cumulative IPC: 2.697 (Simulation time: 00 hr 03 min 53 sec)
Heartbeat CPU 0 instructions: 37500235 cycles: 13917683 heartbeat IPC: 2.533 cumulative IPC: 2.694 (Simulation time: 00 hr 03 min 56 sec)
Heartbeat CPU 0 instructions: 38000237 cycles: 14074975 heartbeat IPC: 3.179 cumulative IPC: 2.7 (Simulation time: 00 hr 03 min 59 sec)
Heartbeat CPU 0 instructions: 38500239 cycles: 14218718 heartbeat IPC: 3.478 cumulative IPC: 2.708 (Simulation time: 00 hr 04 min 02 sec)
Heartbeat CPU 0 instructions: 39000239 cycles: 14396410 heartbeat IPC: 2.814 cumulative IPC: 2.709 (Simulation time: 00 hr 04 min 05 sec)
Heartbeat CPU 0 instructions: 39500245 cycles: 14596618 heartbeat IPC: 2.497 cumulative IPC: 2.706 (Simulation time: 00 hr 04 min 08 sec)
Heartbeat CPU 0 instructions: 40000247 cycles: 14834456 heartbeat IPC: 2.102 cumulative IPC: 2.696 (Simulation time: 00 hr 04 min 12 sec)
Heartbeat CPU 0 instructions: 40500252 cycles: 15065025 heartbeat IPC: 2.169 cumulative IPC: 2.688 (Simulation time: 00 hr 04 min 15 sec)
Heartbeat CPU 0 instructions: 41000258 cycles: 15273370 heartbeat IPC: 2.4 cumulative IPC: 2.684 (Simulation time: 00 hr 04 min 18 sec)
Heartbeat CPU 0 instructions: 41500261 cycles: 15441066 heartbeat IPC: 2.982 cumulative IPC: 2.688 (Simulation time: 00 hr 04 min 22 sec)
Heartbeat CPU 0 instructions: 42000264 cycles: 15620151 heartbeat IPC: 2.792 cumulative IPC: 2.689 (Simulation time: 00 hr 04 min 25 sec)
Heartbeat CPU 0 instructions: 42500269 cycles: 15819732 heartbeat IPC: 2.505 cumulative IPC: 2.687 (Simulation time: 00 hr 04 min 28 sec)
Heartbeat CPU 0 instructions: 43000271 cycles: 16018436 heartbeat IPC: 2.516 cumulative IPC: 2.684 (Simulation time: 00 hr 04 min 31 sec)
Heartbeat CPU 0 instructions: 43500271 cycles: 16194159 heartbeat IPC: 2.845 cumulative IPC: 2.686 (Simulation time: 00 hr 04 min 34 sec)
Heartbeat CPU 0 instructions: 44000274 cycles: 16356479 heartbeat IPC: 3.08 cumulative IPC: 2.69 (Simulation time: 00 hr 04 min 37 sec)
Heartbeat CPU 0 instructions: 44500280 cycles: 16554135 heartbeat IPC: 2.53 cumulative IPC: 2.688 (Simulation time: 00 hr 04 min 40 sec)
Heartbeat CPU 0 instructions: 45000285 cycles: 16753019 heartbeat IPC: 2.514 cumulative IPC: 2.686 (Simulation time: 00 hr 04 min 43 sec)
Heartbeat CPU 0 instructions: 45500285 cycles: 16957121 heartbeat IPC: 2.45 cumulative IPC: 2.683 (Simulation time: 00 hr 04 min 46 sec)
Heartbeat CPU 0 instructions: 46000286 cycles: 17120126 heartbeat IPC: 3.067 cumulative IPC: 2.687 (Simulation time: 00 hr 04 min 49 sec)
Heartbeat CPU 0 instructions: 46500287 cycles: 17314275 heartbeat IPC: 2.575 cumulative IPC: 2.686 (Simulation time: 00 hr 04 min 52 sec)
Heartbeat CPU 0 instructions: 47000289 cycles: 17519498 heartbeat IPC: 2.436 cumulative IPC: 2.683 (Simulation time: 00 hr 04 min 56 sec)
Heartbeat CPU 0 instructions: 47500293 cycles: 17720293 heartbeat IPC: 2.49 cumulative IPC: 2.681 (Simulation time: 00 hr 04 min 59 sec)
Heartbeat CPU 0 instructions: 48000297 cycles: 17919265 heartbeat IPC: 2.513 cumulative IPC: 2.679 (Simulation time: 00 hr 05 min 02 sec)
Heartbeat CPU 0 instructions: 48500302 cycles: 18111957 heartbeat IPC: 2.595 cumulative IPC: 2.678 (Simulation time: 00 hr 05 min 05 sec)
Heartbeat CPU 0 instructions: 49000309 cycles: 18260002 heartbeat IPC: 3.377 cumulative IPC: 2.683 (Simulation time: 00 hr 05 min 08 sec)
Heartbeat CPU 0 instructions: 49500309 cycles: 18398058 heartbeat IPC: 3.622 cumulative IPC: 2.691 (Simulation time: 00 hr 05 min 11 sec)
Warmup halting CPU 0 at instruction 50000000 cycle 18539566 for remainder of phase
Warmup finished CPU 0 instructions: 50000000 cycles: 18539566 cumulative IPC: 2.697 (Simulation time: 00 hr 05 min 14 sec)
Warmup complete CPU 0 instructions: 50000000 cycles: 18539566 cumulative IPC: 2.697 (Simulation time: 00 hr 05 min 14 sec)
Heartbeat CPU 0 instructions: 50000311 cycles: 18539937 heartbeat IPC: 3.524 cumulative IPC: 0.8383 (Simulation time: 00 hr 05 min 14 sec)
Heartbeat CPU 0 instructions: 50500312 cycles: 19054868 heartbeat IPC: 0.971 cumulative IPC: 0.9709 (Simulation time: 00 hr 05 min 20 sec)
Heartbeat CPU 0 instructions: 51000312 cycles: 19439522 heartbeat IPC: 1.3 cumulative IPC: 1.112 (Simulation time: 00 hr 05 min 25 sec)
Heartbeat CPU 0 instructions: 51500317 cycles: 19822044 heartbeat IPC: 1.307 cumulative IPC: 1.17 (Simulation time: 00 hr 05 min 29 sec)
Heartbeat CPU 0 instructions: 52000319 cycles: 20277298 heartbeat IPC: 1.098 cumulative IPC: 1.151 (Simulation time: 00 hr 05 min 34 sec)
Heartbeat CPU 0 instructions: 52500321 cycles: 20920381 heartbeat IPC: 0.7775 cumulative IPC: 1.05 (Simulation time: 00 hr 05 min 41 sec)
Heartbeat CPU 0 instructions: 53000321 cycles: 21708541 heartbeat IPC: 0.6344 cumulative IPC: 0.9468 (Simulation time: 00 hr 05 min 51 sec)
Heartbeat CPU 0 instructions: 53500322 cycles: 22087120 heartbeat IPC: 1.321 cumulative IPC: 0.9867 (Simulation time: 00 hr 05 min 56 sec)
Heartbeat CPU 0 instructions: 54000324 cycles: 22480480 heartbeat IPC: 1.271 cumulative IPC: 1.015 (Simulation time: 00 hr 06 min 00 sec)
Heartbeat CPU 0 instructions: 54500324 cycles: 22884292 heartbeat IPC: 1.238 cumulative IPC: 1.036 (Simulation time: 00 hr 06 min 05 sec)
Heartbeat CPU 0 instructions: 55000325 cycles: 23314054 heartbeat IPC: 1.163 cumulative IPC: 1.047 (Simulation time: 00 hr 06 min 10 sec)
Heartbeat CPU 0 instructions: 55500330 cycles: 24217212 heartbeat IPC: 0.5536 cumulative IPC: 0.9688 (Simulation time: 00 hr 06 min 21 sec)
Heartbeat CPU 0 instructions: 56000337 cycles: 25272382 heartbeat IPC: 0.4739 cumulative IPC: 0.8912 (Simulation time: 00 hr 06 min 33 sec)
Heartbeat CPU 0 instructions: 56500337 cycles: 26334667 heartbeat IPC: 0.4707 cumulative IPC: 0.8339 (Simulation time: 00 hr 06 min 46 sec)
Heartbeat CPU 0 instructions: 57000337 cycles: 26967664 heartbeat IPC: 0.7899 cumulative IPC: 0.8306 (Simulation time: 00 hr 06 min 53 sec)
Heartbeat CPU 0 instructions: 57500338 cycles: 27373747 heartbeat IPC: 1.231 cumulative IPC: 0.849 (Simulation time: 00 hr 06 min 58 sec)
Heartbeat CPU 0 instructions: 58000345 cycles: 27841345 heartbeat IPC: 1.069 cumulative IPC: 0.8601 (Simulation time: 00 hr 07 min 03 sec)
Heartbeat CPU 0 instructions: 58500348 cycles: 28465128 heartbeat IPC: 0.8016 cumulative IPC: 0.8564 (Simulation time: 00 hr 07 min 09 sec)
Heartbeat CPU 0 instructions: 59000349 cycles: 29479400 heartbeat IPC: 0.493 cumulative IPC: 0.8227 (Simulation time: 00 hr 07 min 22 sec)
Heartbeat CPU 0 instructions: 59500350 cycles: 30611806 heartbeat IPC: 0.4415 cumulative IPC: 0.787 (Simulation time: 00 hr 07 min 35 sec)
Heartbeat CPU 0 instructions: 60000350 cycles: 31365024 heartbeat IPC: 0.6638 cumulative IPC: 0.7797 (Simulation time: 00 hr 07 min 42 sec)
Heartbeat CPU 0 instructions: 60500356 cycles: 31933827 heartbeat IPC: 0.879 cumulative IPC: 0.7839 (Simulation time: 00 hr 07 min 48 sec)
Heartbeat CPU 0 instructions: 61000362 cycles: 32396435 heartbeat IPC: 1.081 cumulative IPC: 0.7939 (Simulation time: 00 hr 07 min 53 sec)
Heartbeat CPU 0 instructions: 61500362 cycles: 33306172 heartbeat IPC: 0.5496 cumulative IPC: 0.7788 (Simulation time: 00 hr 08 min 03 sec)
Heartbeat CPU 0 instructions: 62000367 cycles: 33956122 heartbeat IPC: 0.7693 cumulative IPC: 0.7784 (Simulation time: 00 hr 08 min 11 sec)
Heartbeat CPU 0 instructions: 62500368 cycles: 34393740 heartbeat IPC: 1.143 cumulative IPC: 0.7885 (Simulation time: 00 hr 08 min 16 sec)
Heartbeat CPU 0 instructions: 63000374 cycles: 34874628 heartbeat IPC: 1.04 cumulative IPC: 0.7959 (Simulation time: 00 hr 08 min 21 sec)
Heartbeat CPU 0 instructions: 63500375 cycles: 35802840 heartbeat IPC: 0.5387 cumulative IPC: 0.782 (Simulation time: 00 hr 08 min 31 sec)
Heartbeat CPU 0 instructions: 64000376 cycles: 36479823 heartbeat IPC: 0.7386 cumulative IPC: 0.7804 (Simulation time: 00 hr 08 min 39 sec)
Heartbeat CPU 0 instructions: 64500382 cycles: 36965852 heartbeat IPC: 1.029 cumulative IPC: 0.7869 (Simulation time: 00 hr 08 min 44 sec)
Heartbeat CPU 0 instructions: 65000387 cycles: 37463158 heartbeat IPC: 1.005 cumulative IPC: 0.7927 (Simulation time: 00 hr 08 min 49 sec)
Heartbeat CPU 0 instructions: 65500388 cycles: 38387144 heartbeat IPC: 0.5411 cumulative IPC: 0.781 (Simulation time: 00 hr 09 min 00 sec)
Heartbeat CPU 0 instructions: 66000391 cycles: 38945265 heartbeat IPC: 0.8959 cumulative IPC: 0.7841 (Simulation time: 00 hr 09 min 07 sec)
Heartbeat CPU 0 instructions: 66500396 cycles: 39370617 heartbeat IPC: 1.176 cumulative IPC: 0.7921 (Simulation time: 00 hr 09 min 11 sec)
Heartbeat CPU 0 instructions: 67000397 cycles: 39785162 heartbeat IPC: 1.206 cumulative IPC: 0.8002 (Simulation time: 00 hr 09 min 16 sec)
Heartbeat CPU 0 instructions: 67500403 cycles: 40597245 heartbeat IPC: 0.6157 cumulative IPC: 0.7934 (Simulation time: 00 hr 09 min 26 sec)
Heartbeat CPU 0 instructions: 68000403 cycles: 41586220 heartbeat IPC: 0.5056 cumulative IPC: 0.781 (Simulation time: 00 hr 09 min 38 sec)
Heartbeat CPU 0 instructions: 68500403 cycles: 42328363 heartbeat IPC: 0.6737 cumulative IPC: 0.7777 (Simulation time: 00 hr 09 min 46 sec)
Heartbeat CPU 0 instructions: 69000408 cycles: 42718338 heartbeat IPC: 1.282 cumulative IPC: 0.7858 (Simulation time: 00 hr 09 min 51 sec)
Heartbeat CPU 0 instructions: 69500414 cycles: 43100416 heartbeat IPC: 1.309 cumulative IPC: 0.794 (Simulation time: 00 hr 09 min 56 sec)
Heartbeat CPU 0 instructions: 70000414 cycles: 43633163 heartbeat IPC: 0.9385 cumulative IPC: 0.797 (Simulation time: 00 hr 10 min 01 sec)
Heartbeat CPU 0 instructions: 70500414 cycles: 44293329 heartbeat IPC: 0.7574 cumulative IPC: 0.796 (Simulation time: 00 hr 10 min 08 sec)
Heartbeat CPU 0 instructions: 71000421 cycles: 45164786 heartbeat IPC: 0.5738 cumulative IPC: 0.7887 (Simulation time: 00 hr 10 min 18 sec)
Heartbeat CPU 0 instructions: 71500423 cycles: 45901415 heartbeat IPC: 0.6788 cumulative IPC: 0.7858 (Simulation time: 00 hr 10 min 26 sec)
Heartbeat CPU 0 instructions: 72000424 cycles: 46354969 heartbeat IPC: 1.102 cumulative IPC: 0.7909 (Simulation time: 00 hr 10 min 31 sec)
Heartbeat CPU 0 instructions: 72500426 cycles: 46817003 heartbeat IPC: 1.082 cumulative IPC: 0.7957 (Simulation time: 00 hr 10 min 37 sec)
Heartbeat CPU 0 instructions: 73000428 cycles: 47709716 heartbeat IPC: 0.5601 cumulative IPC: 0.7885 (Simulation time: 00 hr 10 min 47 sec)
Heartbeat CPU 0 instructions: 73500430 cycles: 48785663 heartbeat IPC: 0.4647 cumulative IPC: 0.777 (Simulation time: 00 hr 10 min 59 sec)
Heartbeat CPU 0 instructions: 74000430 cycles: 49860180 heartbeat IPC: 0.4653 cumulative IPC: 0.7663 (Simulation time: 00 hr 11 min 12 sec)
Heartbeat CPU 0 instructions: 74500436 cycles: 50709099 heartbeat IPC: 0.589 cumulative IPC: 0.7616 (Simulation time: 00 hr 11 min 22 sec)
Heartbeat CPU 0 instructions: 75000436 cycles: 51196195 heartbeat IPC: 1.026 cumulative IPC: 0.7656 (Simulation time: 00 hr 11 min 27 sec)
Heartbeat CPU 0 instructions: 75500440 cycles: 51661835 heartbeat IPC: 1.074 cumulative IPC: 0.7699 (Simulation time: 00 hr 11 min 32 sec)
Heartbeat CPU 0 instructions: 76000440 cycles: 52474601 heartbeat IPC: 0.6152 cumulative IPC: 0.7662 (Simulation time: 00 hr 11 min 41 sec)
Heartbeat CPU 0 instructions: 76500440 cycles: 53522230 heartbeat IPC: 0.4773 cumulative IPC: 0.7575 (Simulation time: 00 hr 11 min 53 sec)
Heartbeat CPU 0 instructions: 77000440 cycles: 54431406 heartbeat IPC: 0.5499 cumulative IPC: 0.7523 (Simulation time: 00 hr 12 min 04 sec)
Heartbeat CPU 0 instructions: 77500440 cycles: 54877694 heartbeat IPC: 1.12 cumulative IPC: 0.7568 (Simulation time: 00 hr 12 min 09 sec)
Heartbeat CPU 0 instructions: 78000441 cycles: 55332393 heartbeat IPC: 1.1 cumulative IPC: 0.761 (Simulation time: 00 hr 12 min 14 sec)
Heartbeat CPU 0 instructions: 78500441 cycles: 56038465 heartbeat IPC: 0.7081 cumulative IPC: 0.76 (Simulation time: 00 hr 12 min 22 sec)
Heartbeat CPU 0 instructions: 79000444 cycles: 56957133 heartbeat IPC: 0.5443 cumulative IPC: 0.7549 (Simulation time: 00 hr 12 min 32 sec)
Heartbeat CPU 0 instructions: 79500445 cycles: 58017376 heartbeat IPC: 0.4716 cumulative IPC: 0.7473 (Simulation time: 00 hr 12 min 45 sec)
Heartbeat CPU 0 instructions: 80000447 cycles: 59031563 heartbeat IPC: 0.493 cumulative IPC: 0.7409 (Simulation time: 00 hr 12 min 57 sec)
Heartbeat CPU 0 instructions: 80500449 cycles: 59440236 heartbeat IPC: 1.223 cumulative IPC: 0.7457 (Simulation time: 00 hr 13 min 02 sec)
Heartbeat CPU 0 instructions: 81000450 cycles: 59827705 heartbeat IPC: 1.29 cumulative IPC: 0.7508 (Simulation time: 00 hr 13 min 07 sec)
Heartbeat CPU 0 instructions: 81500451 cycles: 60216412 heartbeat IPC: 1.286 cumulative IPC: 0.7558 (Simulation time: 00 hr 13 min 11 sec)
Heartbeat CPU 0 instructions: 82000452 cycles: 60604513 heartbeat IPC: 1.288 cumulative IPC: 0.7607 (Simulation time: 00 hr 13 min 16 sec)
Heartbeat CPU 0 instructions: 82500455 cycles: 61380566 heartbeat IPC: 0.6443 cumulative IPC: 0.7586 (Simulation time: 00 hr 13 min 25 sec)
Heartbeat CPU 0 instructions: 83000456 cycles: 62410669 heartbeat IPC: 0.4854 cumulative IPC: 0.7522 (Simulation time: 00 hr 13 min 38 sec)
Heartbeat CPU 0 instructions: 83500457 cycles: 62941702 heartbeat IPC: 0.9416 cumulative IPC: 0.7545 (Simulation time: 00 hr 13 min 45 sec)
Heartbeat CPU 0 instructions: 84000459 cycles: 63333837 heartbeat IPC: 1.275 cumulative IPC: 0.759 (Simulation time: 00 hr 13 min 50 sec)
Heartbeat CPU 0 instructions: 84500459 cycles: 63795193 heartbeat IPC: 1.084 cumulative IPC: 0.7623 (Simulation time: 00 hr 13 min 55 sec)
Heartbeat CPU 0 instructions: 85000462 cycles: 64569863 heartbeat IPC: 0.6454 cumulative IPC: 0.7604 (Simulation time: 00 hr 14 min 04 sec)
Heartbeat CPU 0 instructions: 85500462 cycles: 65196778 heartbeat IPC: 0.7976 cumulative IPC: 0.7609 (Simulation time: 00 hr 14 min 11 sec)
Heartbeat CPU 0 instructions: 86000462 cycles: 65594356 heartbeat IPC: 1.258 cumulative IPC: 0.7651 (Simulation time: 00 hr 14 min 16 sec)
Heartbeat CPU 0 instructions: 86500468 cycles: 66036309 heartbeat IPC: 1.131 cumulative IPC: 0.7685 (Simulation time: 00 hr 14 min 21 sec)
Heartbeat CPU 0 instructions: 87000469 cycles: 66806341 heartbeat IPC: 0.6493 cumulative IPC: 0.7666 (Simulation time: 00 hr 14 min 29 sec)
Heartbeat CPU 0 instructions: 87500470 cycles: 67871600 heartbeat IPC: 0.4694 cumulative IPC: 0.7602 (Simulation time: 00 hr 14 min 41 sec)
Heartbeat CPU 0 instructions: 88000472 cycles: 68961800 heartbeat IPC: 0.4586 cumulative IPC: 0.7536 (Simulation time: 00 hr 14 min 54 sec)
Heartbeat CPU 0 instructions: 88500472 cycles: 69638817 heartbeat IPC: 0.7385 cumulative IPC: 0.7534 (Simulation time: 00 hr 15 min 01 sec)
Heartbeat CPU 0 instructions: 89000474 cycles: 70068406 heartbeat IPC: 1.164 cumulative IPC: 0.7569 (Simulation time: 00 hr 15 min 06 sec)
Heartbeat CPU 0 instructions: 89500474 cycles: 70492715 heartbeat IPC: 1.178 cumulative IPC: 0.7603 (Simulation time: 00 hr 15 min 10 sec)
Heartbeat CPU 0 instructions: 90000474 cycles: 70941482 heartbeat IPC: 1.114 cumulative IPC: 0.7633 (Simulation time: 00 hr 15 min 15 sec)
Heartbeat CPU 0 instructions: 90500474 cycles: 71905468 heartbeat IPC: 0.5187 cumulative IPC: 0.7589 (Simulation time: 00 hr 15 min 27 sec)
Heartbeat CPU 0 instructions: 91000475 cycles: 72356736 heartbeat IPC: 1.108 cumulative IPC: 0.7618 (Simulation time: 00 hr 15 min 32 sec)
Heartbeat CPU 0 instructions: 91500480 cycles: 72764055 heartbeat IPC: 1.228 cumulative IPC: 0.7653 (Simulation time: 00 hr 15 min 37 sec)
Heartbeat CPU 0 instructions: 92000480 cycles: 73174199 heartbeat IPC: 1.219 cumulative IPC: 0.7688 (Simulation time: 00 hr 15 min 42 sec)
Heartbeat CPU 0 instructions: 92500482 cycles: 73955861 heartbeat IPC: 0.6397 cumulative IPC: 0.7669 (Simulation time: 00 hr 15 min 51 sec)
Heartbeat CPU 0 instructions: 93000482 cycles: 74974581 heartbeat IPC: 0.4908 cumulative IPC: 0.7619 (Simulation time: 00 hr 16 min 03 sec)
Heartbeat CPU 0 instructions: 93500483 cycles: 76026761 heartbeat IPC: 0.4752 cumulative IPC: 0.7567 (Simulation time: 00 hr 16 min 16 sec)
Heartbeat CPU 0 instructions: 94000484 cycles: 76835494 heartbeat IPC: 0.6183 cumulative IPC: 0.7548 (Simulation time: 00 hr 16 min 26 sec)
Heartbeat CPU 0 instructions: 94500487 cycles: 77265756 heartbeat IPC: 1.162 cumulative IPC: 0.7578 (Simulation time: 00 hr 16 min 31 sec)
Heartbeat CPU 0 instructions: 95000490 cycles: 77752839 heartbeat IPC: 1.027 cumulative IPC: 0.76 (Simulation time: 00 hr 16 min 36 sec)
Heartbeat CPU 0 instructions: 95500493 cycles: 78480473 heartbeat IPC: 0.6872 cumulative IPC: 0.7591 (Simulation time: 00 hr 16 min 44 sec)
Heartbeat CPU 0 instructions: 96000494 cycles: 79418506 heartbeat IPC: 0.533 cumulative IPC: 0.7556 (Simulation time: 00 hr 16 min 55 sec)
Heartbeat CPU 0 instructions: 96500496 cycles: 80511719 heartbeat IPC: 0.4574 cumulative IPC: 0.7503 (Simulation time: 00 hr 17 min 08 sec)
Heartbeat CPU 0 instructions: 97000500 cycles: 81515997 heartbeat IPC: 0.4979 cumulative IPC: 0.7463 (Simulation time: 00 hr 17 min 20 sec)
Heartbeat CPU 0 instructions: 97500500 cycles: 82056612 heartbeat IPC: 0.9249 cumulative IPC: 0.7478 (Simulation time: 00 hr 17 min 26 sec)
Heartbeat CPU 0 instructions: 98000501 cycles: 82594448 heartbeat IPC: 0.9297 cumulative IPC: 0.7494 (Simulation time: 00 hr 17 min 32 sec)
Heartbeat CPU 0 instructions: 98500507 cycles: 83367951 heartbeat IPC: 0.6464 cumulative IPC: 0.7481 (Simulation time: 00 hr 17 min 39 sec)
Heartbeat CPU 0 instructions: 99000509 cycles: 83843433 heartbeat IPC: 1.052 cumulative IPC: 0.7503 (Simulation time: 00 hr 17 min 45 sec)
Heartbeat CPU 0 instructions: 99500509 cycles: 84400880 heartbeat IPC: 0.8969 cumulative IPC: 0.7516 (Simulation time: 00 hr 17 min 51 sec)
Heartbeat CPU 0 instructions: 100000510 cycles: 85357216 heartbeat IPC: 0.5228 cumulative IPC: 0.7483 (Simulation time: 00 hr 18 min 03 sec)
Heartbeat CPU 0 instructions: 100500512 cycles: 86088691 heartbeat IPC: 0.6836 cumulative IPC: 0.7476 (Simulation time: 00 hr 18 min 10 sec)
Heartbeat CPU 0 instructions: 101000513 cycles: 86787766 heartbeat IPC: 0.7152 cumulative IPC: 0.7473 (Simulation time: 00 hr 18 min 17 sec)
Heartbeat CPU 0 instructions: 101500514 cycles: 87423252 heartbeat IPC: 0.7868 cumulative IPC: 0.7476 (Simulation time: 00 hr 18 min 23 sec)
Heartbeat CPU 0 instructions: 102000514 cycles: 87955608 heartbeat IPC: 0.9392 cumulative IPC: 0.7491 (Simulation time: 00 hr 18 min 29 sec)
Heartbeat CPU 0 instructions: 102500515 cycles: 88981300 heartbeat IPC: 0.4875 cumulative IPC: 0.7453 (Simulation time: 00 hr 18 min 41 sec)
Heartbeat CPU 0 instructions: 103000520 cycles: 89731439 heartbeat IPC: 0.6665 cumulative IPC: 0.7445 (Simulation time: 00 hr 18 min 49 sec)
Heartbeat CPU 0 instructions: 103500521 cycles: 90213378 heartbeat IPC: 1.037 cumulative IPC: 0.7464 (Simulation time: 00 hr 18 min 55 sec)
Heartbeat CPU 0 instructions: 104000521 cycles: 90637274 heartbeat IPC: 1.18 cumulative IPC: 0.749 (Simulation time: 00 hr 19 min 00 sec)
Heartbeat CPU 0 instructions: 104500527 cycles: 91179661 heartbeat IPC: 0.9219 cumulative IPC: 0.7503 (Simulation time: 00 hr 19 min 06 sec)
Heartbeat CPU 0 instructions: 105000530 cycles: 92213932 heartbeat IPC: 0.4834 cumulative IPC: 0.7465 (Simulation time: 00 hr 19 min 19 sec)
Heartbeat CPU 0 instructions: 105500530 cycles: 92636567 heartbeat IPC: 1.183 cumulative IPC: 0.749 (Simulation time: 00 hr 19 min 23 sec)
Heartbeat CPU 0 instructions: 106000532 cycles: 93035219 heartbeat IPC: 1.254 cumulative IPC: 0.7517 (Simulation time: 00 hr 19 min 28 sec)
Heartbeat CPU 0 instructions: 106500536 cycles: 93428337 heartbeat IPC: 1.272 cumulative IPC: 0.7545 (Simulation time: 00 hr 19 min 33 sec)
Heartbeat CPU 0 instructions: 107000537 cycles: 93828005 heartbeat IPC: 1.251 cumulative IPC: 0.7571 (Simulation time: 00 hr 19 min 38 sec)
Heartbeat CPU 0 instructions: 107500537 cycles: 94281294 heartbeat IPC: 1.103 cumulative IPC: 0.7592 (Simulation time: 00 hr 19 min 43 sec)
Heartbeat CPU 0 instructions: 108000540 cycles: 95302511 heartbeat IPC: 0.4896 cumulative IPC: 0.7556 (Simulation time: 00 hr 19 min 55 sec)
Heartbeat CPU 0 instructions: 108500540 cycles: 96376308 heartbeat IPC: 0.4656 cumulative IPC: 0.7516 (Simulation time: 00 hr 20 min 09 sec)
Heartbeat CPU 0 instructions: 109000542 cycles: 96827536 heartbeat IPC: 1.108 cumulative IPC: 0.7536 (Simulation time: 00 hr 20 min 14 sec)
Heartbeat CPU 0 instructions: 109500545 cycles: 97339462 heartbeat IPC: 0.9767 cumulative IPC: 0.7551 (Simulation time: 00 hr 20 min 19 sec)
Heartbeat CPU 0 instructions: 110000548 cycles: 97890378 heartbeat IPC: 0.9076 cumulative IPC: 0.7561 (Simulation time: 00 hr 20 min 25 sec)
Heartbeat CPU 0 instructions: 110500548 cycles: 98722741 heartbeat IPC: 0.6007 cumulative IPC: 0.7545 (Simulation time: 00 hr 20 min 35 sec)
Heartbeat CPU 0 instructions: 111000548 cycles: 99742722 heartbeat IPC: 0.4902 cumulative IPC: 0.7512 (Simulation time: 00 hr 20 min 47 sec)
Heartbeat CPU 0 instructions: 111500548 cycles: 100601747 heartbeat IPC: 0.5821 cumulative IPC: 0.7494 (Simulation time: 00 hr 20 min 57 sec)
Heartbeat CPU 0 instructions: 112000549 cycles: 100999876 heartbeat IPC: 1.256 cumulative IPC: 0.7519 (Simulation time: 00 hr 21 min 01 sec)
Heartbeat CPU 0 instructions: 112500550 cycles: 101410049 heartbeat IPC: 1.219 cumulative IPC: 0.7542 (Simulation time: 00 hr 21 min 06 sec)
Heartbeat CPU 0 instructions: 113000555 cycles: 101859879 heartbeat IPC: 1.112 cumulative IPC: 0.7561 (Simulation time: 00 hr 21 min 11 sec)
Heartbeat CPU 0 instructions: 113500555 cycles: 102791004 heartbeat IPC: 0.537 cumulative IPC: 0.7537 (Simulation time: 00 hr 21 min 22 sec)
Heartbeat CPU 0 instructions: 114000558 cycles: 103346640 heartbeat IPC: 0.8999 cumulative IPC: 0.7547 (Simulation time: 00 hr 21 min 28 sec)
Heartbeat CPU 0 instructions: 114500564 cycles: 103787891 heartbeat IPC: 1.133 cumulative IPC: 0.7566 (Simulation time: 00 hr 21 min 33 sec)
Heartbeat CPU 0 instructions: 115000566 cycles: 104232542 heartbeat IPC: 1.124 cumulative IPC: 0.7585 (Simulation time: 00 hr 21 min 38 sec)
Heartbeat CPU 0 instructions: 115500573 cycles: 105150234 heartbeat IPC: 0.5449 cumulative IPC: 0.7563 (Simulation time: 00 hr 21 min 47 sec)
Heartbeat CPU 0 instructions: 116000575 cycles: 106178941 heartbeat IPC: 0.486 cumulative IPC: 0.7531 (Simulation time: 00 hr 22 min 00 sec)
Heartbeat CPU 0 instructions: 116500577 cycles: 106630148 heartbeat IPC: 1.108 cumulative IPC: 0.7549 (Simulation time: 00 hr 22 min 06 sec)
Heartbeat CPU 0 instructions: 117000578 cycles: 107095479 heartbeat IPC: 1.075 cumulative IPC: 0.7566 (Simulation time: 00 hr 22 min 11 sec)
Heartbeat CPU 0 instructions: 117500578 cycles: 107648781 heartbeat IPC: 0.9037 cumulative IPC: 0.7575 (Simulation time: 00 hr 22 min 18 sec)
Heartbeat CPU 0 instructions: 118000579 cycles: 108678579 heartbeat IPC: 0.4855 cumulative IPC: 0.7544 (Simulation time: 00 hr 22 min 32 sec)
Heartbeat CPU 0 instructions: 118500580 cycles: 109815101 heartbeat IPC: 0.4399 cumulative IPC: 0.7505 (Simulation time: 00 hr 22 min 48 sec)
Heartbeat CPU 0 instructions: 119000581 cycles: 110884349 heartbeat IPC: 0.4676 cumulative IPC: 0.7472 (Simulation time: 00 hr 22 min 58 sec)
Heartbeat CPU 0 instructions: 119500583 cycles: 111546922 heartbeat IPC: 0.7546 cumulative IPC: 0.7473 (Simulation time: 00 hr 23 min 05 sec)
Heartbeat CPU 0 instructions: 120000586 cycles: 112002830 heartbeat IPC: 1.097 cumulative IPC: 0.749 (Simulation time: 00 hr 23 min 11 sec)
Heartbeat CPU 0 instructions: 120500587 cycles: 112434448 heartbeat IPC: 1.158 cumulative IPC: 0.7508 (Simulation time: 00 hr 23 min 17 sec)
Heartbeat CPU 0 instructions: 121000589 cycles: 113181030 heartbeat IPC: 0.6697 cumulative IPC: 0.7502 (Simulation time: 00 hr 23 min 27 sec)
Heartbeat CPU 0 instructions: 121500590 cycles: 114136872 heartbeat IPC: 0.5231 cumulative IPC: 0.7479 (Simulation time: 00 hr 23 min 40 sec)
Heartbeat CPU 0 instructions: 122000592 cycles: 115127220 heartbeat IPC: 0.5049 cumulative IPC: 0.7454 (Simulation time: 00 hr 23 min 54 sec)
Heartbeat CPU 0 instructions: 122500595 cycles: 115511878 heartbeat IPC: 1.3 cumulative IPC: 0.7476 (Simulation time: 00 hr 23 min 59 sec)
Heartbeat CPU 0 instructions: 123000595 cycles: 115886870 heartbeat IPC: 1.333 cumulative IPC: 0.7499 (Simulation time: 00 hr 24 min 04 sec)
Heartbeat CPU 0 instructions: 123500598 cycles: 116268394 heartbeat IPC: 1.311 cumulative IPC: 0.7521 (Simulation time: 00 hr 24 min 09 sec)
Heartbeat CPU 0 instructions: 124000600 cycles: 116664209 heartbeat IPC: 1.263 cumulative IPC: 0.7541 (Simulation time: 00 hr 24 min 14 sec)
Heartbeat CPU 0 instructions: 124500602 cycles: 117589702 heartbeat IPC: 0.5403 cumulative IPC: 0.7522 (Simulation time: 00 hr 24 min 27 sec)
Heartbeat CPU 0 instructions: 125000607 cycles: 118682755 heartbeat IPC: 0.4574 cumulative IPC: 0.7489 (Simulation time: 00 hr 24 min 42 sec)
Heartbeat CPU 0 instructions: 125500608 cycles: 119753014 heartbeat IPC: 0.4672 cumulative IPC: 0.746 (Simulation time: 00 hr 24 min 58 sec)
Heartbeat CPU 0 instructions: 126000612 cycles: 120375147 heartbeat IPC: 0.8037 cumulative IPC: 0.7463 (Simulation time: 00 hr 25 min 05 sec)
Heartbeat CPU 0 instructions: 126500613 cycles: 120913617 heartbeat IPC: 0.9286 cumulative IPC: 0.7473 (Simulation time: 00 hr 25 min 12 sec)
Heartbeat CPU 0 instructions: 127000613 cycles: 121460024 heartbeat IPC: 0.9151 cumulative IPC: 0.7482 (Simulation time: 00 hr 25 min 19 sec)
Heartbeat CPU 0 instructions: 127500615 cycles: 122341077 heartbeat IPC: 0.5675 cumulative IPC: 0.7466 (Simulation time: 00 hr 25 min 28 sec)
Heartbeat CPU 0 instructions: 128000618 cycles: 123002784 heartbeat IPC: 0.7556 cumulative IPC: 0.7467 (Simulation time: 00 hr 25 min 35 sec)
Heartbeat CPU 0 instructions: 128500620 cycles: 123998026 heartbeat IPC: 0.5024 cumulative IPC: 0.7444 (Simulation time: 00 hr 25 min 49 sec)
Heartbeat CPU 0 instructions: 129000620 cycles: 125162436 heartbeat IPC: 0.4294 cumulative IPC: 0.7409 (Simulation time: 00 hr 26 min 04 sec)
Heartbeat CPU 0 instructions: 129500620 cycles: 125949840 heartbeat IPC: 0.635 cumulative IPC: 0.7402 (Simulation time: 00 hr 26 min 14 sec)
Heartbeat CPU 0 instructions: 130000621 cycles: 126487121 heartbeat IPC: 0.9306 cumulative IPC: 0.7411 (Simulation time: 00 hr 26 min 21 sec)
Heartbeat CPU 0 instructions: 130500621 cycles: 127058641 heartbeat IPC: 0.8749 cumulative IPC: 0.7418 (Simulation time: 00 hr 26 min 28 sec)
Heartbeat CPU 0 instructions: 131000622 cycles: 127934247 heartbeat IPC: 0.571 cumulative IPC: 0.7404 (Simulation time: 00 hr 26 min 37 sec)
Heartbeat CPU 0 instructions: 131500622 cycles: 129191669 heartbeat IPC: 0.3976 cumulative IPC: 0.7365 (Simulation time: 00 hr 26 min 54 sec)
Heartbeat CPU 0 instructions: 132000623 cycles: 129666649 heartbeat IPC: 1.053 cumulative IPC: 0.7379 (Simulation time: 00 hr 27 min 00 sec)
Heartbeat CPU 0 instructions: 132500630 cycles: 130102491 heartbeat IPC: 1.147 cumulative IPC: 0.7395 (Simulation time: 00 hr 27 min 05 sec)
Heartbeat CPU 0 instructions: 133000631 cycles: 130537999 heartbeat IPC: 1.148 cumulative IPC: 0.7411 (Simulation time: 00 hr 27 min 11 sec)
Heartbeat CPU 0 instructions: 133500631 cycles: 131500687 heartbeat IPC: 0.5194 cumulative IPC: 0.7392 (Simulation time: 00 hr 27 min 24 sec)
Heartbeat CPU 0 instructions: 134000632 cycles: 132591109 heartbeat IPC: 0.4585 cumulative IPC: 0.7365 (Simulation time: 00 hr 27 min 39 sec)
Heartbeat CPU 0 instructions: 134500632 cycles: 133679496 heartbeat IPC: 0.4594 cumulative IPC: 0.7339 (Simulation time: 00 hr 27 min 53 sec)
Heartbeat CPU 0 instructions: 135000638 cycles: 134352873 heartbeat IPC: 0.7425 cumulative IPC: 0.7339 (Simulation time: 00 hr 28 min 02 sec)
Heartbeat CPU 0 instructions: 135500640 cycles: 134748264 heartbeat IPC: 1.265 cumulative IPC: 0.7358 (Simulation time: 00 hr 28 min 08 sec)
Heartbeat CPU 0 instructions: 136000641 cycles: 135137654 heartbeat IPC: 1.284 cumulative IPC: 0.7376 (Simulation time: 00 hr 28 min 13 sec)
Heartbeat CPU 0 instructions: 136500642 cycles: 135580972 heartbeat IPC: 1.128 cumulative IPC: 0.7391 (Simulation time: 00 hr 28 min 18 sec)
Heartbeat CPU 0 instructions: 137000643 cycles: 136505471 heartbeat IPC: 0.5408 cumulative IPC: 0.7375 (Simulation time: 00 hr 28 min 31 sec)
Heartbeat CPU 0 instructions: 137500643 cycles: 137575890 heartbeat IPC: 0.4671 cumulative IPC: 0.7351 (Simulation time: 00 hr 28 min 46 sec)
Heartbeat CPU 0 instructions: 138000645 cycles: 138653318 heartbeat IPC: 0.4641 cumulative IPC: 0.7326 (Simulation time: 00 hr 29 min 00 sec)
Heartbeat CPU 0 instructions: 138500645 cycles: 139437594 heartbeat IPC: 0.6375 cumulative IPC: 0.732 (Simulation time: 00 hr 29 min 10 sec)
Heartbeat CPU 0 instructions: 139000646 cycles: 140031680 heartbeat IPC: 0.8416 cumulative IPC: 0.7326 (Simulation time: 00 hr 29 min 16 sec)
Heartbeat CPU 0 instructions: 139500646 cycles: 140491489 heartbeat IPC: 1.087 cumulative IPC: 0.7339 (Simulation time: 00 hr 29 min 22 sec)
Heartbeat CPU 0 instructions: 140000646 cycles: 141191000 heartbeat IPC: 0.7148 cumulative IPC: 0.7338 (Simulation time: 00 hr 29 min 31 sec)
Heartbeat CPU 0 instructions: 140500652 cycles: 141997459 heartbeat IPC: 0.62 cumulative IPC: 0.733 (Simulation time: 00 hr 29 min 42 sec)
Heartbeat CPU 0 instructions: 141000652 cycles: 142409777 heartbeat IPC: 1.213 cumulative IPC: 0.7346 (Simulation time: 00 hr 29 min 48 sec)
Heartbeat CPU 0 instructions: 141500655 cycles: 142811400 heartbeat IPC: 1.245 cumulative IPC: 0.7363 (Simulation time: 00 hr 29 min 53 sec)
Heartbeat CPU 0 instructions: 142000656 cycles: 143288695 heartbeat IPC: 1.048 cumulative IPC: 0.7375 (Simulation time: 00 hr 29 min 59 sec)
Heartbeat CPU 0 instructions: 142500657 cycles: 144281494 heartbeat IPC: 0.5036 cumulative IPC: 0.7356 (Simulation time: 00 hr 30 min 13 sec)
Heartbeat CPU 0 instructions: 143000657 cycles: 145353349 heartbeat IPC: 0.4665 cumulative IPC: 0.7334 (Simulation time: 00 hr 30 min 28 sec)
Heartbeat CPU 0 instructions: 143500660 cycles: 146416274 heartbeat IPC: 0.4704 cumulative IPC: 0.7312 (Simulation time: 00 hr 30 min 42 sec)
Heartbeat CPU 0 instructions: 144000662 cycles: 146901080 heartbeat IPC: 1.031 cumulative IPC: 0.7323 (Simulation time: 00 hr 30 min 48 sec)
Heartbeat CPU 0 instructions: 144500666 cycles: 147288303 heartbeat IPC: 1.291 cumulative IPC: 0.734 (Simulation time: 00 hr 30 min 53 sec)
Heartbeat CPU 0 instructions: 145000667 cycles: 147735378 heartbeat IPC: 1.118 cumulative IPC: 0.7353 (Simulation time: 00 hr 30 min 59 sec)
Heartbeat CPU 0 instructions: 145500667 cycles: 148527413 heartbeat IPC: 0.6313 cumulative IPC: 0.7347 (Simulation time: 00 hr 31 min 09 sec)
Heartbeat CPU 0 instructions: 146000673 cycles: 149544786 heartbeat IPC: 0.4915 cumulative IPC: 0.7328 (Simulation time: 00 hr 31 min 24 sec)
Heartbeat CPU 0 instructions: 146500675 cycles: 150214860 heartbeat IPC: 0.7462 cumulative IPC: 0.7329 (Simulation time: 00 hr 31 min 33 sec)
Heartbeat CPU 0 instructions: 147000675 cycles: 150750830 heartbeat IPC: 0.9329 cumulative IPC: 0.7337 (Simulation time: 00 hr 31 min 39 sec)
Heartbeat CPU 0 instructions: 147500676 cycles: 151541530 heartbeat IPC: 0.6324 cumulative IPC: 0.7331 (Simulation time: 00 hr 31 min 47 sec)
Heartbeat CPU 0 instructions: 148000676 cycles: 152162289 heartbeat IPC: 0.8055 cumulative IPC: 0.7334 (Simulation time: 00 hr 31 min 54 sec)
Heartbeat CPU 0 instructions: 148500679 cycles: 153205359 heartbeat IPC: 0.4794 cumulative IPC: 0.7314 (Simulation time: 00 hr 32 min 09 sec)
Heartbeat CPU 0 instructions: 149000683 cycles: 154318177 heartbeat IPC: 0.4493 cumulative IPC: 0.7291 (Simulation time: 00 hr 32 min 24 sec)
Heartbeat CPU 0 instructions: 149500683 cycles: 154895314 heartbeat IPC: 0.8663 cumulative IPC: 0.7297 (Simulation time: 00 hr 32 min 31 sec)
Heartbeat CPU 0 instructions: 150000683 cycles: 155429828 heartbeat IPC: 0.9354 cumulative IPC: 0.7305 (Simulation time: 00 hr 32 min 37 sec)
Heartbeat CPU 0 instructions: 150500683 cycles: 156009928 heartbeat IPC: 0.8619 cumulative IPC: 0.7311 (Simulation time: 00 hr 32 min 44 sec)
Heartbeat CPU 0 instructions: 151000686 cycles: 156501663 heartbeat IPC: 1.017 cumulative IPC: 0.7321 (Simulation time: 00 hr 32 min 50 sec)
Heartbeat CPU 0 instructions: 151500691 cycles: 157082517 heartbeat IPC: 0.8608 cumulative IPC: 0.7326 (Simulation time: 00 hr 32 min 57 sec)
Heartbeat CPU 0 instructions: 152000697 cycles: 158142600 heartbeat IPC: 0.4717 cumulative IPC: 0.7306 (Simulation time: 00 hr 33 min 12 sec)
Heartbeat CPU 0 instructions: 152500697 cycles: 159272468 heartbeat IPC: 0.4425 cumulative IPC: 0.7283 (Simulation time: 00 hr 33 min 28 sec)
Heartbeat CPU 0 instructions: 153000700 cycles: 159728701 heartbeat IPC: 1.096 cumulative IPC: 0.7295 (Simulation time: 00 hr 33 min 33 sec)
Heartbeat CPU 0 instructions: 153500703 cycles: 160154625 heartbeat IPC: 1.174 cumulative IPC: 0.7309 (Simulation time: 00 hr 33 min 39 sec)
Heartbeat CPU 0 instructions: 154000703 cycles: 160636479 heartbeat IPC: 1.038 cumulative IPC: 0.7319 (Simulation time: 00 hr 33 min 45 sec)
Heartbeat CPU 0 instructions: 154500703 cycles: 161524038 heartbeat IPC: 0.5633 cumulative IPC: 0.7309 (Simulation time: 00 hr 33 min 57 sec)
Heartbeat CPU 0 instructions: 155000703 cycles: 162620794 heartbeat IPC: 0.4559 cumulative IPC: 0.7288 (Simulation time: 00 hr 34 min 11 sec)
Heartbeat CPU 0 instructions: 155500703 cycles: 163385839 heartbeat IPC: 0.6536 cumulative IPC: 0.7284 (Simulation time: 00 hr 34 min 21 sec)
Heartbeat CPU 0 instructions: 156000709 cycles: 163820225 heartbeat IPC: 1.151 cumulative IPC: 0.7296 (Simulation time: 00 hr 34 min 27 sec)
Heartbeat CPU 0 instructions: 156500709 cycles: 164256248 heartbeat IPC: 1.147 cumulative IPC: 0.7309 (Simulation time: 00 hr 34 min 32 sec)
Heartbeat CPU 0 instructions: 157000710 cycles: 165085627 heartbeat IPC: 0.6029 cumulative IPC: 0.7302 (Simulation time: 00 hr 34 min 43 sec)
Heartbeat CPU 0 instructions: 157500715 cycles: 165793897 heartbeat IPC: 0.706 cumulative IPC: 0.73 (Simulation time: 00 hr 34 min 52 sec)
Heartbeat CPU 0 instructions: 158000722 cycles: 166280630 heartbeat IPC: 1.027 cumulative IPC: 0.731 (Simulation time: 00 hr 34 min 59 sec)
Heartbeat CPU 0 instructions: 158500722 cycles: 167173037 heartbeat IPC: 0.5603 cumulative IPC: 0.73 (Simulation time: 00 hr 35 min 08 sec)
Heartbeat CPU 0 instructions: 159000722 cycles: 168126768 heartbeat IPC: 0.5243 cumulative IPC: 0.7287 (Simulation time: 00 hr 35 min 18 sec)
Heartbeat CPU 0 instructions: 159500727 cycles: 168718951 heartbeat IPC: 0.8443 cumulative IPC: 0.7291 (Simulation time: 00 hr 35 min 25 sec)
Heartbeat CPU 0 instructions: 160000729 cycles: 169611410 heartbeat IPC: 0.5603 cumulative IPC: 0.7281 (Simulation time: 00 hr 35 min 37 sec)
Heartbeat CPU 0 instructions: 160500729 cycles: 170656217 heartbeat IPC: 0.4786 cumulative IPC: 0.7264 (Simulation time: 00 hr 35 min 51 sec)
Heartbeat CPU 0 instructions: 161000730 cycles: 171529548 heartbeat IPC: 0.5725 cumulative IPC: 0.7255 (Simulation time: 00 hr 36 min 03 sec)
Heartbeat CPU 0 instructions: 161500730 cycles: 171922584 heartbeat IPC: 1.272 cumulative IPC: 0.7269 (Simulation time: 00 hr 36 min 08 sec)
Heartbeat CPU 0 instructions: 162000733 cycles: 172310636 heartbeat IPC: 1.288 cumulative IPC: 0.7284 (Simulation time: 00 hr 36 min 13 sec)
Heartbeat CPU 0 instructions: 162500733 cycles: 172723452 heartbeat IPC: 1.211 cumulative IPC: 0.7297 (Simulation time: 00 hr 36 min 19 sec)
Heartbeat CPU 0 instructions: 163000736 cycles: 173688816 heartbeat IPC: 0.5179 cumulative IPC: 0.7283 (Simulation time: 00 hr 36 min 32 sec)
Heartbeat CPU 0 instructions: 163500740 cycles: 174354363 heartbeat IPC: 0.7513 cumulative IPC: 0.7284 (Simulation time: 00 hr 36 min 40 sec)
Heartbeat CPU 0 instructions: 164000740 cycles: 175173827 heartbeat IPC: 0.6102 cumulative IPC: 0.7278 (Simulation time: 00 hr 36 min 49 sec)
Heartbeat CPU 0 instructions: 164500741 cycles: 175683272 heartbeat IPC: 0.9815 cumulative IPC: 0.7286 (Simulation time: 00 hr 36 min 55 sec)
Heartbeat CPU 0 instructions: 165000743 cycles: 176447111 heartbeat IPC: 0.6546 cumulative IPC: 0.7283 (Simulation time: 00 hr 37 min 05 sec)
Heartbeat CPU 0 instructions: 165500744 cycles: 177301084 heartbeat IPC: 0.5855 cumulative IPC: 0.7275 (Simulation time: 00 hr 37 min 16 sec)
Heartbeat CPU 0 instructions: 166000745 cycles: 177745790 heartbeat IPC: 1.124 cumulative IPC: 0.7286 (Simulation time: 00 hr 37 min 22 sec)
Heartbeat CPU 0 instructions: 166500745 cycles: 178198338 heartbeat IPC: 1.105 cumulative IPC: 0.7297 (Simulation time: 00 hr 37 min 28 sec)
Heartbeat CPU 0 instructions: 167000747 cycles: 178834195 heartbeat IPC: 0.7863 cumulative IPC: 0.7299 (Simulation time: 00 hr 37 min 35 sec)
Heartbeat CPU 0 instructions: 167500749 cycles: 179578167 heartbeat IPC: 0.6721 cumulative IPC: 0.7296 (Simulation time: 00 hr 37 min 43 sec)
Heartbeat CPU 0 instructions: 168000755 cycles: 180649074 heartbeat IPC: 0.4669 cumulative IPC: 0.7279 (Simulation time: 00 hr 37 min 57 sec)
Heartbeat CPU 0 instructions: 168500762 cycles: 181289456 heartbeat IPC: 0.7808 cumulative IPC: 0.7281 (Simulation time: 00 hr 38 min 06 sec)
Heartbeat CPU 0 instructions: 169000762 cycles: 181732641 heartbeat IPC: 1.128 cumulative IPC: 0.7292 (Simulation time: 00 hr 38 min 11 sec)
Heartbeat CPU 0 instructions: 169500768 cycles: 182207668 heartbeat IPC: 1.053 cumulative IPC: 0.7301 (Simulation time: 00 hr 38 min 17 sec)
Heartbeat CPU 0 instructions: 170000769 cycles: 183021822 heartbeat IPC: 0.6141 cumulative IPC: 0.7296 (Simulation time: 00 hr 38 min 27 sec)
Heartbeat CPU 0 instructions: 170500772 cycles: 184100751 heartbeat IPC: 0.4634 cumulative IPC: 0.7278 (Simulation time: 00 hr 38 min 41 sec)
Heartbeat CPU 0 instructions: 171000778 cycles: 184530691 heartbeat IPC: 1.163 cumulative IPC: 0.729 (Simulation time: 00 hr 38 min 47 sec)
Heartbeat CPU 0 instructions: 171500778 cycles: 184952066 heartbeat IPC: 1.187 cumulative IPC: 0.7301 (Simulation time: 00 hr 38 min 52 sec)
Heartbeat CPU 0 instructions: 172000778 cycles: 185451977 heartbeat IPC: 1 cumulative IPC: 0.7309 (Simulation time: 00 hr 38 min 58 sec)
Heartbeat CPU 0 instructions: 172500778 cycles: 186451589 heartbeat IPC: 0.5002 cumulative IPC: 0.7296 (Simulation time: 00 hr 39 min 12 sec)
Heartbeat CPU 0 instructions: 173000782 cycles: 186906417 heartbeat IPC: 1.099 cumulative IPC: 0.7306 (Simulation time: 00 hr 39 min 18 sec)
Heartbeat CPU 0 instructions: 173500785 cycles: 187348790 heartbeat IPC: 1.13 cumulative IPC: 0.7316 (Simulation time: 00 hr 39 min 24 sec)
Heartbeat CPU 0 instructions: 174000785 cycles: 187791330 heartbeat IPC: 1.13 cumulative IPC: 0.7326 (Simulation time: 00 hr 39 min 29 sec)
Heartbeat CPU 0 instructions: 174500791 cycles: 188766399 heartbeat IPC: 0.5128 cumulative IPC: 0.7314 (Simulation time: 00 hr 39 min 43 sec)
Heartbeat CPU 0 instructions: 175000791 cycles: 189257141 heartbeat IPC: 1.019 cumulative IPC: 0.7322 (Simulation time: 00 hr 39 min 49 sec)
Heartbeat CPU 0 instructions: 175500791 cycles: 189657451 heartbeat IPC: 1.249 cumulative IPC: 0.7334 (Simulation time: 00 hr 39 min 55 sec)
Heartbeat CPU 0 instructions: 176000791 cycles: 190063116 heartbeat IPC: 1.233 cumulative IPC: 0.7346 (Simulation time: 00 hr 40 min 00 sec)
Heartbeat CPU 0 instructions: 176500795 cycles: 190905625 heartbeat IPC: 0.5935 cumulative IPC: 0.7339 (Simulation time: 00 hr 40 min 11 sec)
Heartbeat CPU 0 instructions: 177000800 cycles: 191532600 heartbeat IPC: 0.7975 cumulative IPC: 0.7341 (Simulation time: 00 hr 40 min 20 sec)
Heartbeat CPU 0 instructions: 177500800 cycles: 191950815 heartbeat IPC: 1.196 cumulative IPC: 0.7353 (Simulation time: 00 hr 40 min 25 sec)
Heartbeat CPU 0 instructions: 178000801 cycles: 192374105 heartbeat IPC: 1.181 cumulative IPC: 0.7363 (Simulation time: 00 hr 40 min 31 sec)
Heartbeat CPU 0 instructions: 178500803 cycles: 192898540 heartbeat IPC: 0.9534 cumulative IPC: 0.737 (Simulation time: 00 hr 40 min 37 sec)
Heartbeat CPU 0 instructions: 179000805 cycles: 193833376 heartbeat IPC: 0.5349 cumulative IPC: 0.7359 (Simulation time: 00 hr 40 min 51 sec)
Heartbeat CPU 0 instructions: 179500807 cycles: 194231724 heartbeat IPC: 1.255 cumulative IPC: 0.7371 (Simulation time: 00 hr 40 min 56 sec)
Heartbeat CPU 0 instructions: 180000809 cycles: 194616769 heartbeat IPC: 1.299 cumulative IPC: 0.7383 (Simulation time: 00 hr 41 min 01 sec)
Heartbeat CPU 0 instructions: 180500810 cycles: 195203581 heartbeat IPC: 0.8521 cumulative IPC: 0.7387 (Simulation time: 00 hr 41 min 08 sec)
Heartbeat CPU 0 instructions: 181000810 cycles: 196043914 heartbeat IPC: 0.595 cumulative IPC: 0.738 (Simulation time: 00 hr 41 min 19 sec)
Heartbeat CPU 0 instructions: 181500811 cycles: 197095371 heartbeat IPC: 0.4755 cumulative IPC: 0.7365 (Simulation time: 00 hr 41 min 34 sec)
Heartbeat CPU 0 instructions: 182000813 cycles: 198155318 heartbeat IPC: 0.4717 cumulative IPC: 0.7349 (Simulation time: 00 hr 41 min 48 sec)
Heartbeat CPU 0 instructions: 182500813 cycles: 199224382 heartbeat IPC: 0.4677 cumulative IPC: 0.7333 (Simulation time: 00 hr 42 min 03 sec)
Heartbeat CPU 0 instructions: 183000815 cycles: 200256323 heartbeat IPC: 0.4845 cumulative IPC: 0.7319 (Simulation time: 00 hr 42 min 16 sec)
Heartbeat CPU 0 instructions: 183500821 cycles: 201067896 heartbeat IPC: 0.6161 cumulative IPC: 0.7314 (Simulation time: 00 hr 42 min 32 sec)
Heartbeat CPU 0 instructions: 184000825 cycles: 201483097 heartbeat IPC: 1.204 cumulative IPC: 0.7325 (Simulation time: 00 hr 42 min 41 sec)
Heartbeat CPU 0 instructions: 184500830 cycles: 201882539 heartbeat IPC: 1.252 cumulative IPC: 0.7336 (Simulation time: 00 hr 42 min 48 sec)
Heartbeat CPU 0 instructions: 185000834 cycles: 202403603 heartbeat IPC: 0.9596 cumulative IPC: 0.7342 (Simulation time: 00 hr 42 min 54 sec)
Heartbeat CPU 0 instructions: 185500835 cycles: 203556968 heartbeat IPC: 0.4335 cumulative IPC: 0.7324 (Simulation time: 00 hr 43 min 09 sec)
Heartbeat CPU 0 instructions: 186000837 cycles: 204197368 heartbeat IPC: 0.7808 cumulative IPC: 0.7325 (Simulation time: 00 hr 43 min 16 sec)
Heartbeat CPU 0 instructions: 186500837 cycles: 204994339 heartbeat IPC: 0.6274 cumulative IPC: 0.7321 (Simulation time: 00 hr 43 min 24 sec)
Heartbeat CPU 0 instructions: 187000844 cycles: 205547904 heartbeat IPC: 0.9032 cumulative IPC: 0.7326 (Simulation time: 00 hr 43 min 31 sec)
Heartbeat CPU 0 instructions: 187500844 cycles: 205956041 heartbeat IPC: 1.225 cumulative IPC: 0.7337 (Simulation time: 00 hr 43 min 36 sec)
Heartbeat CPU 0 instructions: 188000844 cycles: 206449069 heartbeat IPC: 1.014 cumulative IPC: 0.7344 (Simulation time: 00 hr 43 min 42 sec)
Heartbeat CPU 0 instructions: 188500846 cycles: 207501523 heartbeat IPC: 0.4751 cumulative IPC: 0.733 (Simulation time: 00 hr 43 min 57 sec)
Heartbeat CPU 0 instructions: 189000848 cycles: 208649811 heartbeat IPC: 0.4354 cumulative IPC: 0.7312 (Simulation time: 00 hr 44 min 13 sec)
Heartbeat CPU 0 instructions: 189500851 cycles: 209719178 heartbeat IPC: 0.4676 cumulative IPC: 0.7297 (Simulation time: 00 hr 44 min 27 sec)
Heartbeat CPU 0 instructions: 190000854 cycles: 210794784 heartbeat IPC: 0.4649 cumulative IPC: 0.7282 (Simulation time: 00 hr 44 min 42 sec)
Heartbeat CPU 0 instructions: 190500854 cycles: 211317271 heartbeat IPC: 0.957 cumulative IPC: 0.7288 (Simulation time: 00 hr 44 min 49 sec)
Heartbeat CPU 0 instructions: 191000858 cycles: 211696541 heartbeat IPC: 1.318 cumulative IPC: 0.73 (Simulation time: 00 hr 44 min 54 sec)
Heartbeat CPU 0 instructions: 191500858 cycles: 212085865 heartbeat IPC: 1.284 cumulative IPC: 0.7311 (Simulation time: 00 hr 44 min 59 sec)
Heartbeat CPU 0 instructions: 192000861 cycles: 212868303 heartbeat IPC: 0.639 cumulative IPC: 0.7307 (Simulation time: 00 hr 45 min 09 sec)
Heartbeat CPU 0 instructions: 192500865 cycles: 213537210 heartbeat IPC: 0.7475 cumulative IPC: 0.7308 (Simulation time: 00 hr 45 min 18 sec)
Heartbeat CPU 0 instructions: 193000867 cycles: 213956664 heartbeat IPC: 1.192 cumulative IPC: 0.7318 (Simulation time: 00 hr 45 min 24 sec)
Heartbeat CPU 0 instructions: 193500871 cycles: 214392244 heartbeat IPC: 1.148 cumulative IPC: 0.7327 (Simulation time: 00 hr 45 min 29 sec)
Heartbeat CPU 0 instructions: 194000876 cycles: 215323195 heartbeat IPC: 0.5371 cumulative IPC: 0.7318 (Simulation time: 00 hr 45 min 40 sec)
Heartbeat CPU 0 instructions: 194500876 cycles: 216356768 heartbeat IPC: 0.4838 cumulative IPC: 0.7305 (Simulation time: 00 hr 45 min 53 sec)
Heartbeat CPU 0 instructions: 195000876 cycles: 217500368 heartbeat IPC: 0.4372 cumulative IPC: 0.7288 (Simulation time: 00 hr 46 min 08 sec)
Heartbeat CPU 0 instructions: 195500876 cycles: 217930517 heartbeat IPC: 1.162 cumulative IPC: 0.7297 (Simulation time: 00 hr 46 min 14 sec)
Heartbeat CPU 0 instructions: 196000877 cycles: 218336371 heartbeat IPC: 1.232 cumulative IPC: 0.7307 (Simulation time: 00 hr 46 min 19 sec)
Heartbeat CPU 0 instructions: 196500877 cycles: 218731083 heartbeat IPC: 1.267 cumulative IPC: 0.7318 (Simulation time: 00 hr 46 min 24 sec)
Heartbeat CPU 0 instructions: 197000880 cycles: 219143819 heartbeat IPC: 1.211 cumulative IPC: 0.7328 (Simulation time: 00 hr 46 min 29 sec)
Heartbeat CPU 0 instructions: 197500884 cycles: 219989911 heartbeat IPC: 0.591 cumulative IPC: 0.7322 (Simulation time: 00 hr 46 min 41 sec)
Heartbeat CPU 0 instructions: 198000884 cycles: 221029627 heartbeat IPC: 0.4809 cumulative IPC: 0.7309 (Simulation time: 00 hr 46 min 55 sec)
Heartbeat CPU 0 instructions: 198500884 cycles: 222111568 heartbeat IPC: 0.4621 cumulative IPC: 0.7295 (Simulation time: 00 hr 47 min 09 sec)
Heartbeat CPU 0 instructions: 199000886 cycles: 222875792 heartbeat IPC: 0.6543 cumulative IPC: 0.7292 (Simulation time: 00 hr 47 min 19 sec)
Heartbeat CPU 0 instructions: 199500888 cycles: 223342669 heartbeat IPC: 1.071 cumulative IPC: 0.73 (Simulation time: 00 hr 47 min 25 sec)
Heartbeat CPU 0 instructions: 200000888 cycles: 223792028 heartbeat IPC: 1.113 cumulative IPC: 0.7308 (Simulation time: 00 hr 47 min 30 sec)
Heartbeat CPU 0 instructions: 200500890 cycles: 224518035 heartbeat IPC: 0.6887 cumulative IPC: 0.7307 (Simulation time: 00 hr 47 min 40 sec)
Heartbeat CPU 0 instructions: 201000894 cycles: 225438989 heartbeat IPC: 0.5429 cumulative IPC: 0.7298 (Simulation time: 00 hr 47 min 51 sec)
Heartbeat CPU 0 instructions: 201500896 cycles: 226427530 heartbeat IPC: 0.5058 cumulative IPC: 0.7288 (Simulation time: 00 hr 48 min 05 sec)
Heartbeat CPU 0 instructions: 202000896 cycles: 226995086 heartbeat IPC: 0.881 cumulative IPC: 0.7292 (Simulation time: 00 hr 48 min 12 sec)
Heartbeat CPU 0 instructions: 202500898 cycles: 227486060 heartbeat IPC: 1.018 cumulative IPC: 0.7299 (Simulation time: 00 hr 48 min 17 sec)
Heartbeat CPU 0 instructions: 203000899 cycles: 228336081 heartbeat IPC: 0.5882 cumulative IPC: 0.7293 (Simulation time: 00 hr 48 min 26 sec)
Heartbeat CPU 0 instructions: 203500905 cycles: 228798277 heartbeat IPC: 1.082 cumulative IPC: 0.7301 (Simulation time: 00 hr 48 min 32 sec)
Heartbeat CPU 0 instructions: 204000905 cycles: 229531462 heartbeat IPC: 0.682 cumulative IPC: 0.7299 (Simulation time: 00 hr 48 min 41 sec)
Heartbeat CPU 0 instructions: 204500907 cycles: 230398650 heartbeat IPC: 0.5766 cumulative IPC: 0.7293 (Simulation time: 00 hr 48 min 52 sec)
Heartbeat CPU 0 instructions: 205000913 cycles: 230852279 heartbeat IPC: 1.102 cumulative IPC: 0.7301 (Simulation time: 00 hr 48 min 58 sec)
Heartbeat CPU 0 instructions: 205500913 cycles: 231479151 heartbeat IPC: 0.7976 cumulative IPC: 0.7303 (Simulation time: 00 hr 49 min 05 sec)
Heartbeat CPU 0 instructions: 206000913 cycles: 231926459 heartbeat IPC: 1.118 cumulative IPC: 0.7311 (Simulation time: 00 hr 49 min 10 sec)
Heartbeat CPU 0 instructions: 206500914 cycles: 232376278 heartbeat IPC: 1.112 cumulative IPC: 0.7319 (Simulation time: 00 hr 49 min 16 sec)
Heartbeat CPU 0 instructions: 207000916 cycles: 233171150 heartbeat IPC: 0.629 cumulative IPC: 0.7315 (Simulation time: 00 hr 49 min 26 sec)
Heartbeat CPU 0 instructions: 207500916 cycles: 233985235 heartbeat IPC: 0.6142 cumulative IPC: 0.731 (Simulation time: 00 hr 49 min 36 sec)
Heartbeat CPU 0 instructions: 208000917 cycles: 234406804 heartbeat IPC: 1.186 cumulative IPC: 0.7319 (Simulation time: 00 hr 49 min 42 sec)
Heartbeat CPU 0 instructions: 208500918 cycles: 234825097 heartbeat IPC: 1.195 cumulative IPC: 0.7328 (Simulation time: 00 hr 49 min 47 sec)
Heartbeat CPU 0 instructions: 209000918 cycles: 235504691 heartbeat IPC: 0.7357 cumulative IPC: 0.7328 (Simulation time: 00 hr 49 min 54 sec)
Heartbeat CPU 0 instructions: 209500920 cycles: 236612290 heartbeat IPC: 0.4514 cumulative IPC: 0.7314 (Simulation time: 00 hr 50 min 08 sec)
Heartbeat CPU 0 instructions: 210000922 cycles: 237255276 heartbeat IPC: 0.7776 cumulative IPC: 0.7315 (Simulation time: 00 hr 50 min 15 sec)
Heartbeat CPU 0 instructions: 210500925 cycles: 237778319 heartbeat IPC: 0.956 cumulative IPC: 0.7321 (Simulation time: 00 hr 50 min 21 sec)
Heartbeat CPU 0 instructions: 211000925 cycles: 238547992 heartbeat IPC: 0.6496 cumulative IPC: 0.7318 (Simulation time: 00 hr 50 min 29 sec)
Heartbeat CPU 0 instructions: 211500927 cycles: 239231382 heartbeat IPC: 0.7316 cumulative IPC: 0.7318 (Simulation time: 00 hr 50 min 36 sec)
Heartbeat CPU 0 instructions: 212000931 cycles: 240249539 heartbeat IPC: 0.4911 cumulative IPC: 0.7307 (Simulation time: 00 hr 50 min 50 sec)
Heartbeat CPU 0 instructions: 212500937 cycles: 241412162 heartbeat IPC: 0.4301 cumulative IPC: 0.7291 (Simulation time: 00 hr 51 min 04 sec)
Heartbeat CPU 0 instructions: 213000937 cycles: 242591843 heartbeat IPC: 0.4238 cumulative IPC: 0.7275 (Simulation time: 00 hr 51 min 19 sec)
Heartbeat CPU 0 instructions: 213500942 cycles: 243563513 heartbeat IPC: 0.5146 cumulative IPC: 0.7266 (Simulation time: 00 hr 51 min 32 sec)
Heartbeat CPU 0 instructions: 214000948 cycles: 244595481 heartbeat IPC: 0.4845 cumulative IPC: 0.7255 (Simulation time: 00 hr 51 min 45 sec)
Heartbeat CPU 0 instructions: 214500949 cycles: 245048492 heartbeat IPC: 1.104 cumulative IPC: 0.7262 (Simulation time: 00 hr 51 min 50 sec)
Heartbeat CPU 0 instructions: 215000955 cycles: 245459870 heartbeat IPC: 1.215 cumulative IPC: 0.7271 (Simulation time: 00 hr 51 min 55 sec)
Heartbeat CPU 0 instructions: 215500956 cycles: 246036485 heartbeat IPC: 0.8671 cumulative IPC: 0.7275 (Simulation time: 00 hr 52 min 01 sec)
Heartbeat CPU 0 instructions: 216000957 cycles: 246974116 heartbeat IPC: 0.5333 cumulative IPC: 0.7267 (Simulation time: 00 hr 52 min 12 sec)
Heartbeat CPU 0 instructions: 216500959 cycles: 247676263 heartbeat IPC: 0.7121 cumulative IPC: 0.7266 (Simulation time: 00 hr 52 min 20 sec)
Heartbeat CPU 0 instructions: 217000959 cycles: 248152837 heartbeat IPC: 1.049 cumulative IPC: 0.7273 (Simulation time: 00 hr 52 min 26 sec)
Heartbeat CPU 0 instructions: 217500960 cycles: 248601269 heartbeat IPC: 1.115 cumulative IPC: 0.7281 (Simulation time: 00 hr 52 min 31 sec)
Heartbeat CPU 0 instructions: 218000962 cycles: 249091367 heartbeat IPC: 1.02 cumulative IPC: 0.7287 (Simulation time: 00 hr 52 min 36 sec)
Heartbeat CPU 0 instructions: 218500965 cycles: 250090747 heartbeat IPC: 0.5003 cumulative IPC: 0.7277 (Simulation time: 00 hr 52 min 49 sec)
Heartbeat CPU 0 instructions: 219000966 cycles: 250522170 heartbeat IPC: 1.159 cumulative IPC: 0.7285 (Simulation time: 00 hr 52 min 54 sec)
Heartbeat CPU 0 instructions: 219500968 cycles: 250934295 heartbeat IPC: 1.213 cumulative IPC: 0.7294 (Simulation time: 00 hr 52 min 59 sec)
Heartbeat CPU 0 instructions: 220000973 cycles: 251329829 heartbeat IPC: 1.264 cumulative IPC: 0.7303 (Simulation time: 00 hr 53 min 04 sec)
Heartbeat CPU 0 instructions: 220500975 cycles: 252113648 heartbeat IPC: 0.6379 cumulative IPC: 0.73 (Simulation time: 00 hr 53 min 13 sec)
Heartbeat CPU 0 instructions: 221000975 cycles: 253092960 heartbeat IPC: 0.5106 cumulative IPC: 0.729 (Simulation time: 00 hr 53 min 25 sec)
Heartbeat CPU 0 instructions: 221500976 cycles: 253894771 heartbeat IPC: 0.6236 cumulative IPC: 0.7287 (Simulation time: 00 hr 53 min 35 sec)
Heartbeat CPU 0 instructions: 222000982 cycles: 254323181 heartbeat IPC: 1.167 cumulative IPC: 0.7295 (Simulation time: 00 hr 53 min 40 sec)
Heartbeat CPU 0 instructions: 222500982 cycles: 254738144 heartbeat IPC: 1.205 cumulative IPC: 0.7303 (Simulation time: 00 hr 53 min 45 sec)
Heartbeat CPU 0 instructions: 223000983 cycles: 255132083 heartbeat IPC: 1.269 cumulative IPC: 0.7312 (Simulation time: 00 hr 53 min 50 sec)
Heartbeat CPU 0 instructions: 223500988 cycles: 255547556 heartbeat IPC: 1.203 cumulative IPC: 0.732 (Simulation time: 00 hr 53 min 55 sec)
Heartbeat CPU 0 instructions: 224000994 cycles: 256442967 heartbeat IPC: 0.5584 cumulative IPC: 0.7314 (Simulation time: 00 hr 54 min 06 sec)
Heartbeat CPU 0 instructions: 224501001 cycles: 257519185 heartbeat IPC: 0.4646 cumulative IPC: 0.7302 (Simulation time: 00 hr 54 min 19 sec)
Heartbeat CPU 0 instructions: 225001001 cycles: 258075774 heartbeat IPC: 0.8983 cumulative IPC: 0.7306 (Simulation time: 00 hr 54 min 26 sec)
Heartbeat CPU 0 instructions: 225501005 cycles: 258480048 heartbeat IPC: 1.237 cumulative IPC: 0.7314 (Simulation time: 00 hr 54 min 31 sec)
Heartbeat CPU 0 instructions: 226001005 cycles: 258884269 heartbeat IPC: 1.237 cumulative IPC: 0.7323 (Simulation time: 00 hr 54 min 35 sec)
Heartbeat CPU 0 instructions: 226501009 cycles: 259616293 heartbeat IPC: 0.683 cumulative IPC: 0.7321 (Simulation time: 00 hr 54 min 44 sec)
Heartbeat CPU 0 instructions: 227001009 cycles: 260330108 heartbeat IPC: 0.7005 cumulative IPC: 0.732 (Simulation time: 00 hr 54 min 53 sec)
Heartbeat CPU 0 instructions: 227501011 cycles: 260796600 heartbeat IPC: 1.072 cumulative IPC: 0.7327 (Simulation time: 00 hr 54 min 58 sec)
Heartbeat CPU 0 instructions: 228001013 cycles: 261623261 heartbeat IPC: 0.6048 cumulative IPC: 0.7323 (Simulation time: 00 hr 55 min 06 sec)
Heartbeat CPU 0 instructions: 228501013 cycles: 262407725 heartbeat IPC: 0.6374 cumulative IPC: 0.732 (Simulation time: 00 hr 55 min 13 sec)
Heartbeat CPU 0 instructions: 229001013 cycles: 262942415 heartbeat IPC: 0.9351 cumulative IPC: 0.7324 (Simulation time: 00 hr 55 min 19 sec)
Heartbeat CPU 0 instructions: 229501017 cycles: 263905936 heartbeat IPC: 0.5189 cumulative IPC: 0.7316 (Simulation time: 00 hr 55 min 30 sec)
Heartbeat CPU 0 instructions: 230001017 cycles: 265002648 heartbeat IPC: 0.4559 cumulative IPC: 0.7303 (Simulation time: 00 hr 55 min 44 sec)
Heartbeat CPU 0 instructions: 230501020 cycles: 266118460 heartbeat IPC: 0.4481 cumulative IPC: 0.7291 (Simulation time: 00 hr 55 min 58 sec)
Heartbeat CPU 0 instructions: 231001027 cycles: 267189781 heartbeat IPC: 0.4667 cumulative IPC: 0.7279 (Simulation time: 00 hr 56 min 10 sec)
Heartbeat CPU 0 instructions: 231501027 cycles: 267816132 heartbeat IPC: 0.7983 cumulative IPC: 0.7281 (Simulation time: 00 hr 56 min 17 sec)
Heartbeat CPU 0 instructions: 232001027 cycles: 268229506 heartbeat IPC: 1.21 cumulative IPC: 0.7289 (Simulation time: 00 hr 56 min 22 sec)
Heartbeat CPU 0 instructions: 232501027 cycles: 268891899 heartbeat IPC: 0.7548 cumulative IPC: 0.729 (Simulation time: 00 hr 56 min 29 sec)
Heartbeat CPU 0 instructions: 233001027 cycles: 269538854 heartbeat IPC: 0.7729 cumulative IPC: 0.7291 (Simulation time: 00 hr 56 min 35 sec)
Heartbeat CPU 0 instructions: 233501031 cycles: 270429161 heartbeat IPC: 0.5616 cumulative IPC: 0.7285 (Simulation time: 00 hr 56 min 44 sec)
Heartbeat CPU 0 instructions: 234001032 cycles: 271429859 heartbeat IPC: 0.4997 cumulative IPC: 0.7276 (Simulation time: 00 hr 56 min 55 sec)
Heartbeat CPU 0 instructions: 234501036 cycles: 272181066 heartbeat IPC: 0.6656 cumulative IPC: 0.7274 (Simulation time: 00 hr 57 min 02 sec)
Heartbeat CPU 0 instructions: 235001040 cycles: 272855838 heartbeat IPC: 0.741 cumulative IPC: 0.7274 (Simulation time: 00 hr 57 min 08 sec)
Heartbeat CPU 0 instructions: 235501040 cycles: 273332227 heartbeat IPC: 1.05 cumulative IPC: 0.728 (Simulation time: 00 hr 57 min 13 sec)
Heartbeat CPU 0 instructions: 236001041 cycles: 274381590 heartbeat IPC: 0.4765 cumulative IPC: 0.727 (Simulation time: 00 hr 57 min 26 sec)
Heartbeat CPU 0 instructions: 236501041 cycles: 275491117 heartbeat IPC: 0.4506 cumulative IPC: 0.7258 (Simulation time: 00 hr 57 min 38 sec)
Heartbeat CPU 0 instructions: 237001044 cycles: 276322591 heartbeat IPC: 0.6013 cumulative IPC: 0.7254 (Simulation time: 00 hr 57 min 48 sec)
Heartbeat CPU 0 instructions: 237501045 cycles: 277055054 heartbeat IPC: 0.6826 cumulative IPC: 0.7253 (Simulation time: 00 hr 57 min 57 sec)
Heartbeat CPU 0 instructions: 238001046 cycles: 277786072 heartbeat IPC: 0.684 cumulative IPC: 0.7252 (Simulation time: 00 hr 58 min 06 sec)
Heartbeat CPU 0 instructions: 238501048 cycles: 278517211 heartbeat IPC: 0.6839 cumulative IPC: 0.7251 (Simulation time: 00 hr 58 min 14 sec)
Heartbeat CPU 0 instructions: 239001048 cycles: 279251055 heartbeat IPC: 0.6813 cumulative IPC: 0.7249 (Simulation time: 00 hr 58 min 23 sec)
Heartbeat CPU 0 instructions: 239501048 cycles: 279985340 heartbeat IPC: 0.6809 cumulative IPC: 0.7248 (Simulation time: 00 hr 58 min 31 sec)
Heartbeat CPU 0 instructions: 240001049 cycles: 280716732 heartbeat IPC: 0.6836 cumulative IPC: 0.7247 (Simulation time: 00 hr 58 min 40 sec)
Heartbeat CPU 0 instructions: 240501051 cycles: 281448831 heartbeat IPC: 0.683 cumulative IPC: 0.7246 (Simulation time: 00 hr 58 min 48 sec)
Heartbeat CPU 0 instructions: 241001053 cycles: 282184529 heartbeat IPC: 0.6796 cumulative IPC: 0.7245 (Simulation time: 00 hr 58 min 57 sec)
Heartbeat CPU 0 instructions: 241501054 cycles: 282916916 heartbeat IPC: 0.6827 cumulative IPC: 0.7243 (Simulation time: 00 hr 59 min 05 sec)
Heartbeat CPU 0 instructions: 242001056 cycles: 283649592 heartbeat IPC: 0.6824 cumulative IPC: 0.7242 (Simulation time: 00 hr 59 min 14 sec)
Heartbeat CPU 0 instructions: 242501057 cycles: 284382192 heartbeat IPC: 0.6825 cumulative IPC: 0.7241 (Simulation time: 00 hr 59 min 22 sec)
Heartbeat CPU 0 instructions: 243001057 cycles: 285113272 heartbeat IPC: 0.6839 cumulative IPC: 0.724 (Simulation time: 00 hr 59 min 31 sec)
Heartbeat CPU 0 instructions: 243501058 cycles: 285845895 heartbeat IPC: 0.6825 cumulative IPC: 0.7239 (Simulation time: 00 hr 59 min 39 sec)
Heartbeat CPU 0 instructions: 244001058 cycles: 286581278 heartbeat IPC: 0.6799 cumulative IPC: 0.7238 (Simulation time: 00 hr 59 min 48 sec)
Heartbeat CPU 0 instructions: 244501060 cycles: 287313800 heartbeat IPC: 0.6826 cumulative IPC: 0.7237 (Simulation time: 00 hr 59 min 56 sec)
Heartbeat CPU 0 instructions: 245001063 cycles: 288046865 heartbeat IPC: 0.6821 cumulative IPC: 0.7235 (Simulation time: 01 hr 00 min 05 sec)
Heartbeat CPU 0 instructions: 245501066 cycles: 288778799 heartbeat IPC: 0.6831 cumulative IPC: 0.7234 (Simulation time: 01 hr 00 min 13 sec)
Heartbeat CPU 0 instructions: 246001068 cycles: 289517101 heartbeat IPC: 0.6772 cumulative IPC: 0.7233 (Simulation time: 01 hr 00 min 22 sec)
Heartbeat CPU 0 instructions: 246501070 cycles: 290270040 heartbeat IPC: 0.6641 cumulative IPC: 0.7231 (Simulation time: 01 hr 00 min 30 sec)
Heartbeat CPU 0 instructions: 247001072 cycles: 291005642 heartbeat IPC: 0.6797 cumulative IPC: 0.723 (Simulation time: 01 hr 00 min 38 sec)
Heartbeat CPU 0 instructions: 247501072 cycles: 291741147 heartbeat IPC: 0.6798 cumulative IPC: 0.7229 (Simulation time: 01 hr 00 min 47 sec)
Heartbeat CPU 0 instructions: 248001073 cycles: 292473665 heartbeat IPC: 0.6826 cumulative IPC: 0.7228 (Simulation time: 01 hr 00 min 55 sec)
Heartbeat CPU 0 instructions: 248501073 cycles: 293206947 heartbeat IPC: 0.6819 cumulative IPC: 0.7227 (Simulation time: 01 hr 01 min 03 sec)
Heartbeat CPU 0 instructions: 249001074 cycles: 293967408 heartbeat IPC: 0.6575 cumulative IPC: 0.7225 (Simulation time: 01 hr 01 min 11 sec)
Heartbeat CPU 0 instructions: 249501076 cycles: 294700119 heartbeat IPC: 0.6824 cumulative IPC: 0.7224 (Simulation time: 01 hr 01 min 20 sec)
Simulation finished CPU 0 instructions: 200000000 cycles: 276897912 cumulative IPC: 0.7223 (Simulation time: 01 hr 01 min 28 sec)
Simulation complete CPU 0 instructions: 200000000 cycles: 276897912 cumulative IPC: 0.7223 (Simulation time: 01 hr 01 min 28 sec)

ChampSim completed all CPUs

=== Simulation ===
CPU 0 runs /local-ssd/ben/dpc4-traces/SPEC17/605.mcf_s-472B.champsimtrace.xz

Region of Interest Statistics

CPU 0 cumulative IPC: 0.7223 instructions: 200000000 cycles: 276897912
CPU 0 Branch Prediction Accuracy: 98.77% MPKI: 1.582 Average ROB Occupancy at Mispredict: 228.3
Branch type MPKI
BRANCH_DIRECT_JUMP: 0
BRANCH_INDIRECT: 0
BRANCH_CONDITIONAL: 1.582
BRANCH_DIRECT_CALL: 5e-06
BRANCH_INDIRECT_CALL: 0
BRANCH_RETURN: 0

cpu0->cpu0_STLB TOTAL        ACCESS:     726392 HIT:     466006 MISS:     260386 MSHR_MERGE:          0
cpu0->cpu0_STLB LOAD         ACCESS:     726392 HIT:     466006 MISS:     260386 MSHR_MERGE:          0
cpu0->cpu0_STLB RFO          ACCESS:          0 HIT:          0 MISS:          0 MSHR_MERGE:          0
cpu0->cpu0_STLB PREFETCH     ACCESS:          0 HIT:          0 MISS:          0 MSHR_MERGE:          0
cpu0->cpu0_STLB WRITE        ACCESS:          0 HIT:          0 MISS:          0 MSHR_MERGE:          0
cpu0->cpu0_STLB TRANSLATION  ACCESS:          0 HIT:          0 MISS:          0 MSHR_MERGE:          0
cpu0->cpu0_STLB PREFETCH REQUESTED:          0 ISSUED:          0 USEFUL:          0 USELESS:          0
cpu0->cpu0_STLB AVERAGE MISS LATENCY: 101.8 cycles
cpu0->cpu0_L2C TOTAL        ACCESS:   44210022 HIT:   16491627 MISS:   27718395 MSHR_MERGE:   12710877
cpu0->cpu0_L2C LOAD         ACCESS:    4259649 HIT:    1587974 MISS:    2671675 MSHR_MERGE:     859003
cpu0->cpu0_L2C RFO          ACCESS:     435573 HIT:      48354 MISS:     387219 MSHR_MERGE:       2754
cpu0->cpu0_L2C PREFETCH     ACCESS:   38473279 HIT:   13851268 MISS:   24622011 MSHR_MERGE:   11849120
cpu0->cpu0_L2C WRITE        ACCESS:     994337 HIT:     993029 MISS:       1308 MSHR_MERGE:          0
cpu0->cpu0_L2C TRANSLATION  ACCESS:      47184 HIT:      11002 MISS:      36182 MSHR_MERGE:          0
cpu0->cpu0_L2C PREFETCH REQUESTED:   44395979 ISSUED:   31377347 USEFUL:    5427972 USELESS:    5050996
cpu0->cpu0_L2C AVERAGE MISS LATENCY: 219.9 cycles
cpu0->cpu0_L1I TOTAL        ACCESS:   33739160 HIT:   33739154 MISS:          6 MSHR_MERGE:          0
cpu0->cpu0_L1I LOAD         ACCESS:   33739160 HIT:   33739154 MISS:          6 MSHR_MERGE:          0
cpu0->cpu0_L1I RFO          ACCESS:          0 HIT:          0 MISS:          0 MSHR_MERGE:          0
cpu0->cpu0_L1I PREFETCH     ACCESS:          0 HIT:          0 MISS:          0 MSHR_MERGE:          0
cpu0->cpu0_L1I WRITE        ACCESS:          0 HIT:          0 MISS:          0 MSHR_MERGE:          0
cpu0->cpu0_L1I TRANSLATION  ACCESS:          0 HIT:          0 MISS:          0 MSHR_MERGE:          0
cpu0->cpu0_L1I PREFETCH REQUESTED:          0 ISSUED:          0 USEFUL:          0 USELESS:          0
cpu0->cpu0_L1I AVERAGE MISS LATENCY: 269 cycles
cpu0->cpu0_L1D TOTAL        ACCESS:  106438747 HIT:   89956770 MISS:   16481977 MSHR_MERGE:    4643632
cpu0->cpu0_L1D LOAD         ACCESS:   51718830 HIT:   44985776 MISS:    6733054 MSHR_MERGE:    2473407
cpu0->cpu0_L1D RFO          ACCESS:          0 HIT:          0 MISS:          0 MSHR_MERGE:          0
cpu0->cpu0_L1D PREFETCH     ACCESS:    8545215 HIT:     812962 MISS:    7732253 MSHR_MERGE:     636335
cpu0->cpu0_L1D WRITE        ACCESS:   45653672 HIT:   43684308 MISS:    1969364 MSHR_MERGE:    1533768
cpu0->cpu0_L1D TRANSLATION  ACCESS:     521030 HIT:     473724 MISS:      47306 MSHR_MERGE:        122
cpu0->cpu0_L1D PREFETCH REQUESTED:    9041419 ISSUED:    8545207 USEFUL:    5832634 USELESS:    1263286
cpu0->cpu0_L1D AVERAGE MISS LATENCY: 155.7 cycles
cpu0->cpu0_ITLB TOTAL        ACCESS:   28186257 HIT:   28186257 MISS:          0 MSHR_MERGE:          0
cpu0->cpu0_ITLB LOAD         ACCESS:   28186257 HIT:   28186257 MISS:          0 MSHR_MERGE:          0
cpu0->cpu0_ITLB RFO          ACCESS:          0 HIT:          0 MISS:          0 MSHR_MERGE:          0
cpu0->cpu0_ITLB PREFETCH     ACCESS:          0 HIT:          0 MISS:          0 MSHR_MERGE:          0
cpu0->cpu0_ITLB WRITE        ACCESS:          0 HIT:          0 MISS:          0 MSHR_MERGE:          0
cpu0->cpu0_ITLB TRANSLATION  ACCESS:          0 HIT:          0 MISS:          0 MSHR_MERGE:          0
cpu0->cpu0_ITLB PREFETCH REQUESTED:          0 ISSUED:          0 USEFUL:          0 USELESS:          0
cpu0->cpu0_ITLB AVERAGE MISS LATENCY: - cycles
cpu0->cpu0_DTLB TOTAL        ACCESS:   97247299 HIT:   95765618 MISS:    1481681 MSHR_MERGE:     755289
cpu0->cpu0_DTLB LOAD         ACCESS:   97247299 HIT:   95765618 MISS:    1481681 MSHR_MERGE:     755289
cpu0->cpu0_DTLB RFO          ACCESS:          0 HIT:          0 MISS:          0 MSHR_MERGE:          0
cpu0->cpu0_DTLB PREFETCH     ACCESS:          0 HIT:          0 MISS:          0 MSHR_MERGE:          0
cpu0->cpu0_DTLB WRITE        ACCESS:          0 HIT:          0 MISS:          0 MSHR_MERGE:          0
cpu0->cpu0_DTLB TRANSLATION  ACCESS:          0 HIT:          0 MISS:          0 MSHR_MERGE:          0
cpu0->cpu0_DTLB PREFETCH REQUESTED:          0 ISSUED:          0 USEFUL:          0 USELESS:          0
cpu0->cpu0_DTLB AVERAGE MISS LATENCY: 41.86 cycles
cpu0->LLC TOTAL        ACCESS:   19502476 HIT:    5519320 MISS:   13983156 MSHR_MERGE:    1732951
cpu0->LLC LOAD         ACCESS:    1812672 HIT:     575856 MISS:    1236816 MSHR_MERGE:     109610
cpu0->LLC RFO          ACCESS:     384465 HIT:        844 MISS:     383621 MSHR_MERGE:         10
cpu0->LLC PREFETCH     ACCESS:   16424254 HIT:    4792049 MISS:   11632205 MSHR_MERGE:    1623331
cpu0->LLC WRITE        ACCESS:     844903 HIT:     150171 MISS:     694732 MSHR_MERGE:          0
cpu0->LLC TRANSLATION  ACCESS:      36182 HIT:        400 MISS:      35782 MSHR_MERGE:          0
cpu0->LLC PREFETCH REQUESTED:    3651742 ISSUED:    3651331 USEFUL:     706026 USELESS:    1003754
cpu0->LLC AVERAGE MISS LATENCY: 209.9 cycles

DRAM Statistics

Channel 0 RQ ROW_BUFFER_HIT:    1838418
  ROW_BUFFER_MISS:    9716987
  AVG DBUS CONGESTED CYCLE: 7.031
Channel 0 WQ ROW_BUFFER_HIT:      61862
  ROW_BUFFER_MISS:     778449
  FULL:        494
Channel 0 REFRESHES ISSUED:      23074
