[VMEM] WARNING: physical memory size is smaller than virtual memory size.

*** ChampSim Multicore Out-of-Order Simulator ***
Warmup Instructions: 50000000
Simulation Instructions: 200000000
Number of CPUs: 1
Page size: 4096
Core 0: /local-ssd/ben/dpc4-traces/ai-ml/bark.cpp-bark-small.coarse_token_gen.2.champsimtrace.gz
Off-chip DRAM Size: 64 GiB Channels: 1 Width: 64-bit Data Rate: 4807 MT/s
Heartbeat CPU 0 instructions: 500000 cycles: 296089 heartbeat IPC: 1.689 cumulative IPC: 1.689 (Simulation time: 00 hr 00 min 10 sec)
Heartbeat CPU 0 instructions: 1000007 cycles: 601154 heartbeat IPC: 1.639 cumulative IPC: 1.663 (Simulation time: 00 hr 00 min 16 sec)
Heartbeat CPU 0 instructions: 1500007 cycles: 905734 heartbeat IPC: 1.642 cumulative IPC: 1.656 (Simulation time: 00 hr 00 min 22 sec)
Heartbeat CPU 0 instructions: 2000010 cycles: 1211088 heartbeat IPC: 1.637 cumulative IPC: 1.651 (Simulation time: 00 hr 00 min 27 sec)
Heartbeat CPU 0 instructions: 2500011 cycles: 1516191 heartbeat IPC: 1.639 cumulative IPC: 1.649 (Simulation time: 00 hr 00 min 33 sec)
Heartbeat CPU 0 instructions: 3000012 cycles: 1813197 heartbeat IPC: 1.683 cumulative IPC: 1.655 (Simulation time: 00 hr 00 min 39 sec)
Heartbeat CPU 0 instructions: 3500014 cycles: 2119235 heartbeat IPC: 1.634 cumulative IPC: 1.652 (Simulation time: 00 hr 00 min 45 sec)
Heartbeat CPU 0 instructions: 4000016 cycles: 2424787 heartbeat IPC: 1.636 cumulative IPC: 1.65 (Simulation time: 00 hr 00 min 51 sec)
Heartbeat CPU 0 instructions: 4500018 cycles: 2729151 heartbeat IPC: 1.643 cumulative IPC: 1.649 (Simulation time: 00 hr 00 min 57 sec)
Heartbeat CPU 0 instructions: 5000019 cycles: 3035229 heartbeat IPC: 1.634 cumulative IPC: 1.647 (Simulation time: 00 hr 01 min 02 sec)
Heartbeat CPU 0 instructions: 5500021 cycles: 3339317 heartbeat IPC: 1.644 cumulative IPC: 1.647 (Simulation time: 00 hr 01 min 08 sec)
Heartbeat CPU 0 instructions: 6000027 cycles: 3643730 heartbeat IPC: 1.643 cumulative IPC: 1.647 (Simulation time: 00 hr 01 min 14 sec)
Heartbeat CPU 0 instructions: 6500027 cycles: 3948446 heartbeat IPC: 1.641 cumulative IPC: 1.646 (Simulation time: 00 hr 01 min 20 sec)
Heartbeat CPU 0 instructions: 7000034 cycles: 4252894 heartbeat IPC: 1.642 cumulative IPC: 1.646 (Simulation time: 00 hr 01 min 26 sec)
Heartbeat CPU 0 instructions: 7500035 cycles: 4557493 heartbeat IPC: 1.642 cumulative IPC: 1.646 (Simulation time: 00 hr 01 min 32 sec)
Heartbeat CPU 0 instructions: 8000035 cycles: 4863482 heartbeat IPC: 1.634 cumulative IPC: 1.645 (Simulation time: 00 hr 01 min 37 sec)
Heartbeat CPU 0 instructions: 8500035 cycles: 5167363 heartbeat IPC: 1.645 cumulative IPC: 1.645 (Simulation time: 00 hr 01 min 43 sec)
Heartbeat CPU 0 instructions: 9000040 cycles: 5471852 heartbeat IPC: 1.642 cumulative IPC: 1.645 (Simulation time: 00 hr 01 min 49 sec)
Heartbeat CPU 0 instructions: 9500046 cycles: 5775799 heartbeat IPC: 1.645 cumulative IPC: 1.645 (Simulation time: 00 hr 01 min 55 sec)
Heartbeat CPU 0 instructions: 10000049 cycles: 6080256 heartbeat IPC: 1.642 cumulative IPC: 1.645 (Simulation time: 00 hr 02 min 01 sec)
Heartbeat CPU 0 instructions: 10500052 cycles: 6383531 heartbeat IPC: 1.649 cumulative IPC: 1.645 (Simulation time: 00 hr 02 min 07 sec)
Heartbeat CPU 0 instructions: 11000054 cycles: 6686783 heartbeat IPC: 1.649 cumulative IPC: 1.645 (Simulation time: 00 hr 02 min 13 sec)
Heartbeat CPU 0 instructions: 11500056 cycles: 6990071 heartbeat IPC: 1.649 cumulative IPC: 1.645 (Simulation time: 00 hr 02 min 18 sec)
Heartbeat CPU 0 instructions: 12000058 cycles: 7292859 heartbeat IPC: 1.651 cumulative IPC: 1.645 (Simulation time: 00 hr 02 min 24 sec)
Heartbeat CPU 0 instructions: 12500064 cycles: 7595836 heartbeat IPC: 1.65 cumulative IPC: 1.646 (Simulation time: 00 hr 02 min 30 sec)
Heartbeat CPU 0 instructions: 13000068 cycles: 7894519 heartbeat IPC: 1.674 cumulative IPC: 1.647 (Simulation time: 00 hr 02 min 36 sec)
Heartbeat CPU 0 instructions: 13500070 cycles: 8197216 heartbeat IPC: 1.652 cumulative IPC: 1.647 (Simulation time: 00 hr 02 min 42 sec)
Heartbeat CPU 0 instructions: 14000076 cycles: 8499843 heartbeat IPC: 1.652 cumulative IPC: 1.647 (Simulation time: 00 hr 02 min 48 sec)
Heartbeat CPU 0 instructions: 14500076 cycles: 8802864 heartbeat IPC: 1.65 cumulative IPC: 1.647 (Simulation time: 00 hr 02 min 53 sec)
Heartbeat CPU 0 instructions: 15000081 cycles: 9105205 heartbeat IPC: 1.654 cumulative IPC: 1.647 (Simulation time: 00 hr 02 min 59 sec)
Heartbeat CPU 0 instructions: 15500084 cycles: 9407896 heartbeat IPC: 1.652 cumulative IPC: 1.648 (Simulation time: 00 hr 03 min 05 sec)
Heartbeat CPU 0 instructions: 16000088 cycles: 9710729 heartbeat IPC: 1.651 cumulative IPC: 1.648 (Simulation time: 00 hr 03 min 11 sec)
Heartbeat CPU 0 instructions: 16500088 cycles: 10013454 heartbeat IPC: 1.652 cumulative IPC: 1.648 (Simulation time: 00 hr 03 min 17 sec)
Heartbeat CPU 0 instructions: 17000089 cycles: 10316372 heartbeat IPC: 1.651 cumulative IPC: 1.648 (Simulation time: 00 hr 03 min 23 sec)
Heartbeat CPU 0 instructions: 17500096 cycles: 10618989 heartbeat IPC: 1.652 cumulative IPC: 1.648 (Simulation time: 00 hr 03 min 28 sec)
Heartbeat CPU 0 instructions: 18000099 cycles: 10921970 heartbeat IPC: 1.65 cumulative IPC: 1.648 (Simulation time: 00 hr 03 min 34 sec)
Heartbeat CPU 0 instructions: 18500099 cycles: 11225122 heartbeat IPC: 1.649 cumulative IPC: 1.648 (Simulation time: 00 hr 03 min 40 sec)
Heartbeat CPU 0 instructions: 19000104 cycles: 11527686 heartbeat IPC: 1.653 cumulative IPC: 1.648 (Simulation time: 00 hr 03 min 46 sec)
Heartbeat CPU 0 instructions: 19500111 cycles: 11830659 heartbeat IPC: 1.65 cumulative IPC: 1.648 (Simulation time: 00 hr 03 min 52 sec)
Heartbeat CPU 0 instructions: 20000118 cycles: 12133462 heartbeat IPC: 1.651 cumulative IPC: 1.648 (Simulation time: 00 hr 03 min 58 sec)
Heartbeat CPU 0 instructions: 20500120 cycles: 12436385 heartbeat IPC: 1.651 cumulative IPC: 1.648 (Simulation time: 00 hr 04 min 03 sec)
Heartbeat CPU 0 instructions: 21000126 cycles: 12739427 heartbeat IPC: 1.65 cumulative IPC: 1.648 (Simulation time: 00 hr 04 min 09 sec)
Heartbeat CPU 0 instructions: 21500132 cycles: 13042069 heartbeat IPC: 1.652 cumulative IPC: 1.649 (Simulation time: 00 hr 04 min 15 sec)
Heartbeat CPU 0 instructions: 22000136 cycles: 13345103 heartbeat IPC: 1.65 cumulative IPC: 1.649 (Simulation time: 00 hr 04 min 21 sec)
Heartbeat CPU 0 instructions: 22500138 cycles: 13648234 heartbeat IPC: 1.649 cumulative IPC: 1.649 (Simulation time: 00 hr 04 min 27 sec)
Heartbeat CPU 0 instructions: 23000143 cycles: 13950594 heartbeat IPC: 1.654 cumulative IPC: 1.649 (Simulation time: 00 hr 04 min 33 sec)
Heartbeat CPU 0 instructions: 23500148 cycles: 14249852 heartbeat IPC: 1.671 cumulative IPC: 1.649 (Simulation time: 00 hr 04 min 38 sec)
Heartbeat CPU 0 instructions: 24000151 cycles: 14552937 heartbeat IPC: 1.65 cumulative IPC: 1.649 (Simulation time: 00 hr 04 min 44 sec)
Heartbeat CPU 0 instructions: 24500154 cycles: 14856043 heartbeat IPC: 1.65 cumulative IPC: 1.649 (Simulation time: 00 hr 04 min 50 sec)
Heartbeat CPU 0 instructions: 25000159 cycles: 15159425 heartbeat IPC: 1.648 cumulative IPC: 1.649 (Simulation time: 00 hr 04 min 56 sec)
Heartbeat CPU 0 instructions: 25500163 cycles: 15462268 heartbeat IPC: 1.651 cumulative IPC: 1.649 (Simulation time: 00 hr 05 min 02 sec)
Heartbeat CPU 0 instructions: 26000170 cycles: 15765510 heartbeat IPC: 1.649 cumulative IPC: 1.649 (Simulation time: 00 hr 05 min 08 sec)
Heartbeat CPU 0 instructions: 26500174 cycles: 16068239 heartbeat IPC: 1.652 cumulative IPC: 1.649 (Simulation time: 00 hr 05 min 13 sec)
Heartbeat CPU 0 instructions: 27000174 cycles: 16371274 heartbeat IPC: 1.65 cumulative IPC: 1.649 (Simulation time: 00 hr 05 min 19 sec)
Heartbeat CPU 0 instructions: 27500178 cycles: 16673856 heartbeat IPC: 1.652 cumulative IPC: 1.649 (Simulation time: 00 hr 05 min 25 sec)
Heartbeat CPU 0 instructions: 28000184 cycles: 16976860 heartbeat IPC: 1.65 cumulative IPC: 1.649 (Simulation time: 00 hr 05 min 31 sec)
Heartbeat CPU 0 instructions: 28500186 cycles: 17279561 heartbeat IPC: 1.652 cumulative IPC: 1.649 (Simulation time: 00 hr 05 min 37 sec)
Heartbeat CPU 0 instructions: 29000193 cycles: 17582591 heartbeat IPC: 1.65 cumulative IPC: 1.649 (Simulation time: 00 hr 05 min 43 sec)
Heartbeat CPU 0 instructions: 29500194 cycles: 17885546 heartbeat IPC: 1.65 cumulative IPC: 1.649 (Simulation time: 00 hr 05 min 48 sec)
Heartbeat CPU 0 instructions: 30000195 cycles: 18189112 heartbeat IPC: 1.647 cumulative IPC: 1.649 (Simulation time: 00 hr 05 min 54 sec)
Heartbeat CPU 0 instructions: 30500201 cycles: 18492022 heartbeat IPC: 1.651 cumulative IPC: 1.649 (Simulation time: 00 hr 06 min 00 sec)
Heartbeat CPU 0 instructions: 31000203 cycles: 18795459 heartbeat IPC: 1.648 cumulative IPC: 1.649 (Simulation time: 00 hr 06 min 06 sec)
Heartbeat CPU 0 instructions: 31500205 cycles: 19098293 heartbeat IPC: 1.651 cumulative IPC: 1.649 (Simulation time: 00 hr 06 min 12 sec)
Heartbeat CPU 0 instructions: 32000205 cycles: 19401815 heartbeat IPC: 1.647 cumulative IPC: 1.649 (Simulation time: 00 hr 06 min 18 sec)
Heartbeat CPU 0 instructions: 32500207 cycles: 19704956 heartbeat IPC: 1.649 cumulative IPC: 1.649 (Simulation time: 00 hr 06 min 23 sec)
Heartbeat CPU 0 instructions: 33000209 cycles: 20007986 heartbeat IPC: 1.65 cumulative IPC: 1.649 (Simulation time: 00 hr 06 min 29 sec)
Heartbeat CPU 0 instructions: 33500209 cycles: 20310010 heartbeat IPC: 1.655 cumulative IPC: 1.649 (Simulation time: 00 hr 06 min 35 sec)
Heartbeat CPU 0 instructions: 34000212 cycles: 20612930 heartbeat IPC: 1.651 cumulative IPC: 1.649 (Simulation time: 00 hr 06 min 41 sec)
Heartbeat CPU 0 instructions: 34500218 cycles: 20915420 heartbeat IPC: 1.653 cumulative IPC: 1.65 (Simulation time: 00 hr 06 min 47 sec)
Heartbeat CPU 0 instructions: 35000223 cycles: 21218235 heartbeat IPC: 1.651 cumulative IPC: 1.65 (Simulation time: 00 hr 06 min 53 sec)
Heartbeat CPU 0 instructions: 35500224 cycles: 21520467 heartbeat IPC: 1.654 cumulative IPC: 1.65 (Simulation time: 00 hr 06 min 59 sec)
Heartbeat CPU 0 instructions: 36000231 cycles: 21822808 heartbeat IPC: 1.654 cumulative IPC: 1.65 (Simulation time: 00 hr 07 min 04 sec)
Heartbeat CPU 0 instructions: 36500236 cycles: 22125617 heartbeat IPC: 1.651 cumulative IPC: 1.65 (Simulation time: 00 hr 07 min 10 sec)
Heartbeat CPU 0 instructions: 37000240 cycles: 22428003 heartbeat IPC: 1.654 cumulative IPC: 1.65 (Simulation time: 00 hr 07 min 16 sec)
Heartbeat CPU 0 instructions: 37500244 cycles: 22731215 heartbeat IPC: 1.649 cumulative IPC: 1.65 (Simulation time: 00 hr 07 min 22 sec)
Heartbeat CPU 0 instructions: 38000244 cycles: 23034069 heartbeat IPC: 1.651 cumulative IPC: 1.65 (Simulation time: 00 hr 07 min 28 sec)
Heartbeat CPU 0 instructions: 38500244 cycles: 23336577 heartbeat IPC: 1.653 cumulative IPC: 1.65 (Simulation time: 00 hr 07 min 34 sec)
Heartbeat CPU 0 instructions: 39000244 cycles: 23638983 heartbeat IPC: 1.653 cumulative IPC: 1.65 (Simulation time: 00 hr 07 min 39 sec)
Heartbeat CPU 0 instructions: 39500248 cycles: 23941891 heartbeat IPC: 1.651 cumulative IPC: 1.65 (Simulation time: 00 hr 07 min 45 sec)
Heartbeat CPU 0 instructions: 40000251 cycles: 24244112 heartbeat IPC: 1.654 cumulative IPC: 1.65 (Simulation time: 00 hr 07 min 51 sec)
Heartbeat CPU 0 instructions: 40500251 cycles: 24547747 heartbeat IPC: 1.647 cumulative IPC: 1.65 (Simulation time: 00 hr 07 min 57 sec)
Heartbeat CPU 0 instructions: 41000253 cycles: 24850821 heartbeat IPC: 1.65 cumulative IPC: 1.65 (Simulation time: 00 hr 08 min 03 sec)
Heartbeat CPU 0 instructions: 41500259 cycles: 25153568 heartbeat IPC: 1.652 cumulative IPC: 1.65 (Simulation time: 00 hr 08 min 09 sec)
Heartbeat CPU 0 instructions: 42000265 cycles: 25457187 heartbeat IPC: 1.647 cumulative IPC: 1.65 (Simulation time: 00 hr 08 min 14 sec)
Heartbeat CPU 0 instructions: 42500266 cycles: 25759743 heartbeat IPC: 1.653 cumulative IPC: 1.65 (Simulation time: 00 hr 08 min 20 sec)
Heartbeat CPU 0 instructions: 43000272 cycles: 26062621 heartbeat IPC: 1.651 cumulative IPC: 1.65 (Simulation time: 00 hr 08 min 26 sec)
Heartbeat CPU 0 instructions: 43500273 cycles: 26361503 heartbeat IPC: 1.673 cumulative IPC: 1.65 (Simulation time: 00 hr 08 min 32 sec)
Heartbeat CPU 0 instructions: 44000276 cycles: 26660346 heartbeat IPC: 1.673 cumulative IPC: 1.65 (Simulation time: 00 hr 08 min 38 sec)
Heartbeat CPU 0 instructions: 44500280 cycles: 26963724 heartbeat IPC: 1.648 cumulative IPC: 1.65 (Simulation time: 00 hr 08 min 43 sec)
Heartbeat CPU 0 instructions: 45000286 cycles: 27266646 heartbeat IPC: 1.651 cumulative IPC: 1.65 (Simulation time: 00 hr 08 min 49 sec)
Heartbeat CPU 0 instructions: 45500292 cycles: 27569271 heartbeat IPC: 1.652 cumulative IPC: 1.65 (Simulation time: 00 hr 08 min 55 sec)
Heartbeat CPU 0 instructions: 46000292 cycles: 27872031 heartbeat IPC: 1.651 cumulative IPC: 1.65 (Simulation time: 00 hr 09 min 01 sec)
Heartbeat CPU 0 instructions: 46500299 cycles: 28174757 heartbeat IPC: 1.652 cumulative IPC: 1.65 (Simulation time: 00 hr 09 min 07 sec)
Heartbeat CPU 0 instructions: 47000305 cycles: 28477446 heartbeat IPC: 1.652 cumulative IPC: 1.65 (Simulation time: 00 hr 09 min 13 sec)
Heartbeat CPU 0 instructions: 47500312 cycles: 28779638 heartbeat IPC: 1.655 cumulative IPC: 1.65 (Simulation time: 00 hr 09 min 18 sec)
Heartbeat CPU 0 instructions: 48000317 cycles: 29081842 heartbeat IPC: 1.655 cumulative IPC: 1.651 (Simulation time: 00 hr 09 min 24 sec)
Heartbeat CPU 0 instructions: 48500321 cycles: 29384848 heartbeat IPC: 1.65 cumulative IPC: 1.651 (Simulation time: 00 hr 09 min 30 sec)
Heartbeat CPU 0 instructions: 49000323 cycles: 29687484 heartbeat IPC: 1.652 cumulative IPC: 1.651 (Simulation time: 00 hr 09 min 36 sec)
Heartbeat CPU 0 instructions: 49500328 cycles: 29989619 heartbeat IPC: 1.655 cumulative IPC: 1.651 (Simulation time: 00 hr 09 min 42 sec)
Warmup halting CPU 0 at instruction 50000003 cycle 30292129 for remainder of phase
Warmup finished CPU 0 instructions: 50000003 cycles: 30292129 cumulative IPC: 1.651 (Simulation time: 00 hr 09 min 47 sec)
Warmup complete CPU 0 instructions: 50000003 cycles: 30292129 cumulative IPC: 1.651 (Simulation time: 00 hr 09 min 47 sec)
Heartbeat CPU 0 instructions: 50000332 cycles: 30292366 heartbeat IPC: 1.652 cumulative IPC: 1.388 (Simulation time: 00 hr 09 min 47 sec)
Heartbeat CPU 0 instructions: 50500333 cycles: 30464429 heartbeat IPC: 2.906 cumulative IPC: 2.904 (Simulation time: 00 hr 09 min 51 sec)
Heartbeat CPU 0 instructions: 51000337 cycles: 30648304 heartbeat IPC: 2.719 cumulative IPC: 2.809 (Simulation time: 00 hr 09 min 54 sec)
Heartbeat CPU 0 instructions: 51500339 cycles: 30818009 heartbeat IPC: 2.946 cumulative IPC: 2.853 (Simulation time: 00 hr 09 min 57 sec)
Heartbeat CPU 0 instructions: 52000341 cycles: 30988448 heartbeat IPC: 2.934 cumulative IPC: 2.873 (Simulation time: 00 hr 10 min 00 sec)
Heartbeat CPU 0 instructions: 52500345 cycles: 31170792 heartbeat IPC: 2.742 cumulative IPC: 2.846 (Simulation time: 00 hr 10 min 04 sec)
Heartbeat CPU 0 instructions: 53000346 cycles: 31348714 heartbeat IPC: 2.81 cumulative IPC: 2.84 (Simulation time: 00 hr 10 min 07 sec)
Heartbeat CPU 0 instructions: 53500348 cycles: 31517031 heartbeat IPC: 2.971 cumulative IPC: 2.858 (Simulation time: 00 hr 10 min 10 sec)
Heartbeat CPU 0 instructions: 54000348 cycles: 31709191 heartbeat IPC: 2.602 cumulative IPC: 2.823 (Simulation time: 00 hr 10 min 13 sec)
Heartbeat CPU 0 instructions: 54500355 cycles: 31877326 heartbeat IPC: 2.974 cumulative IPC: 2.839 (Simulation time: 00 hr 10 min 17 sec)
Heartbeat CPU 0 instructions: 55000362 cycles: 32044922 heartbeat IPC: 2.983 cumulative IPC: 2.853 (Simulation time: 00 hr 10 min 20 sec)
Heartbeat CPU 0 instructions: 55500364 cycles: 32214318 heartbeat IPC: 2.952 cumulative IPC: 2.862 (Simulation time: 00 hr 10 min 23 sec)
Heartbeat CPU 0 instructions: 56000371 cycles: 32380643 heartbeat IPC: 3.006 cumulative IPC: 2.873 (Simulation time: 00 hr 10 min 26 sec)
Heartbeat CPU 0 instructions: 56500378 cycles: 32547809 heartbeat IPC: 2.991 cumulative IPC: 2.882 (Simulation time: 00 hr 10 min 29 sec)
Heartbeat CPU 0 instructions: 57000383 cycles: 32709478 heartbeat IPC: 3.093 cumulative IPC: 2.896 (Simulation time: 00 hr 10 min 32 sec)
Heartbeat CPU 0 instructions: 57500389 cycles: 32868397 heartbeat IPC: 3.146 cumulative IPC: 2.911 (Simulation time: 00 hr 10 min 35 sec)
Heartbeat CPU 0 instructions: 58000389 cycles: 33035512 heartbeat IPC: 2.992 cumulative IPC: 2.916 (Simulation time: 00 hr 10 min 38 sec)
Heartbeat CPU 0 instructions: 58500395 cycles: 33198122 heartbeat IPC: 3.075 cumulative IPC: 2.925 (Simulation time: 00 hr 10 min 41 sec)
Heartbeat CPU 0 instructions: 59000398 cycles: 33360331 heartbeat IPC: 3.082 cumulative IPC: 2.933 (Simulation time: 00 hr 10 min 44 sec)
Heartbeat CPU 0 instructions: 59500405 cycles: 33525647 heartbeat IPC: 3.025 cumulative IPC: 2.938 (Simulation time: 00 hr 10 min 48 sec)
Heartbeat CPU 0 instructions: 60000406 cycles: 33688784 heartbeat IPC: 3.065 cumulative IPC: 2.944 (Simulation time: 00 hr 10 min 51 sec)
Heartbeat CPU 0 instructions: 60500410 cycles: 33853468 heartbeat IPC: 3.036 cumulative IPC: 2.948 (Simulation time: 00 hr 10 min 54 sec)
Heartbeat CPU 0 instructions: 61000413 cycles: 34035041 heartbeat IPC: 2.754 cumulative IPC: 2.939 (Simulation time: 00 hr 10 min 57 sec)
Heartbeat CPU 0 instructions: 61500416 cycles: 34206908 heartbeat IPC: 2.909 cumulative IPC: 2.938 (Simulation time: 00 hr 11 min 00 sec)
Heartbeat CPU 0 instructions: 62000423 cycles: 34385411 heartbeat IPC: 2.801 cumulative IPC: 2.932 (Simulation time: 00 hr 11 min 04 sec)
Heartbeat CPU 0 instructions: 62500428 cycles: 34556254 heartbeat IPC: 2.927 cumulative IPC: 2.932 (Simulation time: 00 hr 11 min 07 sec)
Heartbeat CPU 0 instructions: 63000434 cycles: 34728808 heartbeat IPC: 2.898 cumulative IPC: 2.93 (Simulation time: 00 hr 11 min 10 sec)
Heartbeat CPU 0 instructions: 63500437 cycles: 34907078 heartbeat IPC: 2.805 cumulative IPC: 2.925 (Simulation time: 00 hr 11 min 13 sec)
Heartbeat CPU 0 instructions: 64000442 cycles: 35090016 heartbeat IPC: 2.733 cumulative IPC: 2.918 (Simulation time: 00 hr 11 min 17 sec)
Heartbeat CPU 0 instructions: 64500444 cycles: 35259893 heartbeat IPC: 2.943 cumulative IPC: 2.919 (Simulation time: 00 hr 11 min 20 sec)
Heartbeat CPU 0 instructions: 65000451 cycles: 35435080 heartbeat IPC: 2.854 cumulative IPC: 2.917 (Simulation time: 00 hr 11 min 23 sec)
Heartbeat CPU 0 instructions: 65500457 cycles: 35600469 heartbeat IPC: 3.023 cumulative IPC: 2.92 (Simulation time: 00 hr 11 min 26 sec)
Heartbeat CPU 0 instructions: 66000457 cycles: 35766123 heartbeat IPC: 3.018 cumulative IPC: 2.923 (Simulation time: 00 hr 11 min 29 sec)
Heartbeat CPU 0 instructions: 66500458 cycles: 35935434 heartbeat IPC: 2.953 cumulative IPC: 2.924 (Simulation time: 00 hr 11 min 32 sec)
Heartbeat CPU 0 instructions: 67000464 cycles: 36093920 heartbeat IPC: 3.155 cumulative IPC: 2.93 (Simulation time: 00 hr 11 min 35 sec)
Heartbeat CPU 0 instructions: 67500467 cycles: 36253061 heartbeat IPC: 3.142 cumulative IPC: 2.936 (Simulation time: 00 hr 11 min 38 sec)
Heartbeat CPU 0 instructions: 68000467 cycles: 36421941 heartbeat IPC: 2.961 cumulative IPC: 2.937 (Simulation time: 00 hr 11 min 42 sec)
Heartbeat CPU 0 instructions: 68500468 cycles: 36585935 heartbeat IPC: 3.049 cumulative IPC: 2.939 (Simulation time: 00 hr 11 min 45 sec)
Heartbeat CPU 0 instructions: 69000471 cycles: 36752035 heartbeat IPC: 3.01 cumulative IPC: 2.941 (Simulation time: 00 hr 11 min 48 sec)
Heartbeat CPU 0 instructions: 69500474 cycles: 36913671 heartbeat IPC: 3.093 cumulative IPC: 2.945 (Simulation time: 00 hr 11 min 51 sec)
Heartbeat CPU 0 instructions: 70000477 cycles: 37073673 heartbeat IPC: 3.125 cumulative IPC: 2.949 (Simulation time: 00 hr 11 min 54 sec)
Heartbeat CPU 0 instructions: 70500483 cycles: 37243438 heartbeat IPC: 2.945 cumulative IPC: 2.949 (Simulation time: 00 hr 11 min 57 sec)
Heartbeat CPU 0 instructions: 71000483 cycles: 37416577 heartbeat IPC: 2.888 cumulative IPC: 2.948 (Simulation time: 00 hr 12 min 00 sec)
Heartbeat CPU 0 instructions: 71500484 cycles: 37588787 heartbeat IPC: 2.903 cumulative IPC: 2.947 (Simulation time: 00 hr 12 min 04 sec)
Heartbeat CPU 0 instructions: 72000484 cycles: 37771414 heartbeat IPC: 2.738 cumulative IPC: 2.942 (Simulation time: 00 hr 12 min 07 sec)
Heartbeat CPU 0 instructions: 72500486 cycles: 37946346 heartbeat IPC: 2.858 cumulative IPC: 2.94 (Simulation time: 00 hr 12 min 10 sec)
Heartbeat CPU 0 instructions: 73000490 cycles: 38114430 heartbeat IPC: 2.975 cumulative IPC: 2.94 (Simulation time: 00 hr 12 min 13 sec)
Heartbeat CPU 0 instructions: 73500492 cycles: 38292998 heartbeat IPC: 2.8 cumulative IPC: 2.937 (Simulation time: 00 hr 12 min 17 sec)
Heartbeat CPU 0 instructions: 74000493 cycles: 38474989 heartbeat IPC: 2.747 cumulative IPC: 2.933 (Simulation time: 00 hr 12 min 20 sec)
Heartbeat CPU 0 instructions: 74500494 cycles: 38649832 heartbeat IPC: 2.86 cumulative IPC: 2.931 (Simulation time: 00 hr 12 min 23 sec)
Heartbeat CPU 0 instructions: 75000496 cycles: 38820737 heartbeat IPC: 2.926 cumulative IPC: 2.931 (Simulation time: 00 hr 12 min 26 sec)
Heartbeat CPU 0 instructions: 75500502 cycles: 38986399 heartbeat IPC: 3.018 cumulative IPC: 2.933 (Simulation time: 00 hr 12 min 30 sec)
Heartbeat CPU 0 instructions: 76000508 cycles: 39156633 heartbeat IPC: 2.937 cumulative IPC: 2.933 (Simulation time: 00 hr 12 min 33 sec)
Heartbeat CPU 0 instructions: 76500511 cycles: 39321587 heartbeat IPC: 3.031 cumulative IPC: 2.935 (Simulation time: 00 hr 12 min 36 sec)
Heartbeat CPU 0 instructions: 77000514 cycles: 39487541 heartbeat IPC: 3.013 cumulative IPC: 2.936 (Simulation time: 00 hr 12 min 39 sec)
Heartbeat CPU 0 instructions: 77500516 cycles: 39652464 heartbeat IPC: 3.032 cumulative IPC: 2.938 (Simulation time: 00 hr 12 min 42 sec)
Heartbeat CPU 0 instructions: 78000519 cycles: 39813609 heartbeat IPC: 3.103 cumulative IPC: 2.941 (Simulation time: 00 hr 12 min 45 sec)
Heartbeat CPU 0 instructions: 78500521 cycles: 39973030 heartbeat IPC: 3.136 cumulative IPC: 2.944 (Simulation time: 00 hr 12 min 48 sec)
Heartbeat CPU 0 instructions: 79000521 cycles: 40137118 heartbeat IPC: 3.047 cumulative IPC: 2.946 (Simulation time: 00 hr 12 min 51 sec)
Heartbeat CPU 0 instructions: 79500525 cycles: 40301620 heartbeat IPC: 3.04 cumulative IPC: 2.947 (Simulation time: 00 hr 12 min 54 sec)
Heartbeat CPU 0 instructions: 80000526 cycles: 40462427 heartbeat IPC: 3.109 cumulative IPC: 2.95 (Simulation time: 00 hr 12 min 57 sec)
Heartbeat CPU 0 instructions: 80500529 cycles: 40628314 heartbeat IPC: 3.014 cumulative IPC: 2.951 (Simulation time: 00 hr 13 min 00 sec)
Heartbeat CPU 0 instructions: 81000531 cycles: 40798757 heartbeat IPC: 2.934 cumulative IPC: 2.951 (Simulation time: 00 hr 13 min 04 sec)
Heartbeat CPU 0 instructions: 81500533 cycles: 40976740 heartbeat IPC: 2.809 cumulative IPC: 2.948 (Simulation time: 00 hr 13 min 07 sec)
Heartbeat CPU 0 instructions: 82000539 cycles: 41156167 heartbeat IPC: 2.787 cumulative IPC: 2.946 (Simulation time: 00 hr 13 min 10 sec)
Heartbeat CPU 0 instructions: 82500540 cycles: 41328143 heartbeat IPC: 2.907 cumulative IPC: 2.945 (Simulation time: 00 hr 13 min 14 sec)
Heartbeat CPU 0 instructions: 83000547 cycles: 41505114 heartbeat IPC: 2.825 cumulative IPC: 2.943 (Simulation time: 00 hr 13 min 17 sec)
Heartbeat CPU 0 instructions: 83500548 cycles: 41673518 heartbeat IPC: 2.969 cumulative IPC: 2.943 (Simulation time: 00 hr 13 min 20 sec)
Heartbeat CPU 0 instructions: 84000549 cycles: 41844776 heartbeat IPC: 2.92 cumulative IPC: 2.943 (Simulation time: 00 hr 13 min 23 sec)
Heartbeat CPU 0 instructions: 84500555 cycles: 42036898 heartbeat IPC: 2.603 cumulative IPC: 2.938 (Simulation time: 00 hr 13 min 27 sec)
Heartbeat CPU 0 instructions: 85000560 cycles: 42206929 heartbeat IPC: 2.941 cumulative IPC: 2.938 (Simulation time: 00 hr 13 min 30 sec)
Heartbeat CPU 0 instructions: 85500567 cycles: 42371341 heartbeat IPC: 3.041 cumulative IPC: 2.939 (Simulation time: 00 hr 13 min 33 sec)
Heartbeat CPU 0 instructions: 86000568 cycles: 42541716 heartbeat IPC: 2.935 cumulative IPC: 2.939 (Simulation time: 00 hr 13 min 36 sec)
Heartbeat CPU 0 instructions: 86500573 cycles: 42706882 heartbeat IPC: 3.027 cumulative IPC: 2.94 (Simulation time: 00 hr 13 min 39 sec)
Heartbeat CPU 0 instructions: 87000575 cycles: 42868414 heartbeat IPC: 3.095 cumulative IPC: 2.942 (Simulation time: 00 hr 13 min 42 sec)
Heartbeat CPU 0 instructions: 87500581 cycles: 43034744 heartbeat IPC: 3.006 cumulative IPC: 2.943 (Simulation time: 00 hr 13 min 46 sec)
Heartbeat CPU 0 instructions: 88000582 cycles: 43199168 heartbeat IPC: 3.041 cumulative IPC: 2.944 (Simulation time: 00 hr 13 min 49 sec)
Heartbeat CPU 0 instructions: 88500587 cycles: 43365496 heartbeat IPC: 3.006 cumulative IPC: 2.945 (Simulation time: 00 hr 13 min 52 sec)
Heartbeat CPU 0 instructions: 89000590 cycles: 43527879 heartbeat IPC: 3.079 cumulative IPC: 2.947 (Simulation time: 00 hr 13 min 55 sec)
Heartbeat CPU 0 instructions: 89500591 cycles: 43686236 heartbeat IPC: 3.157 cumulative IPC: 2.949 (Simulation time: 00 hr 13 min 58 sec)
Heartbeat CPU 0 instructions: 90000595 cycles: 43855731 heartbeat IPC: 2.95 cumulative IPC: 2.949 (Simulation time: 00 hr 14 min 01 sec)
Heartbeat CPU 0 instructions: 90500601 cycles: 44015305 heartbeat IPC: 3.133 cumulative IPC: 2.951 (Simulation time: 00 hr 14 min 04 sec)
Heartbeat CPU 0 instructions: 91000608 cycles: 44179447 heartbeat IPC: 3.046 cumulative IPC: 2.952 (Simulation time: 00 hr 14 min 07 sec)
Heartbeat CPU 0 instructions: 91500615 cycles: 44360389 heartbeat IPC: 2.763 cumulative IPC: 2.95 (Simulation time: 00 hr 14 min 11 sec)
Heartbeat CPU 0 instructions: 92000619 cycles: 44532140 heartbeat IPC: 2.911 cumulative IPC: 2.949 (Simulation time: 00 hr 14 min 14 sec)
Heartbeat CPU 0 instructions: 92500623 cycles: 44698865 heartbeat IPC: 2.999 cumulative IPC: 2.95 (Simulation time: 00 hr 14 min 17 sec)
Heartbeat CPU 0 instructions: 93000623 cycles: 44876432 heartbeat IPC: 2.816 cumulative IPC: 2.948 (Simulation time: 00 hr 14 min 20 sec)
Heartbeat CPU 0 instructions: 93500630 cycles: 45048151 heartbeat IPC: 2.912 cumulative IPC: 2.948 (Simulation time: 00 hr 14 min 23 sec)
Heartbeat CPU 0 instructions: 94000634 cycles: 45217510 heartbeat IPC: 2.952 cumulative IPC: 2.948 (Simulation time: 00 hr 14 min 27 sec)
Heartbeat CPU 0 instructions: 94500638 cycles: 45408953 heartbeat IPC: 2.612 cumulative IPC: 2.944 (Simulation time: 00 hr 14 min 30 sec)
Heartbeat CPU 0 instructions: 95000641 cycles: 45577097 heartbeat IPC: 2.974 cumulative IPC: 2.944 (Simulation time: 00 hr 14 min 33 sec)
Heartbeat CPU 0 instructions: 95500648 cycles: 45752291 heartbeat IPC: 2.854 cumulative IPC: 2.943 (Simulation time: 00 hr 14 min 36 sec)
Heartbeat CPU 0 instructions: 96000652 cycles: 45918034 heartbeat IPC: 3.017 cumulative IPC: 2.944 (Simulation time: 00 hr 14 min 40 sec)
Heartbeat CPU 0 instructions: 96500655 cycles: 46084900 heartbeat IPC: 2.996 cumulative IPC: 2.944 (Simulation time: 00 hr 14 min 43 sec)
Heartbeat CPU 0 instructions: 97000659 cycles: 46252184 heartbeat IPC: 2.989 cumulative IPC: 2.945 (Simulation time: 00 hr 14 min 46 sec)
Heartbeat CPU 0 instructions: 97500660 cycles: 46415866 heartbeat IPC: 3.055 cumulative IPC: 2.946 (Simulation time: 00 hr 14 min 49 sec)
Heartbeat CPU 0 instructions: 98000662 cycles: 46580450 heartbeat IPC: 3.038 cumulative IPC: 2.947 (Simulation time: 00 hr 14 min 52 sec)
Heartbeat CPU 0 instructions: 98500663 cycles: 46746929 heartbeat IPC: 3.003 cumulative IPC: 2.948 (Simulation time: 00 hr 14 min 55 sec)
Heartbeat CPU 0 instructions: 99000663 cycles: 46907268 heartbeat IPC: 3.118 cumulative IPC: 2.949 (Simulation time: 00 hr 14 min 58 sec)
Heartbeat CPU 0 instructions: 99500670 cycles: 47067800 heartbeat IPC: 3.115 cumulative IPC: 2.951 (Simulation time: 00 hr 15 min 01 sec)
Heartbeat CPU 0 instructions: 100000676 cycles: 47233452 heartbeat IPC: 3.018 cumulative IPC: 2.951 (Simulation time: 00 hr 15 min 05 sec)
Heartbeat CPU 0 instructions: 100500678 cycles: 47396603 heartbeat IPC: 3.065 cumulative IPC: 2.952 (Simulation time: 00 hr 15 min 08 sec)
Heartbeat CPU 0 instructions: 101000681 cycles: 47557302 heartbeat IPC: 3.111 cumulative IPC: 2.954 (Simulation time: 00 hr 15 min 11 sec)
Heartbeat CPU 0 instructions: 101500684 cycles: 47737404 heartbeat IPC: 2.776 cumulative IPC: 2.952 (Simulation time: 00 hr 15 min 14 sec)
Heartbeat CPU 0 instructions: 102000686 cycles: 47906986 heartbeat IPC: 2.948 cumulative IPC: 2.952 (Simulation time: 00 hr 15 min 17 sec)
Heartbeat CPU 0 instructions: 102500689 cycles: 48085605 heartbeat IPC: 2.799 cumulative IPC: 2.951 (Simulation time: 00 hr 15 min 21 sec)
Heartbeat CPU 0 instructions: 103000694 cycles: 48258392 heartbeat IPC: 2.894 cumulative IPC: 2.95 (Simulation time: 00 hr 15 min 24 sec)
Heartbeat CPU 0 instructions: 103500695 cycles: 48425633 heartbeat IPC: 2.99 cumulative IPC: 2.95 (Simulation time: 00 hr 15 min 27 sec)
Heartbeat CPU 0 instructions: 104000701 cycles: 48606985 heartbeat IPC: 2.757 cumulative IPC: 2.948 (Simulation time: 00 hr 15 min 30 sec)
Heartbeat CPU 0 instructions: 104500703 cycles: 48785443 heartbeat IPC: 2.802 cumulative IPC: 2.947 (Simulation time: 00 hr 15 min 34 sec)
Heartbeat CPU 0 instructions: 105000703 cycles: 48960073 heartbeat IPC: 2.863 cumulative IPC: 2.946 (Simulation time: 00 hr 15 min 37 sec)
Heartbeat CPU 0 instructions: 105500709 cycles: 49131897 heartbeat IPC: 2.91 cumulative IPC: 2.946 (Simulation time: 00 hr 15 min 40 sec)
Heartbeat CPU 0 instructions: 106000711 cycles: 49295381 heartbeat IPC: 3.058 cumulative IPC: 2.947 (Simulation time: 00 hr 15 min 43 sec)
Heartbeat CPU 0 instructions: 106500713 cycles: 49462108 heartbeat IPC: 2.999 cumulative IPC: 2.947 (Simulation time: 00 hr 15 min 46 sec)
Heartbeat CPU 0 instructions: 107000714 cycles: 49632920 heartbeat IPC: 2.927 cumulative IPC: 2.947 (Simulation time: 00 hr 15 min 50 sec)
Heartbeat CPU 0 instructions: 107500720 cycles: 49794487 heartbeat IPC: 3.095 cumulative IPC: 2.948 (Simulation time: 00 hr 15 min 53 sec)
Heartbeat CPU 0 instructions: 108000726 cycles: 49956568 heartbeat IPC: 3.085 cumulative IPC: 2.95 (Simulation time: 00 hr 15 min 56 sec)
Heartbeat CPU 0 instructions: 108500729 cycles: 50118585 heartbeat IPC: 3.086 cumulative IPC: 2.951 (Simulation time: 00 hr 15 min 59 sec)
Heartbeat CPU 0 instructions: 109000733 cycles: 50283611 heartbeat IPC: 3.03 cumulative IPC: 2.951 (Simulation time: 00 hr 16 min 02 sec)
Heartbeat CPU 0 instructions: 109500734 cycles: 50447896 heartbeat IPC: 3.043 cumulative IPC: 2.952 (Simulation time: 00 hr 16 min 05 sec)
Heartbeat CPU 0 instructions: 110000736 cycles: 50612180 heartbeat IPC: 3.044 cumulative IPC: 2.953 (Simulation time: 00 hr 16 min 08 sec)
Heartbeat CPU 0 instructions: 110500742 cycles: 50773315 heartbeat IPC: 3.103 cumulative IPC: 2.954 (Simulation time: 00 hr 16 min 11 sec)
Heartbeat CPU 0 instructions: 111000749 cycles: 50939944 heartbeat IPC: 3.001 cumulative IPC: 2.954 (Simulation time: 00 hr 16 min 14 sec)
Heartbeat CPU 0 instructions: 111500753 cycles: 51109478 heartbeat IPC: 2.949 cumulative IPC: 2.954 (Simulation time: 00 hr 16 min 18 sec)
Heartbeat CPU 0 instructions: 112000755 cycles: 51281631 heartbeat IPC: 2.904 cumulative IPC: 2.954 (Simulation time: 00 hr 16 min 21 sec)
Heartbeat CPU 0 instructions: 112500761 cycles: 51463894 heartbeat IPC: 2.743 cumulative IPC: 2.952 (Simulation time: 00 hr 16 min 24 sec)
Heartbeat CPU 0 instructions: 113000766 cycles: 51635155 heartbeat IPC: 2.92 cumulative IPC: 2.952 (Simulation time: 00 hr 16 min 27 sec)
Heartbeat CPU 0 instructions: 113500769 cycles: 51803520 heartbeat IPC: 2.97 cumulative IPC: 2.952 (Simulation time: 00 hr 16 min 31 sec)
Heartbeat CPU 0 instructions: 114000770 cycles: 51982696 heartbeat IPC: 2.791 cumulative IPC: 2.951 (Simulation time: 00 hr 16 min 34 sec)
Heartbeat CPU 0 instructions: 114500774 cycles: 52152866 heartbeat IPC: 2.938 cumulative IPC: 2.951 (Simulation time: 00 hr 16 min 37 sec)
Heartbeat CPU 0 instructions: 115000774 cycles: 52337911 heartbeat IPC: 2.702 cumulative IPC: 2.948 (Simulation time: 00 hr 16 min 40 sec)
Heartbeat CPU 0 instructions: 115500777 cycles: 52506993 heartbeat IPC: 2.957 cumulative IPC: 2.949 (Simulation time: 00 hr 16 min 44 sec)
Heartbeat CPU 0 instructions: 116000780 cycles: 52672711 heartbeat IPC: 3.017 cumulative IPC: 2.949 (Simulation time: 00 hr 16 min 47 sec)
Heartbeat CPU 0 instructions: 116500784 cycles: 52842496 heartbeat IPC: 2.945 cumulative IPC: 2.949 (Simulation time: 00 hr 16 min 50 sec)
Heartbeat CPU 0 instructions: 117000790 cycles: 53009403 heartbeat IPC: 2.996 cumulative IPC: 2.949 (Simulation time: 00 hr 16 min 53 sec)
Heartbeat CPU 0 instructions: 117500790 cycles: 53173395 heartbeat IPC: 3.049 cumulative IPC: 2.95 (Simulation time: 00 hr 16 min 56 sec)
Heartbeat CPU 0 instructions: 118000790 cycles: 53339077 heartbeat IPC: 3.018 cumulative IPC: 2.951 (Simulation time: 00 hr 16 min 59 sec)
Heartbeat CPU 0 instructions: 118500791 cycles: 53499160 heartbeat IPC: 3.123 cumulative IPC: 2.952 (Simulation time: 00 hr 17 min 02 sec)
Heartbeat CPU 0 instructions: 119000792 cycles: 53660395 heartbeat IPC: 3.101 cumulative IPC: 2.953 (Simulation time: 00 hr 17 min 05 sec)
Heartbeat CPU 0 instructions: 119500794 cycles: 53827401 heartbeat IPC: 2.994 cumulative IPC: 2.953 (Simulation time: 00 hr 17 min 09 sec)
Heartbeat CPU 0 instructions: 120000794 cycles: 53988161 heartbeat IPC: 3.11 cumulative IPC: 2.954 (Simulation time: 00 hr 17 min 12 sec)
Heartbeat CPU 0 instructions: 120500800 cycles: 54147758 heartbeat IPC: 3.133 cumulative IPC: 2.955 (Simulation time: 00 hr 17 min 15 sec)
Heartbeat CPU 0 instructions: 121000800 cycles: 54315886 heartbeat IPC: 2.974 cumulative IPC: 2.955 (Simulation time: 00 hr 17 min 18 sec)
Heartbeat CPU 0 instructions: 121500801 cycles: 54485655 heartbeat IPC: 2.945 cumulative IPC: 2.955 (Simulation time: 00 hr 17 min 21 sec)
Heartbeat CPU 0 instructions: 122000806 cycles: 54665067 heartbeat IPC: 2.787 cumulative IPC: 2.954 (Simulation time: 00 hr 17 min 24 sec)
Heartbeat CPU 0 instructions: 122500808 cycles: 54834989 heartbeat IPC: 2.943 cumulative IPC: 2.954 (Simulation time: 00 hr 17 min 28 sec)
Heartbeat CPU 0 instructions: 123000809 cycles: 55008647 heartbeat IPC: 2.879 cumulative IPC: 2.954 (Simulation time: 00 hr 17 min 31 sec)
Heartbeat CPU 0 instructions: 123500810 cycles: 55186513 heartbeat IPC: 2.811 cumulative IPC: 2.953 (Simulation time: 00 hr 17 min 34 sec)
Heartbeat CPU 0 instructions: 124000815 cycles: 55355081 heartbeat IPC: 2.966 cumulative IPC: 2.953 (Simulation time: 00 hr 17 min 37 sec)
Heartbeat CPU 0 instructions: 124500818 cycles: 55522940 heartbeat IPC: 2.979 cumulative IPC: 2.953 (Simulation time: 00 hr 17 min 40 sec)
Heartbeat CPU 0 instructions: 125000825 cycles: 55712895 heartbeat IPC: 2.632 cumulative IPC: 2.95 (Simulation time: 00 hr 17 min 44 sec)
Heartbeat CPU 0 instructions: 125500826 cycles: 55878545 heartbeat IPC: 3.018 cumulative IPC: 2.951 (Simulation time: 00 hr 17 min 47 sec)
Heartbeat CPU 0 instructions: 126000828 cycles: 56041432 heartbeat IPC: 3.07 cumulative IPC: 2.952 (Simulation time: 00 hr 17 min 50 sec)
Heartbeat CPU 0 instructions: 126500830 cycles: 56211591 heartbeat IPC: 2.938 cumulative IPC: 2.951 (Simulation time: 00 hr 17 min 53 sec)
Heartbeat CPU 0 instructions: 127000832 cycles: 56377804 heartbeat IPC: 3.008 cumulative IPC: 2.952 (Simulation time: 00 hr 17 min 56 sec)
Heartbeat CPU 0 instructions: 127500833 cycles: 56542674 heartbeat IPC: 3.033 cumulative IPC: 2.952 (Simulation time: 00 hr 18 min 00 sec)
Heartbeat CPU 0 instructions: 128000839 cycles: 56710340 heartbeat IPC: 2.982 cumulative IPC: 2.953 (Simulation time: 00 hr 18 min 03 sec)
Heartbeat CPU 0 instructions: 128500842 cycles: 56871372 heartbeat IPC: 3.105 cumulative IPC: 2.953 (Simulation time: 00 hr 18 min 06 sec)
Heartbeat CPU 0 instructions: 129000842 cycles: 57039246 heartbeat IPC: 2.978 cumulative IPC: 2.954 (Simulation time: 00 hr 18 min 09 sec)
Heartbeat CPU 0 instructions: 129500843 cycles: 57202137 heartbeat IPC: 3.07 cumulative IPC: 2.954 (Simulation time: 00 hr 18 min 12 sec)
Heartbeat CPU 0 instructions: 130000847 cycles: 57364789 heartbeat IPC: 3.074 cumulative IPC: 2.955 (Simulation time: 00 hr 18 min 15 sec)
Heartbeat CPU 0 instructions: 130500849 cycles: 57532337 heartbeat IPC: 2.984 cumulative IPC: 2.955 (Simulation time: 00 hr 18 min 18 sec)
Heartbeat CPU 0 instructions: 131000855 cycles: 57695236 heartbeat IPC: 3.069 cumulative IPC: 2.956 (Simulation time: 00 hr 18 min 21 sec)
Heartbeat CPU 0 instructions: 131500855 cycles: 57857939 heartbeat IPC: 3.073 cumulative IPC: 2.957 (Simulation time: 00 hr 18 min 25 sec)
Heartbeat CPU 0 instructions: 132000856 cycles: 58040145 heartbeat IPC: 2.744 cumulative IPC: 2.955 (Simulation time: 00 hr 18 min 28 sec)
Heartbeat CPU 0 instructions: 132500860 cycles: 58211953 heartbeat IPC: 2.91 cumulative IPC: 2.955 (Simulation time: 00 hr 18 min 31 sec)
Heartbeat CPU 0 instructions: 133000862 cycles: 58386370 heartbeat IPC: 2.867 cumulative IPC: 2.954 (Simulation time: 00 hr 18 min 34 sec)
Heartbeat CPU 0 instructions: 133500862 cycles: 58565477 heartbeat IPC: 2.792 cumulative IPC: 2.953 (Simulation time: 00 hr 18 min 38 sec)
Heartbeat CPU 0 instructions: 134000865 cycles: 58734016 heartbeat IPC: 2.967 cumulative IPC: 2.953 (Simulation time: 00 hr 18 min 41 sec)
Heartbeat CPU 0 instructions: 134500865 cycles: 58907719 heartbeat IPC: 2.878 cumulative IPC: 2.953 (Simulation time: 00 hr 18 min 44 sec)
Heartbeat CPU 0 instructions: 135000867 cycles: 59092139 heartbeat IPC: 2.711 cumulative IPC: 2.951 (Simulation time: 00 hr 18 min 47 sec)
Heartbeat CPU 0 instructions: 135500873 cycles: 59291625 heartbeat IPC: 2.506 cumulative IPC: 2.948 (Simulation time: 00 hr 18 min 51 sec)
Heartbeat CPU 0 instructions: 136000875 cycles: 59486863 heartbeat IPC: 2.561 cumulative IPC: 2.946 (Simulation time: 00 hr 18 min 54 sec)
Heartbeat CPU 0 instructions: 136500877 cycles: 59671377 heartbeat IPC: 2.71 cumulative IPC: 2.944 (Simulation time: 00 hr 18 min 58 sec)
Heartbeat CPU 0 instructions: 137000877 cycles: 59860094 heartbeat IPC: 2.649 cumulative IPC: 2.942 (Simulation time: 00 hr 19 min 01 sec)
Heartbeat CPU 0 instructions: 137500879 cycles: 60073970 heartbeat IPC: 2.338 cumulative IPC: 2.938 (Simulation time: 00 hr 19 min 05 sec)
Heartbeat CPU 0 instructions: 138000885 cycles: 60292300 heartbeat IPC: 2.29 cumulative IPC: 2.933 (Simulation time: 00 hr 19 min 09 sec)
Heartbeat CPU 0 instructions: 138500890 cycles: 60824283 heartbeat IPC: 0.9399 cumulative IPC: 2.899 (Simulation time: 00 hr 19 min 17 sec)
Heartbeat CPU 0 instructions: 139000895 cycles: 60938859 heartbeat IPC: 4.364 cumulative IPC: 2.904 (Simulation time: 00 hr 19 min 19 sec)
Heartbeat CPU 0 instructions: 139500899 cycles: 61054497 heartbeat IPC: 4.324 cumulative IPC: 2.909 (Simulation time: 00 hr 19 min 21 sec)
Heartbeat CPU 0 instructions: 140000901 cycles: 61170021 heartbeat IPC: 4.328 cumulative IPC: 2.915 (Simulation time: 00 hr 19 min 23 sec)
Heartbeat CPU 0 instructions: 140500902 cycles: 61285346 heartbeat IPC: 4.336 cumulative IPC: 2.92 (Simulation time: 00 hr 19 min 24 sec)
Heartbeat CPU 0 instructions: 141000902 cycles: 61400079 heartbeat IPC: 4.358 cumulative IPC: 2.925 (Simulation time: 00 hr 19 min 26 sec)
Heartbeat CPU 0 instructions: 141500902 cycles: 61516459 heartbeat IPC: 4.296 cumulative IPC: 2.93 (Simulation time: 00 hr 19 min 28 sec)
Heartbeat CPU 0 instructions: 142000904 cycles: 61629671 heartbeat IPC: 4.417 cumulative IPC: 2.936 (Simulation time: 00 hr 19 min 30 sec)
Heartbeat CPU 0 instructions: 142500905 cycles: 61744130 heartbeat IPC: 4.368 cumulative IPC: 2.941 (Simulation time: 00 hr 19 min 32 sec)
Heartbeat CPU 0 instructions: 143000912 cycles: 61858734 heartbeat IPC: 4.363 cumulative IPC: 2.946 (Simulation time: 00 hr 19 min 33 sec)
Heartbeat CPU 0 instructions: 143500917 cycles: 62077924 heartbeat IPC: 2.281 cumulative IPC: 2.942 (Simulation time: 00 hr 19 min 37 sec)
Heartbeat CPU 0 instructions: 144000918 cycles: 62396512 heartbeat IPC: 1.569 cumulative IPC: 2.928 (Simulation time: 00 hr 19 min 42 sec)
Heartbeat CPU 0 instructions: 144500920 cycles: 62568276 heartbeat IPC: 2.911 cumulative IPC: 2.928 (Simulation time: 00 hr 19 min 44 sec)
Heartbeat CPU 0 instructions: 145000923 cycles: 62758746 heartbeat IPC: 2.625 cumulative IPC: 2.926 (Simulation time: 00 hr 19 min 47 sec)
Heartbeat CPU 0 instructions: 145500930 cycles: 62947456 heartbeat IPC: 2.65 cumulative IPC: 2.925 (Simulation time: 00 hr 19 min 50 sec)
Heartbeat CPU 0 instructions: 146000934 cycles: 63130417 heartbeat IPC: 2.733 cumulative IPC: 2.923 (Simulation time: 00 hr 19 min 53 sec)
Heartbeat CPU 0 instructions: 146500934 cycles: 63323308 heartbeat IPC: 2.592 cumulative IPC: 2.922 (Simulation time: 00 hr 19 min 56 sec)
Heartbeat CPU 0 instructions: 147000938 cycles: 63523875 heartbeat IPC: 2.493 cumulative IPC: 2.919 (Simulation time: 00 hr 19 min 59 sec)
Heartbeat CPU 0 instructions: 147500945 cycles: 63719477 heartbeat IPC: 2.556 cumulative IPC: 2.917 (Simulation time: 00 hr 20 min 02 sec)
Heartbeat CPU 0 instructions: 148000950 cycles: 63921509 heartbeat IPC: 2.475 cumulative IPC: 2.914 (Simulation time: 00 hr 20 min 06 sec)
Heartbeat CPU 0 instructions: 148500954 cycles: 64119703 heartbeat IPC: 2.523 cumulative IPC: 2.912 (Simulation time: 00 hr 20 min 09 sec)
Heartbeat CPU 0 instructions: 149000958 cycles: 64328678 heartbeat IPC: 2.393 cumulative IPC: 2.909 (Simulation time: 00 hr 20 min 12 sec)
Heartbeat CPU 0 instructions: 149500958 cycles: 64529138 heartbeat IPC: 2.494 cumulative IPC: 2.906 (Simulation time: 00 hr 20 min 15 sec)
Heartbeat CPU 0 instructions: 150000961 cycles: 64724686 heartbeat IPC: 2.557 cumulative IPC: 2.904 (Simulation time: 00 hr 20 min 18 sec)
Heartbeat CPU 0 instructions: 150500961 cycles: 64923453 heartbeat IPC: 2.516 cumulative IPC: 2.902 (Simulation time: 00 hr 20 min 21 sec)
Heartbeat CPU 0 instructions: 151000964 cycles: 65116663 heartbeat IPC: 2.588 cumulative IPC: 2.9 (Simulation time: 00 hr 20 min 24 sec)
Heartbeat CPU 0 instructions: 151500967 cycles: 65314750 heartbeat IPC: 2.524 cumulative IPC: 2.898 (Simulation time: 00 hr 20 min 27 sec)
Heartbeat CPU 0 instructions: 152000972 cycles: 65501414 heartbeat IPC: 2.679 cumulative IPC: 2.897 (Simulation time: 00 hr 20 min 30 sec)
Heartbeat CPU 0 instructions: 152500978 cycles: 65689530 heartbeat IPC: 2.658 cumulative IPC: 2.896 (Simulation time: 00 hr 20 min 33 sec)
Heartbeat CPU 0 instructions: 153000979 cycles: 65878080 heartbeat IPC: 2.652 cumulative IPC: 2.894 (Simulation time: 00 hr 20 min 36 sec)
Heartbeat CPU 0 instructions: 153500985 cycles: 66060716 heartbeat IPC: 2.738 cumulative IPC: 2.894 (Simulation time: 00 hr 20 min 39 sec)
Heartbeat CPU 0 instructions: 154000988 cycles: 66233287 heartbeat IPC: 2.897 cumulative IPC: 2.894 (Simulation time: 00 hr 20 min 42 sec)
Heartbeat CPU 0 instructions: 154500988 cycles: 66407287 heartbeat IPC: 2.874 cumulative IPC: 2.894 (Simulation time: 00 hr 20 min 45 sec)
Heartbeat CPU 0 instructions: 155000994 cycles: 66583801 heartbeat IPC: 2.833 cumulative IPC: 2.893 (Simulation time: 00 hr 20 min 48 sec)
Heartbeat CPU 0 instructions: 155500999 cycles: 66753592 heartbeat IPC: 2.945 cumulative IPC: 2.893 (Simulation time: 00 hr 20 min 50 sec)
Heartbeat CPU 0 instructions: 156001004 cycles: 66911736 heartbeat IPC: 3.162 cumulative IPC: 2.895 (Simulation time: 00 hr 20 min 53 sec)
Heartbeat CPU 0 instructions: 156501009 cycles: 67075100 heartbeat IPC: 3.061 cumulative IPC: 2.895 (Simulation time: 00 hr 20 min 56 sec)
Heartbeat CPU 0 instructions: 157001012 cycles: 67237113 heartbeat IPC: 3.086 cumulative IPC: 2.896 (Simulation time: 00 hr 20 min 58 sec)
Heartbeat CPU 0 instructions: 157501014 cycles: 67393398 heartbeat IPC: 3.199 cumulative IPC: 2.898 (Simulation time: 00 hr 21 min 01 sec)
Heartbeat CPU 0 instructions: 158001019 cycles: 67546840 heartbeat IPC: 3.259 cumulative IPC: 2.899 (Simulation time: 00 hr 21 min 03 sec)
Heartbeat CPU 0 instructions: 158501021 cycles: 67702011 heartbeat IPC: 3.222 cumulative IPC: 2.9 (Simulation time: 00 hr 21 min 06 sec)
Heartbeat CPU 0 instructions: 159001026 cycles: 67859508 heartbeat IPC: 3.175 cumulative IPC: 2.901 (Simulation time: 00 hr 21 min 08 sec)
Heartbeat CPU 0 instructions: 159501027 cycles: 68013821 heartbeat IPC: 3.24 cumulative IPC: 2.903 (Simulation time: 00 hr 21 min 11 sec)
Heartbeat CPU 0 instructions: 160001028 cycles: 68166718 heartbeat IPC: 3.27 cumulative IPC: 2.904 (Simulation time: 00 hr 21 min 13 sec)
Heartbeat CPU 0 instructions: 160501032 cycles: 68323095 heartbeat IPC: 3.197 cumulative IPC: 2.906 (Simulation time: 00 hr 21 min 16 sec)
Heartbeat CPU 0 instructions: 161001034 cycles: 68477188 heartbeat IPC: 3.245 cumulative IPC: 2.907 (Simulation time: 00 hr 21 min 19 sec)
Heartbeat CPU 0 instructions: 161501038 cycles: 68633283 heartbeat IPC: 3.203 cumulative IPC: 2.908 (Simulation time: 00 hr 21 min 21 sec)
Heartbeat CPU 0 instructions: 162001041 cycles: 68785233 heartbeat IPC: 3.291 cumulative IPC: 2.91 (Simulation time: 00 hr 21 min 24 sec)
Heartbeat CPU 0 instructions: 162501041 cycles: 68940851 heartbeat IPC: 3.213 cumulative IPC: 2.911 (Simulation time: 00 hr 21 min 26 sec)
Heartbeat CPU 0 instructions: 163001043 cycles: 69093810 heartbeat IPC: 3.269 cumulative IPC: 2.912 (Simulation time: 00 hr 21 min 29 sec)
Heartbeat CPU 0 instructions: 163501045 cycles: 69248651 heartbeat IPC: 3.229 cumulative IPC: 2.914 (Simulation time: 00 hr 21 min 31 sec)
Heartbeat CPU 0 instructions: 164001050 cycles: 69400909 heartbeat IPC: 3.284 cumulative IPC: 2.915 (Simulation time: 00 hr 21 min 34 sec)
Heartbeat CPU 0 instructions: 164501050 cycles: 69554347 heartbeat IPC: 3.259 cumulative IPC: 2.916 (Simulation time: 00 hr 21 min 36 sec)
Heartbeat CPU 0 instructions: 165001057 cycles: 69709859 heartbeat IPC: 3.215 cumulative IPC: 2.917 (Simulation time: 00 hr 21 min 39 sec)
Heartbeat CPU 0 instructions: 165501058 cycles: 69863911 heartbeat IPC: 3.246 cumulative IPC: 2.919 (Simulation time: 00 hr 21 min 41 sec)
Heartbeat CPU 0 instructions: 166001060 cycles: 70017399 heartbeat IPC: 3.258 cumulative IPC: 2.92 (Simulation time: 00 hr 21 min 44 sec)
Heartbeat CPU 0 instructions: 166501065 cycles: 70170476 heartbeat IPC: 3.266 cumulative IPC: 2.921 (Simulation time: 00 hr 21 min 46 sec)
Heartbeat CPU 0 instructions: 167001072 cycles: 70324074 heartbeat IPC: 3.255 cumulative IPC: 2.923 (Simulation time: 00 hr 21 min 49 sec)
Heartbeat CPU 0 instructions: 167501075 cycles: 70478876 heartbeat IPC: 3.23 cumulative IPC: 2.924 (Simulation time: 00 hr 21 min 51 sec)
Heartbeat CPU 0 instructions: 168001077 cycles: 70632275 heartbeat IPC: 3.259 cumulative IPC: 2.925 (Simulation time: 00 hr 21 min 54 sec)
Heartbeat CPU 0 instructions: 168501082 cycles: 70786246 heartbeat IPC: 3.247 cumulative IPC: 2.926 (Simulation time: 00 hr 21 min 56 sec)
Heartbeat CPU 0 instructions: 169001083 cycles: 70940597 heartbeat IPC: 3.239 cumulative IPC: 2.928 (Simulation time: 00 hr 21 min 59 sec)
Heartbeat CPU 0 instructions: 169501084 cycles: 71095161 heartbeat IPC: 3.235 cumulative IPC: 2.929 (Simulation time: 00 hr 22 min 02 sec)
Heartbeat CPU 0 instructions: 170001089 cycles: 71247775 heartbeat IPC: 3.276 cumulative IPC: 2.93 (Simulation time: 00 hr 22 min 04 sec)
Heartbeat CPU 0 instructions: 170501089 cycles: 71401786 heartbeat IPC: 3.247 cumulative IPC: 2.931 (Simulation time: 00 hr 22 min 07 sec)
Heartbeat CPU 0 instructions: 171001096 cycles: 71557835 heartbeat IPC: 3.204 cumulative IPC: 2.932 (Simulation time: 00 hr 22 min 09 sec)
Heartbeat CPU 0 instructions: 171501099 cycles: 71711384 heartbeat IPC: 3.256 cumulative IPC: 2.933 (Simulation time: 00 hr 22 min 12 sec)
Heartbeat CPU 0 instructions: 172001104 cycles: 71864904 heartbeat IPC: 3.257 cumulative IPC: 2.935 (Simulation time: 00 hr 22 min 14 sec)
Heartbeat CPU 0 instructions: 172501104 cycles: 72018082 heartbeat IPC: 3.264 cumulative IPC: 2.936 (Simulation time: 00 hr 22 min 17 sec)
Heartbeat CPU 0 instructions: 173001111 cycles: 72172023 heartbeat IPC: 3.248 cumulative IPC: 2.937 (Simulation time: 00 hr 22 min 19 sec)
Heartbeat CPU 0 instructions: 173501114 cycles: 72324486 heartbeat IPC: 3.28 cumulative IPC: 2.938 (Simulation time: 00 hr 22 min 22 sec)
Heartbeat CPU 0 instructions: 174001114 cycles: 72476554 heartbeat IPC: 3.288 cumulative IPC: 2.939 (Simulation time: 00 hr 22 min 24 sec)
Heartbeat CPU 0 instructions: 174501115 cycles: 72629595 heartbeat IPC: 3.267 cumulative IPC: 2.941 (Simulation time: 00 hr 22 min 27 sec)
Heartbeat CPU 0 instructions: 175001118 cycles: 72783491 heartbeat IPC: 3.249 cumulative IPC: 2.942 (Simulation time: 00 hr 22 min 29 sec)
Heartbeat CPU 0 instructions: 175501119 cycles: 72937847 heartbeat IPC: 3.239 cumulative IPC: 2.943 (Simulation time: 00 hr 22 min 32 sec)
Heartbeat CPU 0 instructions: 176001119 cycles: 73088690 heartbeat IPC: 3.315 cumulative IPC: 2.944 (Simulation time: 00 hr 22 min 34 sec)
Heartbeat CPU 0 instructions: 176501124 cycles: 73242346 heartbeat IPC: 3.254 cumulative IPC: 2.945 (Simulation time: 00 hr 22 min 37 sec)
Heartbeat CPU 0 instructions: 177001126 cycles: 73396149 heartbeat IPC: 3.251 cumulative IPC: 2.946 (Simulation time: 00 hr 22 min 39 sec)
Heartbeat CPU 0 instructions: 177501130 cycles: 73551632 heartbeat IPC: 3.216 cumulative IPC: 2.947 (Simulation time: 00 hr 22 min 42 sec)
Heartbeat CPU 0 instructions: 178001135 cycles: 73702744 heartbeat IPC: 3.309 cumulative IPC: 2.949 (Simulation time: 00 hr 22 min 44 sec)
Heartbeat CPU 0 instructions: 178501135 cycles: 73856374 heartbeat IPC: 3.255 cumulative IPC: 2.95 (Simulation time: 00 hr 22 min 47 sec)
Heartbeat CPU 0 instructions: 179001142 cycles: 74011010 heartbeat IPC: 3.233 cumulative IPC: 2.951 (Simulation time: 00 hr 22 min 49 sec)
Heartbeat CPU 0 instructions: 179501145 cycles: 74163270 heartbeat IPC: 3.284 cumulative IPC: 2.952 (Simulation time: 00 hr 22 min 52 sec)
Heartbeat CPU 0 instructions: 180001150 cycles: 74317160 heartbeat IPC: 3.249 cumulative IPC: 2.953 (Simulation time: 00 hr 22 min 54 sec)
Heartbeat CPU 0 instructions: 180501154 cycles: 74471445 heartbeat IPC: 3.241 cumulative IPC: 2.954 (Simulation time: 00 hr 22 min 57 sec)
Heartbeat CPU 0 instructions: 181001161 cycles: 74626699 heartbeat IPC: 3.221 cumulative IPC: 2.955 (Simulation time: 00 hr 22 min 59 sec)
Heartbeat CPU 0 instructions: 181501161 cycles: 74778792 heartbeat IPC: 3.287 cumulative IPC: 2.956 (Simulation time: 00 hr 23 min 02 sec)
Heartbeat CPU 0 instructions: 182001164 cycles: 74931298 heartbeat IPC: 3.279 cumulative IPC: 2.957 (Simulation time: 00 hr 23 min 05 sec)
Heartbeat CPU 0 instructions: 182501170 cycles: 75086452 heartbeat IPC: 3.223 cumulative IPC: 2.958 (Simulation time: 00 hr 23 min 07 sec)
Heartbeat CPU 0 instructions: 183001172 cycles: 75240179 heartbeat IPC: 3.253 cumulative IPC: 2.959 (Simulation time: 00 hr 23 min 10 sec)
Heartbeat CPU 0 instructions: 183501175 cycles: 75392179 heartbeat IPC: 3.289 cumulative IPC: 2.96 (Simulation time: 00 hr 23 min 12 sec)
Heartbeat CPU 0 instructions: 184001177 cycles: 75546688 heartbeat IPC: 3.236 cumulative IPC: 2.961 (Simulation time: 00 hr 23 min 15 sec)
Heartbeat CPU 0 instructions: 184501178 cycles: 75700244 heartbeat IPC: 3.256 cumulative IPC: 2.962 (Simulation time: 00 hr 23 min 17 sec)
Heartbeat CPU 0 instructions: 185001179 cycles: 75854116 heartbeat IPC: 3.249 cumulative IPC: 2.963 (Simulation time: 00 hr 23 min 20 sec)
Heartbeat CPU 0 instructions: 185501180 cycles: 76007221 heartbeat IPC: 3.266 cumulative IPC: 2.964 (Simulation time: 00 hr 23 min 22 sec)
Heartbeat CPU 0 instructions: 186001181 cycles: 76160771 heartbeat IPC: 3.256 cumulative IPC: 2.965 (Simulation time: 00 hr 23 min 25 sec)
Heartbeat CPU 0 instructions: 186501185 cycles: 76315542 heartbeat IPC: 3.231 cumulative IPC: 2.966 (Simulation time: 00 hr 23 min 27 sec)
Heartbeat CPU 0 instructions: 187001189 cycles: 76470565 heartbeat IPC: 3.225 cumulative IPC: 2.967 (Simulation time: 00 hr 23 min 30 sec)
Heartbeat CPU 0 instructions: 187501193 cycles: 76622046 heartbeat IPC: 3.301 cumulative IPC: 2.968 (Simulation time: 00 hr 23 min 32 sec)
Heartbeat CPU 0 instructions: 188001196 cycles: 76775600 heartbeat IPC: 3.256 cumulative IPC: 2.969 (Simulation time: 00 hr 23 min 35 sec)
Heartbeat CPU 0 instructions: 188501201 cycles: 76929570 heartbeat IPC: 3.247 cumulative IPC: 2.97 (Simulation time: 00 hr 23 min 37 sec)
Heartbeat CPU 0 instructions: 189001203 cycles: 77082744 heartbeat IPC: 3.264 cumulative IPC: 2.971 (Simulation time: 00 hr 23 min 40 sec)
Heartbeat CPU 0 instructions: 189501208 cycles: 77235693 heartbeat IPC: 3.269 cumulative IPC: 2.972 (Simulation time: 00 hr 23 min 42 sec)
Heartbeat CPU 0 instructions: 190001213 cycles: 77389443 heartbeat IPC: 3.252 cumulative IPC: 2.973 (Simulation time: 00 hr 23 min 45 sec)
Heartbeat CPU 0 instructions: 190501213 cycles: 77543813 heartbeat IPC: 3.239 cumulative IPC: 2.973 (Simulation time: 00 hr 23 min 47 sec)
Heartbeat CPU 0 instructions: 191001217 cycles: 77697004 heartbeat IPC: 3.264 cumulative IPC: 2.974 (Simulation time: 00 hr 23 min 50 sec)
Heartbeat CPU 0 instructions: 191501223 cycles: 77848308 heartbeat IPC: 3.305 cumulative IPC: 2.975 (Simulation time: 00 hr 23 min 52 sec)
Heartbeat CPU 0 instructions: 192001223 cycles: 78001943 heartbeat IPC: 3.254 cumulative IPC: 2.976 (Simulation time: 00 hr 23 min 55 sec)
Heartbeat CPU 0 instructions: 192501224 cycles: 78153899 heartbeat IPC: 3.29 cumulative IPC: 2.977 (Simulation time: 00 hr 23 min 57 sec)
Heartbeat CPU 0 instructions: 193001225 cycles: 78308738 heartbeat IPC: 3.229 cumulative IPC: 2.978 (Simulation time: 00 hr 24 min 00 sec)
Heartbeat CPU 0 instructions: 193501225 cycles: 78459412 heartbeat IPC: 3.318 cumulative IPC: 2.979 (Simulation time: 00 hr 24 min 02 sec)
Heartbeat CPU 0 instructions: 194001227 cycles: 78614069 heartbeat IPC: 3.233 cumulative IPC: 2.98 (Simulation time: 00 hr 24 min 05 sec)
Heartbeat CPU 0 instructions: 194501227 cycles: 78766974 heartbeat IPC: 3.27 cumulative IPC: 2.981 (Simulation time: 00 hr 24 min 07 sec)
Heartbeat CPU 0 instructions: 195001232 cycles: 78922035 heartbeat IPC: 3.225 cumulative IPC: 2.982 (Simulation time: 00 hr 24 min 10 sec)
Heartbeat CPU 0 instructions: 195501235 cycles: 79074577 heartbeat IPC: 3.278 cumulative IPC: 2.983 (Simulation time: 00 hr 24 min 12 sec)
Heartbeat CPU 0 instructions: 196001235 cycles: 79229427 heartbeat IPC: 3.229 cumulative IPC: 2.983 (Simulation time: 00 hr 24 min 15 sec)
Heartbeat CPU 0 instructions: 196501239 cycles: 79381957 heartbeat IPC: 3.278 cumulative IPC: 2.984 (Simulation time: 00 hr 24 min 18 sec)
Heartbeat CPU 0 instructions: 197001241 cycles: 79534549 heartbeat IPC: 3.277 cumulative IPC: 2.985 (Simulation time: 00 hr 24 min 20 sec)
Heartbeat CPU 0 instructions: 197501246 cycles: 79685955 heartbeat IPC: 3.302 cumulative IPC: 2.986 (Simulation time: 00 hr 24 min 23 sec)
Heartbeat CPU 0 instructions: 198001251 cycles: 79838824 heartbeat IPC: 3.271 cumulative IPC: 2.987 (Simulation time: 00 hr 24 min 25 sec)
Heartbeat CPU 0 instructions: 198501251 cycles: 79994003 heartbeat IPC: 3.222 cumulative IPC: 2.988 (Simulation time: 00 hr 24 min 28 sec)
Heartbeat CPU 0 instructions: 199001254 cycles: 80147818 heartbeat IPC: 3.251 cumulative IPC: 2.989 (Simulation time: 00 hr 24 min 30 sec)
Heartbeat CPU 0 instructions: 199501254 cycles: 80298635 heartbeat IPC: 3.315 cumulative IPC: 2.99 (Simulation time: 00 hr 24 min 33 sec)
Heartbeat CPU 0 instructions: 200001258 cycles: 80450815 heartbeat IPC: 3.286 cumulative IPC: 2.991 (Simulation time: 00 hr 24 min 35 sec)
Heartbeat CPU 0 instructions: 200501262 cycles: 80602896 heartbeat IPC: 3.288 cumulative IPC: 2.991 (Simulation time: 00 hr 24 min 38 sec)
Heartbeat CPU 0 instructions: 201001264 cycles: 80756522 heartbeat IPC: 3.255 cumulative IPC: 2.992 (Simulation time: 00 hr 24 min 40 sec)
Heartbeat CPU 0 instructions: 201501264 cycles: 80906377 heartbeat IPC: 3.337 cumulative IPC: 2.993 (Simulation time: 00 hr 24 min 43 sec)
Heartbeat CPU 0 instructions: 202001265 cycles: 81060036 heartbeat IPC: 3.254 cumulative IPC: 2.994 (Simulation time: 00 hr 24 min 45 sec)
Heartbeat CPU 0 instructions: 202501265 cycles: 81213390 heartbeat IPC: 3.26 cumulative IPC: 2.995 (Simulation time: 00 hr 24 min 48 sec)
Heartbeat CPU 0 instructions: 203001272 cycles: 81368414 heartbeat IPC: 3.225 cumulative IPC: 2.996 (Simulation time: 00 hr 24 min 50 sec)
Heartbeat CPU 0 instructions: 203501277 cycles: 81520506 heartbeat IPC: 3.288 cumulative IPC: 2.996 (Simulation time: 00 hr 24 min 53 sec)
Heartbeat CPU 0 instructions: 204001280 cycles: 81673307 heartbeat IPC: 3.272 cumulative IPC: 2.997 (Simulation time: 00 hr 24 min 55 sec)
Heartbeat CPU 0 instructions: 204501285 cycles: 81828123 heartbeat IPC: 3.23 cumulative IPC: 2.998 (Simulation time: 00 hr 24 min 58 sec)
Heartbeat CPU 0 instructions: 205001288 cycles: 81981551 heartbeat IPC: 3.259 cumulative IPC: 2.999 (Simulation time: 00 hr 25 min 00 sec)
Heartbeat CPU 0 instructions: 205501292 cycles: 82133543 heartbeat IPC: 3.29 cumulative IPC: 3 (Simulation time: 00 hr 25 min 03 sec)
Heartbeat CPU 0 instructions: 206001294 cycles: 82286182 heartbeat IPC: 3.276 cumulative IPC: 3 (Simulation time: 00 hr 25 min 05 sec)
Heartbeat CPU 0 instructions: 206501299 cycles: 82441255 heartbeat IPC: 3.224 cumulative IPC: 3.001 (Simulation time: 00 hr 25 min 08 sec)
Heartbeat CPU 0 instructions: 207001303 cycles: 82593916 heartbeat IPC: 3.275 cumulative IPC: 3.002 (Simulation time: 00 hr 25 min 10 sec)
Heartbeat CPU 0 instructions: 207501308 cycles: 82744805 heartbeat IPC: 3.314 cumulative IPC: 3.003 (Simulation time: 00 hr 25 min 13 sec)
Heartbeat CPU 0 instructions: 208001315 cycles: 82899908 heartbeat IPC: 3.224 cumulative IPC: 3.003 (Simulation time: 00 hr 25 min 15 sec)
Heartbeat CPU 0 instructions: 208501316 cycles: 83052852 heartbeat IPC: 3.269 cumulative IPC: 3.004 (Simulation time: 00 hr 25 min 18 sec)
Heartbeat CPU 0 instructions: 209001317 cycles: 83206959 heartbeat IPC: 3.245 cumulative IPC: 3.005 (Simulation time: 00 hr 25 min 21 sec)
Heartbeat CPU 0 instructions: 209501318 cycles: 83357214 heartbeat IPC: 3.328 cumulative IPC: 3.006 (Simulation time: 00 hr 25 min 23 sec)
Heartbeat CPU 0 instructions: 210001319 cycles: 83509379 heartbeat IPC: 3.286 cumulative IPC: 3.007 (Simulation time: 00 hr 25 min 26 sec)
Heartbeat CPU 0 instructions: 210501319 cycles: 83663124 heartbeat IPC: 3.252 cumulative IPC: 3.007 (Simulation time: 00 hr 25 min 28 sec)
Heartbeat CPU 0 instructions: 211001326 cycles: 83815242 heartbeat IPC: 3.287 cumulative IPC: 3.008 (Simulation time: 00 hr 25 min 31 sec)
Heartbeat CPU 0 instructions: 211501331 cycles: 83967190 heartbeat IPC: 3.291 cumulative IPC: 3.009 (Simulation time: 00 hr 25 min 33 sec)
Heartbeat CPU 0 instructions: 212001335 cycles: 84120577 heartbeat IPC: 3.26 cumulative IPC: 3.01 (Simulation time: 00 hr 25 min 36 sec)
Heartbeat CPU 0 instructions: 212501338 cycles: 84274666 heartbeat IPC: 3.245 cumulative IPC: 3.01 (Simulation time: 00 hr 25 min 38 sec)
Heartbeat CPU 0 instructions: 213001339 cycles: 84426879 heartbeat IPC: 3.285 cumulative IPC: 3.011 (Simulation time: 00 hr 25 min 41 sec)
Heartbeat CPU 0 instructions: 213501346 cycles: 84577493 heartbeat IPC: 3.32 cumulative IPC: 3.012 (Simulation time: 00 hr 25 min 43 sec)
Heartbeat CPU 0 instructions: 214001348 cycles: 84731746 heartbeat IPC: 3.241 cumulative IPC: 3.013 (Simulation time: 00 hr 25 min 46 sec)
Heartbeat CPU 0 instructions: 214501353 cycles: 84884881 heartbeat IPC: 3.265 cumulative IPC: 3.013 (Simulation time: 00 hr 25 min 48 sec)
Heartbeat CPU 0 instructions: 215001357 cycles: 85036513 heartbeat IPC: 3.297 cumulative IPC: 3.014 (Simulation time: 00 hr 25 min 51 sec)
Heartbeat CPU 0 instructions: 215501359 cycles: 85188511 heartbeat IPC: 3.29 cumulative IPC: 3.015 (Simulation time: 00 hr 25 min 53 sec)
Heartbeat CPU 0 instructions: 216001361 cycles: 85342803 heartbeat IPC: 3.241 cumulative IPC: 3.015 (Simulation time: 00 hr 25 min 56 sec)
Heartbeat CPU 0 instructions: 216501362 cycles: 85495461 heartbeat IPC: 3.275 cumulative IPC: 3.016 (Simulation time: 00 hr 25 min 58 sec)
Heartbeat CPU 0 instructions: 217001363 cycles: 85647357 heartbeat IPC: 3.292 cumulative IPC: 3.017 (Simulation time: 00 hr 26 min 01 sec)
Heartbeat CPU 0 instructions: 217501363 cycles: 85800504 heartbeat IPC: 3.265 cumulative IPC: 3.018 (Simulation time: 00 hr 26 min 03 sec)
Heartbeat CPU 0 instructions: 218001364 cycles: 85952784 heartbeat IPC: 3.283 cumulative IPC: 3.018 (Simulation time: 00 hr 26 min 06 sec)
Heartbeat CPU 0 instructions: 218501365 cycles: 86105652 heartbeat IPC: 3.271 cumulative IPC: 3.019 (Simulation time: 00 hr 26 min 08 sec)
Heartbeat CPU 0 instructions: 219001365 cycles: 86257120 heartbeat IPC: 3.301 cumulative IPC: 3.02 (Simulation time: 00 hr 26 min 11 sec)
Heartbeat CPU 0 instructions: 219501369 cycles: 86410133 heartbeat IPC: 3.268 cumulative IPC: 3.02 (Simulation time: 00 hr 26 min 13 sec)
Heartbeat CPU 0 instructions: 220001369 cycles: 86562705 heartbeat IPC: 3.277 cumulative IPC: 3.021 (Simulation time: 00 hr 26 min 16 sec)
Heartbeat CPU 0 instructions: 220501369 cycles: 86714511 heartbeat IPC: 3.294 cumulative IPC: 3.022 (Simulation time: 00 hr 26 min 18 sec)
Heartbeat CPU 0 instructions: 221001369 cycles: 86867342 heartbeat IPC: 3.272 cumulative IPC: 3.023 (Simulation time: 00 hr 26 min 21 sec)
Heartbeat CPU 0 instructions: 221501369 cycles: 87020369 heartbeat IPC: 3.267 cumulative IPC: 3.023 (Simulation time: 00 hr 26 min 23 sec)
Heartbeat CPU 0 instructions: 222001373 cycles: 87172234 heartbeat IPC: 3.292 cumulative IPC: 3.024 (Simulation time: 00 hr 26 min 26 sec)
Heartbeat CPU 0 instructions: 222501373 cycles: 87324409 heartbeat IPC: 3.286 cumulative IPC: 3.025 (Simulation time: 00 hr 26 min 28 sec)
Heartbeat CPU 0 instructions: 223001380 cycles: 87475303 heartbeat IPC: 3.314 cumulative IPC: 3.025 (Simulation time: 00 hr 26 min 31 sec)
Heartbeat CPU 0 instructions: 223501384 cycles: 87628549 heartbeat IPC: 3.263 cumulative IPC: 3.026 (Simulation time: 00 hr 26 min 33 sec)
Heartbeat CPU 0 instructions: 224001388 cycles: 87782795 heartbeat IPC: 3.242 cumulative IPC: 3.027 (Simulation time: 00 hr 26 min 36 sec)
Heartbeat CPU 0 instructions: 224501392 cycles: 87934375 heartbeat IPC: 3.299 cumulative IPC: 3.027 (Simulation time: 00 hr 26 min 38 sec)
Heartbeat CPU 0 instructions: 225001393 cycles: 88084717 heartbeat IPC: 3.326 cumulative IPC: 3.028 (Simulation time: 00 hr 26 min 41 sec)
Heartbeat CPU 0 instructions: 225501394 cycles: 88236404 heartbeat IPC: 3.296 cumulative IPC: 3.029 (Simulation time: 00 hr 26 min 43 sec)
Heartbeat CPU 0 instructions: 226001396 cycles: 88387648 heartbeat IPC: 3.306 cumulative IPC: 3.03 (Simulation time: 00 hr 26 min 46 sec)
Heartbeat CPU 0 instructions: 226501397 cycles: 88542026 heartbeat IPC: 3.239 cumulative IPC: 3.03 (Simulation time: 00 hr 26 min 48 sec)
Heartbeat CPU 0 instructions: 227001403 cycles: 88692248 heartbeat IPC: 3.328 cumulative IPC: 3.031 (Simulation time: 00 hr 26 min 51 sec)
Heartbeat CPU 0 instructions: 227501407 cycles: 88844135 heartbeat IPC: 3.292 cumulative IPC: 3.032 (Simulation time: 00 hr 26 min 53 sec)
Heartbeat CPU 0 instructions: 228001411 cycles: 88994658 heartbeat IPC: 3.322 cumulative IPC: 3.032 (Simulation time: 00 hr 26 min 56 sec)
Heartbeat CPU 0 instructions: 228501414 cycles: 89146924 heartbeat IPC: 3.284 cumulative IPC: 3.033 (Simulation time: 00 hr 26 min 58 sec)
Heartbeat CPU 0 instructions: 229001419 cycles: 89298733 heartbeat IPC: 3.294 cumulative IPC: 3.034 (Simulation time: 00 hr 27 min 01 sec)
Heartbeat CPU 0 instructions: 229501419 cycles: 89450870 heartbeat IPC: 3.287 cumulative IPC: 3.034 (Simulation time: 00 hr 27 min 03 sec)
Heartbeat CPU 0 instructions: 230001419 cycles: 89605301 heartbeat IPC: 3.238 cumulative IPC: 3.035 (Simulation time: 00 hr 27 min 06 sec)
Heartbeat CPU 0 instructions: 230501422 cycles: 89758293 heartbeat IPC: 3.268 cumulative IPC: 3.035 (Simulation time: 00 hr 27 min 08 sec)
Heartbeat CPU 0 instructions: 231001426 cycles: 89909923 heartbeat IPC: 3.298 cumulative IPC: 3.036 (Simulation time: 00 hr 27 min 11 sec)
Heartbeat CPU 0 instructions: 231501426 cycles: 90062933 heartbeat IPC: 3.268 cumulative IPC: 3.037 (Simulation time: 00 hr 27 min 14 sec)
Heartbeat CPU 0 instructions: 232001429 cycles: 90215261 heartbeat IPC: 3.282 cumulative IPC: 3.037 (Simulation time: 00 hr 27 min 16 sec)
Heartbeat CPU 0 instructions: 232501430 cycles: 90369858 heartbeat IPC: 3.234 cumulative IPC: 3.038 (Simulation time: 00 hr 27 min 19 sec)
Heartbeat CPU 0 instructions: 233001434 cycles: 90521768 heartbeat IPC: 3.291 cumulative IPC: 3.038 (Simulation time: 00 hr 27 min 21 sec)
Heartbeat CPU 0 instructions: 233501435 cycles: 90674415 heartbeat IPC: 3.276 cumulative IPC: 3.039 (Simulation time: 00 hr 27 min 24 sec)
Heartbeat CPU 0 instructions: 234001442 cycles: 90826961 heartbeat IPC: 3.278 cumulative IPC: 3.04 (Simulation time: 00 hr 27 min 26 sec)
Heartbeat CPU 0 instructions: 234501445 cycles: 90980574 heartbeat IPC: 3.255 cumulative IPC: 3.04 (Simulation time: 00 hr 27 min 29 sec)
Heartbeat CPU 0 instructions: 235001448 cycles: 91131371 heartbeat IPC: 3.316 cumulative IPC: 3.041 (Simulation time: 00 hr 27 min 31 sec)
Heartbeat CPU 0 instructions: 235501448 cycles: 91284734 heartbeat IPC: 3.26 cumulative IPC: 3.041 (Simulation time: 00 hr 27 min 34 sec)
Heartbeat CPU 0 instructions: 236001453 cycles: 91438421 heartbeat IPC: 3.253 cumulative IPC: 3.042 (Simulation time: 00 hr 27 min 36 sec)
Heartbeat CPU 0 instructions: 236501460 cycles: 91590382 heartbeat IPC: 3.29 cumulative IPC: 3.043 (Simulation time: 00 hr 27 min 39 sec)
Heartbeat CPU 0 instructions: 237001465 cycles: 91741430 heartbeat IPC: 3.31 cumulative IPC: 3.043 (Simulation time: 00 hr 27 min 41 sec)
Heartbeat CPU 0 instructions: 237501465 cycles: 91893129 heartbeat IPC: 3.296 cumulative IPC: 3.044 (Simulation time: 00 hr 27 min 44 sec)
Heartbeat CPU 0 instructions: 238001472 cycles: 92045459 heartbeat IPC: 3.282 cumulative IPC: 3.044 (Simulation time: 00 hr 27 min 46 sec)
Heartbeat CPU 0 instructions: 238501475 cycles: 92198950 heartbeat IPC: 3.258 cumulative IPC: 3.045 (Simulation time: 00 hr 27 min 49 sec)
Heartbeat CPU 0 instructions: 239001480 cycles: 92349332 heartbeat IPC: 3.325 cumulative IPC: 3.046 (Simulation time: 00 hr 27 min 51 sec)
Heartbeat CPU 0 instructions: 239501484 cycles: 92501866 heartbeat IPC: 3.278 cumulative IPC: 3.046 (Simulation time: 00 hr 27 min 54 sec)
Heartbeat CPU 0 instructions: 240001487 cycles: 92654639 heartbeat IPC: 3.273 cumulative IPC: 3.047 (Simulation time: 00 hr 27 min 56 sec)
Heartbeat CPU 0 instructions: 240501492 cycles: 92806712 heartbeat IPC: 3.288 cumulative IPC: 3.047 (Simulation time: 00 hr 27 min 59 sec)
Heartbeat CPU 0 instructions: 241001492 cycles: 92956680 heartbeat IPC: 3.334 cumulative IPC: 3.048 (Simulation time: 00 hr 28 min 01 sec)
Heartbeat CPU 0 instructions: 241501492 cycles: 93109041 heartbeat IPC: 3.282 cumulative IPC: 3.049 (Simulation time: 00 hr 28 min 04 sec)
Heartbeat CPU 0 instructions: 242001496 cycles: 93262390 heartbeat IPC: 3.261 cumulative IPC: 3.049 (Simulation time: 00 hr 28 min 06 sec)
Heartbeat CPU 0 instructions: 242501500 cycles: 93416157 heartbeat IPC: 3.252 cumulative IPC: 3.05 (Simulation time: 00 hr 28 min 09 sec)
Heartbeat CPU 0 instructions: 243001504 cycles: 93567707 heartbeat IPC: 3.299 cumulative IPC: 3.05 (Simulation time: 00 hr 28 min 11 sec)
Heartbeat CPU 0 instructions: 243501504 cycles: 93720639 heartbeat IPC: 3.269 cumulative IPC: 3.051 (Simulation time: 00 hr 28 min 14 sec)
Heartbeat CPU 0 instructions: 244001511 cycles: 93873034 heartbeat IPC: 3.281 cumulative IPC: 3.051 (Simulation time: 00 hr 28 min 16 sec)
Heartbeat CPU 0 instructions: 244501515 cycles: 94025271 heartbeat IPC: 3.284 cumulative IPC: 3.052 (Simulation time: 00 hr 28 min 19 sec)
Heartbeat CPU 0 instructions: 245001519 cycles: 94177866 heartbeat IPC: 3.277 cumulative IPC: 3.052 (Simulation time: 00 hr 28 min 21 sec)
Heartbeat CPU 0 instructions: 245501519 cycles: 94331866 heartbeat IPC: 3.247 cumulative IPC: 3.053 (Simulation time: 00 hr 28 min 24 sec)
Heartbeat CPU 0 instructions: 246001519 cycles: 94484526 heartbeat IPC: 3.275 cumulative IPC: 3.053 (Simulation time: 00 hr 28 min 26 sec)
Heartbeat CPU 0 instructions: 246501523 cycles: 94635965 heartbeat IPC: 3.302 cumulative IPC: 3.054 (Simulation time: 00 hr 28 min 29 sec)
Heartbeat CPU 0 instructions: 247001523 cycles: 94787800 heartbeat IPC: 3.293 cumulative IPC: 3.054 (Simulation time: 00 hr 28 min 31 sec)
Heartbeat CPU 0 instructions: 247501523 cycles: 94940815 heartbeat IPC: 3.268 cumulative IPC: 3.055 (Simulation time: 00 hr 28 min 34 sec)
Heartbeat CPU 0 instructions: 248001529 cycles: 95092538 heartbeat IPC: 3.296 cumulative IPC: 3.056 (Simulation time: 00 hr 28 min 36 sec)
Heartbeat CPU 0 instructions: 248501530 cycles: 95244704 heartbeat IPC: 3.286 cumulative IPC: 3.056 (Simulation time: 00 hr 28 min 39 sec)
Heartbeat CPU 0 instructions: 249001534 cycles: 95397542 heartbeat IPC: 3.271 cumulative IPC: 3.057 (Simulation time: 00 hr 28 min 41 sec)
Heartbeat CPU 0 instructions: 249501536 cycles: 95550253 heartbeat IPC: 3.274 cumulative IPC: 3.057 (Simulation time: 00 hr 28 min 44 sec)
Simulation finished CPU 0 instructions: 200000005 cycles: 65410536 cumulative IPC: 3.058 (Simulation time: 00 hr 28 min 46 sec)
Simulation complete CPU 0 instructions: 200000005 cycles: 65410536 cumulative IPC: 3.058 (Simulation time: 00 hr 28 min 46 sec)

ChampSim completed all CPUs

=== Simulation ===
CPU 0 runs /local-ssd/ben/dpc4-traces/ai-ml/bark.cpp-bark-small.coarse_token_gen.2.champsimtrace.gz

Region of Interest Statistics

CPU 0 cumulative IPC: 3.058 instructions: 200000005 cycles: 65410536
CPU 0 Branch Prediction Accuracy: 96.11% MPKI: 2.828 Average ROB Occupancy at Mispredict: 240.8
Branch type MPKI
BRANCH_DIRECT_JUMP: 4e-05
BRANCH_INDIRECT: 2e-05
BRANCH_CONDITIONAL: 2.828
BRANCH_DIRECT_CALL: 5e-06
BRANCH_INDIRECT_CALL: 1.5e-05
BRANCH_RETURN: 2.5e-05

cpu0->cpu0_STLB TOTAL        ACCESS:      49233 HIT:      46780 MISS:       2453 MSHR_MERGE:          0
cpu0->cpu0_STLB LOAD         ACCESS:      49233 HIT:      46780 MISS:       2453 MSHR_MERGE:          0
cpu0->cpu0_STLB RFO          ACCESS:          0 HIT:          0 MISS:          0 MSHR_MERGE:          0
cpu0->cpu0_STLB PREFETCH     ACCESS:          0 HIT:          0 MISS:          0 MSHR_MERGE:          0
cpu0->cpu0_STLB WRITE        ACCESS:          0 HIT:          0 MISS:          0 MSHR_MERGE:          0
cpu0->cpu0_STLB TRANSLATION  ACCESS:          0 HIT:          0 MISS:          0 MSHR_MERGE:          0
cpu0->cpu0_STLB PREFETCH REQUESTED:          0 ISSUED:          0 USEFUL:          0 USELESS:          0
cpu0->cpu0_STLB AVERAGE MISS LATENCY: 264.8 cycles
cpu0->cpu0_L2C TOTAL        ACCESS:   26187269 HIT:   23478919 MISS:    2708350 MSHR_MERGE:    1235979
cpu0->cpu0_L2C LOAD         ACCESS:    8271063 HIT:    7632678 MISS:     638385 MSHR_MERGE:     318999
cpu0->cpu0_L2C RFO          ACCESS:     112952 HIT:      54582 MISS:      58370 MSHR_MERGE:         12
cpu0->cpu0_L2C PREFETCH     ACCESS:   17624245 HIT:   15613022 MISS:    2011223 MSHR_MERGE:     916968
cpu0->cpu0_L2C WRITE        ACCESS:     178111 HIT:     178103 MISS:          8 MSHR_MERGE:          0
cpu0->cpu0_L2C TRANSLATION  ACCESS:        898 HIT:        534 MISS:        364 MSHR_MERGE:          0
cpu0->cpu0_L2C PREFETCH REQUESTED:   33846676 ISSUED:   13392346 USEFUL:     705914 USELESS:      78769
cpu0->cpu0_L2C AVERAGE MISS LATENCY: 104.1 cycles
cpu0->cpu0_L1I TOTAL        ACCESS:   28258551 HIT:   28258422 MISS:        129 MSHR_MERGE:         23
cpu0->cpu0_L1I LOAD         ACCESS:   28258551 HIT:   28258422 MISS:        129 MSHR_MERGE:         23
cpu0->cpu0_L1I RFO          ACCESS:          0 HIT:          0 MISS:          0 MSHR_MERGE:          0
cpu0->cpu0_L1I PREFETCH     ACCESS:          0 HIT:          0 MISS:          0 MSHR_MERGE:          0
cpu0->cpu0_L1I WRITE        ACCESS:          0 HIT:          0 MISS:          0 MSHR_MERGE:          0
cpu0->cpu0_L1I TRANSLATION  ACCESS:          0 HIT:          0 MISS:          0 MSHR_MERGE:          0
cpu0->cpu0_L1I PREFETCH REQUESTED:          0 ISSUED:          0 USEFUL:          0 USELESS:          0
cpu0->cpu0_L1I AVERAGE MISS LATENCY: 272.5 cycles
cpu0->cpu0_L1D TOTAL        ACCESS:   68297023 HIT:   53755925 MISS:   14541098 MSHR_MERGE:    1924396
cpu0->cpu0_L1D LOAD         ACCESS:   50022121 HIT:   40718896 MISS:    9303225 MSHR_MERGE:    1032268
cpu0->cpu0_L1D RFO          ACCESS:          0 HIT:          0 MISS:          0 MSHR_MERGE:          0
cpu0->cpu0_L1D PREFETCH     ACCESS:   15308405 HIT:   10457333 MISS:    4851072 MSHR_MERGE:     619177
cpu0->cpu0_L1D WRITE        ACCESS:    2961583 HIT:    2575680 MISS:     385903 MSHR_MERGE:     272951
cpu0->cpu0_L1D TRANSLATION  ACCESS:       4914 HIT:       4016 MISS:        898 MSHR_MERGE:          0
cpu0->cpu0_L1D PREFETCH REQUESTED:   55853893 ISSUED:   15308406 USEFUL:    4026589 USELESS:     205304
cpu0->cpu0_L1D AVERAGE MISS LATENCY: 18.71 cycles
cpu0->cpu0_ITLB TOTAL        ACCESS:   19290863 HIT:   19290845 MISS:         18 MSHR_MERGE:          8
cpu0->cpu0_ITLB LOAD         ACCESS:   19290863 HIT:   19290845 MISS:         18 MSHR_MERGE:          8
cpu0->cpu0_ITLB RFO          ACCESS:          0 HIT:          0 MISS:          0 MSHR_MERGE:          0
cpu0->cpu0_ITLB PREFETCH     ACCESS:          0 HIT:          0 MISS:          0 MSHR_MERGE:          0
cpu0->cpu0_ITLB WRITE        ACCESS:          0 HIT:          0 MISS:          0 MSHR_MERGE:          0
cpu0->cpu0_ITLB TRANSLATION  ACCESS:          0 HIT:          0 MISS:          0 MSHR_MERGE:          0
cpu0->cpu0_ITLB PREFETCH REQUESTED:          0 ISSUED:          0 USEFUL:          0 USELESS:          0
cpu0->cpu0_ITLB AVERAGE MISS LATENCY: 394 cycles
cpu0->cpu0_DTLB TOTAL        ACCESS:   55948366 HIT:   55840585 MISS:     107781 MSHR_MERGE:      58558
cpu0->cpu0_DTLB LOAD         ACCESS:   55948366 HIT:   55840585 MISS:     107781 MSHR_MERGE:      58558
cpu0->cpu0_DTLB RFO          ACCESS:          0 HIT:          0 MISS:          0 MSHR_MERGE:          0
cpu0->cpu0_DTLB PREFETCH     ACCESS:          0 HIT:          0 MISS:          0 MSHR_MERGE:          0
cpu0->cpu0_DTLB WRITE        ACCESS:          0 HIT:          0 MISS:          0 MSHR_MERGE:          0
cpu0->cpu0_DTLB TRANSLATION  ACCESS:          0 HIT:          0 MISS:          0 MSHR_MERGE:          0
cpu0->cpu0_DTLB PREFETCH REQUESTED:          0 ISSUED:          0 USEFUL:          0 USELESS:          0
cpu0->cpu0_DTLB AVERAGE MISS LATENCY: 18.17 cycles
cpu0->LLC TOTAL        ACCESS:    2933509 HIT:    1381651 MISS:    1551858 MSHR_MERGE:     670956
cpu0->LLC LOAD         ACCESS:     319386 HIT:     188654 MISS:     130732 MSHR_MERGE:     106565
cpu0->LLC RFO          ACCESS:      58358 HIT:       3560 MISS:      54798 MSHR_MERGE:          0
cpu0->LLC PREFETCH     ACCESS:    2460233 HIT:    1153147 MISS:    1307086 MSHR_MERGE:     564391
cpu0->LLC WRITE        ACCESS:      95168 HIT:      36285 MISS:      58883 MSHR_MERGE:          0
cpu0->LLC TRANSLATION  ACCESS:        364 HIT:          5 MISS:        359 MSHR_MERGE:          0
cpu0->LLC PREFETCH REQUESTED:    1386471 ISSUED:    1365978 USEFUL:     174498 USELESS:     386170
cpu0->LLC AVERAGE MISS LATENCY: 138.3 cycles

DRAM Statistics

Channel 0 RQ ROW_BUFFER_HIT:     242674
  ROW_BUFFER_MISS:     579269
  AVG DBUS CONGESTED CYCLE: 5.85
Channel 0 WQ ROW_BUFFER_HIT:      10296
  ROW_BUFFER_MISS:      71264
  FULL:       5294
Channel 0 REFRESHES ISSUED:       5450
