[VMEM] WARNING: physical memory size is smaller than virtual memory size.

*** ChampSim Multicore Out-of-Order Simulator ***
Warmup Instructions: 50000000
Simulation Instructions: 200000000
Number of CPUs: 1
Page size: 4096
Core 0: /local-ssd/ben/dpc4-traces/Graph/Ligra/ligra_BFSCC.com-lj.ungraph.gcc_6.3.0_O3.drop_17000M.length_250M.champsimtrace.xz
Off-chip DRAM Size: 64 GiB Channels: 1 Width: 64-bit Data Rate: 4807 MT/s
Heartbeat CPU 0 instructions: 500000 cycles: 174383 heartbeat IPC: 2.867 cumulative IPC: 2.867 (Simulation time: 00 hr 00 min 03 sec)
Heartbeat CPU 0 instructions: 1000005 cycles: 361900 heartbeat IPC: 2.666 cumulative IPC: 2.763 (Simulation time: 00 hr 00 min 05 sec)
Heartbeat CPU 0 instructions: 1500007 cycles: 540018 heartbeat IPC: 2.807 cumulative IPC: 2.778 (Simulation time: 00 hr 00 min 07 sec)
Heartbeat CPU 0 instructions: 2000007 cycles: 734154 heartbeat IPC: 2.576 cumulative IPC: 2.724 (Simulation time: 00 hr 00 min 10 sec)
Heartbeat CPU 0 instructions: 2500011 cycles: 924960 heartbeat IPC: 2.62 cumulative IPC: 2.703 (Simulation time: 00 hr 00 min 12 sec)
Heartbeat CPU 0 instructions: 3000017 cycles: 1122387 heartbeat IPC: 2.533 cumulative IPC: 2.673 (Simulation time: 00 hr 00 min 14 sec)
Heartbeat CPU 0 instructions: 3500022 cycles: 1321916 heartbeat IPC: 2.506 cumulative IPC: 2.648 (Simulation time: 00 hr 00 min 17 sec)
Heartbeat CPU 0 instructions: 4000026 cycles: 1504821 heartbeat IPC: 2.734 cumulative IPC: 2.658 (Simulation time: 00 hr 00 min 20 sec)
Heartbeat CPU 0 instructions: 4500027 cycles: 1698439 heartbeat IPC: 2.582 cumulative IPC: 2.65 (Simulation time: 00 hr 00 min 24 sec)
Heartbeat CPU 0 instructions: 5000028 cycles: 1890758 heartbeat IPC: 2.6 cumulative IPC: 2.644 (Simulation time: 00 hr 00 min 28 sec)
Heartbeat CPU 0 instructions: 5500031 cycles: 2082913 heartbeat IPC: 2.602 cumulative IPC: 2.641 (Simulation time: 00 hr 00 min 31 sec)
Heartbeat CPU 0 instructions: 6000032 cycles: 2264373 heartbeat IPC: 2.755 cumulative IPC: 2.65 (Simulation time: 00 hr 00 min 35 sec)
Heartbeat CPU 0 instructions: 6500033 cycles: 2458884 heartbeat IPC: 2.571 cumulative IPC: 2.643 (Simulation time: 00 hr 00 min 39 sec)
Heartbeat CPU 0 instructions: 7000034 cycles: 2637387 heartbeat IPC: 2.801 cumulative IPC: 2.654 (Simulation time: 00 hr 00 min 43 sec)
Heartbeat CPU 0 instructions: 7500037 cycles: 2830960 heartbeat IPC: 2.583 cumulative IPC: 2.649 (Simulation time: 00 hr 00 min 47 sec)
Heartbeat CPU 0 instructions: 8000038 cycles: 3025306 heartbeat IPC: 2.573 cumulative IPC: 2.644 (Simulation time: 00 hr 00 min 51 sec)
Heartbeat CPU 0 instructions: 8500039 cycles: 3222626 heartbeat IPC: 2.534 cumulative IPC: 2.638 (Simulation time: 00 hr 00 min 55 sec)
Heartbeat CPU 0 instructions: 9000042 cycles: 3416855 heartbeat IPC: 2.574 cumulative IPC: 2.634 (Simulation time: 00 hr 00 min 59 sec)
Heartbeat CPU 0 instructions: 9500043 cycles: 3611292 heartbeat IPC: 2.572 cumulative IPC: 2.631 (Simulation time: 00 hr 01 min 03 sec)
Heartbeat CPU 0 instructions: 10000047 cycles: 3806774 heartbeat IPC: 2.558 cumulative IPC: 2.627 (Simulation time: 00 hr 01 min 07 sec)
Heartbeat CPU 0 instructions: 10500048 cycles: 4005854 heartbeat IPC: 2.512 cumulative IPC: 2.621 (Simulation time: 00 hr 01 min 11 sec)
Heartbeat CPU 0 instructions: 11000048 cycles: 4200582 heartbeat IPC: 2.568 cumulative IPC: 2.619 (Simulation time: 00 hr 01 min 14 sec)
Heartbeat CPU 0 instructions: 11500049 cycles: 4382574 heartbeat IPC: 2.747 cumulative IPC: 2.624 (Simulation time: 00 hr 01 min 18 sec)
Heartbeat CPU 0 instructions: 12000050 cycles: 4549450 heartbeat IPC: 2.996 cumulative IPC: 2.638 (Simulation time: 00 hr 01 min 22 sec)
Heartbeat CPU 0 instructions: 12500054 cycles: 4733894 heartbeat IPC: 2.711 cumulative IPC: 2.641 (Simulation time: 00 hr 01 min 25 sec)
Heartbeat CPU 0 instructions: 13000058 cycles: 4904182 heartbeat IPC: 2.936 cumulative IPC: 2.651 (Simulation time: 00 hr 01 min 29 sec)
Heartbeat CPU 0 instructions: 13500061 cycles: 5017629 heartbeat IPC: 4.407 cumulative IPC: 2.691 (Simulation time: 00 hr 01 min 32 sec)
Heartbeat CPU 0 instructions: 14000062 cycles: 5139612 heartbeat IPC: 4.099 cumulative IPC: 2.724 (Simulation time: 00 hr 01 min 34 sec)
Heartbeat CPU 0 instructions: 14500065 cycles: 5239601 heartbeat IPC: 5.001 cumulative IPC: 2.767 (Simulation time: 00 hr 01 min 36 sec)
Heartbeat CPU 0 instructions: 15000072 cycles: 5342667 heartbeat IPC: 4.851 cumulative IPC: 2.808 (Simulation time: 00 hr 01 min 38 sec)
Heartbeat CPU 0 instructions: 15500074 cycles: 5442781 heartbeat IPC: 4.994 cumulative IPC: 2.848 (Simulation time: 00 hr 01 min 40 sec)
Heartbeat CPU 0 instructions: 16000080 cycles: 5554134 heartbeat IPC: 4.49 cumulative IPC: 2.881 (Simulation time: 00 hr 01 min 42 sec)
Heartbeat CPU 0 instructions: 16500081 cycles: 5677811 heartbeat IPC: 4.043 cumulative IPC: 2.906 (Simulation time: 00 hr 01 min 44 sec)
Heartbeat CPU 0 instructions: 17000088 cycles: 5794388 heartbeat IPC: 4.289 cumulative IPC: 2.934 (Simulation time: 00 hr 01 min 47 sec)
Heartbeat CPU 0 instructions: 17500088 cycles: 5911431 heartbeat IPC: 4.272 cumulative IPC: 2.96 (Simulation time: 00 hr 01 min 49 sec)
Heartbeat CPU 0 instructions: 18000090 cycles: 6028757 heartbeat IPC: 4.262 cumulative IPC: 2.986 (Simulation time: 00 hr 01 min 51 sec)
Heartbeat CPU 0 instructions: 18500092 cycles: 6146179 heartbeat IPC: 4.258 cumulative IPC: 3.01 (Simulation time: 00 hr 01 min 54 sec)
Heartbeat CPU 0 instructions: 19000094 cycles: 6263310 heartbeat IPC: 4.269 cumulative IPC: 3.034 (Simulation time: 00 hr 01 min 56 sec)
Heartbeat CPU 0 instructions: 19500096 cycles: 6380131 heartbeat IPC: 4.28 cumulative IPC: 3.056 (Simulation time: 00 hr 01 min 59 sec)
Heartbeat CPU 0 instructions: 20000102 cycles: 6497319 heartbeat IPC: 4.267 cumulative IPC: 3.078 (Simulation time: 00 hr 02 min 01 sec)
Heartbeat CPU 0 instructions: 20500106 cycles: 6614651 heartbeat IPC: 4.261 cumulative IPC: 3.099 (Simulation time: 00 hr 02 min 03 sec)
Heartbeat CPU 0 instructions: 21000112 cycles: 6731783 heartbeat IPC: 4.269 cumulative IPC: 3.12 (Simulation time: 00 hr 02 min 06 sec)
Heartbeat CPU 0 instructions: 21500114 cycles: 6853993 heartbeat IPC: 4.091 cumulative IPC: 3.137 (Simulation time: 00 hr 02 min 08 sec)
Heartbeat CPU 0 instructions: 22000121 cycles: 6971116 heartbeat IPC: 4.269 cumulative IPC: 3.156 (Simulation time: 00 hr 02 min 10 sec)
Heartbeat CPU 0 instructions: 22500121 cycles: 7088218 heartbeat IPC: 4.27 cumulative IPC: 3.174 (Simulation time: 00 hr 02 min 13 sec)
Heartbeat CPU 0 instructions: 23000124 cycles: 7205411 heartbeat IPC: 4.266 cumulative IPC: 3.192 (Simulation time: 00 hr 02 min 15 sec)
Heartbeat CPU 0 instructions: 23500129 cycles: 7322289 heartbeat IPC: 4.278 cumulative IPC: 3.209 (Simulation time: 00 hr 02 min 18 sec)
Heartbeat CPU 0 instructions: 24000134 cycles: 7445515 heartbeat IPC: 4.058 cumulative IPC: 3.223 (Simulation time: 00 hr 02 min 20 sec)
Heartbeat CPU 0 instructions: 24500136 cycles: 7562332 heartbeat IPC: 4.28 cumulative IPC: 3.24 (Simulation time: 00 hr 02 min 22 sec)
Heartbeat CPU 0 instructions: 25000142 cycles: 7679445 heartbeat IPC: 4.269 cumulative IPC: 3.255 (Simulation time: 00 hr 02 min 25 sec)
Heartbeat CPU 0 instructions: 25500142 cycles: 7796548 heartbeat IPC: 4.27 cumulative IPC: 3.271 (Simulation time: 00 hr 02 min 27 sec)
Heartbeat CPU 0 instructions: 26000146 cycles: 7913359 heartbeat IPC: 4.28 cumulative IPC: 3.286 (Simulation time: 00 hr 02 min 30 sec)
Heartbeat CPU 0 instructions: 26500150 cycles: 8030493 heartbeat IPC: 4.269 cumulative IPC: 3.3 (Simulation time: 00 hr 02 min 32 sec)
Heartbeat CPU 0 instructions: 27000152 cycles: 8147952 heartbeat IPC: 4.257 cumulative IPC: 3.314 (Simulation time: 00 hr 02 min 34 sec)
Heartbeat CPU 0 instructions: 27500154 cycles: 8278700 heartbeat IPC: 3.824 cumulative IPC: 3.322 (Simulation time: 00 hr 02 min 37 sec)
Heartbeat CPU 0 instructions: 28000156 cycles: 8407085 heartbeat IPC: 3.895 cumulative IPC: 3.331 (Simulation time: 00 hr 02 min 39 sec)
Heartbeat CPU 0 instructions: 28500160 cycles: 8536374 heartbeat IPC: 3.867 cumulative IPC: 3.339 (Simulation time: 00 hr 02 min 41 sec)
Heartbeat CPU 0 instructions: 29000160 cycles: 8662037 heartbeat IPC: 3.979 cumulative IPC: 3.348 (Simulation time: 00 hr 02 min 44 sec)
Heartbeat CPU 0 instructions: 29500165 cycles: 8788615 heartbeat IPC: 3.95 cumulative IPC: 3.357 (Simulation time: 00 hr 02 min 46 sec)
Heartbeat CPU 0 instructions: 30000171 cycles: 8907988 heartbeat IPC: 4.189 cumulative IPC: 3.368 (Simulation time: 00 hr 02 min 48 sec)
Heartbeat CPU 0 instructions: 30500172 cycles: 9033928 heartbeat IPC: 3.97 cumulative IPC: 3.376 (Simulation time: 00 hr 02 min 51 sec)
Heartbeat CPU 0 instructions: 31000174 cycles: 9213427 heartbeat IPC: 2.786 cumulative IPC: 3.365 (Simulation time: 00 hr 02 min 53 sec)
Heartbeat CPU 0 instructions: 31500181 cycles: 9417500 heartbeat IPC: 2.45 cumulative IPC: 3.345 (Simulation time: 00 hr 02 min 56 sec)
Heartbeat CPU 0 instructions: 32000185 cycles: 9620660 heartbeat IPC: 2.461 cumulative IPC: 3.326 (Simulation time: 00 hr 02 min 58 sec)
Heartbeat CPU 0 instructions: 32500189 cycles: 9824158 heartbeat IPC: 2.457 cumulative IPC: 3.308 (Simulation time: 00 hr 03 min 01 sec)
Heartbeat CPU 0 instructions: 33000194 cycles: 10029274 heartbeat IPC: 2.438 cumulative IPC: 3.29 (Simulation time: 00 hr 03 min 03 sec)
Heartbeat CPU 0 instructions: 33500197 cycles: 10235286 heartbeat IPC: 2.427 cumulative IPC: 3.273 (Simulation time: 00 hr 03 min 06 sec)
Heartbeat CPU 0 instructions: 34000198 cycles: 10438750 heartbeat IPC: 2.457 cumulative IPC: 3.257 (Simulation time: 00 hr 03 min 08 sec)
Heartbeat CPU 0 instructions: 34500202 cycles: 10641043 heartbeat IPC: 2.472 cumulative IPC: 3.242 (Simulation time: 00 hr 03 min 11 sec)
Heartbeat CPU 0 instructions: 35000203 cycles: 10843532 heartbeat IPC: 2.469 cumulative IPC: 3.228 (Simulation time: 00 hr 03 min 13 sec)
Heartbeat CPU 0 instructions: 35500203 cycles: 11046512 heartbeat IPC: 2.463 cumulative IPC: 3.214 (Simulation time: 00 hr 03 min 16 sec)
Heartbeat CPU 0 instructions: 36000205 cycles: 11250714 heartbeat IPC: 2.449 cumulative IPC: 3.2 (Simulation time: 00 hr 03 min 18 sec)
Heartbeat CPU 0 instructions: 36500205 cycles: 11453289 heartbeat IPC: 2.468 cumulative IPC: 3.187 (Simulation time: 00 hr 03 min 21 sec)
Heartbeat CPU 0 instructions: 37000209 cycles: 11655185 heartbeat IPC: 2.477 cumulative IPC: 3.175 (Simulation time: 00 hr 03 min 23 sec)
Heartbeat CPU 0 instructions: 37500213 cycles: 11857548 heartbeat IPC: 2.471 cumulative IPC: 3.163 (Simulation time: 00 hr 03 min 26 sec)
Heartbeat CPU 0 instructions: 38000218 cycles: 12061229 heartbeat IPC: 2.455 cumulative IPC: 3.151 (Simulation time: 00 hr 03 min 28 sec)
Heartbeat CPU 0 instructions: 38500220 cycles: 12247948 heartbeat IPC: 2.678 cumulative IPC: 3.143 (Simulation time: 00 hr 03 min 30 sec)
Heartbeat CPU 0 instructions: 39000222 cycles: 12450778 heartbeat IPC: 2.465 cumulative IPC: 3.132 (Simulation time: 00 hr 03 min 33 sec)
Heartbeat CPU 0 instructions: 39500229 cycles: 12632948 heartbeat IPC: 2.745 cumulative IPC: 3.127 (Simulation time: 00 hr 03 min 35 sec)
Heartbeat CPU 0 instructions: 40000230 cycles: 12835228 heartbeat IPC: 2.472 cumulative IPC: 3.116 (Simulation time: 00 hr 03 min 38 sec)
Heartbeat CPU 0 instructions: 40500232 cycles: 13037530 heartbeat IPC: 2.472 cumulative IPC: 3.106 (Simulation time: 00 hr 03 min 40 sec)
Heartbeat CPU 0 instructions: 41000233 cycles: 13235770 heartbeat IPC: 2.522 cumulative IPC: 3.098 (Simulation time: 00 hr 03 min 43 sec)
Heartbeat CPU 0 instructions: 41500237 cycles: 13394564 heartbeat IPC: 3.149 cumulative IPC: 3.098 (Simulation time: 00 hr 03 min 45 sec)
Heartbeat CPU 0 instructions: 42000237 cycles: 13535512 heartbeat IPC: 3.547 cumulative IPC: 3.103 (Simulation time: 00 hr 03 min 47 sec)
Heartbeat CPU 0 instructions: 42500237 cycles: 13676589 heartbeat IPC: 3.544 cumulative IPC: 3.108 (Simulation time: 00 hr 03 min 49 sec)
Heartbeat CPU 0 instructions: 43000244 cycles: 13817181 heartbeat IPC: 3.556 cumulative IPC: 3.112 (Simulation time: 00 hr 03 min 51 sec)
Heartbeat CPU 0 instructions: 43500245 cycles: 13943093 heartbeat IPC: 3.971 cumulative IPC: 3.12 (Simulation time: 00 hr 03 min 54 sec)
Heartbeat CPU 0 instructions: 44000247 cycles: 14068764 heartbeat IPC: 3.979 cumulative IPC: 3.128 (Simulation time: 00 hr 03 min 56 sec)
Heartbeat CPU 0 instructions: 44500253 cycles: 14194533 heartbeat IPC: 3.976 cumulative IPC: 3.135 (Simulation time: 00 hr 03 min 59 sec)
Heartbeat CPU 0 instructions: 45000256 cycles: 14320877 heartbeat IPC: 3.957 cumulative IPC: 3.142 (Simulation time: 00 hr 04 min 01 sec)
Heartbeat CPU 0 instructions: 45500256 cycles: 14446824 heartbeat IPC: 3.97 cumulative IPC: 3.149 (Simulation time: 00 hr 04 min 04 sec)
Heartbeat CPU 0 instructions: 46000257 cycles: 14572471 heartbeat IPC: 3.979 cumulative IPC: 3.157 (Simulation time: 00 hr 04 min 06 sec)
Heartbeat CPU 0 instructions: 46500259 cycles: 14718542 heartbeat IPC: 3.423 cumulative IPC: 3.159 (Simulation time: 00 hr 04 min 09 sec)
Heartbeat CPU 0 instructions: 47000266 cycles: 14854823 heartbeat IPC: 3.669 cumulative IPC: 3.164 (Simulation time: 00 hr 04 min 11 sec)
Heartbeat CPU 0 instructions: 47500270 cycles: 14982084 heartbeat IPC: 3.929 cumulative IPC: 3.17 (Simulation time: 00 hr 04 min 14 sec)
Heartbeat CPU 0 instructions: 48000274 cycles: 15108087 heartbeat IPC: 3.968 cumulative IPC: 3.177 (Simulation time: 00 hr 04 min 16 sec)
Heartbeat CPU 0 instructions: 48500280 cycles: 15243843 heartbeat IPC: 3.683 cumulative IPC: 3.182 (Simulation time: 00 hr 04 min 19 sec)
Heartbeat CPU 0 instructions: 49000281 cycles: 15374456 heartbeat IPC: 3.828 cumulative IPC: 3.187 (Simulation time: 00 hr 04 min 21 sec)
Heartbeat CPU 0 instructions: 49500282 cycles: 15500209 heartbeat IPC: 3.976 cumulative IPC: 3.194 (Simulation time: 00 hr 04 min 23 sec)
Warmup halting CPU 0 at instruction 50000006 cycle 15626699 for remainder of phase
Warmup finished CPU 0 instructions: 50000006 cycles: 15626699 cumulative IPC: 3.2 (Simulation time: 00 hr 04 min 26 sec)
Warmup complete CPU 0 instructions: 50000006 cycles: 15626699 cumulative IPC: 3.2 (Simulation time: 00 hr 04 min 26 sec)
Heartbeat CPU 0 instructions: 50000286 cycles: 15626944 heartbeat IPC: 3.945 cumulative IPC: 1.143 (Simulation time: 00 hr 04 min 26 sec)
Heartbeat CPU 0 instructions: 50500287 cycles: 15834691 heartbeat IPC: 2.407 cumulative IPC: 2.405 (Simulation time: 00 hr 04 min 29 sec)
Heartbeat CPU 0 instructions: 51000287 cycles: 16036938 heartbeat IPC: 2.472 cumulative IPC: 2.438 (Simulation time: 00 hr 04 min 32 sec)
Heartbeat CPU 0 instructions: 51500287 cycles: 16239342 heartbeat IPC: 2.47 cumulative IPC: 2.449 (Simulation time: 00 hr 04 min 36 sec)
Heartbeat CPU 0 instructions: 52000292 cycles: 16432496 heartbeat IPC: 2.589 cumulative IPC: 2.482 (Simulation time: 00 hr 04 min 39 sec)
Heartbeat CPU 0 instructions: 52500296 cycles: 16641881 heartbeat IPC: 2.388 cumulative IPC: 2.463 (Simulation time: 00 hr 04 min 42 sec)
Heartbeat CPU 0 instructions: 53000301 cycles: 16849383 heartbeat IPC: 2.41 cumulative IPC: 2.454 (Simulation time: 00 hr 04 min 45 sec)
Heartbeat CPU 0 instructions: 53500307 cycles: 17061689 heartbeat IPC: 2.355 cumulative IPC: 2.439 (Simulation time: 00 hr 04 min 49 sec)
Heartbeat CPU 0 instructions: 54000310 cycles: 17740684 heartbeat IPC: 0.7364 cumulative IPC: 1.892 (Simulation time: 00 hr 04 min 58 sec)
Heartbeat CPU 0 instructions: 54500316 cycles: 18550189 heartbeat IPC: 0.6177 cumulative IPC: 1.539 (Simulation time: 00 hr 05 min 08 sec)
Heartbeat CPU 0 instructions: 55000322 cycles: 19445165 heartbeat IPC: 0.5587 cumulative IPC: 1.31 (Simulation time: 00 hr 05 min 20 sec)
Heartbeat CPU 0 instructions: 55500329 cycles: 20207915 heartbeat IPC: 0.6555 cumulative IPC: 1.201 (Simulation time: 00 hr 05 min 30 sec)
Heartbeat CPU 0 instructions: 56000331 cycles: 20428553 heartbeat IPC: 2.266 cumulative IPC: 1.25 (Simulation time: 00 hr 05 min 34 sec)
Heartbeat CPU 0 instructions: 56500332 cycles: 20646210 heartbeat IPC: 2.297 cumulative IPC: 1.295 (Simulation time: 00 hr 05 min 37 sec)
Heartbeat CPU 0 instructions: 57000336 cycles: 20865663 heartbeat IPC: 2.278 cumulative IPC: 1.336 (Simulation time: 00 hr 05 min 40 sec)
Heartbeat CPU 0 instructions: 57500338 cycles: 21094410 heartbeat IPC: 2.186 cumulative IPC: 1.372 (Simulation time: 00 hr 05 min 44 sec)
Heartbeat CPU 0 instructions: 58000341 cycles: 21332002 heartbeat IPC: 2.104 cumulative IPC: 1.402 (Simulation time: 00 hr 05 min 48 sec)
Heartbeat CPU 0 instructions: 58500343 cycles: 21556496 heartbeat IPC: 2.227 cumulative IPC: 1.433 (Simulation time: 00 hr 05 min 51 sec)
Heartbeat CPU 0 instructions: 59000348 cycles: 21775071 heartbeat IPC: 2.288 cumulative IPC: 1.464 (Simulation time: 00 hr 05 min 54 sec)
Heartbeat CPU 0 instructions: 59500349 cycles: 21999016 heartbeat IPC: 2.233 cumulative IPC: 1.491 (Simulation time: 00 hr 05 min 58 sec)
Heartbeat CPU 0 instructions: 60000355 cycles: 22224669 heartbeat IPC: 2.216 cumulative IPC: 1.516 (Simulation time: 00 hr 06 min 01 sec)
Heartbeat CPU 0 instructions: 60500358 cycles: 22451600 heartbeat IPC: 2.203 cumulative IPC: 1.539 (Simulation time: 00 hr 06 min 05 sec)
Heartbeat CPU 0 instructions: 61000360 cycles: 22673511 heartbeat IPC: 2.253 cumulative IPC: 1.561 (Simulation time: 00 hr 06 min 08 sec)
Heartbeat CPU 0 instructions: 61500364 cycles: 22895719 heartbeat IPC: 2.25 cumulative IPC: 1.582 (Simulation time: 00 hr 06 min 12 sec)
Heartbeat CPU 0 instructions: 62000369 cycles: 23121948 heartbeat IPC: 2.21 cumulative IPC: 1.601 (Simulation time: 00 hr 06 min 15 sec)
Heartbeat CPU 0 instructions: 62500372 cycles: 23351096 heartbeat IPC: 2.182 cumulative IPC: 1.618 (Simulation time: 00 hr 06 min 19 sec)
Heartbeat CPU 0 instructions: 63000372 cycles: 23579246 heartbeat IPC: 2.192 cumulative IPC: 1.635 (Simulation time: 00 hr 06 min 22 sec)
Heartbeat CPU 0 instructions: 63500376 cycles: 23803161 heartbeat IPC: 2.233 cumulative IPC: 1.651 (Simulation time: 00 hr 06 min 26 sec)
Heartbeat CPU 0 instructions: 64000380 cycles: 24030045 heartbeat IPC: 2.204 cumulative IPC: 1.666 (Simulation time: 00 hr 06 min 29 sec)
Heartbeat CPU 0 instructions: 64500382 cycles: 24504635 heartbeat IPC: 1.054 cumulative IPC: 1.633 (Simulation time: 00 hr 06 min 36 sec)
Heartbeat CPU 0 instructions: 65000384 cycles: 25240980 heartbeat IPC: 0.679 cumulative IPC: 1.56 (Simulation time: 00 hr 06 min 46 sec)
Heartbeat CPU 0 instructions: 65500388 cycles: 26143089 heartbeat IPC: 0.5543 cumulative IPC: 1.474 (Simulation time: 00 hr 06 min 57 sec)
Heartbeat CPU 0 instructions: 66000395 cycles: 26648321 heartbeat IPC: 0.9897 cumulative IPC: 1.452 (Simulation time: 00 hr 07 min 04 sec)
Heartbeat CPU 0 instructions: 66500398 cycles: 26861980 heartbeat IPC: 2.34 cumulative IPC: 1.469 (Simulation time: 00 hr 07 min 08 sec)
Heartbeat CPU 0 instructions: 67000398 cycles: 27059601 heartbeat IPC: 2.53 cumulative IPC: 1.487 (Simulation time: 00 hr 07 min 11 sec)
Heartbeat CPU 0 instructions: 67500403 cycles: 27264143 heartbeat IPC: 2.445 cumulative IPC: 1.504 (Simulation time: 00 hr 07 min 14 sec)
Heartbeat CPU 0 instructions: 68000409 cycles: 27474430 heartbeat IPC: 2.378 cumulative IPC: 1.519 (Simulation time: 00 hr 07 min 17 sec)
Heartbeat CPU 0 instructions: 68500411 cycles: 27676089 heartbeat IPC: 2.479 cumulative IPC: 1.535 (Simulation time: 00 hr 07 min 21 sec)
Heartbeat CPU 0 instructions: 69000412 cycles: 27879988 heartbeat IPC: 2.452 cumulative IPC: 1.551 (Simulation time: 00 hr 07 min 24 sec)
Heartbeat CPU 0 instructions: 69500417 cycles: 28077247 heartbeat IPC: 2.535 cumulative IPC: 1.566 (Simulation time: 00 hr 07 min 27 sec)
Heartbeat CPU 0 instructions: 70000423 cycles: 28279607 heartbeat IPC: 2.471 cumulative IPC: 1.581 (Simulation time: 00 hr 07 min 30 sec)
Heartbeat CPU 0 instructions: 70500429 cycles: 28482380 heartbeat IPC: 2.466 cumulative IPC: 1.595 (Simulation time: 00 hr 07 min 34 sec)
Heartbeat CPU 0 instructions: 71000432 cycles: 28683483 heartbeat IPC: 2.486 cumulative IPC: 1.608 (Simulation time: 00 hr 07 min 37 sec)
Heartbeat CPU 0 instructions: 71500436 cycles: 28876405 heartbeat IPC: 2.592 cumulative IPC: 1.623 (Simulation time: 00 hr 07 min 40 sec)
Heartbeat CPU 0 instructions: 72000437 cycles: 29081600 heartbeat IPC: 2.437 cumulative IPC: 1.635 (Simulation time: 00 hr 07 min 43 sec)
Heartbeat CPU 0 instructions: 72500443 cycles: 29290285 heartbeat IPC: 2.396 cumulative IPC: 1.647 (Simulation time: 00 hr 07 min 46 sec)
Heartbeat CPU 0 instructions: 73000448 cycles: 29495864 heartbeat IPC: 2.432 cumulative IPC: 1.658 (Simulation time: 00 hr 07 min 50 sec)
Heartbeat CPU 0 instructions: 73500448 cycles: 29699049 heartbeat IPC: 2.461 cumulative IPC: 1.67 (Simulation time: 00 hr 07 min 53 sec)
Heartbeat CPU 0 instructions: 74000452 cycles: 29911153 heartbeat IPC: 2.357 cumulative IPC: 1.68 (Simulation time: 00 hr 07 min 56 sec)
Heartbeat CPU 0 instructions: 74500459 cycles: 30123718 heartbeat IPC: 2.352 cumulative IPC: 1.69 (Simulation time: 00 hr 08 min 00 sec)
Heartbeat CPU 0 instructions: 75000459 cycles: 30733133 heartbeat IPC: 0.8205 cumulative IPC: 1.655 (Simulation time: 00 hr 08 min 08 sec)
Heartbeat CPU 0 instructions: 75500463 cycles: 31521054 heartbeat IPC: 0.6346 cumulative IPC: 1.604 (Simulation time: 00 hr 08 min 18 sec)
Heartbeat CPU 0 instructions: 76000467 cycles: 32399611 heartbeat IPC: 0.5691 cumulative IPC: 1.55 (Simulation time: 00 hr 08 min 30 sec)
Heartbeat CPU 0 instructions: 76500468 cycles: 32704497 heartbeat IPC: 1.64 cumulative IPC: 1.552 (Simulation time: 00 hr 08 min 34 sec)
Heartbeat CPU 0 instructions: 77000468 cycles: 32923584 heartbeat IPC: 2.282 cumulative IPC: 1.561 (Simulation time: 00 hr 08 min 38 sec)
Heartbeat CPU 0 instructions: 77500475 cycles: 33142038 heartbeat IPC: 2.289 cumulative IPC: 1.57 (Simulation time: 00 hr 08 min 41 sec)
Heartbeat CPU 0 instructions: 78000479 cycles: 33372792 heartbeat IPC: 2.167 cumulative IPC: 1.578 (Simulation time: 00 hr 08 min 45 sec)
Heartbeat CPU 0 instructions: 78500481 cycles: 33610476 heartbeat IPC: 2.104 cumulative IPC: 1.585 (Simulation time: 00 hr 08 min 48 sec)
Heartbeat CPU 0 instructions: 79000486 cycles: 33842391 heartbeat IPC: 2.156 cumulative IPC: 1.592 (Simulation time: 00 hr 08 min 52 sec)
Heartbeat CPU 0 instructions: 79500491 cycles: 34076079 heartbeat IPC: 2.14 cumulative IPC: 1.599 (Simulation time: 00 hr 08 min 55 sec)
Heartbeat CPU 0 instructions: 80000497 cycles: 34305900 heartbeat IPC: 2.176 cumulative IPC: 1.606 (Simulation time: 00 hr 08 min 59 sec)
Heartbeat CPU 0 instructions: 80500504 cycles: 34538239 heartbeat IPC: 2.152 cumulative IPC: 1.613 (Simulation time: 00 hr 09 min 02 sec)
Heartbeat CPU 0 instructions: 81000505 cycles: 34771665 heartbeat IPC: 2.142 cumulative IPC: 1.619 (Simulation time: 00 hr 09 min 06 sec)
Heartbeat CPU 0 instructions: 81500508 cycles: 35005267 heartbeat IPC: 2.14 cumulative IPC: 1.626 (Simulation time: 00 hr 09 min 10 sec)
Heartbeat CPU 0 instructions: 82000511 cycles: 35233711 heartbeat IPC: 2.189 cumulative IPC: 1.632 (Simulation time: 00 hr 09 min 13 sec)
Heartbeat CPU 0 instructions: 82500511 cycles: 35449484 heartbeat IPC: 2.317 cumulative IPC: 1.64 (Simulation time: 00 hr 09 min 16 sec)
Heartbeat CPU 0 instructions: 83000518 cycles: 35677700 heartbeat IPC: 2.191 cumulative IPC: 1.646 (Simulation time: 00 hr 09 min 20 sec)
Heartbeat CPU 0 instructions: 83500520 cycles: 35908132 heartbeat IPC: 2.17 cumulative IPC: 1.652 (Simulation time: 00 hr 09 min 23 sec)
Heartbeat CPU 0 instructions: 84000520 cycles: 36132304 heartbeat IPC: 2.23 cumulative IPC: 1.658 (Simulation time: 00 hr 09 min 27 sec)
Heartbeat CPU 0 instructions: 84500521 cycles: 36691783 heartbeat IPC: 0.8937 cumulative IPC: 1.638 (Simulation time: 00 hr 09 min 34 sec)
Heartbeat CPU 0 instructions: 85000526 cycles: 37486418 heartbeat IPC: 0.6292 cumulative IPC: 1.601 (Simulation time: 00 hr 09 min 45 sec)
Heartbeat CPU 0 instructions: 85500529 cycles: 38291201 heartbeat IPC: 0.6213 cumulative IPC: 1.566 (Simulation time: 00 hr 09 min 55 sec)
Heartbeat CPU 0 instructions: 86000530 cycles: 38481123 heartbeat IPC: 2.633 cumulative IPC: 1.575 (Simulation time: 00 hr 09 min 58 sec)
Heartbeat CPU 0 instructions: 86500537 cycles: 38689088 heartbeat IPC: 2.404 cumulative IPC: 1.583 (Simulation time: 00 hr 10 min 02 sec)
Heartbeat CPU 0 instructions: 87000537 cycles: 38890314 heartbeat IPC: 2.485 cumulative IPC: 1.59 (Simulation time: 00 hr 10 min 05 sec)
Heartbeat CPU 0 instructions: 87500537 cycles: 39088687 heartbeat IPC: 2.521 cumulative IPC: 1.598 (Simulation time: 00 hr 10 min 08 sec)
Heartbeat CPU 0 instructions: 88000537 cycles: 39292638 heartbeat IPC: 2.452 cumulative IPC: 1.606 (Simulation time: 00 hr 10 min 11 sec)
Heartbeat CPU 0 instructions: 88500542 cycles: 39497568 heartbeat IPC: 2.44 cumulative IPC: 1.613 (Simulation time: 00 hr 10 min 15 sec)
Heartbeat CPU 0 instructions: 89000543 cycles: 39704065 heartbeat IPC: 2.421 cumulative IPC: 1.62 (Simulation time: 00 hr 10 min 18 sec)
Heartbeat CPU 0 instructions: 89500548 cycles: 39910475 heartbeat IPC: 2.422 cumulative IPC: 1.627 (Simulation time: 00 hr 10 min 21 sec)
Heartbeat CPU 0 instructions: 90000551 cycles: 40110079 heartbeat IPC: 2.505 cumulative IPC: 1.634 (Simulation time: 00 hr 10 min 24 sec)
Heartbeat CPU 0 instructions: 90500554 cycles: 40308941 heartbeat IPC: 2.514 cumulative IPC: 1.641 (Simulation time: 00 hr 10 min 28 sec)
Heartbeat CPU 0 instructions: 91000558 cycles: 40502737 heartbeat IPC: 2.58 cumulative IPC: 1.648 (Simulation time: 00 hr 10 min 31 sec)
Heartbeat CPU 0 instructions: 91500565 cycles: 40705329 heartbeat IPC: 2.468 cumulative IPC: 1.655 (Simulation time: 00 hr 10 min 34 sec)
Heartbeat CPU 0 instructions: 92000570 cycles: 40900571 heartbeat IPC: 2.561 cumulative IPC: 1.662 (Simulation time: 00 hr 10 min 37 sec)
Heartbeat CPU 0 instructions: 92500573 cycles: 41107184 heartbeat IPC: 2.42 cumulative IPC: 1.668 (Simulation time: 00 hr 10 min 40 sec)
Heartbeat CPU 0 instructions: 93000576 cycles: 41313444 heartbeat IPC: 2.424 cumulative IPC: 1.674 (Simulation time: 00 hr 10 min 44 sec)
Heartbeat CPU 0 instructions: 93500579 cycles: 41507029 heartbeat IPC: 2.583 cumulative IPC: 1.681 (Simulation time: 00 hr 10 min 47 sec)
Heartbeat CPU 0 instructions: 94000586 cycles: 42178254 heartbeat IPC: 0.7449 cumulative IPC: 1.657 (Simulation time: 00 hr 10 min 56 sec)
Heartbeat CPU 0 instructions: 94500586 cycles: 42962929 heartbeat IPC: 0.6372 cumulative IPC: 1.628 (Simulation time: 00 hr 11 min 06 sec)
Heartbeat CPU 0 instructions: 95000586 cycles: 43577424 heartbeat IPC: 0.8137 cumulative IPC: 1.61 (Simulation time: 00 hr 11 min 14 sec)
Heartbeat CPU 0 instructions: 95500593 cycles: 43809851 heartbeat IPC: 2.151 cumulative IPC: 1.614 (Simulation time: 00 hr 11 min 18 sec)
Heartbeat CPU 0 instructions: 96000598 cycles: 44037859 heartbeat IPC: 2.193 cumulative IPC: 1.619 (Simulation time: 00 hr 11 min 21 sec)
Heartbeat CPU 0 instructions: 96500598 cycles: 44260803 heartbeat IPC: 2.243 cumulative IPC: 1.624 (Simulation time: 00 hr 11 min 25 sec)
Heartbeat CPU 0 instructions: 97000601 cycles: 44487897 heartbeat IPC: 2.202 cumulative IPC: 1.629 (Simulation time: 00 hr 11 min 28 sec)
Heartbeat CPU 0 instructions: 97500608 cycles: 44724312 heartbeat IPC: 2.115 cumulative IPC: 1.632 (Simulation time: 00 hr 11 min 32 sec)
Heartbeat CPU 0 instructions: 98000609 cycles: 44949983 heartbeat IPC: 2.216 cumulative IPC: 1.637 (Simulation time: 00 hr 11 min 35 sec)
Heartbeat CPU 0 instructions: 98500609 cycles: 45174891 heartbeat IPC: 2.223 cumulative IPC: 1.641 (Simulation time: 00 hr 11 min 39 sec)
Heartbeat CPU 0 instructions: 99000612 cycles: 45407197 heartbeat IPC: 2.152 cumulative IPC: 1.645 (Simulation time: 00 hr 11 min 42 sec)
Heartbeat CPU 0 instructions: 99500615 cycles: 45642585 heartbeat IPC: 2.124 cumulative IPC: 1.649 (Simulation time: 00 hr 11 min 46 sec)
Heartbeat CPU 0 instructions: 100000620 cycles: 45883045 heartbeat IPC: 2.079 cumulative IPC: 1.653 (Simulation time: 00 hr 11 min 50 sec)
Heartbeat CPU 0 instructions: 100500620 cycles: 46105810 heartbeat IPC: 2.245 cumulative IPC: 1.657 (Simulation time: 00 hr 11 min 53 sec)
Heartbeat CPU 0 instructions: 101000622 cycles: 46425226 heartbeat IPC: 1.565 cumulative IPC: 1.656 (Simulation time: 00 hr 11 min 58 sec)
Heartbeat CPU 0 instructions: 101500622 cycles: 46992538 heartbeat IPC: 0.8813 cumulative IPC: 1.642 (Simulation time: 00 hr 12 min 06 sec)
Heartbeat CPU 0 instructions: 102000629 cycles: 47546396 heartbeat IPC: 0.9028 cumulative IPC: 1.629 (Simulation time: 00 hr 12 min 13 sec)
Heartbeat CPU 0 instructions: 102500631 cycles: 47733290 heartbeat IPC: 2.675 cumulative IPC: 1.635 (Simulation time: 00 hr 12 min 16 sec)
Heartbeat CPU 0 instructions: 103000636 cycles: 47918596 heartbeat IPC: 2.698 cumulative IPC: 1.641 (Simulation time: 00 hr 12 min 19 sec)
Heartbeat CPU 0 instructions: 103500638 cycles: 48083922 heartbeat IPC: 3.024 cumulative IPC: 1.648 (Simulation time: 00 hr 12 min 22 sec)
Heartbeat CPU 0 instructions: 104000641 cycles: 48260331 heartbeat IPC: 2.834 cumulative IPC: 1.655 (Simulation time: 00 hr 12 min 25 sec)
Heartbeat CPU 0 instructions: 104500641 cycles: 48451679 heartbeat IPC: 2.613 cumulative IPC: 1.66 (Simulation time: 00 hr 12 min 28 sec)
Heartbeat CPU 0 instructions: 105000645 cycles: 48641548 heartbeat IPC: 2.633 cumulative IPC: 1.666 (Simulation time: 00 hr 12 min 31 sec)
Heartbeat CPU 0 instructions: 105500647 cycles: 48816666 heartbeat IPC: 2.855 cumulative IPC: 1.672 (Simulation time: 00 hr 12 min 34 sec)
Heartbeat CPU 0 instructions: 106000652 cycles: 49003321 heartbeat IPC: 2.679 cumulative IPC: 1.678 (Simulation time: 00 hr 12 min 37 sec)
Heartbeat CPU 0 instructions: 106500655 cycles: 49192573 heartbeat IPC: 2.642 cumulative IPC: 1.683 (Simulation time: 00 hr 12 min 40 sec)
Heartbeat CPU 0 instructions: 107000660 cycles: 49372034 heartbeat IPC: 2.786 cumulative IPC: 1.689 (Simulation time: 00 hr 12 min 43 sec)
Heartbeat CPU 0 instructions: 107500660 cycles: 49551612 heartbeat IPC: 2.784 cumulative IPC: 1.695 (Simulation time: 00 hr 12 min 46 sec)
Heartbeat CPU 0 instructions: 108000667 cycles: 49821223 heartbeat IPC: 1.855 cumulative IPC: 1.696 (Simulation time: 00 hr 12 min 50 sec)
Heartbeat CPU 0 instructions: 108500668 cycles: 50315014 heartbeat IPC: 1.013 cumulative IPC: 1.686 (Simulation time: 00 hr 12 min 57 sec)
Heartbeat CPU 0 instructions: 109000671 cycles: 50799272 heartbeat IPC: 1.033 cumulative IPC: 1.677 (Simulation time: 00 hr 13 min 03 sec)
Heartbeat CPU 0 instructions: 109500672 cycles: 51025885 heartbeat IPC: 2.206 cumulative IPC: 1.681 (Simulation time: 00 hr 13 min 07 sec)
Heartbeat CPU 0 instructions: 110000678 cycles: 51249744 heartbeat IPC: 2.234 cumulative IPC: 1.684 (Simulation time: 00 hr 13 min 10 sec)
Heartbeat CPU 0 instructions: 110500679 cycles: 51463377 heartbeat IPC: 2.34 cumulative IPC: 1.688 (Simulation time: 00 hr 13 min 13 sec)
Heartbeat CPU 0 instructions: 111000682 cycles: 51682014 heartbeat IPC: 2.287 cumulative IPC: 1.692 (Simulation time: 00 hr 13 min 17 sec)
Heartbeat CPU 0 instructions: 111500685 cycles: 51904777 heartbeat IPC: 2.245 cumulative IPC: 1.695 (Simulation time: 00 hr 13 min 20 sec)
Heartbeat CPU 0 instructions: 112000687 cycles: 52137897 heartbeat IPC: 2.145 cumulative IPC: 1.698 (Simulation time: 00 hr 13 min 24 sec)
Heartbeat CPU 0 instructions: 112500691 cycles: 52373815 heartbeat IPC: 2.119 cumulative IPC: 1.701 (Simulation time: 00 hr 13 min 27 sec)
Heartbeat CPU 0 instructions: 113000698 cycles: 52614218 heartbeat IPC: 2.08 cumulative IPC: 1.703 (Simulation time: 00 hr 13 min 31 sec)
Heartbeat CPU 0 instructions: 113500701 cycles: 53015774 heartbeat IPC: 1.245 cumulative IPC: 1.698 (Simulation time: 00 hr 13 min 37 sec)
Heartbeat CPU 0 instructions: 114000708 cycles: 53245322 heartbeat IPC: 2.178 cumulative IPC: 1.701 (Simulation time: 00 hr 13 min 41 sec)
Heartbeat CPU 0 instructions: 114500711 cycles: 53370506 heartbeat IPC: 3.994 cumulative IPC: 1.709 (Simulation time: 00 hr 13 min 43 sec)
Heartbeat CPU 0 instructions: 115000718 cycles: 53505634 heartbeat IPC: 3.7 cumulative IPC: 1.716 (Simulation time: 00 hr 13 min 45 sec)
Heartbeat CPU 0 instructions: 115500719 cycles: 53636169 heartbeat IPC: 3.83 cumulative IPC: 1.723 (Simulation time: 00 hr 13 min 48 sec)
Heartbeat CPU 0 instructions: 116000719 cycles: 53772861 heartbeat IPC: 3.658 cumulative IPC: 1.73 (Simulation time: 00 hr 13 min 50 sec)
Heartbeat CPU 0 instructions: 116500722 cycles: 53902724 heartbeat IPC: 3.85 cumulative IPC: 1.737 (Simulation time: 00 hr 13 min 52 sec)
Heartbeat CPU 0 instructions: 117000722 cycles: 54039925 heartbeat IPC: 3.644 cumulative IPC: 1.744 (Simulation time: 00 hr 13 min 55 sec)
Heartbeat CPU 0 instructions: 117500723 cycles: 54177954 heartbeat IPC: 3.622 cumulative IPC: 1.751 (Simulation time: 00 hr 13 min 57 sec)
Heartbeat CPU 0 instructions: 118000730 cycles: 54357718 heartbeat IPC: 2.781 cumulative IPC: 1.756 (Simulation time: 00 hr 14 min 00 sec)
Heartbeat CPU 0 instructions: 118500730 cycles: 54624024 heartbeat IPC: 1.878 cumulative IPC: 1.757 (Simulation time: 00 hr 14 min 04 sec)
Heartbeat CPU 0 instructions: 119000732 cycles: 54848703 heartbeat IPC: 2.225 cumulative IPC: 1.759 (Simulation time: 00 hr 14 min 07 sec)
Heartbeat CPU 0 instructions: 119500734 cycles: 55064740 heartbeat IPC: 2.314 cumulative IPC: 1.762 (Simulation time: 00 hr 14 min 11 sec)
Heartbeat CPU 0 instructions: 120000737 cycles: 55274387 heartbeat IPC: 2.385 cumulative IPC: 1.766 (Simulation time: 00 hr 14 min 14 sec)
Heartbeat CPU 0 instructions: 120500739 cycles: 55488434 heartbeat IPC: 2.336 cumulative IPC: 1.769 (Simulation time: 00 hr 14 min 17 sec)
Heartbeat CPU 0 instructions: 121000743 cycles: 55716211 heartbeat IPC: 2.195 cumulative IPC: 1.771 (Simulation time: 00 hr 14 min 21 sec)
Heartbeat CPU 0 instructions: 121500748 cycles: 55943322 heartbeat IPC: 2.202 cumulative IPC: 1.773 (Simulation time: 00 hr 14 min 24 sec)
Heartbeat CPU 0 instructions: 122000754 cycles: 56173172 heartbeat IPC: 2.175 cumulative IPC: 1.776 (Simulation time: 00 hr 14 min 28 sec)
Heartbeat CPU 0 instructions: 122500756 cycles: 56417398 heartbeat IPC: 2.047 cumulative IPC: 1.777 (Simulation time: 00 hr 14 min 31 sec)
Heartbeat CPU 0 instructions: 123000758 cycles: 56655989 heartbeat IPC: 2.096 cumulative IPC: 1.779 (Simulation time: 00 hr 14 min 35 sec)
Heartbeat CPU 0 instructions: 123500759 cycles: 56899589 heartbeat IPC: 2.053 cumulative IPC: 1.781 (Simulation time: 00 hr 14 min 39 sec)
Heartbeat CPU 0 instructions: 124000762 cycles: 57140259 heartbeat IPC: 2.078 cumulative IPC: 1.783 (Simulation time: 00 hr 14 min 43 sec)
Heartbeat CPU 0 instructions: 124500765 cycles: 57622508 heartbeat IPC: 1.037 cumulative IPC: 1.774 (Simulation time: 00 hr 14 min 49 sec)
Heartbeat CPU 0 instructions: 125000772 cycles: 58292393 heartbeat IPC: 0.7464 cumulative IPC: 1.758 (Simulation time: 00 hr 14 min 58 sec)
Heartbeat CPU 0 instructions: 125500774 cycles: 58511605 heartbeat IPC: 2.281 cumulative IPC: 1.761 (Simulation time: 00 hr 15 min 02 sec)
Heartbeat CPU 0 instructions: 126000780 cycles: 58671000 heartbeat IPC: 3.137 cumulative IPC: 1.766 (Simulation time: 00 hr 15 min 05 sec)
Heartbeat CPU 0 instructions: 126500785 cycles: 58847648 heartbeat IPC: 2.831 cumulative IPC: 1.77 (Simulation time: 00 hr 15 min 07 sec)
Heartbeat CPU 0 instructions: 127000787 cycles: 59015224 heartbeat IPC: 2.984 cumulative IPC: 1.775 (Simulation time: 00 hr 15 min 10 sec)
Heartbeat CPU 0 instructions: 127500790 cycles: 59189613 heartbeat IPC: 2.867 cumulative IPC: 1.779 (Simulation time: 00 hr 15 min 13 sec)
Heartbeat CPU 0 instructions: 128000790 cycles: 59361625 heartbeat IPC: 2.907 cumulative IPC: 1.783 (Simulation time: 00 hr 15 min 16 sec)
Heartbeat CPU 0 instructions: 128500796 cycles: 59542871 heartbeat IPC: 2.759 cumulative IPC: 1.788 (Simulation time: 00 hr 15 min 19 sec)
Heartbeat CPU 0 instructions: 129000797 cycles: 59718007 heartbeat IPC: 2.855 cumulative IPC: 1.792 (Simulation time: 00 hr 15 min 22 sec)
Heartbeat CPU 0 instructions: 129500799 cycles: 59889587 heartbeat IPC: 2.914 cumulative IPC: 1.796 (Simulation time: 00 hr 15 min 25 sec)
Heartbeat CPU 0 instructions: 130000801 cycles: 60055341 heartbeat IPC: 3.017 cumulative IPC: 1.801 (Simulation time: 00 hr 15 min 27 sec)
Heartbeat CPU 0 instructions: 130500803 cycles: 60227633 heartbeat IPC: 2.902 cumulative IPC: 1.805 (Simulation time: 00 hr 15 min 30 sec)
Heartbeat CPU 0 instructions: 131000804 cycles: 60531326 heartbeat IPC: 1.646 cumulative IPC: 1.804 (Simulation time: 00 hr 15 min 35 sec)
Heartbeat CPU 0 instructions: 131500805 cycles: 61034231 heartbeat IPC: 0.9942 cumulative IPC: 1.795 (Simulation time: 00 hr 15 min 42 sec)
Heartbeat CPU 0 instructions: 132000806 cycles: 61369944 heartbeat IPC: 1.489 cumulative IPC: 1.793 (Simulation time: 00 hr 15 min 47 sec)
Heartbeat CPU 0 instructions: 132500810 cycles: 61597621 heartbeat IPC: 2.196 cumulative IPC: 1.795 (Simulation time: 00 hr 15 min 50 sec)
Heartbeat CPU 0 instructions: 133000813 cycles: 61815772 heartbeat IPC: 2.292 cumulative IPC: 1.797 (Simulation time: 00 hr 15 min 53 sec)
Heartbeat CPU 0 instructions: 133500818 cycles: 62024472 heartbeat IPC: 2.396 cumulative IPC: 1.8 (Simulation time: 00 hr 15 min 57 sec)
Heartbeat CPU 0 instructions: 134000825 cycles: 62241455 heartbeat IPC: 2.304 cumulative IPC: 1.802 (Simulation time: 00 hr 16 min 00 sec)
Heartbeat CPU 0 instructions: 134500828 cycles: 62471183 heartbeat IPC: 2.177 cumulative IPC: 1.804 (Simulation time: 00 hr 16 min 04 sec)
Heartbeat CPU 0 instructions: 135000828 cycles: 62704375 heartbeat IPC: 2.144 cumulative IPC: 1.806 (Simulation time: 00 hr 16 min 07 sec)
Heartbeat CPU 0 instructions: 135500833 cycles: 62928381 heartbeat IPC: 2.232 cumulative IPC: 1.808 (Simulation time: 00 hr 16 min 11 sec)
Heartbeat CPU 0 instructions: 136000839 cycles: 63167012 heartbeat IPC: 2.095 cumulative IPC: 1.809 (Simulation time: 00 hr 16 min 14 sec)
Heartbeat CPU 0 instructions: 136500846 cycles: 63532383 heartbeat IPC: 1.368 cumulative IPC: 1.806 (Simulation time: 00 hr 16 min 20 sec)
Heartbeat CPU 0 instructions: 137000852 cycles: 64009408 heartbeat IPC: 1.048 cumulative IPC: 1.798 (Simulation time: 00 hr 16 min 26 sec)
Heartbeat CPU 0 instructions: 137500859 cycles: 64147307 heartbeat IPC: 3.626 cumulative IPC: 1.803 (Simulation time: 00 hr 16 min 29 sec)
Heartbeat CPU 0 instructions: 138000862 cycles: 64285239 heartbeat IPC: 3.625 cumulative IPC: 1.809 (Simulation time: 00 hr 16 min 31 sec)
Heartbeat CPU 0 instructions: 138500868 cycles: 64416529 heartbeat IPC: 3.808 cumulative IPC: 1.814 (Simulation time: 00 hr 16 min 34 sec)
Heartbeat CPU 0 instructions: 139000871 cycles: 64551017 heartbeat IPC: 3.718 cumulative IPC: 1.819 (Simulation time: 00 hr 16 min 36 sec)
Heartbeat CPU 0 instructions: 139500874 cycles: 64695613 heartbeat IPC: 3.458 cumulative IPC: 1.824 (Simulation time: 00 hr 16 min 39 sec)
Heartbeat CPU 0 instructions: 140000879 cycles: 64846961 heartbeat IPC: 3.304 cumulative IPC: 1.829 (Simulation time: 00 hr 16 min 41 sec)
Heartbeat CPU 0 instructions: 140500879 cycles: 64998220 heartbeat IPC: 3.306 cumulative IPC: 1.833 (Simulation time: 00 hr 16 min 44 sec)
Heartbeat CPU 0 instructions: 141000884 cycles: 65159243 heartbeat IPC: 3.105 cumulative IPC: 1.837 (Simulation time: 00 hr 16 min 46 sec)
Heartbeat CPU 0 instructions: 141500887 cycles: 65322144 heartbeat IPC: 3.069 cumulative IPC: 1.841 (Simulation time: 00 hr 16 min 49 sec)
Heartbeat CPU 0 instructions: 142000890 cycles: 65593612 heartbeat IPC: 1.842 cumulative IPC: 1.841 (Simulation time: 00 hr 16 min 53 sec)
Heartbeat CPU 0 instructions: 142500896 cycles: 65887064 heartbeat IPC: 1.704 cumulative IPC: 1.84 (Simulation time: 00 hr 16 min 57 sec)
Heartbeat CPU 0 instructions: 143000900 cycles: 66109727 heartbeat IPC: 2.246 cumulative IPC: 1.842 (Simulation time: 00 hr 17 min 01 sec)
Heartbeat CPU 0 instructions: 143500901 cycles: 66330368 heartbeat IPC: 2.266 cumulative IPC: 1.844 (Simulation time: 00 hr 17 min 04 sec)
Heartbeat CPU 0 instructions: 144000902 cycles: 66538779 heartbeat IPC: 2.399 cumulative IPC: 1.846 (Simulation time: 00 hr 17 min 07 sec)
Heartbeat CPU 0 instructions: 144500903 cycles: 66758548 heartbeat IPC: 2.275 cumulative IPC: 1.848 (Simulation time: 00 hr 17 min 11 sec)
Heartbeat CPU 0 instructions: 145000904 cycles: 66984360 heartbeat IPC: 2.214 cumulative IPC: 1.85 (Simulation time: 00 hr 17 min 14 sec)
Heartbeat CPU 0 instructions: 145500906 cycles: 67211714 heartbeat IPC: 2.199 cumulative IPC: 1.851 (Simulation time: 00 hr 17 min 18 sec)
Heartbeat CPU 0 instructions: 146000907 cycles: 67480415 heartbeat IPC: 1.861 cumulative IPC: 1.851 (Simulation time: 00 hr 17 min 22 sec)
Heartbeat CPU 0 instructions: 146500910 cycles: 67739568 heartbeat IPC: 1.929 cumulative IPC: 1.852 (Simulation time: 00 hr 17 min 26 sec)
Heartbeat CPU 0 instructions: 147000911 cycles: 67857873 heartbeat IPC: 4.226 cumulative IPC: 1.857 (Simulation time: 00 hr 17 min 28 sec)
Heartbeat CPU 0 instructions: 147500918 cycles: 67979086 heartbeat IPC: 4.125 cumulative IPC: 1.862 (Simulation time: 00 hr 17 min 30 sec)
Heartbeat CPU 0 instructions: 148000921 cycles: 68100399 heartbeat IPC: 4.122 cumulative IPC: 1.868 (Simulation time: 00 hr 17 min 33 sec)
Heartbeat CPU 0 instructions: 148500922 cycles: 68219702 heartbeat IPC: 4.191 cumulative IPC: 1.873 (Simulation time: 00 hr 17 min 35 sec)
Heartbeat CPU 0 instructions: 149000927 cycles: 68341533 heartbeat IPC: 4.104 cumulative IPC: 1.878 (Simulation time: 00 hr 17 min 37 sec)
Heartbeat CPU 0 instructions: 149500927 cycles: 68461344 heartbeat IPC: 4.173 cumulative IPC: 1.883 (Simulation time: 00 hr 17 min 39 sec)
Heartbeat CPU 0 instructions: 150000932 cycles: 68606111 heartbeat IPC: 3.454 cumulative IPC: 1.888 (Simulation time: 00 hr 17 min 42 sec)
Heartbeat CPU 0 instructions: 150500934 cycles: 68807784 heartbeat IPC: 2.479 cumulative IPC: 1.89 (Simulation time: 00 hr 17 min 45 sec)
Heartbeat CPU 0 instructions: 151000939 cycles: 69054494 heartbeat IPC: 2.027 cumulative IPC: 1.89 (Simulation time: 00 hr 17 min 49 sec)
Heartbeat CPU 0 instructions: 151500940 cycles: 69277866 heartbeat IPC: 2.238 cumulative IPC: 1.892 (Simulation time: 00 hr 17 min 52 sec)
Heartbeat CPU 0 instructions: 152000946 cycles: 69499035 heartbeat IPC: 2.261 cumulative IPC: 1.893 (Simulation time: 00 hr 17 min 55 sec)
Heartbeat CPU 0 instructions: 152500949 cycles: 69729831 heartbeat IPC: 2.166 cumulative IPC: 1.895 (Simulation time: 00 hr 17 min 59 sec)
Heartbeat CPU 0 instructions: 153000953 cycles: 69966436 heartbeat IPC: 2.113 cumulative IPC: 1.895 (Simulation time: 00 hr 18 min 03 sec)
Heartbeat CPU 0 instructions: 153500959 cycles: 70206372 heartbeat IPC: 2.084 cumulative IPC: 1.896 (Simulation time: 00 hr 18 min 06 sec)
Heartbeat CPU 0 instructions: 154000964 cycles: 70437656 heartbeat IPC: 2.162 cumulative IPC: 1.897 (Simulation time: 00 hr 18 min 10 sec)
Heartbeat CPU 0 instructions: 154500964 cycles: 70672637 heartbeat IPC: 2.128 cumulative IPC: 1.898 (Simulation time: 00 hr 18 min 14 sec)
Heartbeat CPU 0 instructions: 155000969 cycles: 70916728 heartbeat IPC: 2.048 cumulative IPC: 1.899 (Simulation time: 00 hr 18 min 17 sec)
Heartbeat CPU 0 instructions: 155500969 cycles: 71163857 heartbeat IPC: 2.023 cumulative IPC: 1.9 (Simulation time: 00 hr 18 min 21 sec)
Heartbeat CPU 0 instructions: 156000969 cycles: 71411009 heartbeat IPC: 2.023 cumulative IPC: 1.9 (Simulation time: 00 hr 18 min 25 sec)
Heartbeat CPU 0 instructions: 156500970 cycles: 71628035 heartbeat IPC: 2.304 cumulative IPC: 1.902 (Simulation time: 00 hr 18 min 28 sec)
Heartbeat CPU 0 instructions: 157000977 cycles: 72202287 heartbeat IPC: 0.8707 cumulative IPC: 1.891 (Simulation time: 00 hr 18 min 36 sec)
Heartbeat CPU 0 instructions: 157500977 cycles: 72963067 heartbeat IPC: 0.6572 cumulative IPC: 1.875 (Simulation time: 00 hr 18 min 46 sec)
Heartbeat CPU 0 instructions: 158000977 cycles: 73163155 heartbeat IPC: 2.499 cumulative IPC: 1.877 (Simulation time: 00 hr 18 min 50 sec)
Heartbeat CPU 0 instructions: 158500983 cycles: 73336836 heartbeat IPC: 2.879 cumulative IPC: 1.88 (Simulation time: 00 hr 18 min 52 sec)
Heartbeat CPU 0 instructions: 159000983 cycles: 73514528 heartbeat IPC: 2.814 cumulative IPC: 1.883 (Simulation time: 00 hr 18 min 55 sec)
Heartbeat CPU 0 instructions: 159500983 cycles: 73686437 heartbeat IPC: 2.909 cumulative IPC: 1.886 (Simulation time: 00 hr 18 min 58 sec)
Heartbeat CPU 0 instructions: 160000988 cycles: 73864887 heartbeat IPC: 2.802 cumulative IPC: 1.889 (Simulation time: 00 hr 19 min 01 sec)
Heartbeat CPU 0 instructions: 160500990 cycles: 74055378 heartbeat IPC: 2.625 cumulative IPC: 1.891 (Simulation time: 00 hr 19 min 04 sec)
Heartbeat CPU 0 instructions: 161000997 cycles: 74240232 heartbeat IPC: 2.705 cumulative IPC: 1.894 (Simulation time: 00 hr 19 min 07 sec)
Heartbeat CPU 0 instructions: 161500999 cycles: 74409459 heartbeat IPC: 2.955 cumulative IPC: 1.897 (Simulation time: 00 hr 19 min 10 sec)
Heartbeat CPU 0 instructions: 162000999 cycles: 74591185 heartbeat IPC: 2.751 cumulative IPC: 1.899 (Simulation time: 00 hr 19 min 13 sec)
Heartbeat CPU 0 instructions: 162501000 cycles: 74767145 heartbeat IPC: 2.842 cumulative IPC: 1.902 (Simulation time: 00 hr 19 min 16 sec)
Heartbeat CPU 0 instructions: 163001005 cycles: 74941087 heartbeat IPC: 2.875 cumulative IPC: 1.905 (Simulation time: 00 hr 19 min 19 sec)
Heartbeat CPU 0 instructions: 163501006 cycles: 75123383 heartbeat IPC: 2.743 cumulative IPC: 1.908 (Simulation time: 00 hr 19 min 22 sec)
Heartbeat CPU 0 instructions: 164001012 cycles: 75499561 heartbeat IPC: 1.329 cumulative IPC: 1.904 (Simulation time: 00 hr 19 min 27 sec)
Heartbeat CPU 0 instructions: 164501012 cycles: 76089103 heartbeat IPC: 0.8481 cumulative IPC: 1.894 (Simulation time: 00 hr 19 min 35 sec)
Heartbeat CPU 0 instructions: 165001015 cycles: 76467087 heartbeat IPC: 1.323 cumulative IPC: 1.89 (Simulation time: 00 hr 19 min 41 sec)
Heartbeat CPU 0 instructions: 165501015 cycles: 76691444 heartbeat IPC: 2.229 cumulative IPC: 1.891 (Simulation time: 00 hr 19 min 44 sec)
Heartbeat CPU 0 instructions: 166001018 cycles: 76914897 heartbeat IPC: 2.238 cumulative IPC: 1.893 (Simulation time: 00 hr 19 min 48 sec)
Heartbeat CPU 0 instructions: 166501024 cycles: 77122360 heartbeat IPC: 2.41 cumulative IPC: 1.894 (Simulation time: 00 hr 19 min 51 sec)
Heartbeat CPU 0 instructions: 167001025 cycles: 77338338 heartbeat IPC: 2.315 cumulative IPC: 1.896 (Simulation time: 00 hr 19 min 54 sec)
Heartbeat CPU 0 instructions: 167501026 cycles: 77564917 heartbeat IPC: 2.207 cumulative IPC: 1.897 (Simulation time: 00 hr 19 min 58 sec)
Heartbeat CPU 0 instructions: 168001027 cycles: 77807123 heartbeat IPC: 2.064 cumulative IPC: 1.898 (Simulation time: 00 hr 20 min 01 sec)
Heartbeat CPU 0 instructions: 168501027 cycles: 78043486 heartbeat IPC: 2.115 cumulative IPC: 1.899 (Simulation time: 00 hr 20 min 05 sec)
Heartbeat CPU 0 instructions: 169001029 cycles: 78272347 heartbeat IPC: 2.185 cumulative IPC: 1.9 (Simulation time: 00 hr 20 min 09 sec)
Heartbeat CPU 0 instructions: 169501035 cycles: 78500396 heartbeat IPC: 2.193 cumulative IPC: 1.901 (Simulation time: 00 hr 20 min 12 sec)
Heartbeat CPU 0 instructions: 170001036 cycles: 78730009 heartbeat IPC: 2.178 cumulative IPC: 1.902 (Simulation time: 00 hr 20 min 16 sec)
Heartbeat CPU 0 instructions: 170501040 cycles: 78960593 heartbeat IPC: 2.168 cumulative IPC: 1.903 (Simulation time: 00 hr 20 min 19 sec)
Heartbeat CPU 0 instructions: 171001041 cycles: 79194770 heartbeat IPC: 2.135 cumulative IPC: 1.903 (Simulation time: 00 hr 20 min 23 sec)
Heartbeat CPU 0 instructions: 171501047 cycles: 79577246 heartbeat IPC: 1.307 cumulative IPC: 1.9 (Simulation time: 00 hr 20 min 28 sec)
Heartbeat CPU 0 instructions: 172001053 cycles: 80247777 heartbeat IPC: 0.7457 cumulative IPC: 1.888 (Simulation time: 00 hr 20 min 38 sec)
Heartbeat CPU 0 instructions: 172501055 cycles: 80870049 heartbeat IPC: 0.8035 cumulative IPC: 1.878 (Simulation time: 00 hr 20 min 46 sec)
Heartbeat CPU 0 instructions: 173001062 cycles: 81047859 heartbeat IPC: 2.812 cumulative IPC: 1.88 (Simulation time: 00 hr 20 min 49 sec)
Heartbeat CPU 0 instructions: 173501062 cycles: 81229897 heartbeat IPC: 2.747 cumulative IPC: 1.883 (Simulation time: 00 hr 20 min 52 sec)
Heartbeat CPU 0 instructions: 174001063 cycles: 81406936 heartbeat IPC: 2.824 cumulative IPC: 1.885 (Simulation time: 00 hr 20 min 55 sec)
Heartbeat CPU 0 instructions: 174501064 cycles: 81585363 heartbeat IPC: 2.802 cumulative IPC: 1.888 (Simulation time: 00 hr 20 min 58 sec)
Heartbeat CPU 0 instructions: 175001064 cycles: 81771622 heartbeat IPC: 2.684 cumulative IPC: 1.89 (Simulation time: 00 hr 21 min 01 sec)
Heartbeat CPU 0 instructions: 175501064 cycles: 81961111 heartbeat IPC: 2.639 cumulative IPC: 1.892 (Simulation time: 00 hr 21 min 04 sec)
Heartbeat CPU 0 instructions: 176001065 cycles: 82140792 heartbeat IPC: 2.783 cumulative IPC: 1.894 (Simulation time: 00 hr 21 min 07 sec)
Heartbeat CPU 0 instructions: 176501065 cycles: 82310615 heartbeat IPC: 2.944 cumulative IPC: 1.897 (Simulation time: 00 hr 21 min 10 sec)
Heartbeat CPU 0 instructions: 177001066 cycles: 82497097 heartbeat IPC: 2.681 cumulative IPC: 1.899 (Simulation time: 00 hr 21 min 13 sec)
Heartbeat CPU 0 instructions: 177501073 cycles: 82690392 heartbeat IPC: 2.587 cumulative IPC: 1.901 (Simulation time: 00 hr 21 min 16 sec)
Heartbeat CPU 0 instructions: 178001076 cycles: 82879720 heartbeat IPC: 2.641 cumulative IPC: 1.903 (Simulation time: 00 hr 21 min 19 sec)
Heartbeat CPU 0 instructions: 178501080 cycles: 83060847 heartbeat IPC: 2.761 cumulative IPC: 1.906 (Simulation time: 00 hr 21 min 22 sec)
Heartbeat CPU 0 instructions: 179001085 cycles: 83237075 heartbeat IPC: 2.837 cumulative IPC: 1.908 (Simulation time: 00 hr 21 min 25 sec)
Heartbeat CPU 0 instructions: 179501085 cycles: 83760634 heartbeat IPC: 0.955 cumulative IPC: 1.901 (Simulation time: 00 hr 21 min 32 sec)
Heartbeat CPU 0 instructions: 180001092 cycles: 84450721 heartbeat IPC: 0.7246 cumulative IPC: 1.889 (Simulation time: 00 hr 21 min 42 sec)
Heartbeat CPU 0 instructions: 180501096 cycles: 84758276 heartbeat IPC: 1.626 cumulative IPC: 1.888 (Simulation time: 00 hr 21 min 46 sec)
Heartbeat CPU 0 instructions: 181001102 cycles: 84979790 heartbeat IPC: 2.257 cumulative IPC: 1.889 (Simulation time: 00 hr 21 min 50 sec)
Heartbeat CPU 0 instructions: 181501102 cycles: 85206759 heartbeat IPC: 2.203 cumulative IPC: 1.89 (Simulation time: 00 hr 21 min 53 sec)
Heartbeat CPU 0 instructions: 182001108 cycles: 85427582 heartbeat IPC: 2.264 cumulative IPC: 1.891 (Simulation time: 00 hr 21 min 56 sec)
Heartbeat CPU 0 instructions: 182501108 cycles: 85652285 heartbeat IPC: 2.225 cumulative IPC: 1.892 (Simulation time: 00 hr 22 min 00 sec)
Heartbeat CPU 0 instructions: 183001110 cycles: 85873567 heartbeat IPC: 2.26 cumulative IPC: 1.893 (Simulation time: 00 hr 22 min 03 sec)
Heartbeat CPU 0 instructions: 183501115 cycles: 86104786 heartbeat IPC: 2.162 cumulative IPC: 1.894 (Simulation time: 00 hr 22 min 07 sec)
Heartbeat CPU 0 instructions: 184001116 cycles: 86338626 heartbeat IPC: 2.138 cumulative IPC: 1.895 (Simulation time: 00 hr 22 min 11 sec)
Heartbeat CPU 0 instructions: 184501122 cycles: 86571168 heartbeat IPC: 2.15 cumulative IPC: 1.896 (Simulation time: 00 hr 22 min 14 sec)
Heartbeat CPU 0 instructions: 185001125 cycles: 86829856 heartbeat IPC: 1.933 cumulative IPC: 1.896 (Simulation time: 00 hr 22 min 18 sec)
Heartbeat CPU 0 instructions: 185501130 cycles: 87290245 heartbeat IPC: 1.086 cumulative IPC: 1.891 (Simulation time: 00 hr 22 min 25 sec)
Heartbeat CPU 0 instructions: 186001133 cycles: 87648113 heartbeat IPC: 1.397 cumulative IPC: 1.888 (Simulation time: 00 hr 22 min 30 sec)
Heartbeat CPU 0 instructions: 186501140 cycles: 87800816 heartbeat IPC: 3.274 cumulative IPC: 1.891 (Simulation time: 00 hr 22 min 32 sec)
Heartbeat CPU 0 instructions: 187001147 cycles: 87932125 heartbeat IPC: 3.808 cumulative IPC: 1.895 (Simulation time: 00 hr 22 min 35 sec)
Heartbeat CPU 0 instructions: 187501154 cycles: 88082162 heartbeat IPC: 3.333 cumulative IPC: 1.898 (Simulation time: 00 hr 22 min 37 sec)
Heartbeat CPU 0 instructions: 188001161 cycles: 88249329 heartbeat IPC: 2.991 cumulative IPC: 1.9 (Simulation time: 00 hr 22 min 40 sec)
Heartbeat CPU 0 instructions: 188501162 cycles: 88405163 heartbeat IPC: 3.209 cumulative IPC: 1.903 (Simulation time: 00 hr 22 min 43 sec)
Heartbeat CPU 0 instructions: 189001162 cycles: 88552611 heartbeat IPC: 3.391 cumulative IPC: 1.906 (Simulation time: 00 hr 22 min 45 sec)
Heartbeat CPU 0 instructions: 189501168 cycles: 88715967 heartbeat IPC: 3.061 cumulative IPC: 1.909 (Simulation time: 00 hr 22 min 48 sec)
Heartbeat CPU 0 instructions: 190001174 cycles: 88873995 heartbeat IPC: 3.164 cumulative IPC: 1.911 (Simulation time: 00 hr 22 min 51 sec)
Heartbeat CPU 0 instructions: 190501175 cycles: 89029318 heartbeat IPC: 3.219 cumulative IPC: 1.914 (Simulation time: 00 hr 22 min 53 sec)
Heartbeat CPU 0 instructions: 191001181 cycles: 89296800 heartbeat IPC: 1.869 cumulative IPC: 1.914 (Simulation time: 00 hr 22 min 57 sec)
Heartbeat CPU 0 instructions: 191501188 cycles: 89672667 heartbeat IPC: 1.33 cumulative IPC: 1.911 (Simulation time: 00 hr 23 min 03 sec)
Heartbeat CPU 0 instructions: 192001191 cycles: 89902185 heartbeat IPC: 2.178 cumulative IPC: 1.912 (Simulation time: 00 hr 23 min 06 sec)
Heartbeat CPU 0 instructions: 192501193 cycles: 90121197 heartbeat IPC: 2.283 cumulative IPC: 1.913 (Simulation time: 00 hr 23 min 10 sec)
Heartbeat CPU 0 instructions: 193001200 cycles: 90337389 heartbeat IPC: 2.313 cumulative IPC: 1.914 (Simulation time: 00 hr 23 min 13 sec)
Heartbeat CPU 0 instructions: 193501207 cycles: 90556702 heartbeat IPC: 2.28 cumulative IPC: 1.915 (Simulation time: 00 hr 23 min 16 sec)
Heartbeat CPU 0 instructions: 194001213 cycles: 90781860 heartbeat IPC: 2.221 cumulative IPC: 1.916 (Simulation time: 00 hr 23 min 20 sec)
Heartbeat CPU 0 instructions: 194501218 cycles: 91017737 heartbeat IPC: 2.12 cumulative IPC: 1.917 (Simulation time: 00 hr 23 min 23 sec)
Heartbeat CPU 0 instructions: 195001223 cycles: 91243971 heartbeat IPC: 2.21 cumulative IPC: 1.918 (Simulation time: 00 hr 23 min 27 sec)
Heartbeat CPU 0 instructions: 195501230 cycles: 91475826 heartbeat IPC: 2.157 cumulative IPC: 1.918 (Simulation time: 00 hr 23 min 31 sec)
Heartbeat CPU 0 instructions: 196001237 cycles: 91722074 heartbeat IPC: 2.031 cumulative IPC: 1.919 (Simulation time: 00 hr 23 min 34 sec)
Heartbeat CPU 0 instructions: 196501238 cycles: 91989684 heartbeat IPC: 1.868 cumulative IPC: 1.918 (Simulation time: 00 hr 23 min 39 sec)
Heartbeat CPU 0 instructions: 197001240 cycles: 92505888 heartbeat IPC: 0.9686 cumulative IPC: 1.912 (Simulation time: 00 hr 23 min 46 sec)
Heartbeat CPU 0 instructions: 197501243 cycles: 92912241 heartbeat IPC: 1.23 cumulative IPC: 1.909 (Simulation time: 00 hr 23 min 52 sec)
Heartbeat CPU 0 instructions: 198001250 cycles: 93044765 heartbeat IPC: 3.773 cumulative IPC: 1.912 (Simulation time: 00 hr 23 min 54 sec)
Heartbeat CPU 0 instructions: 198501251 cycles: 93211215 heartbeat IPC: 3.004 cumulative IPC: 1.914 (Simulation time: 00 hr 23 min 57 sec)
Heartbeat CPU 0 instructions: 199001257 cycles: 93368588 heartbeat IPC: 3.177 cumulative IPC: 1.917 (Simulation time: 00 hr 23 min 59 sec)
Heartbeat CPU 0 instructions: 199501257 cycles: 93530818 heartbeat IPC: 3.082 cumulative IPC: 1.919 (Simulation time: 00 hr 24 min 02 sec)
Heartbeat CPU 0 instructions: 200001257 cycles: 93692859 heartbeat IPC: 3.086 cumulative IPC: 1.921 (Simulation time: 00 hr 24 min 05 sec)
Heartbeat CPU 0 instructions: 200501264 cycles: 93850710 heartbeat IPC: 3.168 cumulative IPC: 1.924 (Simulation time: 00 hr 24 min 08 sec)
Heartbeat CPU 0 instructions: 201001264 cycles: 94012039 heartbeat IPC: 3.099 cumulative IPC: 1.926 (Simulation time: 00 hr 24 min 10 sec)
Heartbeat CPU 0 instructions: 201501270 cycles: 94167228 heartbeat IPC: 3.222 cumulative IPC: 1.929 (Simulation time: 00 hr 24 min 13 sec)
Heartbeat CPU 0 instructions: 202001273 cycles: 94335761 heartbeat IPC: 2.967 cumulative IPC: 1.931 (Simulation time: 00 hr 24 min 16 sec)
Heartbeat CPU 0 instructions: 202501275 cycles: 94545578 heartbeat IPC: 2.383 cumulative IPC: 1.932 (Simulation time: 00 hr 24 min 19 sec)
Heartbeat CPU 0 instructions: 203001275 cycles: 94935419 heartbeat IPC: 1.283 cumulative IPC: 1.929 (Simulation time: 00 hr 24 min 25 sec)
Heartbeat CPU 0 instructions: 203501277 cycles: 95219882 heartbeat IPC: 1.758 cumulative IPC: 1.929 (Simulation time: 00 hr 24 min 29 sec)
Heartbeat CPU 0 instructions: 204001282 cycles: 95441273 heartbeat IPC: 2.258 cumulative IPC: 1.929 (Simulation time: 00 hr 24 min 32 sec)
Heartbeat CPU 0 instructions: 204501282 cycles: 95663140 heartbeat IPC: 2.254 cumulative IPC: 1.93 (Simulation time: 00 hr 24 min 36 sec)
Heartbeat CPU 0 instructions: 205001284 cycles: 95883765 heartbeat IPC: 2.266 cumulative IPC: 1.931 (Simulation time: 00 hr 24 min 39 sec)
Heartbeat CPU 0 instructions: 205501291 cycles: 96096210 heartbeat IPC: 2.354 cumulative IPC: 1.932 (Simulation time: 00 hr 24 min 42 sec)
Heartbeat CPU 0 instructions: 206001291 cycles: 96314552 heartbeat IPC: 2.29 cumulative IPC: 1.933 (Simulation time: 00 hr 24 min 46 sec)
Heartbeat CPU 0 instructions: 206501293 cycles: 96541806 heartbeat IPC: 2.2 cumulative IPC: 1.934 (Simulation time: 00 hr 24 min 49 sec)
Heartbeat CPU 0 instructions: 207001300 cycles: 96780121 heartbeat IPC: 2.098 cumulative IPC: 1.935 (Simulation time: 00 hr 24 min 53 sec)
Heartbeat CPU 0 instructions: 207501300 cycles: 97013056 heartbeat IPC: 2.147 cumulative IPC: 1.935 (Simulation time: 00 hr 24 min 57 sec)
Heartbeat CPU 0 instructions: 208001300 cycles: 97257179 heartbeat IPC: 2.048 cumulative IPC: 1.936 (Simulation time: 00 hr 25 min 00 sec)
Heartbeat CPU 0 instructions: 208501304 cycles: 97581781 heartbeat IPC: 1.54 cumulative IPC: 1.934 (Simulation time: 00 hr 25 min 05 sec)
Heartbeat CPU 0 instructions: 209001308 cycles: 98155918 heartbeat IPC: 0.8709 cumulative IPC: 1.927 (Simulation time: 00 hr 25 min 13 sec)
Heartbeat CPU 0 instructions: 209501311 cycles: 98464161 heartbeat IPC: 1.622 cumulative IPC: 1.925 (Simulation time: 00 hr 25 min 18 sec)
Heartbeat CPU 0 instructions: 210001316 cycles: 98629803 heartbeat IPC: 3.019 cumulative IPC: 1.928 (Simulation time: 00 hr 25 min 20 sec)
Heartbeat CPU 0 instructions: 210501316 cycles: 98782033 heartbeat IPC: 3.285 cumulative IPC: 1.93 (Simulation time: 00 hr 25 min 23 sec)
Heartbeat CPU 0 instructions: 211001321 cycles: 98941650 heartbeat IPC: 3.133 cumulative IPC: 1.932 (Simulation time: 00 hr 25 min 26 sec)
Heartbeat CPU 0 instructions: 211501321 cycles: 99096812 heartbeat IPC: 3.222 cumulative IPC: 1.935 (Simulation time: 00 hr 25 min 28 sec)
Heartbeat CPU 0 instructions: 212001323 cycles: 99253364 heartbeat IPC: 3.194 cumulative IPC: 1.937 (Simulation time: 00 hr 25 min 31 sec)
Heartbeat CPU 0 instructions: 212501323 cycles: 99412241 heartbeat IPC: 3.147 cumulative IPC: 1.939 (Simulation time: 00 hr 25 min 34 sec)
Heartbeat CPU 0 instructions: 213001323 cycles: 99580877 heartbeat IPC: 2.965 cumulative IPC: 1.942 (Simulation time: 00 hr 25 min 36 sec)
Heartbeat CPU 0 instructions: 213501326 cycles: 99731672 heartbeat IPC: 3.316 cumulative IPC: 1.944 (Simulation time: 00 hr 25 min 39 sec)
Heartbeat CPU 0 instructions: 214001327 cycles: 99894104 heartbeat IPC: 3.078 cumulative IPC: 1.946 (Simulation time: 00 hr 25 min 42 sec)
Heartbeat CPU 0 instructions: 214501330 cycles: 100122247 heartbeat IPC: 2.192 cumulative IPC: 1.947 (Simulation time: 00 hr 25 min 45 sec)
Heartbeat CPU 0 instructions: 215001332 cycles: 100516255 heartbeat IPC: 1.269 cumulative IPC: 1.944 (Simulation time: 00 hr 25 min 51 sec)
Heartbeat CPU 0 instructions: 215501332 cycles: 100846464 heartbeat IPC: 1.514 cumulative IPC: 1.942 (Simulation time: 00 hr 25 min 56 sec)
Heartbeat CPU 0 instructions: 216001333 cycles: 101074070 heartbeat IPC: 2.197 cumulative IPC: 1.943 (Simulation time: 00 hr 25 min 59 sec)
Heartbeat CPU 0 instructions: 216501337 cycles: 101294323 heartbeat IPC: 2.27 cumulative IPC: 1.944 (Simulation time: 00 hr 26 min 03 sec)
Heartbeat CPU 0 instructions: 217001340 cycles: 101505757 heartbeat IPC: 2.365 cumulative IPC: 1.945 (Simulation time: 00 hr 26 min 06 sec)
Heartbeat CPU 0 instructions: 217501345 cycles: 101725674 heartbeat IPC: 2.274 cumulative IPC: 1.945 (Simulation time: 00 hr 26 min 09 sec)
Heartbeat CPU 0 instructions: 218001350 cycles: 101942574 heartbeat IPC: 2.305 cumulative IPC: 1.946 (Simulation time: 00 hr 26 min 13 sec)
Heartbeat CPU 0 instructions: 218501356 cycles: 102177216 heartbeat IPC: 2.131 cumulative IPC: 1.947 (Simulation time: 00 hr 26 min 16 sec)
Heartbeat CPU 0 instructions: 219001362 cycles: 102416525 heartbeat IPC: 2.089 cumulative IPC: 1.947 (Simulation time: 00 hr 26 min 20 sec)
Heartbeat CPU 0 instructions: 219501365 cycles: 102662025 heartbeat IPC: 2.037 cumulative IPC: 1.948 (Simulation time: 00 hr 26 min 24 sec)
Heartbeat CPU 0 instructions: 220001371 cycles: 102898317 heartbeat IPC: 2.116 cumulative IPC: 1.948 (Simulation time: 00 hr 26 min 27 sec)
Heartbeat CPU 0 instructions: 220501372 cycles: 103294348 heartbeat IPC: 1.263 cumulative IPC: 1.945 (Simulation time: 00 hr 26 min 33 sec)
Heartbeat CPU 0 instructions: 221001373 cycles: 103856485 heartbeat IPC: 0.8895 cumulative IPC: 1.938 (Simulation time: 00 hr 26 min 41 sec)
Heartbeat CPU 0 instructions: 221501374 cycles: 104015029 heartbeat IPC: 3.154 cumulative IPC: 1.94 (Simulation time: 00 hr 26 min 43 sec)
Heartbeat CPU 0 instructions: 222001374 cycles: 104173371 heartbeat IPC: 3.158 cumulative IPC: 1.942 (Simulation time: 00 hr 26 min 46 sec)
Heartbeat CPU 0 instructions: 222501376 cycles: 104321113 heartbeat IPC: 3.384 cumulative IPC: 1.945 (Simulation time: 00 hr 26 min 49 sec)
Heartbeat CPU 0 instructions: 223001376 cycles: 104464426 heartbeat IPC: 3.489 cumulative IPC: 1.947 (Simulation time: 00 hr 26 min 51 sec)
Heartbeat CPU 0 instructions: 223501383 cycles: 104628841 heartbeat IPC: 3.041 cumulative IPC: 1.949 (Simulation time: 00 hr 26 min 54 sec)
Heartbeat CPU 0 instructions: 224001388 cycles: 104785906 heartbeat IPC: 3.183 cumulative IPC: 1.952 (Simulation time: 00 hr 26 min 56 sec)
Heartbeat CPU 0 instructions: 224501394 cycles: 104940735 heartbeat IPC: 3.229 cumulative IPC: 1.954 (Simulation time: 00 hr 26 min 59 sec)
Heartbeat CPU 0 instructions: 225001394 cycles: 105090103 heartbeat IPC: 3.347 cumulative IPC: 1.956 (Simulation time: 00 hr 27 min 02 sec)
Heartbeat CPU 0 instructions: 225501396 cycles: 105240803 heartbeat IPC: 3.318 cumulative IPC: 1.958 (Simulation time: 00 hr 27 min 04 sec)
Heartbeat CPU 0 instructions: 226001398 cycles: 105413713 heartbeat IPC: 2.892 cumulative IPC: 1.96 (Simulation time: 00 hr 27 min 07 sec)
Heartbeat CPU 0 instructions: 226501401 cycles: 105743635 heartbeat IPC: 1.516 cumulative IPC: 1.959 (Simulation time: 00 hr 27 min 12 sec)
Heartbeat CPU 0 instructions: 227001408 cycles: 106097701 heartbeat IPC: 1.412 cumulative IPC: 1.956 (Simulation time: 00 hr 27 min 17 sec)
Heartbeat CPU 0 instructions: 227501411 cycles: 106326741 heartbeat IPC: 2.183 cumulative IPC: 1.957 (Simulation time: 00 hr 27 min 20 sec)
Heartbeat CPU 0 instructions: 228001412 cycles: 106547398 heartbeat IPC: 2.266 cumulative IPC: 1.958 (Simulation time: 00 hr 27 min 24 sec)
Heartbeat CPU 0 instructions: 228501416 cycles: 106763326 heartbeat IPC: 2.316 cumulative IPC: 1.959 (Simulation time: 00 hr 27 min 27 sec)
Heartbeat CPU 0 instructions: 229001420 cycles: 106975037 heartbeat IPC: 2.362 cumulative IPC: 1.96 (Simulation time: 00 hr 27 min 30 sec)
Heartbeat CPU 0 instructions: 229501424 cycles: 107193767 heartbeat IPC: 2.286 cumulative IPC: 1.96 (Simulation time: 00 hr 27 min 34 sec)
Heartbeat CPU 0 instructions: 230001425 cycles: 107419329 heartbeat IPC: 2.217 cumulative IPC: 1.961 (Simulation time: 00 hr 27 min 37 sec)
Heartbeat CPU 0 instructions: 230501431 cycles: 107661599 heartbeat IPC: 2.064 cumulative IPC: 1.961 (Simulation time: 00 hr 27 min 41 sec)
Heartbeat CPU 0 instructions: 231001437 cycles: 107912365 heartbeat IPC: 1.994 cumulative IPC: 1.961 (Simulation time: 00 hr 27 min 45 sec)
Heartbeat CPU 0 instructions: 231501439 cycles: 108144088 heartbeat IPC: 2.158 cumulative IPC: 1.962 (Simulation time: 00 hr 27 min 48 sec)
Heartbeat CPU 0 instructions: 232001443 cycles: 108460560 heartbeat IPC: 1.58 cumulative IPC: 1.961 (Simulation time: 00 hr 27 min 53 sec)
Heartbeat CPU 0 instructions: 232501448 cycles: 109013847 heartbeat IPC: 0.9037 cumulative IPC: 1.954 (Simulation time: 00 hr 28 min 01 sec)
Heartbeat CPU 0 instructions: 233001448 cycles: 109300643 heartbeat IPC: 1.743 cumulative IPC: 1.954 (Simulation time: 00 hr 28 min 05 sec)
Heartbeat CPU 0 instructions: 233501448 cycles: 109457052 heartbeat IPC: 3.197 cumulative IPC: 1.956 (Simulation time: 00 hr 28 min 08 sec)
Heartbeat CPU 0 instructions: 234001454 cycles: 109624944 heartbeat IPC: 2.978 cumulative IPC: 1.957 (Simulation time: 00 hr 28 min 11 sec)
Heartbeat CPU 0 instructions: 234501461 cycles: 109757329 heartbeat IPC: 3.777 cumulative IPC: 1.96 (Simulation time: 00 hr 28 min 13 sec)
Heartbeat CPU 0 instructions: 235001465 cycles: 109912992 heartbeat IPC: 3.212 cumulative IPC: 1.962 (Simulation time: 00 hr 28 min 16 sec)
Heartbeat CPU 0 instructions: 235501470 cycles: 110074865 heartbeat IPC: 3.089 cumulative IPC: 1.964 (Simulation time: 00 hr 28 min 18 sec)
Heartbeat CPU 0 instructions: 236001472 cycles: 110237033 heartbeat IPC: 3.083 cumulative IPC: 1.966 (Simulation time: 00 hr 28 min 21 sec)
Heartbeat CPU 0 instructions: 236501476 cycles: 110404188 heartbeat IPC: 2.991 cumulative IPC: 1.968 (Simulation time: 00 hr 28 min 24 sec)
Heartbeat CPU 0 instructions: 237001477 cycles: 110561008 heartbeat IPC: 3.188 cumulative IPC: 1.97 (Simulation time: 00 hr 28 min 26 sec)
Heartbeat CPU 0 instructions: 237501481 cycles: 110731387 heartbeat IPC: 2.935 cumulative IPC: 1.972 (Simulation time: 00 hr 28 min 29 sec)
Heartbeat CPU 0 instructions: 238001485 cycles: 111004449 heartbeat IPC: 1.831 cumulative IPC: 1.971 (Simulation time: 00 hr 28 min 33 sec)
Heartbeat CPU 0 instructions: 238501489 cycles: 111408500 heartbeat IPC: 1.237 cumulative IPC: 1.968 (Simulation time: 00 hr 28 min 39 sec)
Heartbeat CPU 0 instructions: 239001492 cycles: 111654180 heartbeat IPC: 2.035 cumulative IPC: 1.968 (Simulation time: 00 hr 28 min 43 sec)
Heartbeat CPU 0 instructions: 239501496 cycles: 111875742 heartbeat IPC: 2.257 cumulative IPC: 1.969 (Simulation time: 00 hr 28 min 46 sec)
Heartbeat CPU 0 instructions: 240001501 cycles: 112081992 heartbeat IPC: 2.424 cumulative IPC: 1.97 (Simulation time: 00 hr 28 min 49 sec)
Heartbeat CPU 0 instructions: 240501504 cycles: 112295149 heartbeat IPC: 2.346 cumulative IPC: 1.971 (Simulation time: 00 hr 28 min 53 sec)
Heartbeat CPU 0 instructions: 241001505 cycles: 112518866 heartbeat IPC: 2.235 cumulative IPC: 1.971 (Simulation time: 00 hr 28 min 56 sec)
Heartbeat CPU 0 instructions: 241501506 cycles: 112746511 heartbeat IPC: 2.196 cumulative IPC: 1.972 (Simulation time: 00 hr 29 min 00 sec)
Heartbeat CPU 0 instructions: 242001510 cycles: 112984613 heartbeat IPC: 2.1 cumulative IPC: 1.972 (Simulation time: 00 hr 29 min 03 sec)
Heartbeat CPU 0 instructions: 242501511 cycles: 113216817 heartbeat IPC: 2.153 cumulative IPC: 1.973 (Simulation time: 00 hr 29 min 07 sec)
Heartbeat CPU 0 instructions: 243001516 cycles: 113455049 heartbeat IPC: 2.099 cumulative IPC: 1.973 (Simulation time: 00 hr 29 min 11 sec)
Heartbeat CPU 0 instructions: 243501517 cycles: 113701661 heartbeat IPC: 2.027 cumulative IPC: 1.973 (Simulation time: 00 hr 29 min 15 sec)
Heartbeat CPU 0 instructions: 244001518 cycles: 113933776 heartbeat IPC: 2.154 cumulative IPC: 1.973 (Simulation time: 00 hr 29 min 18 sec)
Heartbeat CPU 0 instructions: 244501524 cycles: 114408946 heartbeat IPC: 1.052 cumulative IPC: 1.969 (Simulation time: 00 hr 29 min 25 sec)
Heartbeat CPU 0 instructions: 245001526 cycles: 115062909 heartbeat IPC: 0.7646 cumulative IPC: 1.961 (Simulation time: 00 hr 29 min 34 sec)
Heartbeat CPU 0 instructions: 245501532 cycles: 115262004 heartbeat IPC: 2.511 cumulative IPC: 1.962 (Simulation time: 00 hr 29 min 37 sec)
Heartbeat CPU 0 instructions: 246001532 cycles: 115433948 heartbeat IPC: 2.908 cumulative IPC: 1.964 (Simulation time: 00 hr 29 min 40 sec)
Heartbeat CPU 0 instructions: 246501533 cycles: 115605144 heartbeat IPC: 2.921 cumulative IPC: 1.965 (Simulation time: 00 hr 29 min 42 sec)
Heartbeat CPU 0 instructions: 247001538 cycles: 115761439 heartbeat IPC: 3.199 cumulative IPC: 1.967 (Simulation time: 00 hr 29 min 45 sec)
Heartbeat CPU 0 instructions: 247501545 cycles: 115940227 heartbeat IPC: 2.797 cumulative IPC: 1.969 (Simulation time: 00 hr 29 min 48 sec)
Heartbeat CPU 0 instructions: 248001549 cycles: 116107071 heartbeat IPC: 2.997 cumulative IPC: 1.971 (Simulation time: 00 hr 29 min 51 sec)
Heartbeat CPU 0 instructions: 248501554 cycles: 116275589 heartbeat IPC: 2.967 cumulative IPC: 1.972 (Simulation time: 00 hr 29 min 53 sec)
Heartbeat CPU 0 instructions: 249001559 cycles: 116441001 heartbeat IPC: 3.023 cumulative IPC: 1.974 (Simulation time: 00 hr 29 min 56 sec)
Heartbeat CPU 0 instructions: 249501564 cycles: 116610980 heartbeat IPC: 2.942 cumulative IPC: 1.976 (Simulation time: 00 hr 29 min 59 sec)
*** Reached end of trace: (0, "/local-ssd/ben/dpc4-traces/Graph/Ligra/ligra_BFSCC.com-lj.ungraph.gcc_6.3.0_O3.drop_17000M.length_250M.champsimtrace.xz")
Simulation finished CPU 0 instructions: 200000005 cycles: 101151571 cumulative IPC: 1.977 (Simulation time: 00 hr 30 min 02 sec)
Simulation complete CPU 0 instructions: 200000005 cycles: 101151571 cumulative IPC: 1.977 (Simulation time: 00 hr 30 min 02 sec)

ChampSim completed all CPUs

=== Simulation ===
CPU 0 runs /local-ssd/ben/dpc4-traces/Graph/Ligra/ligra_BFSCC.com-lj.ungraph.gcc_6.3.0_O3.drop_17000M.length_250M.champsimtrace.xz

Region of Interest Statistics

CPU 0 cumulative IPC: 1.977 instructions: 200000005 cycles: 101151571
CPU 0 Branch Prediction Accuracy: 99.03% MPKI: 0.9836 Average ROB Occupancy at Mispredict: 148.4
Branch type MPKI
BRANCH_DIRECT_JUMP: 0
BRANCH_INDIRECT: 0
BRANCH_CONDITIONAL: 0.9835
BRANCH_DIRECT_CALL: 0
BRANCH_INDIRECT_CALL: 0
BRANCH_RETURN: 0.000155

cpu0->cpu0_STLB TOTAL        ACCESS:     112249 HIT:      92238 MISS:      20011 MSHR_MERGE:          0
cpu0->cpu0_STLB LOAD         ACCESS:     112249 HIT:      92238 MISS:      20011 MSHR_MERGE:          0
cpu0->cpu0_STLB RFO          ACCESS:          0 HIT:          0 MISS:          0 MSHR_MERGE:          0
cpu0->cpu0_STLB PREFETCH     ACCESS:          0 HIT:          0 MISS:          0 MSHR_MERGE:          0
cpu0->cpu0_STLB WRITE        ACCESS:          0 HIT:          0 MISS:          0 MSHR_MERGE:          0
cpu0->cpu0_STLB TRANSLATION  ACCESS:          0 HIT:          0 MISS:          0 MSHR_MERGE:          0
cpu0->cpu0_STLB PREFETCH REQUESTED:          0 ISSUED:          0 USEFUL:          0 USELESS:          0
cpu0->cpu0_STLB AVERAGE MISS LATENCY: 310.4 cycles
cpu0->cpu0_L2C TOTAL        ACCESS:   17753086 HIT:   11469092 MISS:    6283994 MSHR_MERGE:    2420066
cpu0->cpu0_L2C LOAD         ACCESS:    2283030 HIT:    1973702 MISS:     309328 MSHR_MERGE:     202974
cpu0->cpu0_L2C RFO          ACCESS:    2224640 HIT:     254997 MISS:    1969643 MSHR_MERGE:          8
cpu0->cpu0_L2C PREFETCH     ACCESS:   11004323 HIT:    7002396 MISS:    4001927 MSHR_MERGE:    2217084
cpu0->cpu0_L2C WRITE        ACCESS:    2235462 HIT:    2235452 MISS:         10 MSHR_MERGE:          0
cpu0->cpu0_L2C TRANSLATION  ACCESS:       5631 HIT:       2545 MISS:       3086 MSHR_MERGE:          0
cpu0->cpu0_L2C PREFETCH REQUESTED:   11901012 ISSUED:   10378996 USEFUL:    1462142 USELESS:      89146
cpu0->cpu0_L2C AVERAGE MISS LATENCY: 314.3 cycles
cpu0->cpu0_L1I TOTAL        ACCESS:   22465584 HIT:   22465584 MISS:          0 MSHR_MERGE:          0
cpu0->cpu0_L1I LOAD         ACCESS:   22465584 HIT:   22465584 MISS:          0 MSHR_MERGE:          0
cpu0->cpu0_L1I RFO          ACCESS:          0 HIT:          0 MISS:          0 MSHR_MERGE:          0
cpu0->cpu0_L1I PREFETCH     ACCESS:          0 HIT:          0 MISS:          0 MSHR_MERGE:          0
cpu0->cpu0_L1I WRITE        ACCESS:          0 HIT:          0 MISS:          0 MSHR_MERGE:          0
cpu0->cpu0_L1I TRANSLATION  ACCESS:          0 HIT:          0 MISS:          0 MSHR_MERGE:          0
cpu0->cpu0_L1I PREFETCH REQUESTED:          0 ISSUED:          0 USEFUL:          0 USELESS:          0
cpu0->cpu0_L1I AVERAGE MISS LATENCY: - cycles
cpu0->cpu0_L1D TOTAL        ACCESS:   58814126 HIT:   40697755 MISS:   18116371 MSHR_MERGE:   12977625
cpu0->cpu0_L1D LOAD         ACCESS:   17176639 HIT:   13807220 MISS:    3369419 MSHR_MERGE:    1086382
cpu0->cpu0_L1D RFO          ACCESS:          0 HIT:          0 MISS:          0 MSHR_MERGE:          0
cpu0->cpu0_L1D PREFETCH     ACCESS:    2574406 HIT:    1479084 MISS:    1095322 MSHR_MERGE:     469994
cpu0->cpu0_L1D WRITE        ACCESS:   39024828 HIT:   25380891 MISS:   13643937 MSHR_MERGE:   11419188
cpu0->cpu0_L1D TRANSLATION  ACCESS:      38253 HIT:      30560 MISS:       7693 MSHR_MERGE:       2061
cpu0->cpu0_L1D PREFETCH REQUESTED:   30806832 ISSUED:    2574406 USEFUL:     499207 USELESS:     126117
cpu0->cpu0_L1D AVERAGE MISS LATENCY: 168.6 cycles
cpu0->cpu0_ITLB TOTAL        ACCESS:   22041855 HIT:   22041855 MISS:          0 MSHR_MERGE:          0
cpu0->cpu0_ITLB LOAD         ACCESS:   22041855 HIT:   22041855 MISS:          0 MSHR_MERGE:          0
cpu0->cpu0_ITLB RFO          ACCESS:          0 HIT:          0 MISS:          0 MSHR_MERGE:          0
cpu0->cpu0_ITLB PREFETCH     ACCESS:          0 HIT:          0 MISS:          0 MSHR_MERGE:          0
cpu0->cpu0_ITLB WRITE        ACCESS:          0 HIT:          0 MISS:          0 MSHR_MERGE:          0
cpu0->cpu0_ITLB TRANSLATION  ACCESS:          0 HIT:          0 MISS:          0 MSHR_MERGE:          0
cpu0->cpu0_ITLB PREFETCH REQUESTED:          0 ISSUED:          0 USEFUL:          0 USELESS:          0
cpu0->cpu0_ITLB AVERAGE MISS LATENCY: - cycles
cpu0->cpu0_DTLB TOTAL        ACCESS:   53115676 HIT:   52722855 MISS:     392821 MSHR_MERGE:     280572
cpu0->cpu0_DTLB LOAD         ACCESS:   53115676 HIT:   52722855 MISS:     392821 MSHR_MERGE:     280572
cpu0->cpu0_DTLB RFO          ACCESS:          0 HIT:          0 MISS:          0 MSHR_MERGE:          0
cpu0->cpu0_DTLB PREFETCH     ACCESS:          0 HIT:          0 MISS:          0 MSHR_MERGE:          0
cpu0->cpu0_DTLB WRITE        ACCESS:          0 HIT:          0 MISS:          0 MSHR_MERGE:          0
cpu0->cpu0_DTLB TRANSLATION  ACCESS:          0 HIT:          0 MISS:          0 MSHR_MERGE:          0
cpu0->cpu0_DTLB PREFETCH REQUESTED:          0 ISSUED:          0 USEFUL:          0 USELESS:          0
cpu0->cpu0_DTLB AVERAGE MISS LATENCY: 60.51 cycles
cpu0->LLC TOTAL        ACCESS:    7744057 HIT:    3265909 MISS:    4478148 MSHR_MERGE:     489797
cpu0->LLC LOAD         ACCESS:     106353 HIT:      69167 MISS:      37186 MSHR_MERGE:       5743
cpu0->LLC RFO          ACCESS:    1969634 HIT:     637358 MISS:    1332276 MSHR_MERGE:         32
cpu0->LLC PREFETCH     ACCESS:    3595456 HIT:    1835379 MISS:    1760077 MSHR_MERGE:     484022
cpu0->LLC WRITE        ACCESS:    2069528 HIT:     724000 MISS:    1345528 MSHR_MERGE:          0
cpu0->LLC TRANSLATION  ACCESS:       3086 HIT:          5 MISS:       3081 MSHR_MERGE:          0
cpu0->LLC PREFETCH REQUESTED:    1831063 ISSUED:    1810613 USEFUL:     639949 USELESS:     403885
cpu0->LLC AVERAGE MISS LATENCY: 239 cycles

DRAM Statistics

Channel 0 RQ ROW_BUFFER_HIT:     224630
  ROW_BUFFER_MISS:    2415722
  AVG DBUS CONGESTED CYCLE: 12.13
Channel 0 WQ ROW_BUFFER_HIT:     158059
  ROW_BUFFER_MISS:    1536359
  FULL:     325372
Channel 0 REFRESHES ISSUED:       8428
