[VMEM] WARNING: physical memory size is smaller than virtual memory size.

*** ChampSim Multicore Out-of-Order Simulator ***
Warmup Instructions: 50000000
Simulation Instructions: 200000000
Number of CPUs: 1
Page size: 4096
Core 0: /local-ssd/ben/dpc4-traces/Graph/Ligra/ligra_CF.com-lj.ungraph.gcc_6.3.0_O3.drop_154750M.length_250M.champsimtrace.xz
Off-chip DRAM Size: 64 GiB Channels: 1 Width: 64-bit Data Rate: 4807 MT/s
Heartbeat CPU 0 instructions: 500005 cycles: 178333 heartbeat IPC: 2.804 cumulative IPC: 2.804 (Simulation time: 00 hr 00 min 05 sec)
Heartbeat CPU 0 instructions: 1000006 cycles: 314067 heartbeat IPC: 3.684 cumulative IPC: 3.184 (Simulation time: 00 hr 00 min 09 sec)
Heartbeat CPU 0 instructions: 1500010 cycles: 483826 heartbeat IPC: 2.945 cumulative IPC: 3.1 (Simulation time: 00 hr 00 min 13 sec)
Heartbeat CPU 0 instructions: 2000014 cycles: 648665 heartbeat IPC: 3.033 cumulative IPC: 3.083 (Simulation time: 00 hr 00 min 17 sec)
Heartbeat CPU 0 instructions: 2500021 cycles: 779636 heartbeat IPC: 3.818 cumulative IPC: 3.207 (Simulation time: 00 hr 00 min 20 sec)
Heartbeat CPU 0 instructions: 3000026 cycles: 908914 heartbeat IPC: 3.868 cumulative IPC: 3.301 (Simulation time: 00 hr 00 min 23 sec)
Heartbeat CPU 0 instructions: 3500026 cycles: 1045388 heartbeat IPC: 3.664 cumulative IPC: 3.348 (Simulation time: 00 hr 00 min 27 sec)
Heartbeat CPU 0 instructions: 4000026 cycles: 1193998 heartbeat IPC: 3.365 cumulative IPC: 3.35 (Simulation time: 00 hr 00 min 31 sec)
Heartbeat CPU 0 instructions: 4500026 cycles: 1365436 heartbeat IPC: 2.917 cumulative IPC: 3.296 (Simulation time: 00 hr 00 min 35 sec)
Heartbeat CPU 0 instructions: 5000030 cycles: 1515918 heartbeat IPC: 3.323 cumulative IPC: 3.298 (Simulation time: 00 hr 00 min 37 sec)
Heartbeat CPU 0 instructions: 5500035 cycles: 1642350 heartbeat IPC: 3.955 cumulative IPC: 3.349 (Simulation time: 00 hr 00 min 39 sec)
Heartbeat CPU 0 instructions: 6000038 cycles: 1770192 heartbeat IPC: 3.911 cumulative IPC: 3.389 (Simulation time: 00 hr 00 min 42 sec)
Heartbeat CPU 0 instructions: 6500042 cycles: 1928025 heartbeat IPC: 3.168 cumulative IPC: 3.371 (Simulation time: 00 hr 00 min 44 sec)
Heartbeat CPU 0 instructions: 7000042 cycles: 2099124 heartbeat IPC: 2.922 cumulative IPC: 3.335 (Simulation time: 00 hr 00 min 48 sec)
Heartbeat CPU 0 instructions: 7500043 cycles: 2261316 heartbeat IPC: 3.083 cumulative IPC: 3.317 (Simulation time: 00 hr 00 min 51 sec)
Heartbeat CPU 0 instructions: 8000050 cycles: 2416753 heartbeat IPC: 3.217 cumulative IPC: 3.31 (Simulation time: 00 hr 00 min 54 sec)
Heartbeat CPU 0 instructions: 8500054 cycles: 2571373 heartbeat IPC: 3.234 cumulative IPC: 3.306 (Simulation time: 00 hr 00 min 56 sec)
Heartbeat CPU 0 instructions: 9000054 cycles: 2718689 heartbeat IPC: 3.394 cumulative IPC: 3.31 (Simulation time: 00 hr 00 min 59 sec)
Heartbeat CPU 0 instructions: 9500058 cycles: 2870588 heartbeat IPC: 3.292 cumulative IPC: 3.309 (Simulation time: 00 hr 01 min 02 sec)
Heartbeat CPU 0 instructions: 10000062 cycles: 3020939 heartbeat IPC: 3.326 cumulative IPC: 3.31 (Simulation time: 00 hr 01 min 05 sec)
Heartbeat CPU 0 instructions: 10500066 cycles: 3157916 heartbeat IPC: 3.65 cumulative IPC: 3.325 (Simulation time: 00 hr 01 min 07 sec)
Heartbeat CPU 0 instructions: 11000070 cycles: 3292453 heartbeat IPC: 3.716 cumulative IPC: 3.341 (Simulation time: 00 hr 01 min 10 sec)
Heartbeat CPU 0 instructions: 11500074 cycles: 3426353 heartbeat IPC: 3.734 cumulative IPC: 3.356 (Simulation time: 00 hr 01 min 12 sec)
Heartbeat CPU 0 instructions: 12000078 cycles: 3556251 heartbeat IPC: 3.849 cumulative IPC: 3.374 (Simulation time: 00 hr 01 min 14 sec)
Heartbeat CPU 0 instructions: 12500082 cycles: 3691383 heartbeat IPC: 3.7 cumulative IPC: 3.386 (Simulation time: 00 hr 01 min 17 sec)
Heartbeat CPU 0 instructions: 13000084 cycles: 3836344 heartbeat IPC: 3.449 cumulative IPC: 3.389 (Simulation time: 00 hr 01 min 19 sec)
Heartbeat CPU 0 instructions: 13500086 cycles: 3978801 heartbeat IPC: 3.51 cumulative IPC: 3.393 (Simulation time: 00 hr 01 min 22 sec)
Heartbeat CPU 0 instructions: 14000088 cycles: 4112292 heartbeat IPC: 3.746 cumulative IPC: 3.404 (Simulation time: 00 hr 01 min 24 sec)
Heartbeat CPU 0 instructions: 14500089 cycles: 4232431 heartbeat IPC: 4.162 cumulative IPC: 3.426 (Simulation time: 00 hr 01 min 26 sec)
Heartbeat CPU 0 instructions: 15000089 cycles: 4349457 heartbeat IPC: 4.273 cumulative IPC: 3.449 (Simulation time: 00 hr 01 min 28 sec)
Heartbeat CPU 0 instructions: 15500091 cycles: 4465094 heartbeat IPC: 4.324 cumulative IPC: 3.471 (Simulation time: 00 hr 01 min 30 sec)
Heartbeat CPU 0 instructions: 16000096 cycles: 4582798 heartbeat IPC: 4.248 cumulative IPC: 3.491 (Simulation time: 00 hr 01 min 32 sec)
Heartbeat CPU 0 instructions: 16500096 cycles: 4696268 heartbeat IPC: 4.406 cumulative IPC: 3.513 (Simulation time: 00 hr 01 min 34 sec)
Heartbeat CPU 0 instructions: 17000100 cycles: 4809917 heartbeat IPC: 4.4 cumulative IPC: 3.534 (Simulation time: 00 hr 01 min 35 sec)
Heartbeat CPU 0 instructions: 17500105 cycles: 4925558 heartbeat IPC: 4.324 cumulative IPC: 3.553 (Simulation time: 00 hr 01 min 37 sec)
Heartbeat CPU 0 instructions: 18000109 cycles: 5039016 heartbeat IPC: 4.407 cumulative IPC: 3.572 (Simulation time: 00 hr 01 min 39 sec)
Heartbeat CPU 0 instructions: 18500109 cycles: 5153522 heartbeat IPC: 4.367 cumulative IPC: 3.59 (Simulation time: 00 hr 01 min 41 sec)
Heartbeat CPU 0 instructions: 19000115 cycles: 5267981 heartbeat IPC: 4.368 cumulative IPC: 3.607 (Simulation time: 00 hr 01 min 43 sec)
Heartbeat CPU 0 instructions: 19500119 cycles: 5382008 heartbeat IPC: 4.385 cumulative IPC: 3.623 (Simulation time: 00 hr 01 min 44 sec)
Heartbeat CPU 0 instructions: 20000121 cycles: 5497336 heartbeat IPC: 4.335 cumulative IPC: 3.638 (Simulation time: 00 hr 01 min 46 sec)
Heartbeat CPU 0 instructions: 20500124 cycles: 5610728 heartbeat IPC: 4.41 cumulative IPC: 3.654 (Simulation time: 00 hr 01 min 48 sec)
Heartbeat CPU 0 instructions: 21000129 cycles: 5723557 heartbeat IPC: 4.432 cumulative IPC: 3.669 (Simulation time: 00 hr 01 min 50 sec)
Heartbeat CPU 0 instructions: 21500129 cycles: 5835282 heartbeat IPC: 4.475 cumulative IPC: 3.685 (Simulation time: 00 hr 01 min 51 sec)
Heartbeat CPU 0 instructions: 22000133 cycles: 5948867 heartbeat IPC: 4.402 cumulative IPC: 3.698 (Simulation time: 00 hr 01 min 53 sec)
Heartbeat CPU 0 instructions: 22500137 cycles: 6063859 heartbeat IPC: 4.348 cumulative IPC: 3.711 (Simulation time: 00 hr 01 min 55 sec)
Heartbeat CPU 0 instructions: 23000142 cycles: 6177839 heartbeat IPC: 4.387 cumulative IPC: 3.723 (Simulation time: 00 hr 01 min 57 sec)
Heartbeat CPU 0 instructions: 23500149 cycles: 6291787 heartbeat IPC: 4.388 cumulative IPC: 3.735 (Simulation time: 00 hr 01 min 59 sec)
Heartbeat CPU 0 instructions: 24000155 cycles: 6404128 heartbeat IPC: 4.451 cumulative IPC: 3.748 (Simulation time: 00 hr 02 min 00 sec)
Heartbeat CPU 0 instructions: 24500155 cycles: 6519789 heartbeat IPC: 4.323 cumulative IPC: 3.758 (Simulation time: 00 hr 02 min 02 sec)
Heartbeat CPU 0 instructions: 25000157 cycles: 6633830 heartbeat IPC: 4.384 cumulative IPC: 3.769 (Simulation time: 00 hr 02 min 04 sec)
Heartbeat CPU 0 instructions: 25500159 cycles: 6749062 heartbeat IPC: 4.339 cumulative IPC: 3.778 (Simulation time: 00 hr 02 min 06 sec)
Heartbeat CPU 0 instructions: 26000161 cycles: 6863511 heartbeat IPC: 4.369 cumulative IPC: 3.788 (Simulation time: 00 hr 02 min 08 sec)
Heartbeat CPU 0 instructions: 26500162 cycles: 6974786 heartbeat IPC: 4.493 cumulative IPC: 3.799 (Simulation time: 00 hr 02 min 09 sec)
Heartbeat CPU 0 instructions: 27000168 cycles: 7088637 heartbeat IPC: 4.392 cumulative IPC: 3.809 (Simulation time: 00 hr 02 min 11 sec)
Heartbeat CPU 0 instructions: 27500173 cycles: 7202227 heartbeat IPC: 4.402 cumulative IPC: 3.818 (Simulation time: 00 hr 02 min 13 sec)
Heartbeat CPU 0 instructions: 28000179 cycles: 7316306 heartbeat IPC: 4.383 cumulative IPC: 3.827 (Simulation time: 00 hr 02 min 15 sec)
Heartbeat CPU 0 instructions: 28500184 cycles: 7430733 heartbeat IPC: 4.37 cumulative IPC: 3.835 (Simulation time: 00 hr 02 min 17 sec)
Heartbeat CPU 0 instructions: 29000184 cycles: 7544030 heartbeat IPC: 4.413 cumulative IPC: 3.844 (Simulation time: 00 hr 02 min 18 sec)
Heartbeat CPU 0 instructions: 29500191 cycles: 7658481 heartbeat IPC: 4.369 cumulative IPC: 3.852 (Simulation time: 00 hr 02 min 20 sec)
Heartbeat CPU 0 instructions: 30000193 cycles: 7770870 heartbeat IPC: 4.449 cumulative IPC: 3.861 (Simulation time: 00 hr 02 min 22 sec)
Heartbeat CPU 0 instructions: 30500195 cycles: 7885444 heartbeat IPC: 4.364 cumulative IPC: 3.868 (Simulation time: 00 hr 02 min 24 sec)
Heartbeat CPU 0 instructions: 31000199 cycles: 7996738 heartbeat IPC: 4.493 cumulative IPC: 3.877 (Simulation time: 00 hr 02 min 26 sec)
Heartbeat CPU 0 instructions: 31500206 cycles: 8107750 heartbeat IPC: 4.504 cumulative IPC: 3.885 (Simulation time: 00 hr 02 min 27 sec)
Heartbeat CPU 0 instructions: 32000212 cycles: 8220095 heartbeat IPC: 4.451 cumulative IPC: 3.893 (Simulation time: 00 hr 02 min 29 sec)
Heartbeat CPU 0 instructions: 32500217 cycles: 8332076 heartbeat IPC: 4.465 cumulative IPC: 3.901 (Simulation time: 00 hr 02 min 31 sec)
Heartbeat CPU 0 instructions: 33000224 cycles: 8443842 heartbeat IPC: 4.474 cumulative IPC: 3.908 (Simulation time: 00 hr 02 min 33 sec)
Heartbeat CPU 0 instructions: 33500228 cycles: 8556533 heartbeat IPC: 4.437 cumulative IPC: 3.915 (Simulation time: 00 hr 02 min 35 sec)
Heartbeat CPU 0 instructions: 34000229 cycles: 8668574 heartbeat IPC: 4.463 cumulative IPC: 3.922 (Simulation time: 00 hr 02 min 36 sec)
Heartbeat CPU 0 instructions: 34500233 cycles: 8781797 heartbeat IPC: 4.416 cumulative IPC: 3.929 (Simulation time: 00 hr 02 min 38 sec)
Heartbeat CPU 0 instructions: 35000233 cycles: 8894627 heartbeat IPC: 4.431 cumulative IPC: 3.935 (Simulation time: 00 hr 02 min 40 sec)
Heartbeat CPU 0 instructions: 35500238 cycles: 9005612 heartbeat IPC: 4.505 cumulative IPC: 3.942 (Simulation time: 00 hr 02 min 42 sec)
Heartbeat CPU 0 instructions: 36000240 cycles: 9118885 heartbeat IPC: 4.414 cumulative IPC: 3.948 (Simulation time: 00 hr 02 min 43 sec)
Heartbeat CPU 0 instructions: 36500246 cycles: 9231039 heartbeat IPC: 4.458 cumulative IPC: 3.954 (Simulation time: 00 hr 02 min 45 sec)
Heartbeat CPU 0 instructions: 37000249 cycles: 9342799 heartbeat IPC: 4.474 cumulative IPC: 3.96 (Simulation time: 00 hr 02 min 47 sec)
Heartbeat CPU 0 instructions: 37500253 cycles: 9455093 heartbeat IPC: 4.453 cumulative IPC: 3.966 (Simulation time: 00 hr 02 min 49 sec)
Heartbeat CPU 0 instructions: 38000259 cycles: 9567369 heartbeat IPC: 4.453 cumulative IPC: 3.972 (Simulation time: 00 hr 02 min 51 sec)
Heartbeat CPU 0 instructions: 38500260 cycles: 9681784 heartbeat IPC: 4.37 cumulative IPC: 3.977 (Simulation time: 00 hr 02 min 52 sec)
Heartbeat CPU 0 instructions: 39000261 cycles: 9794709 heartbeat IPC: 4.428 cumulative IPC: 3.982 (Simulation time: 00 hr 02 min 54 sec)
Heartbeat CPU 0 instructions: 39500261 cycles: 9907281 heartbeat IPC: 4.442 cumulative IPC: 3.987 (Simulation time: 00 hr 02 min 56 sec)
Heartbeat CPU 0 instructions: 40000264 cycles: 10021091 heartbeat IPC: 4.393 cumulative IPC: 3.992 (Simulation time: 00 hr 02 min 58 sec)
Heartbeat CPU 0 instructions: 40500264 cycles: 10133751 heartbeat IPC: 4.438 cumulative IPC: 3.997 (Simulation time: 00 hr 02 min 59 sec)
Heartbeat CPU 0 instructions: 41000268 cycles: 10248081 heartbeat IPC: 4.373 cumulative IPC: 4.001 (Simulation time: 00 hr 03 min 01 sec)
Heartbeat CPU 0 instructions: 41500273 cycles: 10359914 heartbeat IPC: 4.471 cumulative IPC: 4.006 (Simulation time: 00 hr 03 min 03 sec)
Heartbeat CPU 0 instructions: 42000278 cycles: 10472071 heartbeat IPC: 4.458 cumulative IPC: 4.011 (Simulation time: 00 hr 03 min 05 sec)
Heartbeat CPU 0 instructions: 42500281 cycles: 10585875 heartbeat IPC: 4.394 cumulative IPC: 4.015 (Simulation time: 00 hr 03 min 07 sec)
Heartbeat CPU 0 instructions: 43000283 cycles: 10698905 heartbeat IPC: 4.424 cumulative IPC: 4.019 (Simulation time: 00 hr 03 min 08 sec)
Heartbeat CPU 0 instructions: 43500287 cycles: 10811888 heartbeat IPC: 4.425 cumulative IPC: 4.023 (Simulation time: 00 hr 03 min 10 sec)
Heartbeat CPU 0 instructions: 44000290 cycles: 10925077 heartbeat IPC: 4.417 cumulative IPC: 4.027 (Simulation time: 00 hr 03 min 12 sec)
Heartbeat CPU 0 instructions: 44500292 cycles: 11037594 heartbeat IPC: 4.444 cumulative IPC: 4.032 (Simulation time: 00 hr 03 min 14 sec)
Heartbeat CPU 0 instructions: 45000293 cycles: 11150630 heartbeat IPC: 4.423 cumulative IPC: 4.036 (Simulation time: 00 hr 03 min 16 sec)
Heartbeat CPU 0 instructions: 45500297 cycles: 11264366 heartbeat IPC: 4.396 cumulative IPC: 4.039 (Simulation time: 00 hr 03 min 17 sec)
Heartbeat CPU 0 instructions: 46000301 cycles: 11376369 heartbeat IPC: 4.464 cumulative IPC: 4.043 (Simulation time: 00 hr 03 min 19 sec)
Heartbeat CPU 0 instructions: 46500301 cycles: 11489490 heartbeat IPC: 4.42 cumulative IPC: 4.047 (Simulation time: 00 hr 03 min 21 sec)
Heartbeat CPU 0 instructions: 47000303 cycles: 11601728 heartbeat IPC: 4.455 cumulative IPC: 4.051 (Simulation time: 00 hr 03 min 23 sec)
Heartbeat CPU 0 instructions: 47500305 cycles: 11715065 heartbeat IPC: 4.412 cumulative IPC: 4.055 (Simulation time: 00 hr 03 min 25 sec)
Heartbeat CPU 0 instructions: 48000308 cycles: 11828086 heartbeat IPC: 4.424 cumulative IPC: 4.058 (Simulation time: 00 hr 03 min 26 sec)
Heartbeat CPU 0 instructions: 48500313 cycles: 11940759 heartbeat IPC: 4.438 cumulative IPC: 4.062 (Simulation time: 00 hr 03 min 28 sec)
Heartbeat CPU 0 instructions: 49000314 cycles: 12054791 heartbeat IPC: 4.385 cumulative IPC: 4.065 (Simulation time: 00 hr 03 min 30 sec)
Heartbeat CPU 0 instructions: 49500317 cycles: 12168769 heartbeat IPC: 4.387 cumulative IPC: 4.068 (Simulation time: 00 hr 03 min 32 sec)
Warmup halting CPU 0 at instruction 50000005 cycle 12282425 for remainder of phase
Warmup finished CPU 0 instructions: 50000005 cycles: 12282425 cumulative IPC: 4.071 (Simulation time: 00 hr 03 min 34 sec)
Warmup complete CPU 0 instructions: 50000005 cycles: 12282425 cumulative IPC: 4.071 (Simulation time: 00 hr 03 min 34 sec)
Heartbeat CPU 0 instructions: 50000317 cycles: 12282464 heartbeat IPC: 4.398 cumulative IPC: 8 (Simulation time: 00 hr 03 min 34 sec)
Heartbeat CPU 0 instructions: 50500320 cycles: 12551667 heartbeat IPC: 1.857 cumulative IPC: 1.858 (Simulation time: 00 hr 03 min 38 sec)
Heartbeat CPU 0 instructions: 51000326 cycles: 12814637 heartbeat IPC: 1.901 cumulative IPC: 1.88 (Simulation time: 00 hr 03 min 42 sec)
Heartbeat CPU 0 instructions: 51500326 cycles: 13075728 heartbeat IPC: 1.915 cumulative IPC: 1.891 (Simulation time: 00 hr 03 min 46 sec)
Heartbeat CPU 0 instructions: 52000331 cycles: 13339189 heartbeat IPC: 1.898 cumulative IPC: 1.893 (Simulation time: 00 hr 03 min 50 sec)
Heartbeat CPU 0 instructions: 52500332 cycles: 13609180 heartbeat IPC: 1.852 cumulative IPC: 1.885 (Simulation time: 00 hr 03 min 54 sec)
Heartbeat CPU 0 instructions: 53000332 cycles: 13889247 heartbeat IPC: 1.785 cumulative IPC: 1.867 (Simulation time: 00 hr 03 min 59 sec)
Heartbeat CPU 0 instructions: 53500334 cycles: 14163939 heartbeat IPC: 1.82 cumulative IPC: 1.86 (Simulation time: 00 hr 04 min 03 sec)
Heartbeat CPU 0 instructions: 54000341 cycles: 14436685 heartbeat IPC: 1.833 cumulative IPC: 1.857 (Simulation time: 00 hr 04 min 07 sec)
Heartbeat CPU 0 instructions: 54500348 cycles: 14720994 heartbeat IPC: 1.759 cumulative IPC: 1.845 (Simulation time: 00 hr 04 min 12 sec)
Heartbeat CPU 0 instructions: 55000350 cycles: 14994983 heartbeat IPC: 1.825 cumulative IPC: 1.843 (Simulation time: 00 hr 04 min 16 sec)
Heartbeat CPU 0 instructions: 55500350 cycles: 15280563 heartbeat IPC: 1.751 cumulative IPC: 1.835 (Simulation time: 00 hr 04 min 21 sec)
Heartbeat CPU 0 instructions: 56000354 cycles: 15560376 heartbeat IPC: 1.787 cumulative IPC: 1.831 (Simulation time: 00 hr 04 min 25 sec)
Heartbeat CPU 0 instructions: 56500360 cycles: 15845274 heartbeat IPC: 1.755 cumulative IPC: 1.824 (Simulation time: 00 hr 04 min 30 sec)
Heartbeat CPU 0 instructions: 57000367 cycles: 16132156 heartbeat IPC: 1.743 cumulative IPC: 1.818 (Simulation time: 00 hr 04 min 34 sec)
Heartbeat CPU 0 instructions: 57500368 cycles: 16406337 heartbeat IPC: 1.824 cumulative IPC: 1.819 (Simulation time: 00 hr 04 min 38 sec)
Heartbeat CPU 0 instructions: 58000374 cycles: 16686052 heartbeat IPC: 1.788 cumulative IPC: 1.817 (Simulation time: 00 hr 04 min 43 sec)
Heartbeat CPU 0 instructions: 58500376 cycles: 16966649 heartbeat IPC: 1.782 cumulative IPC: 1.815 (Simulation time: 00 hr 04 min 47 sec)
Heartbeat CPU 0 instructions: 59000382 cycles: 17242909 heartbeat IPC: 1.81 cumulative IPC: 1.814 (Simulation time: 00 hr 04 min 51 sec)
Heartbeat CPU 0 instructions: 59500388 cycles: 17526305 heartbeat IPC: 1.764 cumulative IPC: 1.812 (Simulation time: 00 hr 04 min 56 sec)
Heartbeat CPU 0 instructions: 60000388 cycles: 17807778 heartbeat IPC: 1.776 cumulative IPC: 1.81 (Simulation time: 00 hr 05 min 00 sec)
Heartbeat CPU 0 instructions: 60500394 cycles: 18093319 heartbeat IPC: 1.751 cumulative IPC: 1.807 (Simulation time: 00 hr 05 min 05 sec)
Heartbeat CPU 0 instructions: 61000396 cycles: 18372075 heartbeat IPC: 1.794 cumulative IPC: 1.806 (Simulation time: 00 hr 05 min 09 sec)
Heartbeat CPU 0 instructions: 61500398 cycles: 18659282 heartbeat IPC: 1.741 cumulative IPC: 1.803 (Simulation time: 00 hr 05 min 13 sec)
Heartbeat CPU 0 instructions: 62000398 cycles: 18943437 heartbeat IPC: 1.76 cumulative IPC: 1.802 (Simulation time: 00 hr 05 min 18 sec)
Heartbeat CPU 0 instructions: 62500404 cycles: 19225326 heartbeat IPC: 1.774 cumulative IPC: 1.8 (Simulation time: 00 hr 05 min 22 sec)
Heartbeat CPU 0 instructions: 63000407 cycles: 19501028 heartbeat IPC: 1.814 cumulative IPC: 1.801 (Simulation time: 00 hr 05 min 27 sec)
Heartbeat CPU 0 instructions: 63500414 cycles: 19786560 heartbeat IPC: 1.751 cumulative IPC: 1.799 (Simulation time: 00 hr 05 min 31 sec)
Heartbeat CPU 0 instructions: 64000415 cycles: 20064295 heartbeat IPC: 1.8 cumulative IPC: 1.799 (Simulation time: 00 hr 05 min 35 sec)
Heartbeat CPU 0 instructions: 64500420 cycles: 20346870 heartbeat IPC: 1.769 cumulative IPC: 1.798 (Simulation time: 00 hr 05 min 40 sec)
Heartbeat CPU 0 instructions: 65000420 cycles: 20623297 heartbeat IPC: 1.809 cumulative IPC: 1.798 (Simulation time: 00 hr 05 min 44 sec)
Heartbeat CPU 0 instructions: 65500424 cycles: 20907710 heartbeat IPC: 1.758 cumulative IPC: 1.797 (Simulation time: 00 hr 05 min 49 sec)
Heartbeat CPU 0 instructions: 66000428 cycles: 21187655 heartbeat IPC: 1.786 cumulative IPC: 1.797 (Simulation time: 00 hr 05 min 53 sec)
Heartbeat CPU 0 instructions: 66500434 cycles: 21469575 heartbeat IPC: 1.774 cumulative IPC: 1.796 (Simulation time: 00 hr 05 min 58 sec)
Heartbeat CPU 0 instructions: 67000440 cycles: 21743747 heartbeat IPC: 1.824 cumulative IPC: 1.797 (Simulation time: 00 hr 06 min 02 sec)
Heartbeat CPU 0 instructions: 67500446 cycles: 22027425 heartbeat IPC: 1.763 cumulative IPC: 1.796 (Simulation time: 00 hr 06 min 06 sec)
Heartbeat CPU 0 instructions: 68000452 cycles: 22303482 heartbeat IPC: 1.811 cumulative IPC: 1.796 (Simulation time: 00 hr 06 min 11 sec)
Heartbeat CPU 0 instructions: 68500458 cycles: 22585430 heartbeat IPC: 1.773 cumulative IPC: 1.796 (Simulation time: 00 hr 06 min 15 sec)
Heartbeat CPU 0 instructions: 69000463 cycles: 22869040 heartbeat IPC: 1.763 cumulative IPC: 1.795 (Simulation time: 00 hr 06 min 19 sec)
Heartbeat CPU 0 instructions: 69500464 cycles: 23158921 heartbeat IPC: 1.725 cumulative IPC: 1.793 (Simulation time: 00 hr 06 min 24 sec)
Heartbeat CPU 0 instructions: 70000468 cycles: 23433925 heartbeat IPC: 1.818 cumulative IPC: 1.794 (Simulation time: 00 hr 06 min 28 sec)
Heartbeat CPU 0 instructions: 70500470 cycles: 23716867 heartbeat IPC: 1.767 cumulative IPC: 1.793 (Simulation time: 00 hr 06 min 33 sec)
Heartbeat CPU 0 instructions: 71000470 cycles: 23994282 heartbeat IPC: 1.802 cumulative IPC: 1.793 (Simulation time: 00 hr 06 min 37 sec)
Heartbeat CPU 0 instructions: 71500475 cycles: 24271353 heartbeat IPC: 1.805 cumulative IPC: 1.793 (Simulation time: 00 hr 06 min 41 sec)
Heartbeat CPU 0 instructions: 72000476 cycles: 24552806 heartbeat IPC: 1.776 cumulative IPC: 1.793 (Simulation time: 00 hr 06 min 45 sec)
Heartbeat CPU 0 instructions: 72500476 cycles: 24834713 heartbeat IPC: 1.774 cumulative IPC: 1.793 (Simulation time: 00 hr 06 min 50 sec)
Heartbeat CPU 0 instructions: 73000482 cycles: 25118173 heartbeat IPC: 1.764 cumulative IPC: 1.792 (Simulation time: 00 hr 06 min 54 sec)
Heartbeat CPU 0 instructions: 73500484 cycles: 25393719 heartbeat IPC: 1.815 cumulative IPC: 1.792 (Simulation time: 00 hr 06 min 58 sec)
Heartbeat CPU 0 instructions: 74000486 cycles: 25677165 heartbeat IPC: 1.764 cumulative IPC: 1.792 (Simulation time: 00 hr 07 min 03 sec)
Heartbeat CPU 0 instructions: 74500486 cycles: 25957562 heartbeat IPC: 1.783 cumulative IPC: 1.792 (Simulation time: 00 hr 07 min 07 sec)
Heartbeat CPU 0 instructions: 75000490 cycles: 26242720 heartbeat IPC: 1.753 cumulative IPC: 1.791 (Simulation time: 00 hr 07 min 12 sec)
Heartbeat CPU 0 instructions: 75500490 cycles: 26521074 heartbeat IPC: 1.796 cumulative IPC: 1.791 (Simulation time: 00 hr 07 min 16 sec)
Heartbeat CPU 0 instructions: 76000496 cycles: 26803143 heartbeat IPC: 1.773 cumulative IPC: 1.791 (Simulation time: 00 hr 07 min 20 sec)
Heartbeat CPU 0 instructions: 76500500 cycles: 27077511 heartbeat IPC: 1.822 cumulative IPC: 1.791 (Simulation time: 00 hr 07 min 25 sec)
Heartbeat CPU 0 instructions: 77000500 cycles: 27360853 heartbeat IPC: 1.765 cumulative IPC: 1.791 (Simulation time: 00 hr 07 min 29 sec)
Heartbeat CPU 0 instructions: 77500504 cycles: 27642801 heartbeat IPC: 1.773 cumulative IPC: 1.79 (Simulation time: 00 hr 07 min 34 sec)
Heartbeat CPU 0 instructions: 78000510 cycles: 27922190 heartbeat IPC: 1.79 cumulative IPC: 1.79 (Simulation time: 00 hr 07 min 38 sec)
Heartbeat CPU 0 instructions: 78500510 cycles: 28199565 heartbeat IPC: 1.803 cumulative IPC: 1.791 (Simulation time: 00 hr 07 min 42 sec)
Heartbeat CPU 0 instructions: 79000510 cycles: 28477679 heartbeat IPC: 1.798 cumulative IPC: 1.791 (Simulation time: 00 hr 07 min 47 sec)
Heartbeat CPU 0 instructions: 79500516 cycles: 28763759 heartbeat IPC: 1.748 cumulative IPC: 1.79 (Simulation time: 00 hr 07 min 51 sec)
Heartbeat CPU 0 instructions: 80000520 cycles: 29041468 heartbeat IPC: 1.8 cumulative IPC: 1.79 (Simulation time: 00 hr 07 min 56 sec)
Heartbeat CPU 0 instructions: 80500520 cycles: 29328412 heartbeat IPC: 1.743 cumulative IPC: 1.789 (Simulation time: 00 hr 08 min 00 sec)
Heartbeat CPU 0 instructions: 81000524 cycles: 29605776 heartbeat IPC: 1.803 cumulative IPC: 1.79 (Simulation time: 00 hr 08 min 04 sec)
Heartbeat CPU 0 instructions: 81500526 cycles: 29893872 heartbeat IPC: 1.736 cumulative IPC: 1.789 (Simulation time: 00 hr 08 min 09 sec)
Heartbeat CPU 0 instructions: 82000532 cycles: 30181486 heartbeat IPC: 1.738 cumulative IPC: 1.788 (Simulation time: 00 hr 08 min 13 sec)
Heartbeat CPU 0 instructions: 82500532 cycles: 30468071 heartbeat IPC: 1.745 cumulative IPC: 1.787 (Simulation time: 00 hr 08 min 18 sec)
Heartbeat CPU 0 instructions: 83000534 cycles: 30748924 heartbeat IPC: 1.78 cumulative IPC: 1.787 (Simulation time: 00 hr 08 min 22 sec)
Heartbeat CPU 0 instructions: 83500538 cycles: 31028632 heartbeat IPC: 1.788 cumulative IPC: 1.787 (Simulation time: 00 hr 08 min 27 sec)
Heartbeat CPU 0 instructions: 84000542 cycles: 31311440 heartbeat IPC: 1.768 cumulative IPC: 1.787 (Simulation time: 00 hr 08 min 31 sec)
Heartbeat CPU 0 instructions: 84500548 cycles: 31581106 heartbeat IPC: 1.854 cumulative IPC: 1.788 (Simulation time: 00 hr 08 min 35 sec)
Heartbeat CPU 0 instructions: 85000548 cycles: 31864941 heartbeat IPC: 1.762 cumulative IPC: 1.787 (Simulation time: 00 hr 08 min 40 sec)
Heartbeat CPU 0 instructions: 85500554 cycles: 32140611 heartbeat IPC: 1.814 cumulative IPC: 1.788 (Simulation time: 00 hr 08 min 44 sec)
Heartbeat CPU 0 instructions: 86000558 cycles: 32419175 heartbeat IPC: 1.795 cumulative IPC: 1.788 (Simulation time: 00 hr 08 min 48 sec)
Heartbeat CPU 0 instructions: 86500558 cycles: 32699770 heartbeat IPC: 1.782 cumulative IPC: 1.788 (Simulation time: 00 hr 08 min 52 sec)
Heartbeat CPU 0 instructions: 87000559 cycles: 32983292 heartbeat IPC: 1.764 cumulative IPC: 1.787 (Simulation time: 00 hr 08 min 57 sec)
Heartbeat CPU 0 instructions: 87500559 cycles: 33268936 heartbeat IPC: 1.75 cumulative IPC: 1.787 (Simulation time: 00 hr 09 min 01 sec)
Heartbeat CPU 0 instructions: 88000562 cycles: 33540447 heartbeat IPC: 1.842 cumulative IPC: 1.788 (Simulation time: 00 hr 09 min 05 sec)
Heartbeat CPU 0 instructions: 88500564 cycles: 33823394 heartbeat IPC: 1.767 cumulative IPC: 1.787 (Simulation time: 00 hr 09 min 10 sec)
Heartbeat CPU 0 instructions: 89000570 cycles: 34108172 heartbeat IPC: 1.756 cumulative IPC: 1.787 (Simulation time: 00 hr 09 min 14 sec)
Heartbeat CPU 0 instructions: 89500572 cycles: 34389108 heartbeat IPC: 1.78 cumulative IPC: 1.787 (Simulation time: 00 hr 09 min 19 sec)
Heartbeat CPU 0 instructions: 90000576 cycles: 34669077 heartbeat IPC: 1.786 cumulative IPC: 1.787 (Simulation time: 00 hr 09 min 23 sec)
Heartbeat CPU 0 instructions: 90500583 cycles: 34954540 heartbeat IPC: 1.752 cumulative IPC: 1.786 (Simulation time: 00 hr 09 min 28 sec)
Heartbeat CPU 0 instructions: 91000586 cycles: 35239181 heartbeat IPC: 1.757 cumulative IPC: 1.786 (Simulation time: 00 hr 09 min 32 sec)
Heartbeat CPU 0 instructions: 91500590 cycles: 35527552 heartbeat IPC: 1.734 cumulative IPC: 1.785 (Simulation time: 00 hr 09 min 37 sec)
Heartbeat CPU 0 instructions: 92000596 cycles: 35806022 heartbeat IPC: 1.796 cumulative IPC: 1.785 (Simulation time: 00 hr 09 min 41 sec)
Heartbeat CPU 0 instructions: 92500596 cycles: 36091286 heartbeat IPC: 1.753 cumulative IPC: 1.785 (Simulation time: 00 hr 09 min 46 sec)
Heartbeat CPU 0 instructions: 93000599 cycles: 36368005 heartbeat IPC: 1.807 cumulative IPC: 1.785 (Simulation time: 00 hr 09 min 50 sec)
Heartbeat CPU 0 instructions: 93500606 cycles: 36653609 heartbeat IPC: 1.751 cumulative IPC: 1.785 (Simulation time: 00 hr 09 min 54 sec)
Heartbeat CPU 0 instructions: 94000606 cycles: 36935520 heartbeat IPC: 1.774 cumulative IPC: 1.785 (Simulation time: 00 hr 09 min 59 sec)
Heartbeat CPU 0 instructions: 94500606 cycles: 37220797 heartbeat IPC: 1.753 cumulative IPC: 1.784 (Simulation time: 00 hr 10 min 03 sec)
Heartbeat CPU 0 instructions: 95000606 cycles: 37500557 heartbeat IPC: 1.787 cumulative IPC: 1.784 (Simulation time: 00 hr 10 min 08 sec)
Heartbeat CPU 0 instructions: 95500608 cycles: 37786381 heartbeat IPC: 1.749 cumulative IPC: 1.784 (Simulation time: 00 hr 10 min 12 sec)
Heartbeat CPU 0 instructions: 96000608 cycles: 38065715 heartbeat IPC: 1.79 cumulative IPC: 1.784 (Simulation time: 00 hr 10 min 17 sec)
Heartbeat CPU 0 instructions: 96500609 cycles: 38345528 heartbeat IPC: 1.787 cumulative IPC: 1.784 (Simulation time: 00 hr 10 min 21 sec)
Heartbeat CPU 0 instructions: 97000613 cycles: 38629928 heartbeat IPC: 1.758 cumulative IPC: 1.784 (Simulation time: 00 hr 10 min 26 sec)
Heartbeat CPU 0 instructions: 97500618 cycles: 38914571 heartbeat IPC: 1.757 cumulative IPC: 1.784 (Simulation time: 00 hr 10 min 30 sec)
Heartbeat CPU 0 instructions: 98000619 cycles: 39199126 heartbeat IPC: 1.757 cumulative IPC: 1.783 (Simulation time: 00 hr 10 min 35 sec)
Heartbeat CPU 0 instructions: 98500619 cycles: 39479851 heartbeat IPC: 1.781 cumulative IPC: 1.783 (Simulation time: 00 hr 10 min 39 sec)
Heartbeat CPU 0 instructions: 99000620 cycles: 39756890 heartbeat IPC: 1.805 cumulative IPC: 1.783 (Simulation time: 00 hr 10 min 43 sec)
Heartbeat CPU 0 instructions: 99500624 cycles: 40041126 heartbeat IPC: 1.759 cumulative IPC: 1.783 (Simulation time: 00 hr 10 min 48 sec)
Heartbeat CPU 0 instructions: 100000626 cycles: 40320251 heartbeat IPC: 1.791 cumulative IPC: 1.783 (Simulation time: 00 hr 10 min 52 sec)
Heartbeat CPU 0 instructions: 100500628 cycles: 40601810 heartbeat IPC: 1.776 cumulative IPC: 1.783 (Simulation time: 00 hr 10 min 57 sec)
Heartbeat CPU 0 instructions: 101000632 cycles: 40876137 heartbeat IPC: 1.823 cumulative IPC: 1.784 (Simulation time: 00 hr 11 min 01 sec)
Heartbeat CPU 0 instructions: 101500633 cycles: 41151013 heartbeat IPC: 1.819 cumulative IPC: 1.784 (Simulation time: 00 hr 11 min 05 sec)
Heartbeat CPU 0 instructions: 102000636 cycles: 41436874 heartbeat IPC: 1.749 cumulative IPC: 1.784 (Simulation time: 00 hr 11 min 10 sec)
Heartbeat CPU 0 instructions: 102500638 cycles: 41719206 heartbeat IPC: 1.771 cumulative IPC: 1.784 (Simulation time: 00 hr 11 min 14 sec)
Heartbeat CPU 0 instructions: 103000642 cycles: 42000237 heartbeat IPC: 1.779 cumulative IPC: 1.783 (Simulation time: 00 hr 11 min 18 sec)
Heartbeat CPU 0 instructions: 103500645 cycles: 42289198 heartbeat IPC: 1.73 cumulative IPC: 1.783 (Simulation time: 00 hr 11 min 23 sec)
Heartbeat CPU 0 instructions: 104000646 cycles: 42570673 heartbeat IPC: 1.776 cumulative IPC: 1.783 (Simulation time: 00 hr 11 min 27 sec)
Heartbeat CPU 0 instructions: 104500647 cycles: 42851040 heartbeat IPC: 1.783 cumulative IPC: 1.783 (Simulation time: 00 hr 11 min 32 sec)
Heartbeat CPU 0 instructions: 105000650 cycles: 43123453 heartbeat IPC: 1.835 cumulative IPC: 1.783 (Simulation time: 00 hr 11 min 36 sec)
Heartbeat CPU 0 instructions: 105500654 cycles: 43409134 heartbeat IPC: 1.75 cumulative IPC: 1.783 (Simulation time: 00 hr 11 min 41 sec)
Heartbeat CPU 0 instructions: 106000660 cycles: 43687683 heartbeat IPC: 1.795 cumulative IPC: 1.783 (Simulation time: 00 hr 11 min 45 sec)
Heartbeat CPU 0 instructions: 106500666 cycles: 43967620 heartbeat IPC: 1.786 cumulative IPC: 1.783 (Simulation time: 00 hr 11 min 49 sec)
Heartbeat CPU 0 instructions: 107000672 cycles: 44249453 heartbeat IPC: 1.774 cumulative IPC: 1.783 (Simulation time: 00 hr 11 min 54 sec)
Heartbeat CPU 0 instructions: 107500678 cycles: 44530323 heartbeat IPC: 1.78 cumulative IPC: 1.783 (Simulation time: 00 hr 11 min 58 sec)
Heartbeat CPU 0 instructions: 108000681 cycles: 44811383 heartbeat IPC: 1.779 cumulative IPC: 1.783 (Simulation time: 00 hr 12 min 03 sec)
Heartbeat CPU 0 instructions: 108500686 cycles: 45092351 heartbeat IPC: 1.78 cumulative IPC: 1.783 (Simulation time: 00 hr 12 min 07 sec)
Heartbeat CPU 0 instructions: 109000686 cycles: 45374531 heartbeat IPC: 1.772 cumulative IPC: 1.783 (Simulation time: 00 hr 12 min 11 sec)
Heartbeat CPU 0 instructions: 109500686 cycles: 45657431 heartbeat IPC: 1.767 cumulative IPC: 1.783 (Simulation time: 00 hr 12 min 16 sec)
Heartbeat CPU 0 instructions: 110000692 cycles: 45936253 heartbeat IPC: 1.793 cumulative IPC: 1.783 (Simulation time: 00 hr 12 min 20 sec)
Heartbeat CPU 0 instructions: 110500695 cycles: 46216717 heartbeat IPC: 1.783 cumulative IPC: 1.783 (Simulation time: 00 hr 12 min 24 sec)
Heartbeat CPU 0 instructions: 111000698 cycles: 46506051 heartbeat IPC: 1.728 cumulative IPC: 1.782 (Simulation time: 00 hr 12 min 29 sec)
Heartbeat CPU 0 instructions: 111500698 cycles: 46790621 heartbeat IPC: 1.757 cumulative IPC: 1.782 (Simulation time: 00 hr 12 min 33 sec)
Heartbeat CPU 0 instructions: 112000702 cycles: 47070070 heartbeat IPC: 1.789 cumulative IPC: 1.782 (Simulation time: 00 hr 12 min 38 sec)
Heartbeat CPU 0 instructions: 112500704 cycles: 47346376 heartbeat IPC: 1.81 cumulative IPC: 1.782 (Simulation time: 00 hr 12 min 42 sec)
Heartbeat CPU 0 instructions: 113000704 cycles: 47622471 heartbeat IPC: 1.811 cumulative IPC: 1.783 (Simulation time: 00 hr 12 min 46 sec)
Heartbeat CPU 0 instructions: 113500707 cycles: 47904272 heartbeat IPC: 1.774 cumulative IPC: 1.783 (Simulation time: 00 hr 12 min 51 sec)
Heartbeat CPU 0 instructions: 114000712 cycles: 48191917 heartbeat IPC: 1.738 cumulative IPC: 1.782 (Simulation time: 00 hr 12 min 55 sec)
Heartbeat CPU 0 instructions: 114500717 cycles: 48479822 heartbeat IPC: 1.737 cumulative IPC: 1.782 (Simulation time: 00 hr 13 min 00 sec)
Heartbeat CPU 0 instructions: 115000724 cycles: 48759319 heartbeat IPC: 1.789 cumulative IPC: 1.782 (Simulation time: 00 hr 13 min 04 sec)
Heartbeat CPU 0 instructions: 115500731 cycles: 49039408 heartbeat IPC: 1.785 cumulative IPC: 1.782 (Simulation time: 00 hr 13 min 09 sec)
Heartbeat CPU 0 instructions: 116000733 cycles: 49312603 heartbeat IPC: 1.83 cumulative IPC: 1.782 (Simulation time: 00 hr 13 min 13 sec)
Heartbeat CPU 0 instructions: 116500740 cycles: 49586504 heartbeat IPC: 1.826 cumulative IPC: 1.783 (Simulation time: 00 hr 13 min 17 sec)
Heartbeat CPU 0 instructions: 117000742 cycles: 49873361 heartbeat IPC: 1.743 cumulative IPC: 1.782 (Simulation time: 00 hr 13 min 22 sec)
Heartbeat CPU 0 instructions: 117500742 cycles: 50153672 heartbeat IPC: 1.784 cumulative IPC: 1.782 (Simulation time: 00 hr 13 min 26 sec)
Heartbeat CPU 0 instructions: 118000749 cycles: 50433439 heartbeat IPC: 1.787 cumulative IPC: 1.782 (Simulation time: 00 hr 13 min 30 sec)
Heartbeat CPU 0 instructions: 118500754 cycles: 50717110 heartbeat IPC: 1.763 cumulative IPC: 1.782 (Simulation time: 00 hr 13 min 35 sec)
Heartbeat CPU 0 instructions: 119000758 cycles: 51001415 heartbeat IPC: 1.759 cumulative IPC: 1.782 (Simulation time: 00 hr 13 min 39 sec)
Heartbeat CPU 0 instructions: 119500760 cycles: 51285307 heartbeat IPC: 1.761 cumulative IPC: 1.782 (Simulation time: 00 hr 13 min 44 sec)
Heartbeat CPU 0 instructions: 120000762 cycles: 51570013 heartbeat IPC: 1.756 cumulative IPC: 1.782 (Simulation time: 00 hr 13 min 48 sec)
Heartbeat CPU 0 instructions: 120500764 cycles: 51847890 heartbeat IPC: 1.799 cumulative IPC: 1.782 (Simulation time: 00 hr 13 min 52 sec)
Heartbeat CPU 0 instructions: 121000766 cycles: 52126963 heartbeat IPC: 1.792 cumulative IPC: 1.782 (Simulation time: 00 hr 13 min 57 sec)
Heartbeat CPU 0 instructions: 121500767 cycles: 52404448 heartbeat IPC: 1.802 cumulative IPC: 1.782 (Simulation time: 00 hr 14 min 01 sec)
Heartbeat CPU 0 instructions: 122000772 cycles: 52683635 heartbeat IPC: 1.791 cumulative IPC: 1.782 (Simulation time: 00 hr 14 min 06 sec)
Heartbeat CPU 0 instructions: 122500774 cycles: 52966507 heartbeat IPC: 1.768 cumulative IPC: 1.782 (Simulation time: 00 hr 14 min 10 sec)
Heartbeat CPU 0 instructions: 123000777 cycles: 53249686 heartbeat IPC: 1.766 cumulative IPC: 1.782 (Simulation time: 00 hr 14 min 14 sec)
Heartbeat CPU 0 instructions: 123500782 cycles: 53533413 heartbeat IPC: 1.762 cumulative IPC: 1.782 (Simulation time: 00 hr 14 min 19 sec)
Heartbeat CPU 0 instructions: 124000783 cycles: 53815016 heartbeat IPC: 1.776 cumulative IPC: 1.782 (Simulation time: 00 hr 14 min 23 sec)
Heartbeat CPU 0 instructions: 124500790 cycles: 54096970 heartbeat IPC: 1.773 cumulative IPC: 1.782 (Simulation time: 00 hr 14 min 28 sec)
Heartbeat CPU 0 instructions: 125000790 cycles: 54374331 heartbeat IPC: 1.803 cumulative IPC: 1.782 (Simulation time: 00 hr 14 min 32 sec)
Heartbeat CPU 0 instructions: 125500794 cycles: 54660730 heartbeat IPC: 1.746 cumulative IPC: 1.782 (Simulation time: 00 hr 14 min 36 sec)
Heartbeat CPU 0 instructions: 126000798 cycles: 54941792 heartbeat IPC: 1.779 cumulative IPC: 1.782 (Simulation time: 00 hr 14 min 41 sec)
Heartbeat CPU 0 instructions: 126500800 cycles: 55222301 heartbeat IPC: 1.782 cumulative IPC: 1.782 (Simulation time: 00 hr 14 min 45 sec)
Heartbeat CPU 0 instructions: 127000800 cycles: 55499822 heartbeat IPC: 1.802 cumulative IPC: 1.782 (Simulation time: 00 hr 14 min 50 sec)
Heartbeat CPU 0 instructions: 127500807 cycles: 55775059 heartbeat IPC: 1.817 cumulative IPC: 1.782 (Simulation time: 00 hr 14 min 54 sec)
Heartbeat CPU 0 instructions: 128000807 cycles: 56061964 heartbeat IPC: 1.743 cumulative IPC: 1.782 (Simulation time: 00 hr 14 min 58 sec)
Heartbeat CPU 0 instructions: 128500814 cycles: 56349049 heartbeat IPC: 1.742 cumulative IPC: 1.781 (Simulation time: 00 hr 15 min 03 sec)
Heartbeat CPU 0 instructions: 129000818 cycles: 56630566 heartbeat IPC: 1.776 cumulative IPC: 1.781 (Simulation time: 00 hr 15 min 07 sec)
Heartbeat CPU 0 instructions: 129500822 cycles: 56917038 heartbeat IPC: 1.745 cumulative IPC: 1.781 (Simulation time: 00 hr 15 min 12 sec)
Heartbeat CPU 0 instructions: 130000824 cycles: 57194355 heartbeat IPC: 1.803 cumulative IPC: 1.781 (Simulation time: 00 hr 15 min 16 sec)
Heartbeat CPU 0 instructions: 130500828 cycles: 57472022 heartbeat IPC: 1.801 cumulative IPC: 1.781 (Simulation time: 00 hr 15 min 20 sec)
Heartbeat CPU 0 instructions: 131000828 cycles: 57761235 heartbeat IPC: 1.729 cumulative IPC: 1.781 (Simulation time: 00 hr 15 min 25 sec)
Heartbeat CPU 0 instructions: 131500830 cycles: 58038927 heartbeat IPC: 1.801 cumulative IPC: 1.781 (Simulation time: 00 hr 15 min 29 sec)
Heartbeat CPU 0 instructions: 132000830 cycles: 58326427 heartbeat IPC: 1.739 cumulative IPC: 1.781 (Simulation time: 00 hr 15 min 34 sec)
Heartbeat CPU 0 instructions: 132500836 cycles: 58608875 heartbeat IPC: 1.77 cumulative IPC: 1.781 (Simulation time: 00 hr 15 min 38 sec)
Heartbeat CPU 0 instructions: 133000843 cycles: 58887727 heartbeat IPC: 1.793 cumulative IPC: 1.781 (Simulation time: 00 hr 15 min 42 sec)
Heartbeat CPU 0 instructions: 133500843 cycles: 59172377 heartbeat IPC: 1.757 cumulative IPC: 1.781 (Simulation time: 00 hr 15 min 47 sec)
Heartbeat CPU 0 instructions: 134000848 cycles: 59454681 heartbeat IPC: 1.771 cumulative IPC: 1.781 (Simulation time: 00 hr 15 min 51 sec)
Heartbeat CPU 0 instructions: 134500852 cycles: 59742227 heartbeat IPC: 1.739 cumulative IPC: 1.78 (Simulation time: 00 hr 15 min 55 sec)
Heartbeat CPU 0 instructions: 135000852 cycles: 60023156 heartbeat IPC: 1.78 cumulative IPC: 1.78 (Simulation time: 00 hr 16 min 00 sec)
Heartbeat CPU 0 instructions: 135500854 cycles: 60309571 heartbeat IPC: 1.746 cumulative IPC: 1.78 (Simulation time: 00 hr 16 min 04 sec)
Heartbeat CPU 0 instructions: 136000858 cycles: 60587116 heartbeat IPC: 1.802 cumulative IPC: 1.78 (Simulation time: 00 hr 16 min 09 sec)
Heartbeat CPU 0 instructions: 136500860 cycles: 60867024 heartbeat IPC: 1.786 cumulative IPC: 1.78 (Simulation time: 00 hr 16 min 13 sec)
Heartbeat CPU 0 instructions: 137000864 cycles: 61151331 heartbeat IPC: 1.759 cumulative IPC: 1.78 (Simulation time: 00 hr 16 min 18 sec)
Heartbeat CPU 0 instructions: 137500866 cycles: 61430087 heartbeat IPC: 1.794 cumulative IPC: 1.78 (Simulation time: 00 hr 16 min 22 sec)
Heartbeat CPU 0 instructions: 138000868 cycles: 61712105 heartbeat IPC: 1.773 cumulative IPC: 1.78 (Simulation time: 00 hr 16 min 26 sec)
Heartbeat CPU 0 instructions: 138500870 cycles: 61988256 heartbeat IPC: 1.811 cumulative IPC: 1.78 (Simulation time: 00 hr 16 min 31 sec)
Heartbeat CPU 0 instructions: 139000870 cycles: 62275945 heartbeat IPC: 1.738 cumulative IPC: 1.78 (Simulation time: 00 hr 16 min 35 sec)
Heartbeat CPU 0 instructions: 139500874 cycles: 62557828 heartbeat IPC: 1.774 cumulative IPC: 1.78 (Simulation time: 00 hr 16 min 39 sec)
Heartbeat CPU 0 instructions: 140000878 cycles: 62830893 heartbeat IPC: 1.831 cumulative IPC: 1.78 (Simulation time: 00 hr 16 min 44 sec)
Heartbeat CPU 0 instructions: 140500880 cycles: 63111650 heartbeat IPC: 1.781 cumulative IPC: 1.78 (Simulation time: 00 hr 16 min 48 sec)
Heartbeat CPU 0 instructions: 141000887 cycles: 63388155 heartbeat IPC: 1.808 cumulative IPC: 1.781 (Simulation time: 00 hr 16 min 52 sec)
Heartbeat CPU 0 instructions: 141500892 cycles: 63671865 heartbeat IPC: 1.762 cumulative IPC: 1.781 (Simulation time: 00 hr 16 min 57 sec)
Heartbeat CPU 0 instructions: 142000892 cycles: 63958806 heartbeat IPC: 1.743 cumulative IPC: 1.78 (Simulation time: 00 hr 17 min 01 sec)
Heartbeat CPU 0 instructions: 142500894 cycles: 64241714 heartbeat IPC: 1.767 cumulative IPC: 1.78 (Simulation time: 00 hr 17 min 06 sec)
Heartbeat CPU 0 instructions: 143000894 cycles: 64519881 heartbeat IPC: 1.797 cumulative IPC: 1.78 (Simulation time: 00 hr 17 min 10 sec)
Heartbeat CPU 0 instructions: 143500894 cycles: 64796723 heartbeat IPC: 1.806 cumulative IPC: 1.78 (Simulation time: 00 hr 17 min 14 sec)
Heartbeat CPU 0 instructions: 144000896 cycles: 65076868 heartbeat IPC: 1.785 cumulative IPC: 1.781 (Simulation time: 00 hr 17 min 19 sec)
Heartbeat CPU 0 instructions: 144500898 cycles: 65359017 heartbeat IPC: 1.772 cumulative IPC: 1.78 (Simulation time: 00 hr 17 min 23 sec)
Heartbeat CPU 0 instructions: 145000900 cycles: 65639184 heartbeat IPC: 1.785 cumulative IPC: 1.78 (Simulation time: 00 hr 17 min 28 sec)
Heartbeat CPU 0 instructions: 145500904 cycles: 65926312 heartbeat IPC: 1.741 cumulative IPC: 1.78 (Simulation time: 00 hr 17 min 32 sec)
Heartbeat CPU 0 instructions: 146000909 cycles: 66205585 heartbeat IPC: 1.79 cumulative IPC: 1.78 (Simulation time: 00 hr 17 min 36 sec)
Heartbeat CPU 0 instructions: 146500909 cycles: 66484453 heartbeat IPC: 1.793 cumulative IPC: 1.78 (Simulation time: 00 hr 17 min 41 sec)
Heartbeat CPU 0 instructions: 147000914 cycles: 66766290 heartbeat IPC: 1.774 cumulative IPC: 1.78 (Simulation time: 00 hr 17 min 45 sec)
Heartbeat CPU 0 instructions: 147500916 cycles: 67046939 heartbeat IPC: 1.782 cumulative IPC: 1.78 (Simulation time: 00 hr 17 min 49 sec)
Heartbeat CPU 0 instructions: 148000918 cycles: 67330342 heartbeat IPC: 1.764 cumulative IPC: 1.78 (Simulation time: 00 hr 17 min 54 sec)
Heartbeat CPU 0 instructions: 148500924 cycles: 67607531 heartbeat IPC: 1.804 cumulative IPC: 1.78 (Simulation time: 00 hr 17 min 58 sec)
Heartbeat CPU 0 instructions: 149000928 cycles: 67887786 heartbeat IPC: 1.784 cumulative IPC: 1.78 (Simulation time: 00 hr 18 min 02 sec)
Heartbeat CPU 0 instructions: 149500934 cycles: 68168839 heartbeat IPC: 1.779 cumulative IPC: 1.78 (Simulation time: 00 hr 18 min 07 sec)
Heartbeat CPU 0 instructions: 150000938 cycles: 68454039 heartbeat IPC: 1.753 cumulative IPC: 1.78 (Simulation time: 00 hr 18 min 11 sec)
Heartbeat CPU 0 instructions: 150500943 cycles: 68738127 heartbeat IPC: 1.76 cumulative IPC: 1.78 (Simulation time: 00 hr 18 min 16 sec)
Heartbeat CPU 0 instructions: 151000945 cycles: 69025437 heartbeat IPC: 1.74 cumulative IPC: 1.78 (Simulation time: 00 hr 18 min 20 sec)
Heartbeat CPU 0 instructions: 151500946 cycles: 69307590 heartbeat IPC: 1.772 cumulative IPC: 1.78 (Simulation time: 00 hr 18 min 24 sec)
Heartbeat CPU 0 instructions: 152000951 cycles: 69586725 heartbeat IPC: 1.791 cumulative IPC: 1.78 (Simulation time: 00 hr 18 min 29 sec)
Heartbeat CPU 0 instructions: 152500952 cycles: 69866468 heartbeat IPC: 1.787 cumulative IPC: 1.78 (Simulation time: 00 hr 18 min 33 sec)
Heartbeat CPU 0 instructions: 153000958 cycles: 70155025 heartbeat IPC: 1.733 cumulative IPC: 1.78 (Simulation time: 00 hr 18 min 38 sec)
Heartbeat CPU 0 instructions: 153500962 cycles: 70436931 heartbeat IPC: 1.774 cumulative IPC: 1.78 (Simulation time: 00 hr 18 min 42 sec)
Heartbeat CPU 0 instructions: 154000964 cycles: 70716642 heartbeat IPC: 1.788 cumulative IPC: 1.78 (Simulation time: 00 hr 18 min 46 sec)
Heartbeat CPU 0 instructions: 154500964 cycles: 70991583 heartbeat IPC: 1.819 cumulative IPC: 1.78 (Simulation time: 00 hr 18 min 51 sec)
Heartbeat CPU 0 instructions: 155000968 cycles: 71269427 heartbeat IPC: 1.8 cumulative IPC: 1.78 (Simulation time: 00 hr 18 min 55 sec)
Heartbeat CPU 0 instructions: 155500973 cycles: 71552358 heartbeat IPC: 1.767 cumulative IPC: 1.78 (Simulation time: 00 hr 18 min 59 sec)
Heartbeat CPU 0 instructions: 156000974 cycles: 71831257 heartbeat IPC: 1.793 cumulative IPC: 1.78 (Simulation time: 00 hr 19 min 04 sec)
Heartbeat CPU 0 instructions: 156500980 cycles: 72116651 heartbeat IPC: 1.752 cumulative IPC: 1.78 (Simulation time: 00 hr 19 min 08 sec)
Heartbeat CPU 0 instructions: 157000986 cycles: 72405881 heartbeat IPC: 1.729 cumulative IPC: 1.78 (Simulation time: 00 hr 19 min 13 sec)
Heartbeat CPU 0 instructions: 157500992 cycles: 72686710 heartbeat IPC: 1.78 cumulative IPC: 1.78 (Simulation time: 00 hr 19 min 17 sec)
Heartbeat CPU 0 instructions: 158000998 cycles: 72976373 heartbeat IPC: 1.726 cumulative IPC: 1.779 (Simulation time: 00 hr 19 min 22 sec)
Heartbeat CPU 0 instructions: 158501001 cycles: 73252834 heartbeat IPC: 1.809 cumulative IPC: 1.78 (Simulation time: 00 hr 19 min 26 sec)
Heartbeat CPU 0 instructions: 159001004 cycles: 73539733 heartbeat IPC: 1.743 cumulative IPC: 1.779 (Simulation time: 00 hr 19 min 31 sec)
Heartbeat CPU 0 instructions: 159501006 cycles: 73818412 heartbeat IPC: 1.794 cumulative IPC: 1.779 (Simulation time: 00 hr 19 min 35 sec)
Heartbeat CPU 0 instructions: 160001006 cycles: 74097246 heartbeat IPC: 1.793 cumulative IPC: 1.78 (Simulation time: 00 hr 19 min 39 sec)
Heartbeat CPU 0 instructions: 160501006 cycles: 74383883 heartbeat IPC: 1.744 cumulative IPC: 1.779 (Simulation time: 00 hr 19 min 44 sec)
Heartbeat CPU 0 instructions: 161001010 cycles: 74655837 heartbeat IPC: 1.839 cumulative IPC: 1.78 (Simulation time: 00 hr 19 min 48 sec)
Heartbeat CPU 0 instructions: 161501016 cycles: 74939663 heartbeat IPC: 1.762 cumulative IPC: 1.78 (Simulation time: 00 hr 19 min 53 sec)
Heartbeat CPU 0 instructions: 162001018 cycles: 75219766 heartbeat IPC: 1.785 cumulative IPC: 1.78 (Simulation time: 00 hr 19 min 57 sec)
Heartbeat CPU 0 instructions: 162501021 cycles: 75498614 heartbeat IPC: 1.793 cumulative IPC: 1.78 (Simulation time: 00 hr 20 min 01 sec)
Heartbeat CPU 0 instructions: 163001024 cycles: 75784388 heartbeat IPC: 1.75 cumulative IPC: 1.779 (Simulation time: 00 hr 20 min 06 sec)
Heartbeat CPU 0 instructions: 163501030 cycles: 76065036 heartbeat IPC: 1.782 cumulative IPC: 1.779 (Simulation time: 00 hr 20 min 10 sec)
Heartbeat CPU 0 instructions: 164001031 cycles: 76345117 heartbeat IPC: 1.785 cumulative IPC: 1.78 (Simulation time: 00 hr 20 min 15 sec)
Heartbeat CPU 0 instructions: 164501031 cycles: 76630161 heartbeat IPC: 1.754 cumulative IPC: 1.779 (Simulation time: 00 hr 20 min 19 sec)
Heartbeat CPU 0 instructions: 165001038 cycles: 76911551 heartbeat IPC: 1.777 cumulative IPC: 1.779 (Simulation time: 00 hr 20 min 24 sec)
Heartbeat CPU 0 instructions: 165501039 cycles: 77196016 heartbeat IPC: 1.758 cumulative IPC: 1.779 (Simulation time: 00 hr 20 min 28 sec)
Heartbeat CPU 0 instructions: 166001045 cycles: 77482523 heartbeat IPC: 1.745 cumulative IPC: 1.779 (Simulation time: 00 hr 20 min 32 sec)
Heartbeat CPU 0 instructions: 166501048 cycles: 77763924 heartbeat IPC: 1.777 cumulative IPC: 1.779 (Simulation time: 00 hr 20 min 37 sec)
Heartbeat CPU 0 instructions: 167001053 cycles: 78035835 heartbeat IPC: 1.839 cumulative IPC: 1.779 (Simulation time: 00 hr 20 min 41 sec)
Heartbeat CPU 0 instructions: 167501054 cycles: 78315001 heartbeat IPC: 1.791 cumulative IPC: 1.779 (Simulation time: 00 hr 20 min 46 sec)
Heartbeat CPU 0 instructions: 168001056 cycles: 78595333 heartbeat IPC: 1.784 cumulative IPC: 1.779 (Simulation time: 00 hr 20 min 50 sec)
Heartbeat CPU 0 instructions: 168501056 cycles: 78877155 heartbeat IPC: 1.774 cumulative IPC: 1.779 (Simulation time: 00 hr 20 min 54 sec)
Heartbeat CPU 0 instructions: 169001060 cycles: 79165758 heartbeat IPC: 1.732 cumulative IPC: 1.779 (Simulation time: 00 hr 20 min 59 sec)
Heartbeat CPU 0 instructions: 169501062 cycles: 79444823 heartbeat IPC: 1.792 cumulative IPC: 1.779 (Simulation time: 00 hr 21 min 03 sec)
Heartbeat CPU 0 instructions: 170001062 cycles: 79727336 heartbeat IPC: 1.77 cumulative IPC: 1.779 (Simulation time: 00 hr 21 min 08 sec)
Heartbeat CPU 0 instructions: 170501066 cycles: 80002680 heartbeat IPC: 1.816 cumulative IPC: 1.779 (Simulation time: 00 hr 21 min 12 sec)
Heartbeat CPU 0 instructions: 171001071 cycles: 80281189 heartbeat IPC: 1.795 cumulative IPC: 1.779 (Simulation time: 00 hr 21 min 17 sec)
Heartbeat CPU 0 instructions: 171501072 cycles: 80561169 heartbeat IPC: 1.786 cumulative IPC: 1.779 (Simulation time: 00 hr 21 min 21 sec)
Heartbeat CPU 0 instructions: 172001075 cycles: 80852153 heartbeat IPC: 1.718 cumulative IPC: 1.779 (Simulation time: 00 hr 21 min 26 sec)
Heartbeat CPU 0 instructions: 172501076 cycles: 81134654 heartbeat IPC: 1.77 cumulative IPC: 1.779 (Simulation time: 00 hr 21 min 30 sec)
Heartbeat CPU 0 instructions: 173001078 cycles: 81419265 heartbeat IPC: 1.757 cumulative IPC: 1.779 (Simulation time: 00 hr 21 min 35 sec)
Heartbeat CPU 0 instructions: 173501082 cycles: 81702631 heartbeat IPC: 1.765 cumulative IPC: 1.779 (Simulation time: 00 hr 21 min 39 sec)
Heartbeat CPU 0 instructions: 174001084 cycles: 81974256 heartbeat IPC: 1.841 cumulative IPC: 1.779 (Simulation time: 00 hr 21 min 43 sec)
Heartbeat CPU 0 instructions: 174501086 cycles: 82255325 heartbeat IPC: 1.779 cumulative IPC: 1.779 (Simulation time: 00 hr 21 min 47 sec)
Heartbeat CPU 0 instructions: 175001088 cycles: 82535499 heartbeat IPC: 1.785 cumulative IPC: 1.779 (Simulation time: 00 hr 21 min 52 sec)
Heartbeat CPU 0 instructions: 175501088 cycles: 82823858 heartbeat IPC: 1.734 cumulative IPC: 1.779 (Simulation time: 00 hr 21 min 56 sec)
Heartbeat CPU 0 instructions: 176001092 cycles: 83111744 heartbeat IPC: 1.737 cumulative IPC: 1.779 (Simulation time: 00 hr 22 min 01 sec)
Heartbeat CPU 0 instructions: 176501094 cycles: 83391911 heartbeat IPC: 1.785 cumulative IPC: 1.779 (Simulation time: 00 hr 22 min 05 sec)
Heartbeat CPU 0 instructions: 177001098 cycles: 83678082 heartbeat IPC: 1.747 cumulative IPC: 1.779 (Simulation time: 00 hr 22 min 10 sec)
Heartbeat CPU 0 instructions: 177501098 cycles: 83961361 heartbeat IPC: 1.765 cumulative IPC: 1.779 (Simulation time: 00 hr 22 min 14 sec)
Heartbeat CPU 0 instructions: 178001102 cycles: 84240896 heartbeat IPC: 1.789 cumulative IPC: 1.779 (Simulation time: 00 hr 22 min 18 sec)
Heartbeat CPU 0 instructions: 178501104 cycles: 84528744 heartbeat IPC: 1.737 cumulative IPC: 1.779 (Simulation time: 00 hr 22 min 23 sec)
Heartbeat CPU 0 instructions: 179001107 cycles: 84812347 heartbeat IPC: 1.763 cumulative IPC: 1.779 (Simulation time: 00 hr 22 min 27 sec)
Heartbeat CPU 0 instructions: 179501108 cycles: 85090296 heartbeat IPC: 1.799 cumulative IPC: 1.779 (Simulation time: 00 hr 22 min 32 sec)
Heartbeat CPU 0 instructions: 180001110 cycles: 85363282 heartbeat IPC: 1.832 cumulative IPC: 1.779 (Simulation time: 00 hr 22 min 36 sec)
Heartbeat CPU 0 instructions: 180501117 cycles: 85644093 heartbeat IPC: 1.781 cumulative IPC: 1.779 (Simulation time: 00 hr 22 min 40 sec)
Heartbeat CPU 0 instructions: 181001118 cycles: 85926915 heartbeat IPC: 1.768 cumulative IPC: 1.779 (Simulation time: 00 hr 22 min 45 sec)
Heartbeat CPU 0 instructions: 181501124 cycles: 86204611 heartbeat IPC: 1.801 cumulative IPC: 1.779 (Simulation time: 00 hr 22 min 49 sec)
Heartbeat CPU 0 instructions: 182001124 cycles: 86493236 heartbeat IPC: 1.732 cumulative IPC: 1.779 (Simulation time: 00 hr 22 min 53 sec)
Heartbeat CPU 0 instructions: 182501124 cycles: 86770830 heartbeat IPC: 1.801 cumulative IPC: 1.779 (Simulation time: 00 hr 22 min 58 sec)
Heartbeat CPU 0 instructions: 183001130 cycles: 87055151 heartbeat IPC: 1.759 cumulative IPC: 1.779 (Simulation time: 00 hr 23 min 02 sec)
Heartbeat CPU 0 instructions: 183501134 cycles: 87328778 heartbeat IPC: 1.827 cumulative IPC: 1.779 (Simulation time: 00 hr 23 min 07 sec)
Heartbeat CPU 0 instructions: 184001140 cycles: 87604421 heartbeat IPC: 1.814 cumulative IPC: 1.779 (Simulation time: 00 hr 23 min 11 sec)
Heartbeat CPU 0 instructions: 184501146 cycles: 87877278 heartbeat IPC: 1.832 cumulative IPC: 1.779 (Simulation time: 00 hr 23 min 15 sec)
Heartbeat CPU 0 instructions: 185001149 cycles: 88161451 heartbeat IPC: 1.76 cumulative IPC: 1.779 (Simulation time: 00 hr 23 min 20 sec)
Heartbeat CPU 0 instructions: 185501149 cycles: 88442241 heartbeat IPC: 1.781 cumulative IPC: 1.779 (Simulation time: 00 hr 23 min 24 sec)
Heartbeat CPU 0 instructions: 186001155 cycles: 88732469 heartbeat IPC: 1.723 cumulative IPC: 1.779 (Simulation time: 00 hr 23 min 29 sec)
Heartbeat CPU 0 instructions: 186501159 cycles: 89015897 heartbeat IPC: 1.764 cumulative IPC: 1.779 (Simulation time: 00 hr 23 min 33 sec)
Heartbeat CPU 0 instructions: 187001166 cycles: 89303643 heartbeat IPC: 1.738 cumulative IPC: 1.779 (Simulation time: 00 hr 23 min 38 sec)
Heartbeat CPU 0 instructions: 187501166 cycles: 89588592 heartbeat IPC: 1.755 cumulative IPC: 1.779 (Simulation time: 00 hr 23 min 42 sec)
Heartbeat CPU 0 instructions: 188001170 cycles: 89868937 heartbeat IPC: 1.784 cumulative IPC: 1.779 (Simulation time: 00 hr 23 min 47 sec)
Heartbeat CPU 0 instructions: 188501170 cycles: 90150468 heartbeat IPC: 1.776 cumulative IPC: 1.779 (Simulation time: 00 hr 23 min 51 sec)
Heartbeat CPU 0 instructions: 189001176 cycles: 90437261 heartbeat IPC: 1.743 cumulative IPC: 1.779 (Simulation time: 00 hr 23 min 55 sec)
Heartbeat CPU 0 instructions: 189501182 cycles: 90714161 heartbeat IPC: 1.806 cumulative IPC: 1.779 (Simulation time: 00 hr 24 min 00 sec)
Heartbeat CPU 0 instructions: 190001188 cycles: 90995498 heartbeat IPC: 1.777 cumulative IPC: 1.779 (Simulation time: 00 hr 24 min 04 sec)
Heartbeat CPU 0 instructions: 190501190 cycles: 91271741 heartbeat IPC: 1.81 cumulative IPC: 1.779 (Simulation time: 00 hr 24 min 08 sec)
Heartbeat CPU 0 instructions: 191001192 cycles: 91549523 heartbeat IPC: 1.8 cumulative IPC: 1.779 (Simulation time: 00 hr 24 min 13 sec)
Heartbeat CPU 0 instructions: 191501194 cycles: 91833387 heartbeat IPC: 1.761 cumulative IPC: 1.779 (Simulation time: 00 hr 24 min 17 sec)
Heartbeat CPU 0 instructions: 192001197 cycles: 92110135 heartbeat IPC: 1.807 cumulative IPC: 1.779 (Simulation time: 00 hr 24 min 22 sec)
Heartbeat CPU 0 instructions: 192501197 cycles: 92397893 heartbeat IPC: 1.738 cumulative IPC: 1.779 (Simulation time: 00 hr 24 min 26 sec)
Heartbeat CPU 0 instructions: 193001198 cycles: 92682217 heartbeat IPC: 1.759 cumulative IPC: 1.779 (Simulation time: 00 hr 24 min 31 sec)
Heartbeat CPU 0 instructions: 193501202 cycles: 92963499 heartbeat IPC: 1.778 cumulative IPC: 1.779 (Simulation time: 00 hr 24 min 35 sec)
Heartbeat CPU 0 instructions: 194001203 cycles: 93248873 heartbeat IPC: 1.752 cumulative IPC: 1.779 (Simulation time: 00 hr 24 min 40 sec)
Heartbeat CPU 0 instructions: 194501208 cycles: 93527839 heartbeat IPC: 1.792 cumulative IPC: 1.779 (Simulation time: 00 hr 24 min 44 sec)
Heartbeat CPU 0 instructions: 195001212 cycles: 93815519 heartbeat IPC: 1.738 cumulative IPC: 1.778 (Simulation time: 00 hr 24 min 48 sec)
Heartbeat CPU 0 instructions: 195501212 cycles: 94092689 heartbeat IPC: 1.804 cumulative IPC: 1.779 (Simulation time: 00 hr 24 min 53 sec)
Heartbeat CPU 0 instructions: 196001214 cycles: 94370953 heartbeat IPC: 1.797 cumulative IPC: 1.779 (Simulation time: 00 hr 24 min 57 sec)
Heartbeat CPU 0 instructions: 196501214 cycles: 94654320 heartbeat IPC: 1.764 cumulative IPC: 1.779 (Simulation time: 00 hr 25 min 02 sec)
Heartbeat CPU 0 instructions: 197001220 cycles: 94943527 heartbeat IPC: 1.729 cumulative IPC: 1.778 (Simulation time: 00 hr 25 min 06 sec)
Heartbeat CPU 0 instructions: 197501222 cycles: 95225928 heartbeat IPC: 1.771 cumulative IPC: 1.778 (Simulation time: 00 hr 25 min 10 sec)
Heartbeat CPU 0 instructions: 198001224 cycles: 95510280 heartbeat IPC: 1.758 cumulative IPC: 1.778 (Simulation time: 00 hr 25 min 15 sec)
Heartbeat CPU 0 instructions: 198501228 cycles: 95794070 heartbeat IPC: 1.762 cumulative IPC: 1.778 (Simulation time: 00 hr 25 min 19 sec)
Heartbeat CPU 0 instructions: 199001234 cycles: 96073061 heartbeat IPC: 1.792 cumulative IPC: 1.778 (Simulation time: 00 hr 25 min 24 sec)
Heartbeat CPU 0 instructions: 199501234 cycles: 96348827 heartbeat IPC: 1.813 cumulative IPC: 1.778 (Simulation time: 00 hr 25 min 28 sec)
Heartbeat CPU 0 instructions: 200001238 cycles: 96634205 heartbeat IPC: 1.752 cumulative IPC: 1.778 (Simulation time: 00 hr 25 min 33 sec)
Heartbeat CPU 0 instructions: 200501242 cycles: 96910093 heartbeat IPC: 1.812 cumulative IPC: 1.778 (Simulation time: 00 hr 25 min 37 sec)
Heartbeat CPU 0 instructions: 201001246 cycles: 97198831 heartbeat IPC: 1.732 cumulative IPC: 1.778 (Simulation time: 00 hr 25 min 41 sec)
Heartbeat CPU 0 instructions: 201501246 cycles: 97480360 heartbeat IPC: 1.776 cumulative IPC: 1.778 (Simulation time: 00 hr 25 min 46 sec)
Heartbeat CPU 0 instructions: 202001246 cycles: 97762997 heartbeat IPC: 1.769 cumulative IPC: 1.778 (Simulation time: 00 hr 25 min 50 sec)
Heartbeat CPU 0 instructions: 202501253 cycles: 98041152 heartbeat IPC: 1.798 cumulative IPC: 1.778 (Simulation time: 00 hr 25 min 55 sec)
Heartbeat CPU 0 instructions: 203001256 cycles: 98324263 heartbeat IPC: 1.766 cumulative IPC: 1.778 (Simulation time: 00 hr 25 min 59 sec)
Heartbeat CPU 0 instructions: 203501262 cycles: 98603248 heartbeat IPC: 1.792 cumulative IPC: 1.778 (Simulation time: 00 hr 26 min 03 sec)
Heartbeat CPU 0 instructions: 204001268 cycles: 98883971 heartbeat IPC: 1.781 cumulative IPC: 1.778 (Simulation time: 00 hr 26 min 08 sec)
Heartbeat CPU 0 instructions: 204501270 cycles: 99172967 heartbeat IPC: 1.73 cumulative IPC: 1.778 (Simulation time: 00 hr 26 min 12 sec)
Heartbeat CPU 0 instructions: 205001271 cycles: 99456807 heartbeat IPC: 1.762 cumulative IPC: 1.778 (Simulation time: 00 hr 26 min 17 sec)
Heartbeat CPU 0 instructions: 205501273 cycles: 99740412 heartbeat IPC: 1.763 cumulative IPC: 1.778 (Simulation time: 00 hr 26 min 21 sec)
Heartbeat CPU 0 instructions: 206001275 cycles: 100019945 heartbeat IPC: 1.789 cumulative IPC: 1.778 (Simulation time: 00 hr 26 min 26 sec)
Heartbeat CPU 0 instructions: 206501278 cycles: 100305290 heartbeat IPC: 1.752 cumulative IPC: 1.778 (Simulation time: 00 hr 26 min 30 sec)
Heartbeat CPU 0 instructions: 207001280 cycles: 100582581 heartbeat IPC: 1.803 cumulative IPC: 1.778 (Simulation time: 00 hr 26 min 34 sec)
Heartbeat CPU 0 instructions: 207501282 cycles: 100865115 heartbeat IPC: 1.77 cumulative IPC: 1.778 (Simulation time: 00 hr 26 min 39 sec)
Heartbeat CPU 0 instructions: 208001284 cycles: 101147294 heartbeat IPC: 1.772 cumulative IPC: 1.778 (Simulation time: 00 hr 26 min 43 sec)
Heartbeat CPU 0 instructions: 208501288 cycles: 101421154 heartbeat IPC: 1.826 cumulative IPC: 1.778 (Simulation time: 00 hr 26 min 48 sec)
Heartbeat CPU 0 instructions: 209001294 cycles: 101699416 heartbeat IPC: 1.797 cumulative IPC: 1.778 (Simulation time: 00 hr 26 min 52 sec)
Heartbeat CPU 0 instructions: 209501300 cycles: 101976761 heartbeat IPC: 1.803 cumulative IPC: 1.778 (Simulation time: 00 hr 26 min 56 sec)
Heartbeat CPU 0 instructions: 210001307 cycles: 102254168 heartbeat IPC: 1.802 cumulative IPC: 1.778 (Simulation time: 00 hr 27 min 01 sec)
Heartbeat CPU 0 instructions: 210501310 cycles: 102533529 heartbeat IPC: 1.79 cumulative IPC: 1.778 (Simulation time: 00 hr 27 min 05 sec)
Heartbeat CPU 0 instructions: 211001316 cycles: 102822091 heartbeat IPC: 1.733 cumulative IPC: 1.778 (Simulation time: 00 hr 27 min 09 sec)
Heartbeat CPU 0 instructions: 211501317 cycles: 103105918 heartbeat IPC: 1.762 cumulative IPC: 1.778 (Simulation time: 00 hr 27 min 14 sec)
Heartbeat CPU 0 instructions: 212001318 cycles: 103384293 heartbeat IPC: 1.796 cumulative IPC: 1.778 (Simulation time: 00 hr 27 min 18 sec)
Heartbeat CPU 0 instructions: 212501321 cycles: 103670256 heartbeat IPC: 1.748 cumulative IPC: 1.778 (Simulation time: 00 hr 27 min 23 sec)
Heartbeat CPU 0 instructions: 213001322 cycles: 103952173 heartbeat IPC: 1.774 cumulative IPC: 1.778 (Simulation time: 00 hr 27 min 27 sec)
Heartbeat CPU 0 instructions: 213501327 cycles: 104237283 heartbeat IPC: 1.754 cumulative IPC: 1.778 (Simulation time: 00 hr 27 min 31 sec)
Heartbeat CPU 0 instructions: 214001331 cycles: 104514819 heartbeat IPC: 1.802 cumulative IPC: 1.778 (Simulation time: 00 hr 27 min 36 sec)
Heartbeat CPU 0 instructions: 214501333 cycles: 104797277 heartbeat IPC: 1.77 cumulative IPC: 1.778 (Simulation time: 00 hr 27 min 40 sec)
Heartbeat CPU 0 instructions: 215001333 cycles: 105076538 heartbeat IPC: 1.79 cumulative IPC: 1.778 (Simulation time: 00 hr 27 min 45 sec)
Heartbeat CPU 0 instructions: 215501336 cycles: 105354083 heartbeat IPC: 1.802 cumulative IPC: 1.778 (Simulation time: 00 hr 27 min 49 sec)
Heartbeat CPU 0 instructions: 216001336 cycles: 105636033 heartbeat IPC: 1.773 cumulative IPC: 1.778 (Simulation time: 00 hr 27 min 54 sec)
Heartbeat CPU 0 instructions: 216501340 cycles: 105912542 heartbeat IPC: 1.808 cumulative IPC: 1.778 (Simulation time: 00 hr 27 min 58 sec)
Heartbeat CPU 0 instructions: 217001342 cycles: 106193365 heartbeat IPC: 1.78 cumulative IPC: 1.778 (Simulation time: 00 hr 28 min 02 sec)
Heartbeat CPU 0 instructions: 217501348 cycles: 106475668 heartbeat IPC: 1.771 cumulative IPC: 1.778 (Simulation time: 00 hr 28 min 07 sec)
Heartbeat CPU 0 instructions: 218001354 cycles: 106764109 heartbeat IPC: 1.733 cumulative IPC: 1.778 (Simulation time: 00 hr 28 min 11 sec)
Heartbeat CPU 0 instructions: 218501360 cycles: 107048984 heartbeat IPC: 1.755 cumulative IPC: 1.778 (Simulation time: 00 hr 28 min 16 sec)
Heartbeat CPU 0 instructions: 219001362 cycles: 107330681 heartbeat IPC: 1.775 cumulative IPC: 1.778 (Simulation time: 00 hr 28 min 20 sec)
Heartbeat CPU 0 instructions: 219501367 cycles: 107605801 heartbeat IPC: 1.817 cumulative IPC: 1.778 (Simulation time: 00 hr 28 min 25 sec)
Heartbeat CPU 0 instructions: 220001374 cycles: 107889667 heartbeat IPC: 1.761 cumulative IPC: 1.778 (Simulation time: 00 hr 28 min 29 sec)
Heartbeat CPU 0 instructions: 220501379 cycles: 108169930 heartbeat IPC: 1.784 cumulative IPC: 1.778 (Simulation time: 00 hr 28 min 33 sec)
Heartbeat CPU 0 instructions: 221001386 cycles: 108454317 heartbeat IPC: 1.758 cumulative IPC: 1.778 (Simulation time: 00 hr 28 min 38 sec)
Heartbeat CPU 0 instructions: 221501386 cycles: 108743299 heartbeat IPC: 1.73 cumulative IPC: 1.778 (Simulation time: 00 hr 28 min 42 sec)
Heartbeat CPU 0 instructions: 222001391 cycles: 109024976 heartbeat IPC: 1.775 cumulative IPC: 1.778 (Simulation time: 00 hr 28 min 47 sec)
Heartbeat CPU 0 instructions: 222501398 cycles: 109304976 heartbeat IPC: 1.786 cumulative IPC: 1.778 (Simulation time: 00 hr 28 min 51 sec)
Heartbeat CPU 0 instructions: 223001404 cycles: 109582672 heartbeat IPC: 1.801 cumulative IPC: 1.778 (Simulation time: 00 hr 28 min 55 sec)
Heartbeat CPU 0 instructions: 223501406 cycles: 109864123 heartbeat IPC: 1.777 cumulative IPC: 1.778 (Simulation time: 00 hr 29 min 00 sec)
Heartbeat CPU 0 instructions: 224001406 cycles: 110149443 heartbeat IPC: 1.752 cumulative IPC: 1.778 (Simulation time: 00 hr 29 min 04 sec)
Heartbeat CPU 0 instructions: 224501410 cycles: 110430259 heartbeat IPC: 1.781 cumulative IPC: 1.778 (Simulation time: 00 hr 29 min 09 sec)
Heartbeat CPU 0 instructions: 225001412 cycles: 110714569 heartbeat IPC: 1.759 cumulative IPC: 1.778 (Simulation time: 00 hr 29 min 13 sec)
Heartbeat CPU 0 instructions: 225501415 cycles: 110982114 heartbeat IPC: 1.869 cumulative IPC: 1.778 (Simulation time: 00 hr 29 min 17 sec)
Heartbeat CPU 0 instructions: 226001415 cycles: 111268776 heartbeat IPC: 1.744 cumulative IPC: 1.778 (Simulation time: 00 hr 29 min 22 sec)
Heartbeat CPU 0 instructions: 226501420 cycles: 111550952 heartbeat IPC: 1.772 cumulative IPC: 1.778 (Simulation time: 00 hr 29 min 26 sec)
Heartbeat CPU 0 instructions: 227001422 cycles: 111831638 heartbeat IPC: 1.781 cumulative IPC: 1.778 (Simulation time: 00 hr 29 min 30 sec)
Heartbeat CPU 0 instructions: 227501422 cycles: 112105437 heartbeat IPC: 1.826 cumulative IPC: 1.778 (Simulation time: 00 hr 29 min 35 sec)
Heartbeat CPU 0 instructions: 228001426 cycles: 112385051 heartbeat IPC: 1.788 cumulative IPC: 1.778 (Simulation time: 00 hr 29 min 39 sec)
Heartbeat CPU 0 instructions: 228501430 cycles: 112675237 heartbeat IPC: 1.723 cumulative IPC: 1.778 (Simulation time: 00 hr 29 min 44 sec)
Heartbeat CPU 0 instructions: 229001432 cycles: 112954732 heartbeat IPC: 1.789 cumulative IPC: 1.778 (Simulation time: 00 hr 29 min 48 sec)
Heartbeat CPU 0 instructions: 229501432 cycles: 113241874 heartbeat IPC: 1.741 cumulative IPC: 1.778 (Simulation time: 00 hr 29 min 52 sec)
Heartbeat CPU 0 instructions: 230001438 cycles: 113518949 heartbeat IPC: 1.805 cumulative IPC: 1.778 (Simulation time: 00 hr 29 min 57 sec)
Heartbeat CPU 0 instructions: 230501438 cycles: 113801667 heartbeat IPC: 1.769 cumulative IPC: 1.778 (Simulation time: 00 hr 30 min 01 sec)
Heartbeat CPU 0 instructions: 231001438 cycles: 114075498 heartbeat IPC: 1.826 cumulative IPC: 1.778 (Simulation time: 00 hr 30 min 06 sec)
Heartbeat CPU 0 instructions: 231501440 cycles: 114357898 heartbeat IPC: 1.771 cumulative IPC: 1.778 (Simulation time: 00 hr 30 min 10 sec)
Heartbeat CPU 0 instructions: 232001442 cycles: 114638611 heartbeat IPC: 1.781 cumulative IPC: 1.778 (Simulation time: 00 hr 30 min 15 sec)
Heartbeat CPU 0 instructions: 232501448 cycles: 114922234 heartbeat IPC: 1.763 cumulative IPC: 1.778 (Simulation time: 00 hr 30 min 19 sec)
Heartbeat CPU 0 instructions: 233001448 cycles: 115210806 heartbeat IPC: 1.733 cumulative IPC: 1.778 (Simulation time: 00 hr 30 min 24 sec)
Heartbeat CPU 0 instructions: 233501448 cycles: 115490520 heartbeat IPC: 1.788 cumulative IPC: 1.778 (Simulation time: 00 hr 30 min 28 sec)
Heartbeat CPU 0 instructions: 234001455 cycles: 115766924 heartbeat IPC: 1.809 cumulative IPC: 1.778 (Simulation time: 00 hr 30 min 32 sec)
Heartbeat CPU 0 instructions: 234501462 cycles: 116055860 heartbeat IPC: 1.731 cumulative IPC: 1.778 (Simulation time: 00 hr 30 min 37 sec)
Heartbeat CPU 0 instructions: 235001466 cycles: 116339241 heartbeat IPC: 1.764 cumulative IPC: 1.778 (Simulation time: 00 hr 30 min 41 sec)
Heartbeat CPU 0 instructions: 235501468 cycles: 116622032 heartbeat IPC: 1.768 cumulative IPC: 1.778 (Simulation time: 00 hr 30 min 46 sec)
Heartbeat CPU 0 instructions: 236001474 cycles: 116905515 heartbeat IPC: 1.764 cumulative IPC: 1.778 (Simulation time: 00 hr 30 min 50 sec)
Heartbeat CPU 0 instructions: 236501475 cycles: 117185394 heartbeat IPC: 1.786 cumulative IPC: 1.778 (Simulation time: 00 hr 30 min 55 sec)
Heartbeat CPU 0 instructions: 237001477 cycles: 117467198 heartbeat IPC: 1.774 cumulative IPC: 1.778 (Simulation time: 00 hr 30 min 59 sec)
Heartbeat CPU 0 instructions: 237501482 cycles: 117741531 heartbeat IPC: 1.823 cumulative IPC: 1.778 (Simulation time: 00 hr 31 min 03 sec)
Heartbeat CPU 0 instructions: 238001484 cycles: 118018879 heartbeat IPC: 1.803 cumulative IPC: 1.778 (Simulation time: 00 hr 31 min 08 sec)
Heartbeat CPU 0 instructions: 238501484 cycles: 118299706 heartbeat IPC: 1.78 cumulative IPC: 1.778 (Simulation time: 00 hr 31 min 12 sec)
Heartbeat CPU 0 instructions: 239001486 cycles: 118582061 heartbeat IPC: 1.771 cumulative IPC: 1.778 (Simulation time: 00 hr 31 min 16 sec)
Heartbeat CPU 0 instructions: 239501488 cycles: 118861821 heartbeat IPC: 1.787 cumulative IPC: 1.778 (Simulation time: 00 hr 31 min 21 sec)
Heartbeat CPU 0 instructions: 240001490 cycles: 119139073 heartbeat IPC: 1.803 cumulative IPC: 1.778 (Simulation time: 00 hr 31 min 25 sec)
Heartbeat CPU 0 instructions: 240501492 cycles: 119425670 heartbeat IPC: 1.745 cumulative IPC: 1.778 (Simulation time: 00 hr 31 min 30 sec)
Heartbeat CPU 0 instructions: 241001494 cycles: 119707297 heartbeat IPC: 1.775 cumulative IPC: 1.778 (Simulation time: 00 hr 31 min 34 sec)
Heartbeat CPU 0 instructions: 241501496 cycles: 119989886 heartbeat IPC: 1.769 cumulative IPC: 1.778 (Simulation time: 00 hr 31 min 39 sec)
Heartbeat CPU 0 instructions: 242001498 cycles: 120278082 heartbeat IPC: 1.735 cumulative IPC: 1.778 (Simulation time: 00 hr 31 min 43 sec)
Heartbeat CPU 0 instructions: 242501498 cycles: 120554758 heartbeat IPC: 1.807 cumulative IPC: 1.778 (Simulation time: 00 hr 31 min 48 sec)
Heartbeat CPU 0 instructions: 243001504 cycles: 120838229 heartbeat IPC: 1.764 cumulative IPC: 1.778 (Simulation time: 00 hr 31 min 52 sec)
Heartbeat CPU 0 instructions: 243501504 cycles: 121123908 heartbeat IPC: 1.75 cumulative IPC: 1.778 (Simulation time: 00 hr 31 min 57 sec)
Heartbeat CPU 0 instructions: 244001507 cycles: 121398486 heartbeat IPC: 1.821 cumulative IPC: 1.778 (Simulation time: 00 hr 32 min 01 sec)
Heartbeat CPU 0 instructions: 244501509 cycles: 121678404 heartbeat IPC: 1.786 cumulative IPC: 1.778 (Simulation time: 00 hr 32 min 06 sec)
Heartbeat CPU 0 instructions: 245001512 cycles: 121963656 heartbeat IPC: 1.753 cumulative IPC: 1.778 (Simulation time: 00 hr 32 min 10 sec)
Heartbeat CPU 0 instructions: 245501517 cycles: 122244695 heartbeat IPC: 1.779 cumulative IPC: 1.778 (Simulation time: 00 hr 32 min 15 sec)
Heartbeat CPU 0 instructions: 246001519 cycles: 122523221 heartbeat IPC: 1.795 cumulative IPC: 1.778 (Simulation time: 00 hr 32 min 19 sec)
Heartbeat CPU 0 instructions: 246501526 cycles: 122808482 heartbeat IPC: 1.753 cumulative IPC: 1.778 (Simulation time: 00 hr 32 min 23 sec)
Heartbeat CPU 0 instructions: 247001526 cycles: 123097684 heartbeat IPC: 1.729 cumulative IPC: 1.778 (Simulation time: 00 hr 32 min 28 sec)
Heartbeat CPU 0 instructions: 247501532 cycles: 123377035 heartbeat IPC: 1.79 cumulative IPC: 1.778 (Simulation time: 00 hr 32 min 32 sec)
Heartbeat CPU 0 instructions: 248001539 cycles: 123660461 heartbeat IPC: 1.764 cumulative IPC: 1.778 (Simulation time: 00 hr 32 min 37 sec)
Heartbeat CPU 0 instructions: 248501544 cycles: 123939777 heartbeat IPC: 1.79 cumulative IPC: 1.778 (Simulation time: 00 hr 32 min 41 sec)
Heartbeat CPU 0 instructions: 249001544 cycles: 124228107 heartbeat IPC: 1.734 cumulative IPC: 1.778 (Simulation time: 00 hr 32 min 46 sec)
Heartbeat CPU 0 instructions: 249501550 cycles: 124504726 heartbeat IPC: 1.808 cumulative IPC: 1.778 (Simulation time: 00 hr 32 min 50 sec)
*** Reached end of trace: (0, "/local-ssd/ben/dpc4-traces/Graph/Ligra/ligra_CF.com-lj.ungraph.gcc_6.3.0_O3.drop_154750M.length_250M.champsimtrace.xz")
Simulation finished CPU 0 instructions: 200000007 cycles: 112501486 cumulative IPC: 1.778 (Simulation time: 00 hr 32 min 55 sec)
Simulation complete CPU 0 instructions: 200000007 cycles: 112501486 cumulative IPC: 1.778 (Simulation time: 00 hr 32 min 55 sec)

ChampSim completed all CPUs

=== Simulation ===
CPU 0 runs /local-ssd/ben/dpc4-traces/Graph/Ligra/ligra_CF.com-lj.ungraph.gcc_6.3.0_O3.drop_154750M.length_250M.champsimtrace.xz

Region of Interest Statistics

CPU 0 cumulative IPC: 1.778 instructions: 200000007 cycles: 112501486
CPU 0 Branch Prediction Accuracy: 95.83% MPKI: 3.205 Average ROB Occupancy at Mispredict: 142.6
Branch type MPKI
BRANCH_DIRECT_JUMP: 0
BRANCH_INDIRECT: 0
BRANCH_CONDITIONAL: 3.205
BRANCH_DIRECT_CALL: 0
BRANCH_INDIRECT_CALL: 0
BRANCH_RETURN: 0

cpu0->cpu0_STLB TOTAL        ACCESS:      50238 HIT:          0 MISS:      50238 MSHR_MERGE:          0
cpu0->cpu0_STLB LOAD         ACCESS:      50238 HIT:          0 MISS:      50238 MSHR_MERGE:          0
cpu0->cpu0_STLB RFO          ACCESS:          0 HIT:          0 MISS:          0 MSHR_MERGE:          0
cpu0->cpu0_STLB PREFETCH     ACCESS:          0 HIT:          0 MISS:          0 MSHR_MERGE:          0
cpu0->cpu0_STLB WRITE        ACCESS:          0 HIT:          0 MISS:          0 MSHR_MERGE:          0
cpu0->cpu0_STLB TRANSLATION  ACCESS:          0 HIT:          0 MISS:          0 MSHR_MERGE:          0
cpu0->cpu0_STLB PREFETCH REQUESTED:          0 ISSUED:          0 USEFUL:          0 USELESS:          0
cpu0->cpu0_STLB AVERAGE MISS LATENCY: 243.3 cycles
cpu0->cpu0_L2C TOTAL        ACCESS:   19247887 HIT:   10391300 MISS:    8856587 MSHR_MERGE:    5635034
cpu0->cpu0_L2C LOAD         ACCESS:     506442 HIT:     479081 MISS:      27361 MSHR_MERGE:      14953
cpu0->cpu0_L2C RFO          ACCESS:          0 HIT:          0 MISS:          0 MSHR_MERGE:          0
cpu0->cpu0_L2C PREFETCH     ACCESS:   15529786 HIT:    6706945 MISS:    8822841 MSHR_MERGE:    5620081
cpu0->cpu0_L2C WRITE        ACCESS:    3205143 HIT:    3205143 MISS:          0 MSHR_MERGE:          0
cpu0->cpu0_L2C TRANSLATION  ACCESS:       6516 HIT:        131 MISS:       6385 MSHR_MERGE:          0
cpu0->cpu0_L2C PREFETCH REQUESTED:   13357623 ISSUED:   12811058 USEFUL:    2920881 USELESS:          0
cpu0->cpu0_L2C AVERAGE MISS LATENCY: 500.4 cycles
cpu0->cpu0_L1I TOTAL        ACCESS:   21153805 HIT:   21153805 MISS:          0 MSHR_MERGE:          0
cpu0->cpu0_L1I LOAD         ACCESS:   21153805 HIT:   21153805 MISS:          0 MSHR_MERGE:          0
cpu0->cpu0_L1I RFO          ACCESS:          0 HIT:          0 MISS:          0 MSHR_MERGE:          0
cpu0->cpu0_L1I PREFETCH     ACCESS:          0 HIT:          0 MISS:          0 MSHR_MERGE:          0
cpu0->cpu0_L1I WRITE        ACCESS:          0 HIT:          0 MISS:          0 MSHR_MERGE:          0
cpu0->cpu0_L1I TRANSLATION  ACCESS:          0 HIT:          0 MISS:          0 MSHR_MERGE:          0
cpu0->cpu0_L1I PREFETCH REQUESTED:          0 ISSUED:          0 USEFUL:          0 USELESS:          0
cpu0->cpu0_L1I AVERAGE MISS LATENCY: - cycles
cpu0->cpu0_L1D TOTAL        ACCESS:   52817232 HIT:   44910694 MISS:    7906538 MSHR_MERGE:    4674839
cpu0->cpu0_L1D LOAD         ACCESS:   18212606 HIT:   16564295 MISS:    1648311 MSHR_MERGE:    1141870
cpu0->cpu0_L1D RFO          ACCESS:          0 HIT:          0 MISS:          0 MSHR_MERGE:          0
cpu0->cpu0_L1D PREFETCH     ACCESS:    8862997 HIT:    2611286 MISS:    6251711 MSHR_MERGE:    3532969
cpu0->cpu0_L1D WRITE        ACCESS:   25641057 HIT:   25641057 MISS:          0 MSHR_MERGE:          0
cpu0->cpu0_L1D TRANSLATION  ACCESS:     100572 HIT:      94056 MISS:       6516 MSHR_MERGE:          0
cpu0->cpu0_L1D PREFETCH REQUESTED:   22436452 ISSUED:    8862986 USEFUL:    2708697 USELESS:      10015
cpu0->cpu0_L1D AVERAGE MISS LATENCY: 153.7 cycles
cpu0->cpu0_ITLB TOTAL        ACCESS:   12179469 HIT:   12179469 MISS:          0 MSHR_MERGE:          0
cpu0->cpu0_ITLB LOAD         ACCESS:   12179469 HIT:   12179469 MISS:          0 MSHR_MERGE:          0
cpu0->cpu0_ITLB RFO          ACCESS:          0 HIT:          0 MISS:          0 MSHR_MERGE:          0
cpu0->cpu0_ITLB PREFETCH     ACCESS:          0 HIT:          0 MISS:          0 MSHR_MERGE:          0
cpu0->cpu0_ITLB WRITE        ACCESS:          0 HIT:          0 MISS:          0 MSHR_MERGE:          0
cpu0->cpu0_ITLB TRANSLATION  ACCESS:          0 HIT:          0 MISS:          0 MSHR_MERGE:          0
cpu0->cpu0_ITLB PREFETCH REQUESTED:          0 ISSUED:          0 USEFUL:          0 USELESS:          0
cpu0->cpu0_ITLB AVERAGE MISS LATENCY: - cycles
cpu0->cpu0_DTLB TOTAL        ACCESS:   40185814 HIT:   39590978 MISS:     594836 MSHR_MERGE:     544598
cpu0->cpu0_DTLB LOAD         ACCESS:   40185814 HIT:   39590978 MISS:     594836 MSHR_MERGE:     544598
cpu0->cpu0_DTLB RFO          ACCESS:          0 HIT:          0 MISS:          0 MSHR_MERGE:          0
cpu0->cpu0_DTLB PREFETCH     ACCESS:          0 HIT:          0 MISS:          0 MSHR_MERGE:          0
cpu0->cpu0_DTLB WRITE        ACCESS:          0 HIT:          0 MISS:          0 MSHR_MERGE:          0
cpu0->cpu0_DTLB TRANSLATION  ACCESS:          0 HIT:          0 MISS:          0 MSHR_MERGE:          0
cpu0->cpu0_DTLB PREFETCH REQUESTED:          0 ISSUED:          0 USEFUL:          0 USELESS:          0
cpu0->cpu0_DTLB AVERAGE MISS LATENCY: 249.3 cycles
cpu0->LLC TOTAL        ACCESS:    9540682 HIT:    2595342 MISS:    6945340 MSHR_MERGE:    1820644
cpu0->LLC LOAD         ACCESS:      12408 HIT:       8578 MISS:       3830 MSHR_MERGE:       3823
cpu0->LLC RFO          ACCESS:          0 HIT:          0 MISS:          0 MSHR_MERGE:          0
cpu0->LLC PREFETCH     ACCESS:    6316762 HIT:    1283181 MISS:    5033581 MSHR_MERGE:    1816821
cpu0->LLC WRITE        ACCESS:    3205128 HIT:    1303583 MISS:    1901545 MSHR_MERGE:          0
cpu0->LLC TRANSLATION  ACCESS:       6384 HIT:          0 MISS:       6384 MSHR_MERGE:          0
cpu0->LLC PREFETCH REQUESTED:    3122955 ISSUED:    3114000 USEFUL:    1380764 USELESS:    1330905
cpu0->LLC AVERAGE MISS LATENCY: 19.52 cycles

DRAM Statistics

Channel 0 RQ ROW_BUFFER_HIT:     232192
  ROW_BUFFER_MISS:    2990953
  AVG DBUS CONGESTED CYCLE: 9.542
Channel 0 WQ ROW_BUFFER_HIT:     159278
  ROW_BUFFER_MISS:    3039840
  FULL:     957396
Channel 0 REFRESHES ISSUED:       9374
