[VMEM] WARNING: physical memory size is smaller than virtual memory size.

*** ChampSim Multicore Out-of-Order Simulator ***
Warmup Instructions: 50000000
Simulation Instructions: 200000000
Number of CPUs: 1
Page size: 4096
Core 0: /local-ssd/ben/dpc4-traces/Graph/GAP/cc-5.trace.gz
Off-chip DRAM Size: 64 GiB Channels: 1 Width: 64-bit Data Rate: 4807 MT/s
Heartbeat CPU 0 instructions: 500004 cycles: 151360 heartbeat IPC: 3.303 cumulative IPC: 3.303 (Simulation time: 00 hr 00 min 04 sec)
Heartbeat CPU 0 instructions: 1000005 cycles: 299075 heartbeat IPC: 3.385 cumulative IPC: 3.344 (Simulation time: 00 hr 00 min 07 sec)
Heartbeat CPU 0 instructions: 1500005 cycles: 446636 heartbeat IPC: 3.388 cumulative IPC: 3.358 (Simulation time: 00 hr 00 min 09 sec)
Heartbeat CPU 0 instructions: 2000007 cycles: 554697 heartbeat IPC: 4.627 cumulative IPC: 3.606 (Simulation time: 00 hr 00 min 12 sec)
Heartbeat CPU 0 instructions: 2500008 cycles: 654701 heartbeat IPC: 5 cumulative IPC: 3.819 (Simulation time: 00 hr 00 min 15 sec)
Heartbeat CPU 0 instructions: 3000013 cycles: 754713 heartbeat IPC: 4.999 cumulative IPC: 3.975 (Simulation time: 00 hr 00 min 19 sec)
Heartbeat CPU 0 instructions: 3500018 cycles: 854709 heartbeat IPC: 5 cumulative IPC: 4.095 (Simulation time: 00 hr 00 min 22 sec)
Heartbeat CPU 0 instructions: 4000024 cycles: 954715 heartbeat IPC: 5 cumulative IPC: 4.19 (Simulation time: 00 hr 00 min 25 sec)
Heartbeat CPU 0 instructions: 4500026 cycles: 1054711 heartbeat IPC: 5 cumulative IPC: 4.267 (Simulation time: 00 hr 00 min 29 sec)
Heartbeat CPU 0 instructions: 5000028 cycles: 1154710 heartbeat IPC: 5 cumulative IPC: 4.33 (Simulation time: 00 hr 00 min 32 sec)
Heartbeat CPU 0 instructions: 5500030 cycles: 1254718 heartbeat IPC: 5 cumulative IPC: 4.383 (Simulation time: 00 hr 00 min 36 sec)
Heartbeat CPU 0 instructions: 6000035 cycles: 1354803 heartbeat IPC: 4.996 cumulative IPC: 4.429 (Simulation time: 00 hr 00 min 39 sec)
Heartbeat CPU 0 instructions: 6500040 cycles: 1454815 heartbeat IPC: 4.999 cumulative IPC: 4.468 (Simulation time: 00 hr 00 min 42 sec)
Heartbeat CPU 0 instructions: 7000047 cycles: 1554811 heartbeat IPC: 5 cumulative IPC: 4.502 (Simulation time: 00 hr 00 min 46 sec)
Heartbeat CPU 0 instructions: 7500049 cycles: 1654819 heartbeat IPC: 5 cumulative IPC: 4.532 (Simulation time: 00 hr 00 min 49 sec)
Heartbeat CPU 0 instructions: 8000052 cycles: 1754810 heartbeat IPC: 5 cumulative IPC: 4.559 (Simulation time: 00 hr 00 min 53 sec)
Heartbeat CPU 0 instructions: 8500057 cycles: 1854814 heartbeat IPC: 5 cumulative IPC: 4.583 (Simulation time: 00 hr 00 min 56 sec)
Heartbeat CPU 0 instructions: 9000058 cycles: 1954812 heartbeat IPC: 5 cumulative IPC: 4.604 (Simulation time: 00 hr 01 min 00 sec)
Heartbeat CPU 0 instructions: 9500065 cycles: 2054817 heartbeat IPC: 5 cumulative IPC: 4.623 (Simulation time: 00 hr 01 min 03 sec)
Heartbeat CPU 0 instructions: 10000068 cycles: 2154814 heartbeat IPC: 5 cumulative IPC: 4.641 (Simulation time: 00 hr 01 min 07 sec)
Heartbeat CPU 0 instructions: 10500075 cycles: 2254836 heartbeat IPC: 4.999 cumulative IPC: 4.657 (Simulation time: 00 hr 01 min 10 sec)
Heartbeat CPU 0 instructions: 11000078 cycles: 2354819 heartbeat IPC: 5.001 cumulative IPC: 4.671 (Simulation time: 00 hr 01 min 12 sec)
Heartbeat CPU 0 instructions: 11500083 cycles: 2454818 heartbeat IPC: 5 cumulative IPC: 4.685 (Simulation time: 00 hr 01 min 14 sec)
Heartbeat CPU 0 instructions: 12000089 cycles: 2554825 heartbeat IPC: 5 cumulative IPC: 4.697 (Simulation time: 00 hr 01 min 16 sec)
Heartbeat CPU 0 instructions: 12500095 cycles: 2654818 heartbeat IPC: 5 cumulative IPC: 4.708 (Simulation time: 00 hr 01 min 18 sec)
Heartbeat CPU 0 instructions: 13000096 cycles: 2754816 heartbeat IPC: 5 cumulative IPC: 4.719 (Simulation time: 00 hr 01 min 20 sec)
Heartbeat CPU 0 instructions: 13500103 cycles: 2854831 heartbeat IPC: 4.999 cumulative IPC: 4.729 (Simulation time: 00 hr 01 min 23 sec)
Heartbeat CPU 0 instructions: 14000103 cycles: 2955037 heartbeat IPC: 4.99 cumulative IPC: 4.738 (Simulation time: 00 hr 01 min 25 sec)
Heartbeat CPU 0 instructions: 14500107 cycles: 3055029 heartbeat IPC: 5 cumulative IPC: 4.746 (Simulation time: 00 hr 01 min 27 sec)
Heartbeat CPU 0 instructions: 15000114 cycles: 3155025 heartbeat IPC: 5 cumulative IPC: 4.754 (Simulation time: 00 hr 01 min 29 sec)
Heartbeat CPU 0 instructions: 15500115 cycles: 3255023 heartbeat IPC: 5 cumulative IPC: 4.762 (Simulation time: 00 hr 01 min 31 sec)
Heartbeat CPU 0 instructions: 16000121 cycles: 3355028 heartbeat IPC: 5 cumulative IPC: 4.769 (Simulation time: 00 hr 01 min 33 sec)
Heartbeat CPU 0 instructions: 16500128 cycles: 3455047 heartbeat IPC: 4.999 cumulative IPC: 4.776 (Simulation time: 00 hr 01 min 35 sec)
Heartbeat CPU 0 instructions: 17000128 cycles: 3555020 heartbeat IPC: 5.001 cumulative IPC: 4.782 (Simulation time: 00 hr 01 min 37 sec)
Heartbeat CPU 0 instructions: 17500133 cycles: 3655025 heartbeat IPC: 5 cumulative IPC: 4.788 (Simulation time: 00 hr 01 min 40 sec)
Heartbeat CPU 0 instructions: 18000139 cycles: 3755036 heartbeat IPC: 5 cumulative IPC: 4.794 (Simulation time: 00 hr 01 min 42 sec)
Heartbeat CPU 0 instructions: 18500141 cycles: 3855037 heartbeat IPC: 5 cumulative IPC: 4.799 (Simulation time: 00 hr 01 min 44 sec)
Heartbeat CPU 0 instructions: 19000141 cycles: 3955129 heartbeat IPC: 4.995 cumulative IPC: 4.804 (Simulation time: 00 hr 01 min 46 sec)
Heartbeat CPU 0 instructions: 19500143 cycles: 4055131 heartbeat IPC: 5 cumulative IPC: 4.809 (Simulation time: 00 hr 01 min 48 sec)
Heartbeat CPU 0 instructions: 20000145 cycles: 4155139 heartbeat IPC: 5 cumulative IPC: 4.813 (Simulation time: 00 hr 01 min 50 sec)
Heartbeat CPU 0 instructions: 20500149 cycles: 4255131 heartbeat IPC: 5 cumulative IPC: 4.818 (Simulation time: 00 hr 01 min 52 sec)
Heartbeat CPU 0 instructions: 21000155 cycles: 4355132 heartbeat IPC: 5 cumulative IPC: 4.822 (Simulation time: 00 hr 01 min 55 sec)
Heartbeat CPU 0 instructions: 21500160 cycles: 4455139 heartbeat IPC: 5 cumulative IPC: 4.826 (Simulation time: 00 hr 01 min 57 sec)
Heartbeat CPU 0 instructions: 22000162 cycles: 4555337 heartbeat IPC: 4.99 cumulative IPC: 4.83 (Simulation time: 00 hr 01 min 59 sec)
Heartbeat CPU 0 instructions: 22500169 cycles: 4655342 heartbeat IPC: 5 cumulative IPC: 4.833 (Simulation time: 00 hr 02 min 01 sec)
Heartbeat CPU 0 instructions: 23000170 cycles: 4755342 heartbeat IPC: 5 cumulative IPC: 4.837 (Simulation time: 00 hr 02 min 03 sec)
Heartbeat CPU 0 instructions: 23500172 cycles: 4855344 heartbeat IPC: 5 cumulative IPC: 4.84 (Simulation time: 00 hr 02 min 05 sec)
Heartbeat CPU 0 instructions: 24000175 cycles: 4955367 heartbeat IPC: 4.999 cumulative IPC: 4.843 (Simulation time: 00 hr 02 min 07 sec)
Heartbeat CPU 0 instructions: 24500179 cycles: 5055342 heartbeat IPC: 5.001 cumulative IPC: 4.846 (Simulation time: 00 hr 02 min 10 sec)
Heartbeat CPU 0 instructions: 25000179 cycles: 5155347 heartbeat IPC: 5 cumulative IPC: 4.849 (Simulation time: 00 hr 02 min 12 sec)
Heartbeat CPU 0 instructions: 25500184 cycles: 5255343 heartbeat IPC: 5 cumulative IPC: 4.852 (Simulation time: 00 hr 02 min 14 sec)
Heartbeat CPU 0 instructions: 26000186 cycles: 5355363 heartbeat IPC: 4.999 cumulative IPC: 4.855 (Simulation time: 00 hr 02 min 16 sec)
Heartbeat CPU 0 instructions: 26500193 cycles: 5455348 heartbeat IPC: 5.001 cumulative IPC: 4.858 (Simulation time: 00 hr 02 min 18 sec)
Heartbeat CPU 0 instructions: 27000197 cycles: 5555361 heartbeat IPC: 4.999 cumulative IPC: 4.86 (Simulation time: 00 hr 02 min 20 sec)
Heartbeat CPU 0 instructions: 27500203 cycles: 5655593 heartbeat IPC: 4.988 cumulative IPC: 4.862 (Simulation time: 00 hr 02 min 23 sec)
Heartbeat CPU 0 instructions: 28000207 cycles: 5755553 heartbeat IPC: 5.002 cumulative IPC: 4.865 (Simulation time: 00 hr 02 min 25 sec)
Heartbeat CPU 0 instructions: 28500208 cycles: 5855552 heartbeat IPC: 5 cumulative IPC: 4.867 (Simulation time: 00 hr 02 min 27 sec)
Heartbeat CPU 0 instructions: 29000211 cycles: 5955563 heartbeat IPC: 4.999 cumulative IPC: 4.869 (Simulation time: 00 hr 02 min 29 sec)
Heartbeat CPU 0 instructions: 29500214 cycles: 6055576 heartbeat IPC: 4.999 cumulative IPC: 4.872 (Simulation time: 00 hr 02 min 31 sec)
Heartbeat CPU 0 instructions: 30000218 cycles: 6155662 heartbeat IPC: 4.996 cumulative IPC: 4.874 (Simulation time: 00 hr 02 min 33 sec)
Heartbeat CPU 0 instructions: 30500221 cycles: 6255670 heartbeat IPC: 5 cumulative IPC: 4.876 (Simulation time: 00 hr 02 min 36 sec)
Heartbeat CPU 0 instructions: 31000221 cycles: 6355673 heartbeat IPC: 5 cumulative IPC: 4.878 (Simulation time: 00 hr 02 min 38 sec)
Heartbeat CPU 0 instructions: 31500227 cycles: 6455693 heartbeat IPC: 4.999 cumulative IPC: 4.879 (Simulation time: 00 hr 02 min 40 sec)
Heartbeat CPU 0 instructions: 32000227 cycles: 6555698 heartbeat IPC: 5 cumulative IPC: 4.881 (Simulation time: 00 hr 02 min 42 sec)
Heartbeat CPU 0 instructions: 32500232 cycles: 6655722 heartbeat IPC: 4.999 cumulative IPC: 4.883 (Simulation time: 00 hr 02 min 44 sec)
Heartbeat CPU 0 instructions: 33000234 cycles: 6755686 heartbeat IPC: 5.002 cumulative IPC: 4.885 (Simulation time: 00 hr 02 min 46 sec)
Heartbeat CPU 0 instructions: 33500236 cycles: 6856006 heartbeat IPC: 4.984 cumulative IPC: 4.886 (Simulation time: 00 hr 02 min 49 sec)
Heartbeat CPU 0 instructions: 34000237 cycles: 6956013 heartbeat IPC: 5 cumulative IPC: 4.888 (Simulation time: 00 hr 02 min 51 sec)
Heartbeat CPU 0 instructions: 34500238 cycles: 7056102 heartbeat IPC: 4.996 cumulative IPC: 4.889 (Simulation time: 00 hr 02 min 53 sec)
Heartbeat CPU 0 instructions: 35000239 cycles: 7156107 heartbeat IPC: 5 cumulative IPC: 4.891 (Simulation time: 00 hr 02 min 55 sec)
Heartbeat CPU 0 instructions: 35500244 cycles: 7256128 heartbeat IPC: 4.999 cumulative IPC: 4.892 (Simulation time: 00 hr 02 min 57 sec)
Heartbeat CPU 0 instructions: 36000247 cycles: 7356157 heartbeat IPC: 4.999 cumulative IPC: 4.894 (Simulation time: 00 hr 03 min 00 sec)
Heartbeat CPU 0 instructions: 36500252 cycles: 7456145 heartbeat IPC: 5.001 cumulative IPC: 4.895 (Simulation time: 00 hr 03 min 02 sec)
Heartbeat CPU 0 instructions: 37000258 cycles: 7556146 heartbeat IPC: 5 cumulative IPC: 4.897 (Simulation time: 00 hr 03 min 04 sec)
Heartbeat CPU 0 instructions: 37500263 cycles: 7656121 heartbeat IPC: 5.001 cumulative IPC: 4.898 (Simulation time: 00 hr 03 min 06 sec)
Heartbeat CPU 0 instructions: 38000267 cycles: 7756225 heartbeat IPC: 4.995 cumulative IPC: 4.899 (Simulation time: 00 hr 03 min 08 sec)
Heartbeat CPU 0 instructions: 38500272 cycles: 7856243 heartbeat IPC: 4.999 cumulative IPC: 4.901 (Simulation time: 00 hr 03 min 10 sec)
Heartbeat CPU 0 instructions: 39000275 cycles: 7956237 heartbeat IPC: 5 cumulative IPC: 4.902 (Simulation time: 00 hr 03 min 13 sec)
Heartbeat CPU 0 instructions: 39500277 cycles: 8056233 heartbeat IPC: 5 cumulative IPC: 4.903 (Simulation time: 00 hr 03 min 15 sec)
Heartbeat CPU 0 instructions: 40000278 cycles: 8156234 heartbeat IPC: 5 cumulative IPC: 4.904 (Simulation time: 00 hr 03 min 17 sec)
Heartbeat CPU 0 instructions: 40500279 cycles: 8256230 heartbeat IPC: 5 cumulative IPC: 4.905 (Simulation time: 00 hr 03 min 19 sec)
Heartbeat CPU 0 instructions: 41000279 cycles: 8356232 heartbeat IPC: 5 cumulative IPC: 4.907 (Simulation time: 00 hr 03 min 21 sec)
Heartbeat CPU 0 instructions: 41500281 cycles: 8456238 heartbeat IPC: 5 cumulative IPC: 4.908 (Simulation time: 00 hr 03 min 23 sec)
Heartbeat CPU 0 instructions: 42000282 cycles: 8556243 heartbeat IPC: 5 cumulative IPC: 4.909 (Simulation time: 00 hr 03 min 26 sec)
Heartbeat CPU 0 instructions: 42500285 cycles: 8656227 heartbeat IPC: 5.001 cumulative IPC: 4.91 (Simulation time: 00 hr 03 min 28 sec)
Heartbeat CPU 0 instructions: 43000288 cycles: 8756250 heartbeat IPC: 4.999 cumulative IPC: 4.911 (Simulation time: 00 hr 03 min 30 sec)
Heartbeat CPU 0 instructions: 43500290 cycles: 8856237 heartbeat IPC: 5.001 cumulative IPC: 4.912 (Simulation time: 00 hr 03 min 32 sec)
Heartbeat CPU 0 instructions: 44000291 cycles: 8956240 heartbeat IPC: 5 cumulative IPC: 4.913 (Simulation time: 00 hr 03 min 34 sec)
Heartbeat CPU 0 instructions: 44500298 cycles: 9056233 heartbeat IPC: 5 cumulative IPC: 4.914 (Simulation time: 00 hr 03 min 36 sec)
Heartbeat CPU 0 instructions: 45000300 cycles: 9156248 heartbeat IPC: 4.999 cumulative IPC: 4.915 (Simulation time: 00 hr 03 min 39 sec)
Heartbeat CPU 0 instructions: 45500307 cycles: 9256447 heartbeat IPC: 4.99 cumulative IPC: 4.916 (Simulation time: 00 hr 03 min 41 sec)
Heartbeat CPU 0 instructions: 46000314 cycles: 9356445 heartbeat IPC: 5 cumulative IPC: 4.916 (Simulation time: 00 hr 03 min 43 sec)
Heartbeat CPU 0 instructions: 46500318 cycles: 9456441 heartbeat IPC: 5 cumulative IPC: 4.917 (Simulation time: 00 hr 03 min 47 sec)
Heartbeat CPU 0 instructions: 47000319 cycles: 9556437 heartbeat IPC: 5 cumulative IPC: 4.918 (Simulation time: 00 hr 03 min 50 sec)
Heartbeat CPU 0 instructions: 47500326 cycles: 9656440 heartbeat IPC: 5 cumulative IPC: 4.919 (Simulation time: 00 hr 03 min 54 sec)
Heartbeat CPU 0 instructions: 48000333 cycles: 9756782 heartbeat IPC: 4.983 cumulative IPC: 4.92 (Simulation time: 00 hr 03 min 58 sec)
Heartbeat CPU 0 instructions: 48500335 cycles: 9856752 heartbeat IPC: 5.002 cumulative IPC: 4.921 (Simulation time: 00 hr 04 min 00 sec)
Heartbeat CPU 0 instructions: 49000339 cycles: 9956755 heartbeat IPC: 5 cumulative IPC: 4.921 (Simulation time: 00 hr 04 min 02 sec)
Heartbeat CPU 0 instructions: 49500346 cycles: 10056759 heartbeat IPC: 5 cumulative IPC: 4.922 (Simulation time: 00 hr 04 min 05 sec)
Warmup halting CPU 0 at instruction 50000004 cycle 10156693 for remainder of phase
Warmup finished CPU 0 instructions: 50000004 cycles: 10156693 cumulative IPC: 4.923 (Simulation time: 00 hr 04 min 07 sec)
Warmup complete CPU 0 instructions: 50000004 cycles: 10156693 cumulative IPC: 4.923 (Simulation time: 00 hr 04 min 07 sec)
Heartbeat CPU 0 instructions: 50000351 cycles: 10157117 heartbeat IPC: 4.982 cumulative IPC: 0.8184 (Simulation time: 00 hr 04 min 07 sec)
Heartbeat CPU 0 instructions: 50500357 cycles: 11343684 heartbeat IPC: 0.4214 cumulative IPC: 0.4215 (Simulation time: 00 hr 04 min 17 sec)
Heartbeat CPU 0 instructions: 51000357 cycles: 12322277 heartbeat IPC: 0.5109 cumulative IPC: 0.4619 (Simulation time: 00 hr 04 min 25 sec)
Heartbeat CPU 0 instructions: 51500360 cycles: 13493399 heartbeat IPC: 0.4269 cumulative IPC: 0.4497 (Simulation time: 00 hr 04 min 35 sec)
Heartbeat CPU 0 instructions: 52000361 cycles: 14526247 heartbeat IPC: 0.4841 cumulative IPC: 0.4578 (Simulation time: 00 hr 04 min 45 sec)
Heartbeat CPU 0 instructions: 52500367 cycles: 15706858 heartbeat IPC: 0.4235 cumulative IPC: 0.4505 (Simulation time: 00 hr 04 min 55 sec)
Heartbeat CPU 0 instructions: 53000368 cycles: 16870680 heartbeat IPC: 0.4296 cumulative IPC: 0.4469 (Simulation time: 00 hr 05 min 05 sec)
Heartbeat CPU 0 instructions: 53500368 cycles: 17991087 heartbeat IPC: 0.4463 cumulative IPC: 0.4468 (Simulation time: 00 hr 05 min 14 sec)
Heartbeat CPU 0 instructions: 54000370 cycles: 19048834 heartbeat IPC: 0.4727 cumulative IPC: 0.4499 (Simulation time: 00 hr 05 min 23 sec)
Heartbeat CPU 0 instructions: 54500374 cycles: 20263564 heartbeat IPC: 0.4116 cumulative IPC: 0.4453 (Simulation time: 00 hr 05 min 33 sec)
Heartbeat CPU 0 instructions: 55000378 cycles: 21485272 heartbeat IPC: 0.4093 cumulative IPC: 0.4414 (Simulation time: 00 hr 05 min 44 sec)
Heartbeat CPU 0 instructions: 55500378 cycles: 22636745 heartbeat IPC: 0.4342 cumulative IPC: 0.4407 (Simulation time: 00 hr 05 min 54 sec)
Heartbeat CPU 0 instructions: 56000382 cycles: 23673956 heartbeat IPC: 0.4821 cumulative IPC: 0.4439 (Simulation time: 00 hr 06 min 03 sec)
Heartbeat CPU 0 instructions: 56500382 cycles: 24707629 heartbeat IPC: 0.4837 cumulative IPC: 0.4467 (Simulation time: 00 hr 06 min 12 sec)
Heartbeat CPU 0 instructions: 57000384 cycles: 25819939 heartbeat IPC: 0.4495 cumulative IPC: 0.4469 (Simulation time: 00 hr 06 min 21 sec)
Heartbeat CPU 0 instructions: 57500388 cycles: 26901488 heartbeat IPC: 0.4623 cumulative IPC: 0.4479 (Simulation time: 00 hr 06 min 31 sec)
Heartbeat CPU 0 instructions: 58000389 cycles: 27925938 heartbeat IPC: 0.4881 cumulative IPC: 0.4502 (Simulation time: 00 hr 06 min 40 sec)
Heartbeat CPU 0 instructions: 58500390 cycles: 29015124 heartbeat IPC: 0.4591 cumulative IPC: 0.4507 (Simulation time: 00 hr 06 min 49 sec)
Heartbeat CPU 0 instructions: 59000392 cycles: 30103703 heartbeat IPC: 0.4593 cumulative IPC: 0.4512 (Simulation time: 00 hr 06 min 58 sec)
Heartbeat CPU 0 instructions: 59500395 cycles: 31131681 heartbeat IPC: 0.4864 cumulative IPC: 0.4529 (Simulation time: 00 hr 07 min 07 sec)
Heartbeat CPU 0 instructions: 60000398 cycles: 32185888 heartbeat IPC: 0.4743 cumulative IPC: 0.454 (Simulation time: 00 hr 07 min 17 sec)
Heartbeat CPU 0 instructions: 60500401 cycles: 33213026 heartbeat IPC: 0.4868 cumulative IPC: 0.4554 (Simulation time: 00 hr 07 min 26 sec)
Heartbeat CPU 0 instructions: 61000402 cycles: 34280203 heartbeat IPC: 0.4685 cumulative IPC: 0.456 (Simulation time: 00 hr 07 min 36 sec)
Heartbeat CPU 0 instructions: 61500408 cycles: 35370244 heartbeat IPC: 0.4587 cumulative IPC: 0.4561 (Simulation time: 00 hr 07 min 45 sec)
Heartbeat CPU 0 instructions: 62000408 cycles: 36582808 heartbeat IPC: 0.4123 cumulative IPC: 0.4541 (Simulation time: 00 hr 07 min 55 sec)
Heartbeat CPU 0 instructions: 62500410 cycles: 37747396 heartbeat IPC: 0.4293 cumulative IPC: 0.4531 (Simulation time: 00 hr 08 min 05 sec)
Heartbeat CPU 0 instructions: 63000413 cycles: 38681321 heartbeat IPC: 0.5354 cumulative IPC: 0.4558 (Simulation time: 00 hr 08 min 14 sec)
Heartbeat CPU 0 instructions: 63500414 cycles: 39774159 heartbeat IPC: 0.4575 cumulative IPC: 0.4558 (Simulation time: 00 hr 08 min 23 sec)
Heartbeat CPU 0 instructions: 64000416 cycles: 40737230 heartbeat IPC: 0.5192 cumulative IPC: 0.4578 (Simulation time: 00 hr 08 min 32 sec)
Heartbeat CPU 0 instructions: 64500418 cycles: 41707216 heartbeat IPC: 0.5155 cumulative IPC: 0.4596 (Simulation time: 00 hr 08 min 41 sec)
Heartbeat CPU 0 instructions: 65000423 cycles: 42498627 heartbeat IPC: 0.6318 cumulative IPC: 0.4638 (Simulation time: 00 hr 08 min 49 sec)
Heartbeat CPU 0 instructions: 65500429 cycles: 43631986 heartbeat IPC: 0.4412 cumulative IPC: 0.463 (Simulation time: 00 hr 08 min 59 sec)
Heartbeat CPU 0 instructions: 66000430 cycles: 44676450 heartbeat IPC: 0.4787 cumulative IPC: 0.4635 (Simulation time: 00 hr 09 min 08 sec)
Heartbeat CPU 0 instructions: 66500432 cycles: 45803687 heartbeat IPC: 0.4436 cumulative IPC: 0.4629 (Simulation time: 00 hr 09 min 18 sec)
Heartbeat CPU 0 instructions: 67000434 cycles: 46930005 heartbeat IPC: 0.4439 cumulative IPC: 0.4623 (Simulation time: 00 hr 09 min 28 sec)
Heartbeat CPU 0 instructions: 67500435 cycles: 47950579 heartbeat IPC: 0.4899 cumulative IPC: 0.463 (Simulation time: 00 hr 09 min 37 sec)
Heartbeat CPU 0 instructions: 68000436 cycles: 49142873 heartbeat IPC: 0.4194 cumulative IPC: 0.4617 (Simulation time: 00 hr 09 min 47 sec)
Heartbeat CPU 0 instructions: 68500436 cycles: 50219957 heartbeat IPC: 0.4642 cumulative IPC: 0.4618 (Simulation time: 00 hr 09 min 57 sec)
Heartbeat CPU 0 instructions: 69000436 cycles: 51203495 heartbeat IPC: 0.5084 cumulative IPC: 0.4629 (Simulation time: 00 hr 10 min 05 sec)
Heartbeat CPU 0 instructions: 69500436 cycles: 52160192 heartbeat IPC: 0.5226 cumulative IPC: 0.4643 (Simulation time: 00 hr 10 min 14 sec)
Heartbeat CPU 0 instructions: 70000441 cycles: 53238770 heartbeat IPC: 0.4636 cumulative IPC: 0.4642 (Simulation time: 00 hr 10 min 24 sec)
Heartbeat CPU 0 instructions: 70500446 cycles: 54249458 heartbeat IPC: 0.4947 cumulative IPC: 0.4649 (Simulation time: 00 hr 10 min 33 sec)
Heartbeat CPU 0 instructions: 71000447 cycles: 55343446 heartbeat IPC: 0.457 cumulative IPC: 0.4647 (Simulation time: 00 hr 10 min 43 sec)
Heartbeat CPU 0 instructions: 71500448 cycles: 56423827 heartbeat IPC: 0.4628 cumulative IPC: 0.4647 (Simulation time: 00 hr 10 min 52 sec)
Heartbeat CPU 0 instructions: 72000454 cycles: 57536051 heartbeat IPC: 0.4496 cumulative IPC: 0.4643 (Simulation time: 00 hr 11 min 02 sec)
Heartbeat CPU 0 instructions: 72500454 cycles: 58652784 heartbeat IPC: 0.4477 cumulative IPC: 0.464 (Simulation time: 00 hr 11 min 12 sec)
Heartbeat CPU 0 instructions: 73000457 cycles: 59732573 heartbeat IPC: 0.4631 cumulative IPC: 0.4639 (Simulation time: 00 hr 11 min 21 sec)
Heartbeat CPU 0 instructions: 73500458 cycles: 60765698 heartbeat IPC: 0.484 cumulative IPC: 0.4644 (Simulation time: 00 hr 11 min 31 sec)
Heartbeat CPU 0 instructions: 74000462 cycles: 61782999 heartbeat IPC: 0.4915 cumulative IPC: 0.4649 (Simulation time: 00 hr 11 min 40 sec)
Heartbeat CPU 0 instructions: 74500465 cycles: 62932670 heartbeat IPC: 0.4349 cumulative IPC: 0.4642 (Simulation time: 00 hr 11 min 50 sec)
Heartbeat CPU 0 instructions: 75000466 cycles: 64045452 heartbeat IPC: 0.4493 cumulative IPC: 0.4639 (Simulation time: 00 hr 11 min 59 sec)
Heartbeat CPU 0 instructions: 75500466 cycles: 65035156 heartbeat IPC: 0.5052 cumulative IPC: 0.4647 (Simulation time: 00 hr 12 min 08 sec)
Heartbeat CPU 0 instructions: 76000467 cycles: 66102103 heartbeat IPC: 0.4686 cumulative IPC: 0.4647 (Simulation time: 00 hr 12 min 18 sec)
Heartbeat CPU 0 instructions: 76500467 cycles: 67271745 heartbeat IPC: 0.4275 cumulative IPC: 0.464 (Simulation time: 00 hr 12 min 28 sec)
Heartbeat CPU 0 instructions: 77000470 cycles: 68281979 heartbeat IPC: 0.4949 cumulative IPC: 0.4645 (Simulation time: 00 hr 12 min 37 sec)
Heartbeat CPU 0 instructions: 77500470 cycles: 69298434 heartbeat IPC: 0.4919 cumulative IPC: 0.465 (Simulation time: 00 hr 12 min 46 sec)
Heartbeat CPU 0 instructions: 78000471 cycles: 70493785 heartbeat IPC: 0.4183 cumulative IPC: 0.4641 (Simulation time: 00 hr 12 min 57 sec)
Heartbeat CPU 0 instructions: 78500474 cycles: 71524446 heartbeat IPC: 0.4851 cumulative IPC: 0.4644 (Simulation time: 00 hr 13 min 06 sec)
Heartbeat CPU 0 instructions: 79000476 cycles: 72654873 heartbeat IPC: 0.4423 cumulative IPC: 0.464 (Simulation time: 00 hr 13 min 16 sec)
Heartbeat CPU 0 instructions: 79500477 cycles: 73670490 heartbeat IPC: 0.4923 cumulative IPC: 0.4645 (Simulation time: 00 hr 13 min 25 sec)
Heartbeat CPU 0 instructions: 80000477 cycles: 74719374 heartbeat IPC: 0.4767 cumulative IPC: 0.4647 (Simulation time: 00 hr 13 min 34 sec)
Heartbeat CPU 0 instructions: 80500478 cycles: 75685441 heartbeat IPC: 0.5176 cumulative IPC: 0.4655 (Simulation time: 00 hr 13 min 43 sec)
Heartbeat CPU 0 instructions: 81000478 cycles: 76953750 heartbeat IPC: 0.3942 cumulative IPC: 0.4641 (Simulation time: 00 hr 13 min 53 sec)
Heartbeat CPU 0 instructions: 81500479 cycles: 78126208 heartbeat IPC: 0.4265 cumulative IPC: 0.4635 (Simulation time: 00 hr 14 min 03 sec)
Heartbeat CPU 0 instructions: 82000479 cycles: 79249415 heartbeat IPC: 0.4452 cumulative IPC: 0.4632 (Simulation time: 00 hr 14 min 13 sec)
Heartbeat CPU 0 instructions: 82500483 cycles: 80257509 heartbeat IPC: 0.496 cumulative IPC: 0.4636 (Simulation time: 00 hr 14 min 22 sec)
Heartbeat CPU 0 instructions: 83000486 cycles: 81342892 heartbeat IPC: 0.4607 cumulative IPC: 0.4636 (Simulation time: 00 hr 14 min 31 sec)
Heartbeat CPU 0 instructions: 83500487 cycles: 82295655 heartbeat IPC: 0.5248 cumulative IPC: 0.4644 (Simulation time: 00 hr 14 min 41 sec)
Heartbeat CPU 0 instructions: 84000488 cycles: 83347736 heartbeat IPC: 0.4752 cumulative IPC: 0.4645 (Simulation time: 00 hr 14 min 50 sec)
Heartbeat CPU 0 instructions: 84500494 cycles: 84503588 heartbeat IPC: 0.4326 cumulative IPC: 0.464 (Simulation time: 00 hr 15 min 00 sec)
Heartbeat CPU 0 instructions: 85000495 cycles: 85536279 heartbeat IPC: 0.4842 cumulative IPC: 0.4643 (Simulation time: 00 hr 15 min 09 sec)
Heartbeat CPU 0 instructions: 85500499 cycles: 86590580 heartbeat IPC: 0.4743 cumulative IPC: 0.4645 (Simulation time: 00 hr 15 min 18 sec)
Heartbeat CPU 0 instructions: 86000502 cycles: 87721678 heartbeat IPC: 0.4421 cumulative IPC: 0.4641 (Simulation time: 00 hr 15 min 28 sec)
Heartbeat CPU 0 instructions: 86500502 cycles: 88731281 heartbeat IPC: 0.4952 cumulative IPC: 0.4645 (Simulation time: 00 hr 15 min 37 sec)
Heartbeat CPU 0 instructions: 87000502 cycles: 89721708 heartbeat IPC: 0.5048 cumulative IPC: 0.465 (Simulation time: 00 hr 15 min 46 sec)
Heartbeat CPU 0 instructions: 87500504 cycles: 90767959 heartbeat IPC: 0.4779 cumulative IPC: 0.4652 (Simulation time: 00 hr 15 min 55 sec)
Heartbeat CPU 0 instructions: 88000504 cycles: 91947602 heartbeat IPC: 0.4239 cumulative IPC: 0.4646 (Simulation time: 00 hr 16 min 05 sec)
Heartbeat CPU 0 instructions: 88500506 cycles: 93044425 heartbeat IPC: 0.4559 cumulative IPC: 0.4645 (Simulation time: 00 hr 16 min 15 sec)
Heartbeat CPU 0 instructions: 89000509 cycles: 94043371 heartbeat IPC: 0.5005 cumulative IPC: 0.4649 (Simulation time: 00 hr 16 min 24 sec)
Heartbeat CPU 0 instructions: 89500510 cycles: 95228595 heartbeat IPC: 0.4219 cumulative IPC: 0.4643 (Simulation time: 00 hr 16 min 34 sec)
Heartbeat CPU 0 instructions: 90000512 cycles: 96298637 heartbeat IPC: 0.4673 cumulative IPC: 0.4644 (Simulation time: 00 hr 16 min 43 sec)
Heartbeat CPU 0 instructions: 90500513 cycles: 97349161 heartbeat IPC: 0.476 cumulative IPC: 0.4645 (Simulation time: 00 hr 16 min 53 sec)
Heartbeat CPU 0 instructions: 91000513 cycles: 98399820 heartbeat IPC: 0.4759 cumulative IPC: 0.4646 (Simulation time: 00 hr 17 min 02 sec)
Heartbeat CPU 0 instructions: 91500517 cycles: 99390844 heartbeat IPC: 0.5045 cumulative IPC: 0.4651 (Simulation time: 00 hr 17 min 11 sec)
Heartbeat CPU 0 instructions: 92000523 cycles: 100351961 heartbeat IPC: 0.5202 cumulative IPC: 0.4657 (Simulation time: 00 hr 17 min 20 sec)
Heartbeat CPU 0 instructions: 92500529 cycles: 101030528 heartbeat IPC: 0.7369 cumulative IPC: 0.4677 (Simulation time: 00 hr 17 min 27 sec)
Heartbeat CPU 0 instructions: 93000532 cycles: 102057026 heartbeat IPC: 0.4871 cumulative IPC: 0.4679 (Simulation time: 00 hr 17 min 36 sec)
Heartbeat CPU 0 instructions: 93500537 cycles: 103179684 heartbeat IPC: 0.4454 cumulative IPC: 0.4676 (Simulation time: 00 hr 17 min 46 sec)
Heartbeat CPU 0 instructions: 94000537 cycles: 104348806 heartbeat IPC: 0.4277 cumulative IPC: 0.4671 (Simulation time: 00 hr 17 min 56 sec)
Heartbeat CPU 0 instructions: 94500538 cycles: 105372503 heartbeat IPC: 0.4884 cumulative IPC: 0.4674 (Simulation time: 00 hr 18 min 05 sec)
Heartbeat CPU 0 instructions: 95000542 cycles: 106458573 heartbeat IPC: 0.4604 cumulative IPC: 0.4673 (Simulation time: 00 hr 18 min 15 sec)
Heartbeat CPU 0 instructions: 95500542 cycles: 107449288 heartbeat IPC: 0.5047 cumulative IPC: 0.4677 (Simulation time: 00 hr 18 min 24 sec)
Heartbeat CPU 0 instructions: 96000545 cycles: 108518503 heartbeat IPC: 0.4676 cumulative IPC: 0.4677 (Simulation time: 00 hr 18 min 33 sec)
Heartbeat CPU 0 instructions: 96500545 cycles: 109542603 heartbeat IPC: 0.4882 cumulative IPC: 0.4679 (Simulation time: 00 hr 18 min 42 sec)
Heartbeat CPU 0 instructions: 97000547 cycles: 110660321 heartbeat IPC: 0.4473 cumulative IPC: 0.4677 (Simulation time: 00 hr 18 min 52 sec)
Heartbeat CPU 0 instructions: 97500548 cycles: 111671100 heartbeat IPC: 0.4947 cumulative IPC: 0.4679 (Simulation time: 00 hr 19 min 01 sec)
Heartbeat CPU 0 instructions: 98000550 cycles: 112774576 heartbeat IPC: 0.4531 cumulative IPC: 0.4678 (Simulation time: 00 hr 19 min 10 sec)
Heartbeat CPU 0 instructions: 98500552 cycles: 113821857 heartbeat IPC: 0.4774 cumulative IPC: 0.4679 (Simulation time: 00 hr 19 min 19 sec)
Heartbeat CPU 0 instructions: 99000555 cycles: 114900030 heartbeat IPC: 0.4638 cumulative IPC: 0.4678 (Simulation time: 00 hr 19 min 29 sec)
Heartbeat CPU 0 instructions: 99500557 cycles: 115754078 heartbeat IPC: 0.5854 cumulative IPC: 0.4688 (Simulation time: 00 hr 19 min 36 sec)
Heartbeat CPU 0 instructions: 100000560 cycles: 116765722 heartbeat IPC: 0.4942 cumulative IPC: 0.469 (Simulation time: 00 hr 19 min 46 sec)
Heartbeat CPU 0 instructions: 100500560 cycles: 117891562 heartbeat IPC: 0.4441 cumulative IPC: 0.4687 (Simulation time: 00 hr 19 min 56 sec)
Heartbeat CPU 0 instructions: 101000562 cycles: 118954089 heartbeat IPC: 0.4706 cumulative IPC: 0.4688 (Simulation time: 00 hr 20 min 05 sec)
Heartbeat CPU 0 instructions: 101500562 cycles: 119992124 heartbeat IPC: 0.4817 cumulative IPC: 0.4689 (Simulation time: 00 hr 20 min 14 sec)
Heartbeat CPU 0 instructions: 102000565 cycles: 121014235 heartbeat IPC: 0.4892 cumulative IPC: 0.4691 (Simulation time: 00 hr 20 min 23 sec)
Heartbeat CPU 0 instructions: 102500569 cycles: 122090292 heartbeat IPC: 0.4647 cumulative IPC: 0.469 (Simulation time: 00 hr 20 min 33 sec)
Heartbeat CPU 0 instructions: 103000571 cycles: 123239027 heartbeat IPC: 0.4353 cumulative IPC: 0.4687 (Simulation time: 00 hr 20 min 43 sec)
Heartbeat CPU 0 instructions: 103500571 cycles: 124325859 heartbeat IPC: 0.4601 cumulative IPC: 0.4686 (Simulation time: 00 hr 20 min 52 sec)
Heartbeat CPU 0 instructions: 104000573 cycles: 125303669 heartbeat IPC: 0.5113 cumulative IPC: 0.469 (Simulation time: 00 hr 21 min 01 sec)
Heartbeat CPU 0 instructions: 104500577 cycles: 126431741 heartbeat IPC: 0.4432 cumulative IPC: 0.4687 (Simulation time: 00 hr 21 min 11 sec)
Heartbeat CPU 0 instructions: 105000578 cycles: 127503415 heartbeat IPC: 0.4666 cumulative IPC: 0.4687 (Simulation time: 00 hr 21 min 20 sec)
Heartbeat CPU 0 instructions: 105500578 cycles: 128525752 heartbeat IPC: 0.4891 cumulative IPC: 0.4689 (Simulation time: 00 hr 21 min 29 sec)
Heartbeat CPU 0 instructions: 106000582 cycles: 129539263 heartbeat IPC: 0.4933 cumulative IPC: 0.4691 (Simulation time: 00 hr 21 min 39 sec)
Heartbeat CPU 0 instructions: 106500586 cycles: 130682769 heartbeat IPC: 0.4373 cumulative IPC: 0.4688 (Simulation time: 00 hr 21 min 49 sec)
Heartbeat CPU 0 instructions: 107000586 cycles: 131741560 heartbeat IPC: 0.4722 cumulative IPC: 0.4688 (Simulation time: 00 hr 21 min 58 sec)
Heartbeat CPU 0 instructions: 107500586 cycles: 132754014 heartbeat IPC: 0.4938 cumulative IPC: 0.469 (Simulation time: 00 hr 22 min 07 sec)
Heartbeat CPU 0 instructions: 108000588 cycles: 133708924 heartbeat IPC: 0.5236 cumulative IPC: 0.4694 (Simulation time: 00 hr 22 min 16 sec)
Heartbeat CPU 0 instructions: 108500588 cycles: 134774593 heartbeat IPC: 0.4692 cumulative IPC: 0.4694 (Simulation time: 00 hr 22 min 25 sec)
Heartbeat CPU 0 instructions: 109000588 cycles: 135723801 heartbeat IPC: 0.5268 cumulative IPC: 0.4699 (Simulation time: 00 hr 22 min 34 sec)
Heartbeat CPU 0 instructions: 109500588 cycles: 136855245 heartbeat IPC: 0.4419 cumulative IPC: 0.4696 (Simulation time: 00 hr 22 min 44 sec)
Heartbeat CPU 0 instructions: 110000588 cycles: 137840379 heartbeat IPC: 0.5075 cumulative IPC: 0.4699 (Simulation time: 00 hr 22 min 53 sec)
Heartbeat CPU 0 instructions: 110500588 cycles: 138894389 heartbeat IPC: 0.4744 cumulative IPC: 0.47 (Simulation time: 00 hr 23 min 03 sec)
Heartbeat CPU 0 instructions: 111000588 cycles: 139937182 heartbeat IPC: 0.4795 cumulative IPC: 0.47 (Simulation time: 00 hr 23 min 12 sec)
Heartbeat CPU 0 instructions: 111500588 cycles: 141031287 heartbeat IPC: 0.457 cumulative IPC: 0.4699 (Simulation time: 00 hr 23 min 22 sec)
Heartbeat CPU 0 instructions: 112000591 cycles: 142177094 heartbeat IPC: 0.4364 cumulative IPC: 0.4696 (Simulation time: 00 hr 23 min 31 sec)
Heartbeat CPU 0 instructions: 112500591 cycles: 143334430 heartbeat IPC: 0.432 cumulative IPC: 0.4693 (Simulation time: 00 hr 23 min 41 sec)
Heartbeat CPU 0 instructions: 113000593 cycles: 144330648 heartbeat IPC: 0.5019 cumulative IPC: 0.4695 (Simulation time: 00 hr 23 min 51 sec)
Heartbeat CPU 0 instructions: 113500596 cycles: 145395468 heartbeat IPC: 0.4696 cumulative IPC: 0.4695 (Simulation time: 00 hr 24 min 01 sec)
Heartbeat CPU 0 instructions: 114000600 cycles: 146399990 heartbeat IPC: 0.4978 cumulative IPC: 0.4698 (Simulation time: 00 hr 24 min 09 sec)
Heartbeat CPU 0 instructions: 114500600 cycles: 147519352 heartbeat IPC: 0.4467 cumulative IPC: 0.4696 (Simulation time: 00 hr 24 min 19 sec)
Heartbeat CPU 0 instructions: 115000601 cycles: 148647047 heartbeat IPC: 0.4434 cumulative IPC: 0.4694 (Simulation time: 00 hr 24 min 29 sec)
Heartbeat CPU 0 instructions: 115500604 cycles: 149678480 heartbeat IPC: 0.4848 cumulative IPC: 0.4695 (Simulation time: 00 hr 24 min 38 sec)
Heartbeat CPU 0 instructions: 116000608 cycles: 150697353 heartbeat IPC: 0.4907 cumulative IPC: 0.4696 (Simulation time: 00 hr 24 min 47 sec)
Heartbeat CPU 0 instructions: 116500608 cycles: 151676115 heartbeat IPC: 0.5108 cumulative IPC: 0.4699 (Simulation time: 00 hr 24 min 56 sec)
Heartbeat CPU 0 instructions: 117000608 cycles: 152768353 heartbeat IPC: 0.4578 cumulative IPC: 0.4698 (Simulation time: 00 hr 25 min 06 sec)
Heartbeat CPU 0 instructions: 117500610 cycles: 153803715 heartbeat IPC: 0.4829 cumulative IPC: 0.4699 (Simulation time: 00 hr 25 min 15 sec)
Heartbeat CPU 0 instructions: 118000610 cycles: 154837135 heartbeat IPC: 0.4838 cumulative IPC: 0.47 (Simulation time: 00 hr 25 min 24 sec)
Heartbeat CPU 0 instructions: 118500611 cycles: 155896047 heartbeat IPC: 0.4722 cumulative IPC: 0.47 (Simulation time: 00 hr 25 min 34 sec)
Heartbeat CPU 0 instructions: 119000615 cycles: 156841825 heartbeat IPC: 0.5287 cumulative IPC: 0.4704 (Simulation time: 00 hr 25 min 42 sec)
Heartbeat CPU 0 instructions: 119500617 cycles: 157639399 heartbeat IPC: 0.6269 cumulative IPC: 0.4712 (Simulation time: 00 hr 25 min 50 sec)
Heartbeat CPU 0 instructions: 120000617 cycles: 158685825 heartbeat IPC: 0.4778 cumulative IPC: 0.4713 (Simulation time: 00 hr 25 min 59 sec)
Heartbeat CPU 0 instructions: 120500617 cycles: 159596061 heartbeat IPC: 0.5493 cumulative IPC: 0.4718 (Simulation time: 00 hr 26 min 08 sec)
Heartbeat CPU 0 instructions: 121000621 cycles: 160579887 heartbeat IPC: 0.5082 cumulative IPC: 0.472 (Simulation time: 00 hr 26 min 17 sec)
Heartbeat CPU 0 instructions: 121500621 cycles: 161564702 heartbeat IPC: 0.5077 cumulative IPC: 0.4722 (Simulation time: 00 hr 26 min 26 sec)
Heartbeat CPU 0 instructions: 122000623 cycles: 162038711 heartbeat IPC: 1.055 cumulative IPC: 0.4741 (Simulation time: 00 hr 26 min 31 sec)
Heartbeat CPU 0 instructions: 122500625 cycles: 162395776 heartbeat IPC: 1.4 cumulative IPC: 0.4762 (Simulation time: 00 hr 26 min 35 sec)
Heartbeat CPU 0 instructions: 123000629 cycles: 163372753 heartbeat IPC: 0.5118 cumulative IPC: 0.4765 (Simulation time: 00 hr 26 min 44 sec)
Heartbeat CPU 0 instructions: 123500629 cycles: 164494726 heartbeat IPC: 0.4456 cumulative IPC: 0.4762 (Simulation time: 00 hr 26 min 54 sec)
Heartbeat CPU 0 instructions: 124000629 cycles: 165513401 heartbeat IPC: 0.4908 cumulative IPC: 0.4763 (Simulation time: 00 hr 27 min 03 sec)
Heartbeat CPU 0 instructions: 124500632 cycles: 166518001 heartbeat IPC: 0.4977 cumulative IPC: 0.4765 (Simulation time: 00 hr 27 min 12 sec)
Heartbeat CPU 0 instructions: 125000635 cycles: 167509179 heartbeat IPC: 0.5045 cumulative IPC: 0.4766 (Simulation time: 00 hr 27 min 21 sec)
Heartbeat CPU 0 instructions: 125500635 cycles: 168473476 heartbeat IPC: 0.5185 cumulative IPC: 0.4769 (Simulation time: 00 hr 27 min 30 sec)
Heartbeat CPU 0 instructions: 126000638 cycles: 169539653 heartbeat IPC: 0.469 cumulative IPC: 0.4768 (Simulation time: 00 hr 27 min 40 sec)
Heartbeat CPU 0 instructions: 126500643 cycles: 170666553 heartbeat IPC: 0.4437 cumulative IPC: 0.4766 (Simulation time: 00 hr 27 min 50 sec)
Heartbeat CPU 0 instructions: 127000643 cycles: 171692858 heartbeat IPC: 0.4872 cumulative IPC: 0.4767 (Simulation time: 00 hr 27 min 59 sec)
Heartbeat CPU 0 instructions: 127500643 cycles: 172697555 heartbeat IPC: 0.4977 cumulative IPC: 0.4768 (Simulation time: 00 hr 28 min 08 sec)
Heartbeat CPU 0 instructions: 128000645 cycles: 173733136 heartbeat IPC: 0.4828 cumulative IPC: 0.4768 (Simulation time: 00 hr 28 min 17 sec)
Heartbeat CPU 0 instructions: 128500645 cycles: 174745786 heartbeat IPC: 0.4938 cumulative IPC: 0.4769 (Simulation time: 00 hr 28 min 26 sec)
Heartbeat CPU 0 instructions: 129000645 cycles: 175863389 heartbeat IPC: 0.4474 cumulative IPC: 0.4767 (Simulation time: 00 hr 28 min 36 sec)
Heartbeat CPU 0 instructions: 129500645 cycles: 176890466 heartbeat IPC: 0.4868 cumulative IPC: 0.4768 (Simulation time: 00 hr 28 min 45 sec)
Heartbeat CPU 0 instructions: 130000645 cycles: 177883520 heartbeat IPC: 0.5035 cumulative IPC: 0.477 (Simulation time: 00 hr 28 min 54 sec)
Heartbeat CPU 0 instructions: 130500648 cycles: 178936382 heartbeat IPC: 0.4749 cumulative IPC: 0.477 (Simulation time: 00 hr 29 min 04 sec)
Heartbeat CPU 0 instructions: 131000648 cycles: 179909474 heartbeat IPC: 0.5138 cumulative IPC: 0.4772 (Simulation time: 00 hr 29 min 13 sec)
Heartbeat CPU 0 instructions: 131500650 cycles: 180980364 heartbeat IPC: 0.4669 cumulative IPC: 0.4771 (Simulation time: 00 hr 29 min 22 sec)
Heartbeat CPU 0 instructions: 132000650 cycles: 182000584 heartbeat IPC: 0.4901 cumulative IPC: 0.4772 (Simulation time: 00 hr 29 min 31 sec)
Heartbeat CPU 0 instructions: 132500650 cycles: 183124114 heartbeat IPC: 0.445 cumulative IPC: 0.477 (Simulation time: 00 hr 29 min 41 sec)
Heartbeat CPU 0 instructions: 133000655 cycles: 184023009 heartbeat IPC: 0.5562 cumulative IPC: 0.4774 (Simulation time: 00 hr 29 min 50 sec)
Heartbeat CPU 0 instructions: 133500657 cycles: 185098740 heartbeat IPC: 0.4648 cumulative IPC: 0.4773 (Simulation time: 00 hr 30 min 00 sec)
Heartbeat CPU 0 instructions: 134000657 cycles: 186194358 heartbeat IPC: 0.4564 cumulative IPC: 0.4772 (Simulation time: 00 hr 30 min 10 sec)
Heartbeat CPU 0 instructions: 134500657 cycles: 187324578 heartbeat IPC: 0.4424 cumulative IPC: 0.477 (Simulation time: 00 hr 30 min 20 sec)
Heartbeat CPU 0 instructions: 135000661 cycles: 188489702 heartbeat IPC: 0.4291 cumulative IPC: 0.4766 (Simulation time: 00 hr 30 min 29 sec)
Heartbeat CPU 0 instructions: 135500661 cycles: 189454811 heartbeat IPC: 0.5181 cumulative IPC: 0.4769 (Simulation time: 00 hr 30 min 38 sec)
Heartbeat CPU 0 instructions: 136000661 cycles: 190363446 heartbeat IPC: 0.5503 cumulative IPC: 0.4772 (Simulation time: 00 hr 30 min 47 sec)
Heartbeat CPU 0 instructions: 136500667 cycles: 191431502 heartbeat IPC: 0.4681 cumulative IPC: 0.4772 (Simulation time: 00 hr 30 min 56 sec)
Heartbeat CPU 0 instructions: 137000668 cycles: 192489010 heartbeat IPC: 0.4728 cumulative IPC: 0.4772 (Simulation time: 00 hr 31 min 06 sec)
Heartbeat CPU 0 instructions: 137500671 cycles: 193534322 heartbeat IPC: 0.4783 cumulative IPC: 0.4772 (Simulation time: 00 hr 31 min 15 sec)
Heartbeat CPU 0 instructions: 138000675 cycles: 194553150 heartbeat IPC: 0.4908 cumulative IPC: 0.4772 (Simulation time: 00 hr 31 min 24 sec)
Heartbeat CPU 0 instructions: 138500675 cycles: 195683351 heartbeat IPC: 0.4424 cumulative IPC: 0.477 (Simulation time: 00 hr 31 min 33 sec)
Heartbeat CPU 0 instructions: 139000675 cycles: 196713347 heartbeat IPC: 0.4854 cumulative IPC: 0.4771 (Simulation time: 00 hr 31 min 43 sec)
Heartbeat CPU 0 instructions: 139500677 cycles: 197748261 heartbeat IPC: 0.4831 cumulative IPC: 0.4771 (Simulation time: 00 hr 31 min 52 sec)
Heartbeat CPU 0 instructions: 140000677 cycles: 198672254 heartbeat IPC: 0.5411 cumulative IPC: 0.4774 (Simulation time: 00 hr 32 min 01 sec)
Heartbeat CPU 0 instructions: 140500677 cycles: 199793354 heartbeat IPC: 0.446 cumulative IPC: 0.4772 (Simulation time: 00 hr 32 min 10 sec)
Heartbeat CPU 0 instructions: 141000681 cycles: 200779174 heartbeat IPC: 0.5072 cumulative IPC: 0.4774 (Simulation time: 00 hr 32 min 19 sec)
Heartbeat CPU 0 instructions: 141500681 cycles: 201788406 heartbeat IPC: 0.4954 cumulative IPC: 0.4775 (Simulation time: 00 hr 32 min 28 sec)
Heartbeat CPU 0 instructions: 142000681 cycles: 202748694 heartbeat IPC: 0.5207 cumulative IPC: 0.4777 (Simulation time: 00 hr 32 min 37 sec)
Heartbeat CPU 0 instructions: 142500687 cycles: 203704075 heartbeat IPC: 0.5234 cumulative IPC: 0.4779 (Simulation time: 00 hr 32 min 46 sec)
Heartbeat CPU 0 instructions: 143000687 cycles: 204723534 heartbeat IPC: 0.4905 cumulative IPC: 0.478 (Simulation time: 00 hr 32 min 55 sec)
Heartbeat CPU 0 instructions: 143500690 cycles: 205711824 heartbeat IPC: 0.5059 cumulative IPC: 0.4781 (Simulation time: 00 hr 33 min 04 sec)
Heartbeat CPU 0 instructions: 144000694 cycles: 206749052 heartbeat IPC: 0.4821 cumulative IPC: 0.4782 (Simulation time: 00 hr 33 min 14 sec)
Heartbeat CPU 0 instructions: 144500694 cycles: 207773832 heartbeat IPC: 0.4879 cumulative IPC: 0.4782 (Simulation time: 00 hr 33 min 23 sec)
Heartbeat CPU 0 instructions: 145000700 cycles: 208758884 heartbeat IPC: 0.5076 cumulative IPC: 0.4783 (Simulation time: 00 hr 33 min 32 sec)
Heartbeat CPU 0 instructions: 145500702 cycles: 209761531 heartbeat IPC: 0.4987 cumulative IPC: 0.4784 (Simulation time: 00 hr 33 min 41 sec)
Heartbeat CPU 0 instructions: 146000702 cycles: 210790209 heartbeat IPC: 0.4861 cumulative IPC: 0.4785 (Simulation time: 00 hr 33 min 50 sec)
Heartbeat CPU 0 instructions: 146500702 cycles: 211753612 heartbeat IPC: 0.519 cumulative IPC: 0.4787 (Simulation time: 00 hr 33 min 59 sec)
Heartbeat CPU 0 instructions: 147000703 cycles: 212710836 heartbeat IPC: 0.5223 cumulative IPC: 0.4789 (Simulation time: 00 hr 34 min 08 sec)
Heartbeat CPU 0 instructions: 147500703 cycles: 213779334 heartbeat IPC: 0.4679 cumulative IPC: 0.4788 (Simulation time: 00 hr 34 min 18 sec)
Heartbeat CPU 0 instructions: 148000705 cycles: 214745827 heartbeat IPC: 0.5173 cumulative IPC: 0.479 (Simulation time: 00 hr 34 min 28 sec)
Heartbeat CPU 0 instructions: 148500708 cycles: 215808632 heartbeat IPC: 0.4705 cumulative IPC: 0.479 (Simulation time: 00 hr 34 min 38 sec)
Heartbeat CPU 0 instructions: 149000712 cycles: 216898068 heartbeat IPC: 0.459 cumulative IPC: 0.4789 (Simulation time: 00 hr 34 min 47 sec)
Heartbeat CPU 0 instructions: 149500714 cycles: 217918346 heartbeat IPC: 0.4901 cumulative IPC: 0.4789 (Simulation time: 00 hr 34 min 56 sec)
Heartbeat CPU 0 instructions: 150000717 cycles: 219010644 heartbeat IPC: 0.4578 cumulative IPC: 0.4788 (Simulation time: 00 hr 35 min 06 sec)
Heartbeat CPU 0 instructions: 150500719 cycles: 220050600 heartbeat IPC: 0.4808 cumulative IPC: 0.4788 (Simulation time: 00 hr 35 min 15 sec)
Heartbeat CPU 0 instructions: 151000719 cycles: 221229802 heartbeat IPC: 0.424 cumulative IPC: 0.4785 (Simulation time: 00 hr 35 min 25 sec)
Heartbeat CPU 0 instructions: 151500724 cycles: 222260185 heartbeat IPC: 0.4853 cumulative IPC: 0.4785 (Simulation time: 00 hr 35 min 34 sec)
Heartbeat CPU 0 instructions: 152000727 cycles: 223250145 heartbeat IPC: 0.5051 cumulative IPC: 0.4787 (Simulation time: 00 hr 35 min 43 sec)
Heartbeat CPU 0 instructions: 152500728 cycles: 224324558 heartbeat IPC: 0.4654 cumulative IPC: 0.4786 (Simulation time: 00 hr 35 min 53 sec)
Heartbeat CPU 0 instructions: 153000731 cycles: 225309001 heartbeat IPC: 0.5079 cumulative IPC: 0.4787 (Simulation time: 00 hr 36 min 02 sec)
Heartbeat CPU 0 instructions: 153500731 cycles: 226470581 heartbeat IPC: 0.4304 cumulative IPC: 0.4785 (Simulation time: 00 hr 36 min 12 sec)
Heartbeat CPU 0 instructions: 154000734 cycles: 227573778 heartbeat IPC: 0.4532 cumulative IPC: 0.4783 (Simulation time: 00 hr 36 min 21 sec)
Heartbeat CPU 0 instructions: 154500738 cycles: 228619829 heartbeat IPC: 0.478 cumulative IPC: 0.4783 (Simulation time: 00 hr 36 min 30 sec)
Heartbeat CPU 0 instructions: 155000739 cycles: 229672949 heartbeat IPC: 0.4748 cumulative IPC: 0.4783 (Simulation time: 00 hr 36 min 40 sec)
Heartbeat CPU 0 instructions: 155500740 cycles: 230786989 heartbeat IPC: 0.4488 cumulative IPC: 0.4782 (Simulation time: 00 hr 36 min 49 sec)
Heartbeat CPU 0 instructions: 156000742 cycles: 231780303 heartbeat IPC: 0.5034 cumulative IPC: 0.4783 (Simulation time: 00 hr 36 min 58 sec)
Heartbeat CPU 0 instructions: 156500743 cycles: 232849493 heartbeat IPC: 0.4676 cumulative IPC: 0.4782 (Simulation time: 00 hr 37 min 08 sec)
Heartbeat CPU 0 instructions: 157000744 cycles: 233858688 heartbeat IPC: 0.4954 cumulative IPC: 0.4783 (Simulation time: 00 hr 37 min 17 sec)
Heartbeat CPU 0 instructions: 157500746 cycles: 234945670 heartbeat IPC: 0.46 cumulative IPC: 0.4782 (Simulation time: 00 hr 37 min 27 sec)
Heartbeat CPU 0 instructions: 158000750 cycles: 235855534 heartbeat IPC: 0.5495 cumulative IPC: 0.4785 (Simulation time: 00 hr 37 min 35 sec)
Heartbeat CPU 0 instructions: 158500751 cycles: 236865261 heartbeat IPC: 0.4952 cumulative IPC: 0.4786 (Simulation time: 00 hr 37 min 45 sec)
Heartbeat CPU 0 instructions: 159000751 cycles: 237796514 heartbeat IPC: 0.5369 cumulative IPC: 0.4788 (Simulation time: 00 hr 37 min 54 sec)
Heartbeat CPU 0 instructions: 159500754 cycles: 238902147 heartbeat IPC: 0.4522 cumulative IPC: 0.4787 (Simulation time: 00 hr 38 min 03 sec)
Heartbeat CPU 0 instructions: 160000754 cycles: 239930375 heartbeat IPC: 0.4863 cumulative IPC: 0.4787 (Simulation time: 00 hr 38 min 12 sec)
Heartbeat CPU 0 instructions: 160500755 cycles: 241073907 heartbeat IPC: 0.4372 cumulative IPC: 0.4785 (Simulation time: 00 hr 38 min 22 sec)
Heartbeat CPU 0 instructions: 161000755 cycles: 242150776 heartbeat IPC: 0.4643 cumulative IPC: 0.4785 (Simulation time: 00 hr 38 min 32 sec)
Heartbeat CPU 0 instructions: 161500756 cycles: 243273460 heartbeat IPC: 0.4454 cumulative IPC: 0.4783 (Simulation time: 00 hr 38 min 41 sec)
Heartbeat CPU 0 instructions: 162000760 cycles: 244340193 heartbeat IPC: 0.4687 cumulative IPC: 0.4783 (Simulation time: 00 hr 38 min 50 sec)
Heartbeat CPU 0 instructions: 162500763 cycles: 245397787 heartbeat IPC: 0.4728 cumulative IPC: 0.4782 (Simulation time: 00 hr 39 min 00 sec)
Heartbeat CPU 0 instructions: 163000765 cycles: 246330732 heartbeat IPC: 0.5359 cumulative IPC: 0.4785 (Simulation time: 00 hr 39 min 08 sec)
Heartbeat CPU 0 instructions: 163500766 cycles: 247230646 heartbeat IPC: 0.5556 cumulative IPC: 0.4788 (Simulation time: 00 hr 39 min 16 sec)
Heartbeat CPU 0 instructions: 164000767 cycles: 248329117 heartbeat IPC: 0.4552 cumulative IPC: 0.4786 (Simulation time: 00 hr 39 min 26 sec)
Heartbeat CPU 0 instructions: 164500769 cycles: 249369141 heartbeat IPC: 0.4808 cumulative IPC: 0.4787 (Simulation time: 00 hr 39 min 35 sec)
Heartbeat CPU 0 instructions: 165000773 cycles: 250400577 heartbeat IPC: 0.4848 cumulative IPC: 0.4787 (Simulation time: 00 hr 39 min 45 sec)
Heartbeat CPU 0 instructions: 165500773 cycles: 251373476 heartbeat IPC: 0.5139 cumulative IPC: 0.4788 (Simulation time: 00 hr 39 min 53 sec)
Heartbeat CPU 0 instructions: 166000775 cycles: 252327427 heartbeat IPC: 0.5241 cumulative IPC: 0.479 (Simulation time: 00 hr 40 min 02 sec)
Heartbeat CPU 0 instructions: 166500775 cycles: 253426447 heartbeat IPC: 0.455 cumulative IPC: 0.4789 (Simulation time: 00 hr 40 min 12 sec)
Heartbeat CPU 0 instructions: 167000777 cycles: 254482394 heartbeat IPC: 0.4735 cumulative IPC: 0.4789 (Simulation time: 00 hr 40 min 21 sec)
Heartbeat CPU 0 instructions: 167500781 cycles: 255518302 heartbeat IPC: 0.4827 cumulative IPC: 0.4789 (Simulation time: 00 hr 40 min 30 sec)
Heartbeat CPU 0 instructions: 168000784 cycles: 256468292 heartbeat IPC: 0.5263 cumulative IPC: 0.4791 (Simulation time: 00 hr 40 min 39 sec)
Heartbeat CPU 0 instructions: 168500786 cycles: 257451188 heartbeat IPC: 0.5087 cumulative IPC: 0.4792 (Simulation time: 00 hr 40 min 48 sec)
Heartbeat CPU 0 instructions: 169000789 cycles: 258462826 heartbeat IPC: 0.4943 cumulative IPC: 0.4793 (Simulation time: 00 hr 40 min 57 sec)
Heartbeat CPU 0 instructions: 169500791 cycles: 259523524 heartbeat IPC: 0.4714 cumulative IPC: 0.4792 (Simulation time: 00 hr 41 min 06 sec)
Heartbeat CPU 0 instructions: 170000791 cycles: 260516097 heartbeat IPC: 0.5037 cumulative IPC: 0.4793 (Simulation time: 00 hr 41 min 16 sec)
Heartbeat CPU 0 instructions: 170500794 cycles: 261656115 heartbeat IPC: 0.4386 cumulative IPC: 0.4791 (Simulation time: 00 hr 41 min 25 sec)
Heartbeat CPU 0 instructions: 171000796 cycles: 262618055 heartbeat IPC: 0.5198 cumulative IPC: 0.4793 (Simulation time: 00 hr 41 min 34 sec)
Heartbeat CPU 0 instructions: 171500796 cycles: 263590713 heartbeat IPC: 0.5141 cumulative IPC: 0.4794 (Simulation time: 00 hr 41 min 43 sec)
Heartbeat CPU 0 instructions: 172000796 cycles: 264508718 heartbeat IPC: 0.5447 cumulative IPC: 0.4797 (Simulation time: 00 hr 41 min 52 sec)
Heartbeat CPU 0 instructions: 172500798 cycles: 265683345 heartbeat IPC: 0.4257 cumulative IPC: 0.4794 (Simulation time: 00 hr 42 min 01 sec)
Heartbeat CPU 0 instructions: 173000799 cycles: 266735082 heartbeat IPC: 0.4754 cumulative IPC: 0.4794 (Simulation time: 00 hr 42 min 10 sec)
Heartbeat CPU 0 instructions: 173500799 cycles: 267661990 heartbeat IPC: 0.5394 cumulative IPC: 0.4796 (Simulation time: 00 hr 42 min 19 sec)
Heartbeat CPU 0 instructions: 174000799 cycles: 268768676 heartbeat IPC: 0.4518 cumulative IPC: 0.4795 (Simulation time: 00 hr 42 min 28 sec)
Heartbeat CPU 0 instructions: 174500799 cycles: 269872388 heartbeat IPC: 0.453 cumulative IPC: 0.4794 (Simulation time: 00 hr 42 min 38 sec)
Heartbeat CPU 0 instructions: 175000799 cycles: 270876100 heartbeat IPC: 0.4982 cumulative IPC: 0.4794 (Simulation time: 00 hr 42 min 47 sec)
Heartbeat CPU 0 instructions: 175500800 cycles: 271895003 heartbeat IPC: 0.4907 cumulative IPC: 0.4795 (Simulation time: 00 hr 42 min 55 sec)
Heartbeat CPU 0 instructions: 176000803 cycles: 272971807 heartbeat IPC: 0.4643 cumulative IPC: 0.4794 (Simulation time: 00 hr 43 min 05 sec)
Heartbeat CPU 0 instructions: 176500806 cycles: 274096310 heartbeat IPC: 0.4446 cumulative IPC: 0.4793 (Simulation time: 00 hr 43 min 14 sec)
Heartbeat CPU 0 instructions: 177000806 cycles: 275164929 heartbeat IPC: 0.4679 cumulative IPC: 0.4792 (Simulation time: 00 hr 43 min 23 sec)
Heartbeat CPU 0 instructions: 177500810 cycles: 276227930 heartbeat IPC: 0.4704 cumulative IPC: 0.4792 (Simulation time: 00 hr 43 min 33 sec)
Heartbeat CPU 0 instructions: 178000813 cycles: 277272506 heartbeat IPC: 0.4787 cumulative IPC: 0.4792 (Simulation time: 00 hr 43 min 42 sec)
Heartbeat CPU 0 instructions: 178500814 cycles: 278276508 heartbeat IPC: 0.498 cumulative IPC: 0.4793 (Simulation time: 00 hr 43 min 51 sec)
Heartbeat CPU 0 instructions: 179000816 cycles: 279321902 heartbeat IPC: 0.4783 cumulative IPC: 0.4793 (Simulation time: 00 hr 44 min 00 sec)
Heartbeat CPU 0 instructions: 179500816 cycles: 280333500 heartbeat IPC: 0.4943 cumulative IPC: 0.4793 (Simulation time: 00 hr 44 min 08 sec)
Heartbeat CPU 0 instructions: 180000818 cycles: 281331617 heartbeat IPC: 0.5009 cumulative IPC: 0.4794 (Simulation time: 00 hr 44 min 17 sec)
Heartbeat CPU 0 instructions: 180500821 cycles: 282303906 heartbeat IPC: 0.5143 cumulative IPC: 0.4795 (Simulation time: 00 hr 44 min 26 sec)
Heartbeat CPU 0 instructions: 181000826 cycles: 283327696 heartbeat IPC: 0.4884 cumulative IPC: 0.4796 (Simulation time: 00 hr 44 min 35 sec)
Heartbeat CPU 0 instructions: 181500826 cycles: 284291360 heartbeat IPC: 0.5189 cumulative IPC: 0.4797 (Simulation time: 00 hr 44 min 43 sec)
Heartbeat CPU 0 instructions: 182000826 cycles: 285357707 heartbeat IPC: 0.4689 cumulative IPC: 0.4797 (Simulation time: 00 hr 44 min 53 sec)
Heartbeat CPU 0 instructions: 182500828 cycles: 286385062 heartbeat IPC: 0.4867 cumulative IPC: 0.4797 (Simulation time: 00 hr 45 min 01 sec)
Heartbeat CPU 0 instructions: 183000829 cycles: 287435397 heartbeat IPC: 0.476 cumulative IPC: 0.4797 (Simulation time: 00 hr 45 min 11 sec)
Heartbeat CPU 0 instructions: 183500830 cycles: 288568902 heartbeat IPC: 0.4411 cumulative IPC: 0.4795 (Simulation time: 00 hr 45 min 20 sec)
Heartbeat CPU 0 instructions: 184000830 cycles: 289650074 heartbeat IPC: 0.4625 cumulative IPC: 0.4794 (Simulation time: 00 hr 45 min 29 sec)
Heartbeat CPU 0 instructions: 184500833 cycles: 290607020 heartbeat IPC: 0.5225 cumulative IPC: 0.4796 (Simulation time: 00 hr 45 min 38 sec)
Heartbeat CPU 0 instructions: 185000837 cycles: 291781849 heartbeat IPC: 0.4256 cumulative IPC: 0.4794 (Simulation time: 00 hr 45 min 47 sec)
Heartbeat CPU 0 instructions: 185500837 cycles: 293105772 heartbeat IPC: 0.3777 cumulative IPC: 0.4789 (Simulation time: 00 hr 45 min 58 sec)
Heartbeat CPU 0 instructions: 186000837 cycles: 293738562 heartbeat IPC: 0.7902 cumulative IPC: 0.4796 (Simulation time: 00 hr 46 min 05 sec)
Heartbeat CPU 0 instructions: 186500838 cycles: 294772041 heartbeat IPC: 0.4838 cumulative IPC: 0.4796 (Simulation time: 00 hr 46 min 14 sec)
Heartbeat CPU 0 instructions: 187000838 cycles: 295864415 heartbeat IPC: 0.4577 cumulative IPC: 0.4795 (Simulation time: 00 hr 46 min 23 sec)
Heartbeat CPU 0 instructions: 187500843 cycles: 296919130 heartbeat IPC: 0.4741 cumulative IPC: 0.4795 (Simulation time: 00 hr 46 min 32 sec)
Heartbeat CPU 0 instructions: 188000843 cycles: 297954304 heartbeat IPC: 0.483 cumulative IPC: 0.4795 (Simulation time: 00 hr 46 min 41 sec)
Heartbeat CPU 0 instructions: 188500843 cycles: 298963131 heartbeat IPC: 0.4956 cumulative IPC: 0.4796 (Simulation time: 00 hr 46 min 50 sec)
Heartbeat CPU 0 instructions: 189000844 cycles: 300027004 heartbeat IPC: 0.47 cumulative IPC: 0.4795 (Simulation time: 00 hr 46 min 59 sec)
Heartbeat CPU 0 instructions: 189500846 cycles: 301083354 heartbeat IPC: 0.4733 cumulative IPC: 0.4795 (Simulation time: 00 hr 47 min 08 sec)
Heartbeat CPU 0 instructions: 190000846 cycles: 302109427 heartbeat IPC: 0.4873 cumulative IPC: 0.4795 (Simulation time: 00 hr 47 min 16 sec)
Heartbeat CPU 0 instructions: 190500848 cycles: 303210713 heartbeat IPC: 0.454 cumulative IPC: 0.4794 (Simulation time: 00 hr 47 min 26 sec)
Heartbeat CPU 0 instructions: 191000849 cycles: 304365752 heartbeat IPC: 0.4329 cumulative IPC: 0.4793 (Simulation time: 00 hr 47 min 35 sec)
Heartbeat CPU 0 instructions: 191500849 cycles: 305413784 heartbeat IPC: 0.4771 cumulative IPC: 0.4792 (Simulation time: 00 hr 47 min 44 sec)
Heartbeat CPU 0 instructions: 192000849 cycles: 306466513 heartbeat IPC: 0.475 cumulative IPC: 0.4792 (Simulation time: 00 hr 47 min 53 sec)
Heartbeat CPU 0 instructions: 192500853 cycles: 307659260 heartbeat IPC: 0.4192 cumulative IPC: 0.479 (Simulation time: 00 hr 48 min 02 sec)
Heartbeat CPU 0 instructions: 193000853 cycles: 308748855 heartbeat IPC: 0.4589 cumulative IPC: 0.4789 (Simulation time: 00 hr 48 min 11 sec)
Heartbeat CPU 0 instructions: 193500855 cycles: 309720852 heartbeat IPC: 0.5144 cumulative IPC: 0.479 (Simulation time: 00 hr 48 min 20 sec)
Heartbeat CPU 0 instructions: 194000857 cycles: 310583286 heartbeat IPC: 0.5798 cumulative IPC: 0.4793 (Simulation time: 00 hr 48 min 28 sec)
Heartbeat CPU 0 instructions: 194500859 cycles: 311582432 heartbeat IPC: 0.5004 cumulative IPC: 0.4794 (Simulation time: 00 hr 48 min 36 sec)
Heartbeat CPU 0 instructions: 195000865 cycles: 312564573 heartbeat IPC: 0.5091 cumulative IPC: 0.4795 (Simulation time: 00 hr 48 min 44 sec)
Heartbeat CPU 0 instructions: 195500865 cycles: 313626071 heartbeat IPC: 0.471 cumulative IPC: 0.4795 (Simulation time: 00 hr 48 min 53 sec)
Heartbeat CPU 0 instructions: 196000868 cycles: 314597206 heartbeat IPC: 0.5149 cumulative IPC: 0.4796 (Simulation time: 00 hr 49 min 01 sec)
Heartbeat CPU 0 instructions: 196500872 cycles: 315591284 heartbeat IPC: 0.503 cumulative IPC: 0.4796 (Simulation time: 00 hr 49 min 10 sec)
Heartbeat CPU 0 instructions: 197000874 cycles: 316660997 heartbeat IPC: 0.4674 cumulative IPC: 0.4796 (Simulation time: 00 hr 49 min 19 sec)
Heartbeat CPU 0 instructions: 197500875 cycles: 317646307 heartbeat IPC: 0.5075 cumulative IPC: 0.4797 (Simulation time: 00 hr 49 min 27 sec)
Heartbeat CPU 0 instructions: 198000876 cycles: 318691748 heartbeat IPC: 0.4783 cumulative IPC: 0.4797 (Simulation time: 00 hr 49 min 36 sec)
Heartbeat CPU 0 instructions: 198500878 cycles: 319758588 heartbeat IPC: 0.4687 cumulative IPC: 0.4797 (Simulation time: 00 hr 49 min 45 sec)
Heartbeat CPU 0 instructions: 199000882 cycles: 320769824 heartbeat IPC: 0.4944 cumulative IPC: 0.4797 (Simulation time: 00 hr 49 min 53 sec)
Heartbeat CPU 0 instructions: 199500882 cycles: 321714987 heartbeat IPC: 0.529 cumulative IPC: 0.4798 (Simulation time: 00 hr 50 min 01 sec)
Heartbeat CPU 0 instructions: 200000884 cycles: 322690951 heartbeat IPC: 0.5123 cumulative IPC: 0.48 (Simulation time: 00 hr 50 min 09 sec)
Heartbeat CPU 0 instructions: 200500889 cycles: 323846397 heartbeat IPC: 0.4327 cumulative IPC: 0.4798 (Simulation time: 00 hr 50 min 18 sec)
Heartbeat CPU 0 instructions: 201000889 cycles: 324822906 heartbeat IPC: 0.512 cumulative IPC: 0.4799 (Simulation time: 00 hr 50 min 26 sec)
Heartbeat CPU 0 instructions: 201500891 cycles: 325780649 heartbeat IPC: 0.5221 cumulative IPC: 0.48 (Simulation time: 00 hr 50 min 35 sec)
Heartbeat CPU 0 instructions: 202000896 cycles: 326748140 heartbeat IPC: 0.5168 cumulative IPC: 0.4801 (Simulation time: 00 hr 50 min 43 sec)
Heartbeat CPU 0 instructions: 202500896 cycles: 327699833 heartbeat IPC: 0.5254 cumulative IPC: 0.4803 (Simulation time: 00 hr 50 min 51 sec)
Heartbeat CPU 0 instructions: 203000898 cycles: 328652495 heartbeat IPC: 0.5248 cumulative IPC: 0.4804 (Simulation time: 00 hr 50 min 59 sec)
Heartbeat CPU 0 instructions: 203500898 cycles: 329976536 heartbeat IPC: 0.3776 cumulative IPC: 0.48 (Simulation time: 00 hr 51 min 09 sec)
Heartbeat CPU 0 instructions: 204000898 cycles: 331011682 heartbeat IPC: 0.483 cumulative IPC: 0.48 (Simulation time: 00 hr 51 min 17 sec)
Heartbeat CPU 0 instructions: 204500898 cycles: 331960332 heartbeat IPC: 0.5271 cumulative IPC: 0.4801 (Simulation time: 00 hr 51 min 25 sec)
Heartbeat CPU 0 instructions: 205000898 cycles: 332678071 heartbeat IPC: 0.6966 cumulative IPC: 0.4806 (Simulation time: 00 hr 51 min 32 sec)
Heartbeat CPU 0 instructions: 205500903 cycles: 333735486 heartbeat IPC: 0.4729 cumulative IPC: 0.4806 (Simulation time: 00 hr 51 min 40 sec)
Heartbeat CPU 0 instructions: 206000903 cycles: 334776569 heartbeat IPC: 0.4803 cumulative IPC: 0.4806 (Simulation time: 00 hr 51 min 49 sec)
Heartbeat CPU 0 instructions: 206500903 cycles: 335906642 heartbeat IPC: 0.4424 cumulative IPC: 0.4804 (Simulation time: 00 hr 51 min 57 sec)
Heartbeat CPU 0 instructions: 207000903 cycles: 336915230 heartbeat IPC: 0.4957 cumulative IPC: 0.4805 (Simulation time: 00 hr 52 min 06 sec)
Heartbeat CPU 0 instructions: 207500907 cycles: 337868589 heartbeat IPC: 0.5245 cumulative IPC: 0.4806 (Simulation time: 00 hr 52 min 14 sec)
Heartbeat CPU 0 instructions: 208000911 cycles: 339057171 heartbeat IPC: 0.4207 cumulative IPC: 0.4804 (Simulation time: 00 hr 52 min 23 sec)
Heartbeat CPU 0 instructions: 208500914 cycles: 340111358 heartbeat IPC: 0.4743 cumulative IPC: 0.4804 (Simulation time: 00 hr 52 min 31 sec)
Heartbeat CPU 0 instructions: 209000914 cycles: 341207737 heartbeat IPC: 0.456 cumulative IPC: 0.4803 (Simulation time: 00 hr 52 min 40 sec)
Heartbeat CPU 0 instructions: 209500918 cycles: 342097095 heartbeat IPC: 0.5622 cumulative IPC: 0.4805 (Simulation time: 00 hr 52 min 48 sec)
Heartbeat CPU 0 instructions: 210000922 cycles: 343190698 heartbeat IPC: 0.4572 cumulative IPC: 0.4804 (Simulation time: 00 hr 52 min 56 sec)
Heartbeat CPU 0 instructions: 210500925 cycles: 344304275 heartbeat IPC: 0.449 cumulative IPC: 0.4803 (Simulation time: 00 hr 53 min 05 sec)
Heartbeat CPU 0 instructions: 211000927 cycles: 345269254 heartbeat IPC: 0.5181 cumulative IPC: 0.4804 (Simulation time: 00 hr 53 min 13 sec)
Heartbeat CPU 0 instructions: 211500927 cycles: 346293143 heartbeat IPC: 0.4883 cumulative IPC: 0.4805 (Simulation time: 00 hr 53 min 21 sec)
Heartbeat CPU 0 instructions: 212000927 cycles: 347336744 heartbeat IPC: 0.4791 cumulative IPC: 0.4805 (Simulation time: 00 hr 53 min 29 sec)
Heartbeat CPU 0 instructions: 212500928 cycles: 348424523 heartbeat IPC: 0.4597 cumulative IPC: 0.4804 (Simulation time: 00 hr 53 min 38 sec)
Heartbeat CPU 0 instructions: 213000932 cycles: 349407654 heartbeat IPC: 0.5086 cumulative IPC: 0.4805 (Simulation time: 00 hr 53 min 46 sec)
Heartbeat CPU 0 instructions: 213500932 cycles: 350409528 heartbeat IPC: 0.4991 cumulative IPC: 0.4805 (Simulation time: 00 hr 53 min 54 sec)
Heartbeat CPU 0 instructions: 214000934 cycles: 351478666 heartbeat IPC: 0.4677 cumulative IPC: 0.4805 (Simulation time: 00 hr 54 min 03 sec)
Heartbeat CPU 0 instructions: 214500935 cycles: 352198334 heartbeat IPC: 0.6948 cumulative IPC: 0.4809 (Simulation time: 00 hr 54 min 10 sec)
Heartbeat CPU 0 instructions: 215000937 cycles: 353262283 heartbeat IPC: 0.4699 cumulative IPC: 0.4809 (Simulation time: 00 hr 54 min 18 sec)
Heartbeat CPU 0 instructions: 215500938 cycles: 354212961 heartbeat IPC: 0.5259 cumulative IPC: 0.481 (Simulation time: 00 hr 54 min 26 sec)
Heartbeat CPU 0 instructions: 216000941 cycles: 355214620 heartbeat IPC: 0.4992 cumulative IPC: 0.4811 (Simulation time: 00 hr 54 min 34 sec)
Heartbeat CPU 0 instructions: 216500941 cycles: 356218346 heartbeat IPC: 0.4981 cumulative IPC: 0.4811 (Simulation time: 00 hr 54 min 42 sec)
Heartbeat CPU 0 instructions: 217000945 cycles: 357392649 heartbeat IPC: 0.4258 cumulative IPC: 0.4809 (Simulation time: 00 hr 54 min 51 sec)
Heartbeat CPU 0 instructions: 217500945 cycles: 358332667 heartbeat IPC: 0.5319 cumulative IPC: 0.4811 (Simulation time: 00 hr 54 min 59 sec)
Heartbeat CPU 0 instructions: 218000946 cycles: 359349592 heartbeat IPC: 0.4917 cumulative IPC: 0.4811 (Simulation time: 00 hr 55 min 07 sec)
Heartbeat CPU 0 instructions: 218500946 cycles: 360278275 heartbeat IPC: 0.5384 cumulative IPC: 0.4813 (Simulation time: 00 hr 55 min 15 sec)
Heartbeat CPU 0 instructions: 219000946 cycles: 361327526 heartbeat IPC: 0.4765 cumulative IPC: 0.4812 (Simulation time: 00 hr 55 min 23 sec)
Heartbeat CPU 0 instructions: 219500950 cycles: 362330198 heartbeat IPC: 0.4987 cumulative IPC: 0.4813 (Simulation time: 00 hr 55 min 31 sec)
Heartbeat CPU 0 instructions: 220000951 cycles: 363315114 heartbeat IPC: 0.5077 cumulative IPC: 0.4814 (Simulation time: 00 hr 55 min 39 sec)
Heartbeat CPU 0 instructions: 220500956 cycles: 364311923 heartbeat IPC: 0.5016 cumulative IPC: 0.4814 (Simulation time: 00 hr 55 min 47 sec)
Heartbeat CPU 0 instructions: 221000957 cycles: 365369532 heartbeat IPC: 0.4728 cumulative IPC: 0.4814 (Simulation time: 00 hr 55 min 55 sec)
Heartbeat CPU 0 instructions: 221500957 cycles: 366535472 heartbeat IPC: 0.4288 cumulative IPC: 0.4812 (Simulation time: 00 hr 56 min 04 sec)
Heartbeat CPU 0 instructions: 222000957 cycles: 367481184 heartbeat IPC: 0.5287 cumulative IPC: 0.4814 (Simulation time: 00 hr 56 min 11 sec)
Heartbeat CPU 0 instructions: 222500959 cycles: 368529887 heartbeat IPC: 0.4768 cumulative IPC: 0.4813 (Simulation time: 00 hr 56 min 20 sec)
Heartbeat CPU 0 instructions: 223000960 cycles: 369524083 heartbeat IPC: 0.5029 cumulative IPC: 0.4814 (Simulation time: 00 hr 56 min 27 sec)
Heartbeat CPU 0 instructions: 223500960 cycles: 370473438 heartbeat IPC: 0.5267 cumulative IPC: 0.4815 (Simulation time: 00 hr 56 min 35 sec)
Heartbeat CPU 0 instructions: 224000960 cycles: 371418744 heartbeat IPC: 0.5289 cumulative IPC: 0.4816 (Simulation time: 00 hr 56 min 43 sec)
Heartbeat CPU 0 instructions: 224500964 cycles: 372311913 heartbeat IPC: 0.5598 cumulative IPC: 0.4818 (Simulation time: 00 hr 56 min 50 sec)
Heartbeat CPU 0 instructions: 225000968 cycles: 373364159 heartbeat IPC: 0.4752 cumulative IPC: 0.4818 (Simulation time: 00 hr 56 min 59 sec)
Heartbeat CPU 0 instructions: 225500968 cycles: 374398808 heartbeat IPC: 0.4833 cumulative IPC: 0.4818 (Simulation time: 00 hr 57 min 07 sec)
Heartbeat CPU 0 instructions: 226000970 cycles: 375534956 heartbeat IPC: 0.4401 cumulative IPC: 0.4817 (Simulation time: 00 hr 57 min 15 sec)
Heartbeat CPU 0 instructions: 226500970 cycles: 376484114 heartbeat IPC: 0.5268 cumulative IPC: 0.4818 (Simulation time: 00 hr 57 min 23 sec)
Heartbeat CPU 0 instructions: 227000971 cycles: 377668873 heartbeat IPC: 0.422 cumulative IPC: 0.4816 (Simulation time: 00 hr 57 min 32 sec)
Heartbeat CPU 0 instructions: 227500975 cycles: 378631910 heartbeat IPC: 0.5192 cumulative IPC: 0.4817 (Simulation time: 00 hr 57 min 39 sec)
Heartbeat CPU 0 instructions: 228000977 cycles: 379645651 heartbeat IPC: 0.4932 cumulative IPC: 0.4817 (Simulation time: 00 hr 57 min 47 sec)
Heartbeat CPU 0 instructions: 228500979 cycles: 380608972 heartbeat IPC: 0.519 cumulative IPC: 0.4818 (Simulation time: 00 hr 57 min 55 sec)
Heartbeat CPU 0 instructions: 229000979 cycles: 381654929 heartbeat IPC: 0.478 cumulative IPC: 0.4818 (Simulation time: 00 hr 58 min 03 sec)
Heartbeat CPU 0 instructions: 229500982 cycles: 382625208 heartbeat IPC: 0.5153 cumulative IPC: 0.4819 (Simulation time: 00 hr 58 min 11 sec)
Heartbeat CPU 0 instructions: 230000982 cycles: 383311665 heartbeat IPC: 0.7284 cumulative IPC: 0.4824 (Simulation time: 00 hr 58 min 18 sec)
Heartbeat CPU 0 instructions: 230500986 cycles: 384270215 heartbeat IPC: 0.5216 cumulative IPC: 0.4825 (Simulation time: 00 hr 58 min 25 sec)
Heartbeat CPU 0 instructions: 231000991 cycles: 385270236 heartbeat IPC: 0.5 cumulative IPC: 0.4825 (Simulation time: 00 hr 58 min 33 sec)
Heartbeat CPU 0 instructions: 231500996 cycles: 386314568 heartbeat IPC: 0.4788 cumulative IPC: 0.4825 (Simulation time: 00 hr 58 min 41 sec)
Heartbeat CPU 0 instructions: 232000998 cycles: 387331999 heartbeat IPC: 0.4914 cumulative IPC: 0.4825 (Simulation time: 00 hr 58 min 50 sec)
Heartbeat CPU 0 instructions: 232500998 cycles: 388276430 heartbeat IPC: 0.5294 cumulative IPC: 0.4827 (Simulation time: 00 hr 58 min 57 sec)
Heartbeat CPU 0 instructions: 233000998 cycles: 389399380 heartbeat IPC: 0.4453 cumulative IPC: 0.4825 (Simulation time: 00 hr 59 min 06 sec)
Heartbeat CPU 0 instructions: 233500998 cycles: 390407461 heartbeat IPC: 0.496 cumulative IPC: 0.4826 (Simulation time: 00 hr 59 min 13 sec)
Heartbeat CPU 0 instructions: 234000999 cycles: 391567517 heartbeat IPC: 0.431 cumulative IPC: 0.4824 (Simulation time: 00 hr 59 min 22 sec)
Heartbeat CPU 0 instructions: 234501005 cycles: 392511142 heartbeat IPC: 0.5299 cumulative IPC: 0.4825 (Simulation time: 00 hr 59 min 29 sec)
Heartbeat CPU 0 instructions: 235001007 cycles: 393440251 heartbeat IPC: 0.5382 cumulative IPC: 0.4827 (Simulation time: 00 hr 59 min 37 sec)
Heartbeat CPU 0 instructions: 235501009 cycles: 394441381 heartbeat IPC: 0.4994 cumulative IPC: 0.4827 (Simulation time: 00 hr 59 min 44 sec)
Heartbeat CPU 0 instructions: 236001010 cycles: 395417795 heartbeat IPC: 0.5121 cumulative IPC: 0.4828 (Simulation time: 00 hr 59 min 52 sec)
Heartbeat CPU 0 instructions: 236501011 cycles: 396415906 heartbeat IPC: 0.5009 cumulative IPC: 0.4828 (Simulation time: 01 hr 00 min 00 sec)
Heartbeat CPU 0 instructions: 237001011 cycles: 397367806 heartbeat IPC: 0.5253 cumulative IPC: 0.4829 (Simulation time: 01 hr 00 min 08 sec)
Heartbeat CPU 0 instructions: 237501011 cycles: 398319598 heartbeat IPC: 0.5253 cumulative IPC: 0.483 (Simulation time: 01 hr 00 min 15 sec)
Heartbeat CPU 0 instructions: 238001014 cycles: 399304621 heartbeat IPC: 0.5076 cumulative IPC: 0.4831 (Simulation time: 01 hr 00 min 23 sec)
Heartbeat CPU 0 instructions: 238501015 cycles: 400340744 heartbeat IPC: 0.4826 cumulative IPC: 0.4831 (Simulation time: 01 hr 00 min 31 sec)
Heartbeat CPU 0 instructions: 239001016 cycles: 401384552 heartbeat IPC: 0.479 cumulative IPC: 0.4831 (Simulation time: 01 hr 00 min 39 sec)
Heartbeat CPU 0 instructions: 239501017 cycles: 402353279 heartbeat IPC: 0.5161 cumulative IPC: 0.4832 (Simulation time: 01 hr 00 min 46 sec)
Heartbeat CPU 0 instructions: 240001017 cycles: 403390819 heartbeat IPC: 0.4819 cumulative IPC: 0.4832 (Simulation time: 01 hr 00 min 54 sec)
Heartbeat CPU 0 instructions: 240501022 cycles: 404397331 heartbeat IPC: 0.4968 cumulative IPC: 0.4832 (Simulation time: 01 hr 01 min 02 sec)
Heartbeat CPU 0 instructions: 241001022 cycles: 405394628 heartbeat IPC: 0.5014 cumulative IPC: 0.4833 (Simulation time: 01 hr 01 min 09 sec)
Heartbeat CPU 0 instructions: 241501022 cycles: 406529332 heartbeat IPC: 0.4406 cumulative IPC: 0.4831 (Simulation time: 01 hr 01 min 18 sec)
Heartbeat CPU 0 instructions: 242001024 cycles: 407528317 heartbeat IPC: 0.5005 cumulative IPC: 0.4832 (Simulation time: 01 hr 01 min 25 sec)
Heartbeat CPU 0 instructions: 242501030 cycles: 408659036 heartbeat IPC: 0.4422 cumulative IPC: 0.4831 (Simulation time: 01 hr 01 min 34 sec)
Heartbeat CPU 0 instructions: 243001036 cycles: 409629644 heartbeat IPC: 0.5151 cumulative IPC: 0.4831 (Simulation time: 01 hr 01 min 41 sec)
Heartbeat CPU 0 instructions: 243501036 cycles: 410613370 heartbeat IPC: 0.5083 cumulative IPC: 0.4832 (Simulation time: 01 hr 01 min 49 sec)
Heartbeat CPU 0 instructions: 244001037 cycles: 411537469 heartbeat IPC: 0.5411 cumulative IPC: 0.4833 (Simulation time: 01 hr 01 min 56 sec)
Heartbeat CPU 0 instructions: 244501040 cycles: 412530990 heartbeat IPC: 0.5033 cumulative IPC: 0.4834 (Simulation time: 01 hr 02 min 04 sec)
Heartbeat CPU 0 instructions: 245001041 cycles: 413600248 heartbeat IPC: 0.4676 cumulative IPC: 0.4833 (Simulation time: 01 hr 02 min 11 sec)
Heartbeat CPU 0 instructions: 245501045 cycles: 414568782 heartbeat IPC: 0.5162 cumulative IPC: 0.4834 (Simulation time: 01 hr 02 min 19 sec)
Heartbeat CPU 0 instructions: 246001045 cycles: 415584561 heartbeat IPC: 0.4922 cumulative IPC: 0.4834 (Simulation time: 01 hr 02 min 26 sec)
Heartbeat CPU 0 instructions: 246501047 cycles: 416575106 heartbeat IPC: 0.5048 cumulative IPC: 0.4835 (Simulation time: 01 hr 02 min 34 sec)
Heartbeat CPU 0 instructions: 247001051 cycles: 417478345 heartbeat IPC: 0.5536 cumulative IPC: 0.4836 (Simulation time: 01 hr 02 min 41 sec)
Heartbeat CPU 0 instructions: 247501056 cycles: 418336723 heartbeat IPC: 0.5825 cumulative IPC: 0.4839 (Simulation time: 01 hr 02 min 48 sec)
Heartbeat CPU 0 instructions: 248001061 cycles: 419353793 heartbeat IPC: 0.4916 cumulative IPC: 0.4839 (Simulation time: 01 hr 02 min 56 sec)
Heartbeat CPU 0 instructions: 248501061 cycles: 420371610 heartbeat IPC: 0.4912 cumulative IPC: 0.4839 (Simulation time: 01 hr 03 min 03 sec)
Heartbeat CPU 0 instructions: 249001061 cycles: 421393528 heartbeat IPC: 0.4893 cumulative IPC: 0.4839 (Simulation time: 01 hr 03 min 11 sec)
Heartbeat CPU 0 instructions: 249501063 cycles: 422364861 heartbeat IPC: 0.5148 cumulative IPC: 0.484 (Simulation time: 01 hr 03 min 18 sec)
Simulation finished CPU 0 instructions: 200000001 cycles: 413119979 cumulative IPC: 0.4841 (Simulation time: 01 hr 03 min 25 sec)
Simulation complete CPU 0 instructions: 200000001 cycles: 413119979 cumulative IPC: 0.4841 (Simulation time: 01 hr 03 min 25 sec)

ChampSim completed all CPUs

=== Simulation ===
CPU 0 runs /local-ssd/ben/dpc4-traces/Graph/GAP/cc-5.trace.gz

Region of Interest Statistics

CPU 0 cumulative IPC: 0.4841 instructions: 200000001 cycles: 413119979
CPU 0 Branch Prediction Accuracy: 94.17% MPKI: 11.72 Average ROB Occupancy at Mispredict: 54.47
Branch type MPKI
BRANCH_DIRECT_JUMP: 0
BRANCH_INDIRECT: 0
BRANCH_CONDITIONAL: 11.72
BRANCH_DIRECT_CALL: 0
BRANCH_INDIRECT_CALL: 0
BRANCH_RETURN: 0

cpu0->cpu0_STLB TOTAL        ACCESS:   11437974 HIT:   11423705 MISS:      14269 MSHR_MERGE:          0
cpu0->cpu0_STLB LOAD         ACCESS:   11437974 HIT:   11423705 MISS:      14269 MSHR_MERGE:          0
cpu0->cpu0_STLB RFO          ACCESS:          0 HIT:          0 MISS:          0 MSHR_MERGE:          0
cpu0->cpu0_STLB PREFETCH     ACCESS:          0 HIT:          0 MISS:          0 MSHR_MERGE:          0
cpu0->cpu0_STLB WRITE        ACCESS:          0 HIT:          0 MISS:          0 MSHR_MERGE:          0
cpu0->cpu0_STLB TRANSLATION  ACCESS:          0 HIT:          0 MISS:          0 MSHR_MERGE:          0
cpu0->cpu0_STLB PREFETCH REQUESTED:          0 ISSUED:          0 USEFUL:          0 USELESS:          0
cpu0->cpu0_STLB AVERAGE MISS LATENCY: 260.9 cycles
cpu0->cpu0_L2C TOTAL        ACCESS:   65436387 HIT:   41999949 MISS:   23436438 MSHR_MERGE:    1332011
cpu0->cpu0_L2C LOAD         ACCESS:   14112629 HIT:    9045801 MISS:    5066828 MSHR_MERGE:      57498
cpu0->cpu0_L2C RFO          ACCESS:          0 HIT:          0 MISS:          0 MSHR_MERGE:          0
cpu0->cpu0_L2C PREFETCH     ACCESS:   51111590 HIT:   32744225 MISS:   18367365 MSHR_MERGE:    1274513
cpu0->cpu0_L2C WRITE        ACCESS:     197874 HIT:     197800 MISS:         74 MSHR_MERGE:          0
cpu0->cpu0_L2C TRANSLATION  ACCESS:      14294 HIT:      12123 MISS:       2171 MSHR_MERGE:          0
cpu0->cpu0_L2C PREFETCH REQUESTED:   43935436 ISSUED:   38796306 USEFUL:    3613974 USELESS:    9095116
cpu0->cpu0_L2C AVERAGE MISS LATENCY: 106.1 cycles
cpu0->cpu0_L1I TOTAL        ACCESS:    2450269 HIT:    2450269 MISS:          0 MSHR_MERGE:          0
cpu0->cpu0_L1I LOAD         ACCESS:    2450269 HIT:    2450269 MISS:          0 MSHR_MERGE:          0
cpu0->cpu0_L1I RFO          ACCESS:          0 HIT:          0 MISS:          0 MSHR_MERGE:          0
cpu0->cpu0_L1I PREFETCH     ACCESS:          0 HIT:          0 MISS:          0 MSHR_MERGE:          0
cpu0->cpu0_L1I WRITE        ACCESS:          0 HIT:          0 MISS:          0 MSHR_MERGE:          0
cpu0->cpu0_L1I TRANSLATION  ACCESS:          0 HIT:          0 MISS:          0 MSHR_MERGE:          0
cpu0->cpu0_L1I PREFETCH REQUESTED:          0 ISSUED:          0 USEFUL:          0 USELESS:          0
cpu0->cpu0_L1I AVERAGE MISS LATENCY: - cycles
cpu0->cpu0_L1D TOTAL        ACCESS:   84649098 HIT:   56853273 MISS:   27795825 MSHR_MERGE:    1353634
cpu0->cpu0_L1D LOAD         ACCESS:   45223499 HIT:   30700098 MISS:   14523401 MSHR_MERGE:     410772
cpu0->cpu0_L1D RFO          ACCESS:          0 HIT:          0 MISS:          0 MSHR_MERGE:          0
cpu0->cpu0_L1D PREFETCH     ACCESS:   39148752 HIT:   25890622 MISS:   13258130 MSHR_MERGE:     942862
cpu0->cpu0_L1D WRITE        ACCESS:     248282 HIT:     248282 MISS:          0 MSHR_MERGE:          0
cpu0->cpu0_L1D TRANSLATION  ACCESS:      28565 HIT:      14271 MISS:      14294 MSHR_MERGE:          0
cpu0->cpu0_L1D PREFETCH REQUESTED:   45500715 ISSUED:   39148743 USEFUL:     980390 USELESS:   11334846
cpu0->cpu0_L1D AVERAGE MISS LATENCY: 46.72 cycles
cpu0->cpu0_ITLB TOTAL        ACCESS:    2332299 HIT:    2332299 MISS:          0 MSHR_MERGE:          0
cpu0->cpu0_ITLB LOAD         ACCESS:    2332299 HIT:    2332299 MISS:          0 MSHR_MERGE:          0
cpu0->cpu0_ITLB RFO          ACCESS:          0 HIT:          0 MISS:          0 MSHR_MERGE:          0
cpu0->cpu0_ITLB PREFETCH     ACCESS:          0 HIT:          0 MISS:          0 MSHR_MERGE:          0
cpu0->cpu0_ITLB WRITE        ACCESS:          0 HIT:          0 MISS:          0 MSHR_MERGE:          0
cpu0->cpu0_ITLB TRANSLATION  ACCESS:          0 HIT:          0 MISS:          0 MSHR_MERGE:          0
cpu0->cpu0_ITLB PREFETCH REQUESTED:          0 ISSUED:          0 USEFUL:          0 USELESS:          0
cpu0->cpu0_ITLB AVERAGE MISS LATENCY: - cycles
cpu0->cpu0_DTLB TOTAL        ACCESS:   78368555 HIT:   65431529 MISS:   12937026 MSHR_MERGE:    1499053
cpu0->cpu0_DTLB LOAD         ACCESS:   78368555 HIT:   65431529 MISS:   12937026 MSHR_MERGE:    1499053
cpu0->cpu0_DTLB RFO          ACCESS:          0 HIT:          0 MISS:          0 MSHR_MERGE:          0
cpu0->cpu0_DTLB PREFETCH     ACCESS:          0 HIT:          0 MISS:          0 MSHR_MERGE:          0
cpu0->cpu0_DTLB WRITE        ACCESS:          0 HIT:          0 MISS:          0 MSHR_MERGE:          0
cpu0->cpu0_DTLB TRANSLATION  ACCESS:          0 HIT:          0 MISS:          0 MSHR_MERGE:          0
cpu0->cpu0_DTLB PREFETCH REQUESTED:          0 ISSUED:          0 USEFUL:          0 USELESS:          0
cpu0->cpu0_DTLB AVERAGE MISS LATENCY: 5.346 cycles
cpu0->LLC TOTAL        ACCESS:   41098955 HIT:   27116035 MISS:   13982920 MSHR_MERGE:    2177876
cpu0->LLC LOAD         ACCESS:    5009330 HIT:    3356444 MISS:    1652886 MSHR_MERGE:      30566
cpu0->LLC RFO          ACCESS:          0 HIT:          0 MISS:          0 MSHR_MERGE:          0
cpu0->LLC PREFETCH     ACCESS:   35889755 HIT:   23619786 MISS:   12269969 MSHR_MERGE:    2147310
cpu0->LLC WRITE        ACCESS:     197699 HIT:     139719 MISS:      57980 MSHR_MERGE:          0
cpu0->LLC TRANSLATION  ACCESS:       2171 HIT:         86 MISS:       2085 MSHR_MERGE:          0
cpu0->LLC PREFETCH REQUESTED:   19117702 ISSUED:   18796903 USEFUL:     944715 USELESS:    3668826
cpu0->LLC AVERAGE MISS LATENCY: 245.2 cycles

DRAM Statistics

Channel 0 RQ ROW_BUFFER_HIT:     377630
  ROW_BUFFER_MISS:   11360262
  AVG DBUS CONGESTED CYCLE: 10.25
Channel 0 WQ ROW_BUFFER_HIT:      48468
  ROW_BUFFER_MISS:     109903
  FULL:          0
Channel 0 REFRESHES ISSUED:      34424
