[VMEM] WARNING: physical memory size is smaller than virtual memory size.

*** ChampSim Multicore Out-of-Order Simulator ***
Warmup Instructions: 50000000
Simulation Instructions: 200000000
Number of CPUs: 1
Page size: 4096
Core 0: /local-ssd/ben/dpc4-traces/Graph/Ligra/ligra_MIS.com-lj.ungraph.gcc_6.3.0_O3.drop_15750M.length_250M.champsimtrace.xz
Off-chip DRAM Size: 64 GiB Channels: 1 Width: 64-bit Data Rate: 4807 MT/s
Heartbeat CPU 0 instructions: 500005 cycles: 216140 heartbeat IPC: 2.313 cumulative IPC: 2.313 (Simulation time: 00 hr 00 min 05 sec)
Heartbeat CPU 0 instructions: 1000011 cycles: 429716 heartbeat IPC: 2.341 cumulative IPC: 2.327 (Simulation time: 00 hr 00 min 08 sec)
Heartbeat CPU 0 instructions: 1500013 cycles: 641753 heartbeat IPC: 2.358 cumulative IPC: 2.337 (Simulation time: 00 hr 00 min 11 sec)
Heartbeat CPU 0 instructions: 2000018 cycles: 841212 heartbeat IPC: 2.507 cumulative IPC: 2.378 (Simulation time: 00 hr 00 min 13 sec)
Heartbeat CPU 0 instructions: 2500019 cycles: 1052743 heartbeat IPC: 2.364 cumulative IPC: 2.375 (Simulation time: 00 hr 00 min 16 sec)
Heartbeat CPU 0 instructions: 3000023 cycles: 1270832 heartbeat IPC: 2.293 cumulative IPC: 2.361 (Simulation time: 00 hr 00 min 18 sec)
Heartbeat CPU 0 instructions: 3500023 cycles: 1484068 heartbeat IPC: 2.345 cumulative IPC: 2.358 (Simulation time: 00 hr 00 min 20 sec)
Heartbeat CPU 0 instructions: 4000024 cycles: 1698470 heartbeat IPC: 2.332 cumulative IPC: 2.355 (Simulation time: 00 hr 00 min 23 sec)
Heartbeat CPU 0 instructions: 4500024 cycles: 1910048 heartbeat IPC: 2.363 cumulative IPC: 2.356 (Simulation time: 00 hr 00 min 25 sec)
Heartbeat CPU 0 instructions: 5000024 cycles: 2124153 heartbeat IPC: 2.335 cumulative IPC: 2.354 (Simulation time: 00 hr 00 min 28 sec)
Heartbeat CPU 0 instructions: 5500030 cycles: 2339365 heartbeat IPC: 2.323 cumulative IPC: 2.351 (Simulation time: 00 hr 00 min 30 sec)
Heartbeat CPU 0 instructions: 6000034 cycles: 2554348 heartbeat IPC: 2.326 cumulative IPC: 2.349 (Simulation time: 00 hr 00 min 33 sec)
Heartbeat CPU 0 instructions: 6500040 cycles: 2768934 heartbeat IPC: 2.33 cumulative IPC: 2.347 (Simulation time: 00 hr 00 min 35 sec)
Heartbeat CPU 0 instructions: 7000044 cycles: 2986911 heartbeat IPC: 2.294 cumulative IPC: 2.344 (Simulation time: 00 hr 00 min 38 sec)
Heartbeat CPU 0 instructions: 7500046 cycles: 3200711 heartbeat IPC: 2.339 cumulative IPC: 2.343 (Simulation time: 00 hr 00 min 40 sec)
Heartbeat CPU 0 instructions: 8000047 cycles: 3413882 heartbeat IPC: 2.346 cumulative IPC: 2.343 (Simulation time: 00 hr 00 min 43 sec)
Heartbeat CPU 0 instructions: 8500052 cycles: 3626894 heartbeat IPC: 2.347 cumulative IPC: 2.344 (Simulation time: 00 hr 00 min 45 sec)
Heartbeat CPU 0 instructions: 9000052 cycles: 3840638 heartbeat IPC: 2.339 cumulative IPC: 2.343 (Simulation time: 00 hr 00 min 48 sec)
Heartbeat CPU 0 instructions: 9500056 cycles: 4060104 heartbeat IPC: 2.278 cumulative IPC: 2.34 (Simulation time: 00 hr 00 min 50 sec)
Heartbeat CPU 0 instructions: 10000056 cycles: 4269454 heartbeat IPC: 2.388 cumulative IPC: 2.342 (Simulation time: 00 hr 00 min 53 sec)
Heartbeat CPU 0 instructions: 10500056 cycles: 4481773 heartbeat IPC: 2.355 cumulative IPC: 2.343 (Simulation time: 00 hr 00 min 55 sec)
Heartbeat CPU 0 instructions: 11000059 cycles: 4694670 heartbeat IPC: 2.349 cumulative IPC: 2.343 (Simulation time: 00 hr 00 min 57 sec)
Heartbeat CPU 0 instructions: 11500060 cycles: 4908168 heartbeat IPC: 2.342 cumulative IPC: 2.343 (Simulation time: 00 hr 01 min 00 sec)
Heartbeat CPU 0 instructions: 12000060 cycles: 5118522 heartbeat IPC: 2.377 cumulative IPC: 2.344 (Simulation time: 00 hr 01 min 02 sec)
Heartbeat CPU 0 instructions: 12500065 cycles: 5331686 heartbeat IPC: 2.346 cumulative IPC: 2.344 (Simulation time: 00 hr 01 min 05 sec)
Heartbeat CPU 0 instructions: 13000071 cycles: 5545454 heartbeat IPC: 2.339 cumulative IPC: 2.344 (Simulation time: 00 hr 01 min 07 sec)
Heartbeat CPU 0 instructions: 13500076 cycles: 5758783 heartbeat IPC: 2.344 cumulative IPC: 2.344 (Simulation time: 00 hr 01 min 10 sec)
Heartbeat CPU 0 instructions: 14000078 cycles: 5971900 heartbeat IPC: 2.346 cumulative IPC: 2.344 (Simulation time: 00 hr 01 min 12 sec)
Heartbeat CPU 0 instructions: 14500082 cycles: 6184780 heartbeat IPC: 2.349 cumulative IPC: 2.344 (Simulation time: 00 hr 01 min 15 sec)
Heartbeat CPU 0 instructions: 15000086 cycles: 6398238 heartbeat IPC: 2.342 cumulative IPC: 2.344 (Simulation time: 00 hr 01 min 17 sec)
Heartbeat CPU 0 instructions: 15500087 cycles: 6610909 heartbeat IPC: 2.351 cumulative IPC: 2.345 (Simulation time: 00 hr 01 min 20 sec)
Heartbeat CPU 0 instructions: 16000089 cycles: 6823200 heartbeat IPC: 2.355 cumulative IPC: 2.345 (Simulation time: 00 hr 01 min 22 sec)
Heartbeat CPU 0 instructions: 16500094 cycles: 7034618 heartbeat IPC: 2.365 cumulative IPC: 2.346 (Simulation time: 00 hr 01 min 25 sec)
Heartbeat CPU 0 instructions: 17000098 cycles: 7246236 heartbeat IPC: 2.363 cumulative IPC: 2.346 (Simulation time: 00 hr 01 min 27 sec)
Heartbeat CPU 0 instructions: 17500099 cycles: 7455320 heartbeat IPC: 2.391 cumulative IPC: 2.347 (Simulation time: 00 hr 01 min 30 sec)
Heartbeat CPU 0 instructions: 18000102 cycles: 7668030 heartbeat IPC: 2.351 cumulative IPC: 2.347 (Simulation time: 00 hr 01 min 32 sec)
Heartbeat CPU 0 instructions: 18500108 cycles: 7877774 heartbeat IPC: 2.384 cumulative IPC: 2.348 (Simulation time: 00 hr 01 min 35 sec)
Heartbeat CPU 0 instructions: 19000110 cycles: 8087624 heartbeat IPC: 2.383 cumulative IPC: 2.349 (Simulation time: 00 hr 01 min 37 sec)
Heartbeat CPU 0 instructions: 19500111 cycles: 8300181 heartbeat IPC: 2.352 cumulative IPC: 2.349 (Simulation time: 00 hr 01 min 40 sec)
Heartbeat CPU 0 instructions: 20000112 cycles: 8512341 heartbeat IPC: 2.357 cumulative IPC: 2.35 (Simulation time: 00 hr 01 min 42 sec)
Heartbeat CPU 0 instructions: 20500112 cycles: 8722119 heartbeat IPC: 2.383 cumulative IPC: 2.35 (Simulation time: 00 hr 01 min 44 sec)
Heartbeat CPU 0 instructions: 21000118 cycles: 8932922 heartbeat IPC: 2.372 cumulative IPC: 2.351 (Simulation time: 00 hr 01 min 47 sec)
Heartbeat CPU 0 instructions: 21500124 cycles: 9142796 heartbeat IPC: 2.382 cumulative IPC: 2.352 (Simulation time: 00 hr 01 min 49 sec)
Heartbeat CPU 0 instructions: 22000127 cycles: 9350628 heartbeat IPC: 2.406 cumulative IPC: 2.353 (Simulation time: 00 hr 01 min 52 sec)
Heartbeat CPU 0 instructions: 22500132 cycles: 9559934 heartbeat IPC: 2.389 cumulative IPC: 2.354 (Simulation time: 00 hr 01 min 54 sec)
Heartbeat CPU 0 instructions: 23000136 cycles: 9768820 heartbeat IPC: 2.394 cumulative IPC: 2.354 (Simulation time: 00 hr 01 min 57 sec)
Heartbeat CPU 0 instructions: 23500141 cycles: 9992002 heartbeat IPC: 2.24 cumulative IPC: 2.352 (Simulation time: 00 hr 01 min 59 sec)
Heartbeat CPU 0 instructions: 24000141 cycles: 10206689 heartbeat IPC: 2.329 cumulative IPC: 2.351 (Simulation time: 00 hr 02 min 02 sec)
Heartbeat CPU 0 instructions: 24500142 cycles: 10417386 heartbeat IPC: 2.373 cumulative IPC: 2.352 (Simulation time: 00 hr 02 min 04 sec)
Heartbeat CPU 0 instructions: 25000143 cycles: 10627720 heartbeat IPC: 2.377 cumulative IPC: 2.352 (Simulation time: 00 hr 02 min 07 sec)
Heartbeat CPU 0 instructions: 25500143 cycles: 10832494 heartbeat IPC: 2.442 cumulative IPC: 2.354 (Simulation time: 00 hr 02 min 09 sec)
Heartbeat CPU 0 instructions: 26000145 cycles: 11042918 heartbeat IPC: 2.376 cumulative IPC: 2.354 (Simulation time: 00 hr 02 min 12 sec)
Heartbeat CPU 0 instructions: 26500148 cycles: 11249358 heartbeat IPC: 2.422 cumulative IPC: 2.356 (Simulation time: 00 hr 02 min 14 sec)
Heartbeat CPU 0 instructions: 27000151 cycles: 11452764 heartbeat IPC: 2.458 cumulative IPC: 2.358 (Simulation time: 00 hr 02 min 17 sec)
Heartbeat CPU 0 instructions: 27500151 cycles: 11656408 heartbeat IPC: 2.455 cumulative IPC: 2.359 (Simulation time: 00 hr 02 min 19 sec)
Heartbeat CPU 0 instructions: 28000158 cycles: 11863092 heartbeat IPC: 2.419 cumulative IPC: 2.36 (Simulation time: 00 hr 02 min 22 sec)
Heartbeat CPU 0 instructions: 28500160 cycles: 12069335 heartbeat IPC: 2.424 cumulative IPC: 2.361 (Simulation time: 00 hr 02 min 24 sec)
Heartbeat CPU 0 instructions: 29000160 cycles: 12276441 heartbeat IPC: 2.414 cumulative IPC: 2.362 (Simulation time: 00 hr 02 min 27 sec)
Heartbeat CPU 0 instructions: 29500163 cycles: 12473810 heartbeat IPC: 2.533 cumulative IPC: 2.365 (Simulation time: 00 hr 02 min 29 sec)
Heartbeat CPU 0 instructions: 30000163 cycles: 12643468 heartbeat IPC: 2.947 cumulative IPC: 2.373 (Simulation time: 00 hr 02 min 31 sec)
Heartbeat CPU 0 instructions: 30500163 cycles: 12795764 heartbeat IPC: 3.283 cumulative IPC: 2.384 (Simulation time: 00 hr 02 min 34 sec)
Heartbeat CPU 0 instructions: 31000164 cycles: 13006948 heartbeat IPC: 2.368 cumulative IPC: 2.383 (Simulation time: 00 hr 02 min 36 sec)
Heartbeat CPU 0 instructions: 31500166 cycles: 13220297 heartbeat IPC: 2.344 cumulative IPC: 2.383 (Simulation time: 00 hr 02 min 39 sec)
Heartbeat CPU 0 instructions: 32000172 cycles: 13426924 heartbeat IPC: 2.42 cumulative IPC: 2.383 (Simulation time: 00 hr 02 min 41 sec)
Heartbeat CPU 0 instructions: 32500178 cycles: 13630224 heartbeat IPC: 2.459 cumulative IPC: 2.384 (Simulation time: 00 hr 02 min 43 sec)
Heartbeat CPU 0 instructions: 33000181 cycles: 13835216 heartbeat IPC: 2.439 cumulative IPC: 2.385 (Simulation time: 00 hr 02 min 46 sec)
Heartbeat CPU 0 instructions: 33500187 cycles: 14044197 heartbeat IPC: 2.393 cumulative IPC: 2.385 (Simulation time: 00 hr 02 min 48 sec)
Heartbeat CPU 0 instructions: 34000187 cycles: 14256141 heartbeat IPC: 2.359 cumulative IPC: 2.385 (Simulation time: 00 hr 02 min 51 sec)
Heartbeat CPU 0 instructions: 34500188 cycles: 14463356 heartbeat IPC: 2.413 cumulative IPC: 2.385 (Simulation time: 00 hr 02 min 53 sec)
Heartbeat CPU 0 instructions: 35000194 cycles: 14674751 heartbeat IPC: 2.365 cumulative IPC: 2.385 (Simulation time: 00 hr 02 min 56 sec)
Heartbeat CPU 0 instructions: 35500196 cycles: 14887038 heartbeat IPC: 2.355 cumulative IPC: 2.385 (Simulation time: 00 hr 02 min 58 sec)
Heartbeat CPU 0 instructions: 36000200 cycles: 15090488 heartbeat IPC: 2.458 cumulative IPC: 2.386 (Simulation time: 00 hr 03 min 01 sec)
Heartbeat CPU 0 instructions: 36500206 cycles: 15295460 heartbeat IPC: 2.439 cumulative IPC: 2.386 (Simulation time: 00 hr 03 min 03 sec)
Heartbeat CPU 0 instructions: 37000206 cycles: 15485102 heartbeat IPC: 2.637 cumulative IPC: 2.389 (Simulation time: 00 hr 03 min 06 sec)
Heartbeat CPU 0 instructions: 37500209 cycles: 15682614 heartbeat IPC: 2.532 cumulative IPC: 2.391 (Simulation time: 00 hr 03 min 08 sec)
Heartbeat CPU 0 instructions: 38000215 cycles: 15892324 heartbeat IPC: 2.384 cumulative IPC: 2.391 (Simulation time: 00 hr 03 min 10 sec)
Heartbeat CPU 0 instructions: 38500216 cycles: 16097738 heartbeat IPC: 2.434 cumulative IPC: 2.392 (Simulation time: 00 hr 03 min 13 sec)
Heartbeat CPU 0 instructions: 39000217 cycles: 16297544 heartbeat IPC: 2.502 cumulative IPC: 2.393 (Simulation time: 00 hr 03 min 15 sec)
Heartbeat CPU 0 instructions: 39500221 cycles: 16502344 heartbeat IPC: 2.441 cumulative IPC: 2.394 (Simulation time: 00 hr 03 min 18 sec)
Heartbeat CPU 0 instructions: 40000225 cycles: 16709092 heartbeat IPC: 2.418 cumulative IPC: 2.394 (Simulation time: 00 hr 03 min 20 sec)
Heartbeat CPU 0 instructions: 40500225 cycles: 16920953 heartbeat IPC: 2.36 cumulative IPC: 2.393 (Simulation time: 00 hr 03 min 23 sec)
Heartbeat CPU 0 instructions: 41000230 cycles: 17128424 heartbeat IPC: 2.41 cumulative IPC: 2.394 (Simulation time: 00 hr 03 min 25 sec)
Heartbeat CPU 0 instructions: 41500233 cycles: 17341594 heartbeat IPC: 2.346 cumulative IPC: 2.393 (Simulation time: 00 hr 03 min 28 sec)
Heartbeat CPU 0 instructions: 42000235 cycles: 17549916 heartbeat IPC: 2.4 cumulative IPC: 2.393 (Simulation time: 00 hr 03 min 30 sec)
Heartbeat CPU 0 instructions: 42500241 cycles: 17756060 heartbeat IPC: 2.426 cumulative IPC: 2.394 (Simulation time: 00 hr 03 min 33 sec)
Heartbeat CPU 0 instructions: 43000242 cycles: 17961169 heartbeat IPC: 2.438 cumulative IPC: 2.394 (Simulation time: 00 hr 03 min 35 sec)
Heartbeat CPU 0 instructions: 43500247 cycles: 18163861 heartbeat IPC: 2.467 cumulative IPC: 2.395 (Simulation time: 00 hr 03 min 38 sec)
Heartbeat CPU 0 instructions: 44000247 cycles: 18366032 heartbeat IPC: 2.473 cumulative IPC: 2.396 (Simulation time: 00 hr 03 min 40 sec)
Heartbeat CPU 0 instructions: 44500250 cycles: 18572852 heartbeat IPC: 2.418 cumulative IPC: 2.396 (Simulation time: 00 hr 03 min 43 sec)
Heartbeat CPU 0 instructions: 45000254 cycles: 18775916 heartbeat IPC: 2.462 cumulative IPC: 2.397 (Simulation time: 00 hr 03 min 45 sec)
Heartbeat CPU 0 instructions: 45500254 cycles: 18974564 heartbeat IPC: 2.517 cumulative IPC: 2.398 (Simulation time: 00 hr 03 min 48 sec)
Heartbeat CPU 0 instructions: 46000256 cycles: 19174542 heartbeat IPC: 2.5 cumulative IPC: 2.399 (Simulation time: 00 hr 03 min 50 sec)
Heartbeat CPU 0 instructions: 46500258 cycles: 19375546 heartbeat IPC: 2.488 cumulative IPC: 2.4 (Simulation time: 00 hr 03 min 52 sec)
Heartbeat CPU 0 instructions: 47000265 cycles: 19574078 heartbeat IPC: 2.519 cumulative IPC: 2.401 (Simulation time: 00 hr 03 min 55 sec)
Heartbeat CPU 0 instructions: 47500269 cycles: 19780534 heartbeat IPC: 2.422 cumulative IPC: 2.401 (Simulation time: 00 hr 03 min 57 sec)
Heartbeat CPU 0 instructions: 48000275 cycles: 19980355 heartbeat IPC: 2.502 cumulative IPC: 2.402 (Simulation time: 00 hr 04 min 00 sec)
Heartbeat CPU 0 instructions: 48500281 cycles: 20180968 heartbeat IPC: 2.492 cumulative IPC: 2.403 (Simulation time: 00 hr 04 min 02 sec)
Heartbeat CPU 0 instructions: 49000282 cycles: 20384106 heartbeat IPC: 2.461 cumulative IPC: 2.404 (Simulation time: 00 hr 04 min 05 sec)
Heartbeat CPU 0 instructions: 49500288 cycles: 20583917 heartbeat IPC: 2.502 cumulative IPC: 2.405 (Simulation time: 00 hr 04 min 07 sec)
Warmup halting CPU 0 at instruction 50000002 cycle 20785904 for remainder of phase
Warmup finished CPU 0 instructions: 50000002 cycles: 20785904 cumulative IPC: 2.405 (Simulation time: 00 hr 04 min 10 sec)
Warmup complete CPU 0 instructions: 50000002 cycles: 20785904 cumulative IPC: 2.405 (Simulation time: 00 hr 04 min 10 sec)
Heartbeat CPU 0 instructions: 50000288 cycles: 20786035 heartbeat IPC: 2.474 cumulative IPC: 2.183 (Simulation time: 00 hr 04 min 10 sec)
Heartbeat CPU 0 instructions: 50500289 cycles: 21109259 heartbeat IPC: 1.547 cumulative IPC: 1.547 (Simulation time: 00 hr 04 min 14 sec)
Heartbeat CPU 0 instructions: 51000291 cycles: 21421323 heartbeat IPC: 1.602 cumulative IPC: 1.574 (Simulation time: 00 hr 04 min 18 sec)
Heartbeat CPU 0 instructions: 51500292 cycles: 21739521 heartbeat IPC: 1.571 cumulative IPC: 1.573 (Simulation time: 00 hr 04 min 23 sec)
Heartbeat CPU 0 instructions: 52000296 cycles: 22038006 heartbeat IPC: 1.675 cumulative IPC: 1.598 (Simulation time: 00 hr 04 min 27 sec)
Heartbeat CPU 0 instructions: 52500300 cycles: 22344306 heartbeat IPC: 1.632 cumulative IPC: 1.604 (Simulation time: 00 hr 04 min 31 sec)
Heartbeat CPU 0 instructions: 53000307 cycles: 22662892 heartbeat IPC: 1.569 cumulative IPC: 1.598 (Simulation time: 00 hr 04 min 35 sec)
Heartbeat CPU 0 instructions: 53500308 cycles: 22986688 heartbeat IPC: 1.544 cumulative IPC: 1.59 (Simulation time: 00 hr 04 min 40 sec)
Heartbeat CPU 0 instructions: 54000308 cycles: 23303169 heartbeat IPC: 1.58 cumulative IPC: 1.589 (Simulation time: 00 hr 04 min 44 sec)
Heartbeat CPU 0 instructions: 54500311 cycles: 23609756 heartbeat IPC: 1.631 cumulative IPC: 1.594 (Simulation time: 00 hr 04 min 48 sec)
Heartbeat CPU 0 instructions: 55000313 cycles: 23927711 heartbeat IPC: 1.573 cumulative IPC: 1.592 (Simulation time: 00 hr 04 min 53 sec)
Heartbeat CPU 0 instructions: 55500313 cycles: 24247391 heartbeat IPC: 1.564 cumulative IPC: 1.589 (Simulation time: 00 hr 04 min 57 sec)
Heartbeat CPU 0 instructions: 56000316 cycles: 24564275 heartbeat IPC: 1.578 cumulative IPC: 1.588 (Simulation time: 00 hr 05 min 02 sec)
Heartbeat CPU 0 instructions: 56500320 cycles: 24885306 heartbeat IPC: 1.557 cumulative IPC: 1.586 (Simulation time: 00 hr 05 min 06 sec)
Heartbeat CPU 0 instructions: 57000322 cycles: 25196348 heartbeat IPC: 1.608 cumulative IPC: 1.587 (Simulation time: 00 hr 05 min 11 sec)
Heartbeat CPU 0 instructions: 57500326 cycles: 25516023 heartbeat IPC: 1.564 cumulative IPC: 1.586 (Simulation time: 00 hr 05 min 15 sec)
Heartbeat CPU 0 instructions: 58000332 cycles: 25831739 heartbeat IPC: 1.584 cumulative IPC: 1.586 (Simulation time: 00 hr 05 min 19 sec)
Heartbeat CPU 0 instructions: 58500333 cycles: 26149342 heartbeat IPC: 1.574 cumulative IPC: 1.585 (Simulation time: 00 hr 05 min 24 sec)
Heartbeat CPU 0 instructions: 59000338 cycles: 26473237 heartbeat IPC: 1.544 cumulative IPC: 1.583 (Simulation time: 00 hr 05 min 28 sec)
Heartbeat CPU 0 instructions: 59500339 cycles: 26784111 heartbeat IPC: 1.608 cumulative IPC: 1.584 (Simulation time: 00 hr 05 min 32 sec)
Heartbeat CPU 0 instructions: 60000343 cycles: 27108338 heartbeat IPC: 1.542 cumulative IPC: 1.582 (Simulation time: 00 hr 05 min 37 sec)
Heartbeat CPU 0 instructions: 60500345 cycles: 27419709 heartbeat IPC: 1.606 cumulative IPC: 1.583 (Simulation time: 00 hr 05 min 41 sec)
Heartbeat CPU 0 instructions: 61000346 cycles: 27755395 heartbeat IPC: 1.489 cumulative IPC: 1.578 (Simulation time: 00 hr 05 min 46 sec)
Heartbeat CPU 0 instructions: 61500350 cycles: 28072189 heartbeat IPC: 1.578 cumulative IPC: 1.578 (Simulation time: 00 hr 05 min 50 sec)
Heartbeat CPU 0 instructions: 62000352 cycles: 28377962 heartbeat IPC: 1.635 cumulative IPC: 1.581 (Simulation time: 00 hr 05 min 55 sec)
Heartbeat CPU 0 instructions: 62500356 cycles: 28688814 heartbeat IPC: 1.608 cumulative IPC: 1.582 (Simulation time: 00 hr 05 min 59 sec)
Heartbeat CPU 0 instructions: 63000360 cycles: 29001920 heartbeat IPC: 1.597 cumulative IPC: 1.582 (Simulation time: 00 hr 06 min 03 sec)
Heartbeat CPU 0 instructions: 63500361 cycles: 29313947 heartbeat IPC: 1.602 cumulative IPC: 1.583 (Simulation time: 00 hr 06 min 08 sec)
Heartbeat CPU 0 instructions: 64000368 cycles: 29625570 heartbeat IPC: 1.605 cumulative IPC: 1.584 (Simulation time: 00 hr 06 min 12 sec)
Heartbeat CPU 0 instructions: 64500368 cycles: 29943492 heartbeat IPC: 1.573 cumulative IPC: 1.583 (Simulation time: 00 hr 06 min 16 sec)
Heartbeat CPU 0 instructions: 65000368 cycles: 30268188 heartbeat IPC: 1.54 cumulative IPC: 1.582 (Simulation time: 00 hr 06 min 21 sec)
Heartbeat CPU 0 instructions: 65500375 cycles: 30585692 heartbeat IPC: 1.575 cumulative IPC: 1.582 (Simulation time: 00 hr 06 min 25 sec)
Heartbeat CPU 0 instructions: 66000380 cycles: 30910484 heartbeat IPC: 1.539 cumulative IPC: 1.58 (Simulation time: 00 hr 06 min 30 sec)
Heartbeat CPU 0 instructions: 66500380 cycles: 31230046 heartbeat IPC: 1.565 cumulative IPC: 1.58 (Simulation time: 00 hr 06 min 34 sec)
Heartbeat CPU 0 instructions: 67000380 cycles: 31549700 heartbeat IPC: 1.564 cumulative IPC: 1.579 (Simulation time: 00 hr 06 min 38 sec)
Heartbeat CPU 0 instructions: 67500381 cycles: 31871569 heartbeat IPC: 1.553 cumulative IPC: 1.579 (Simulation time: 00 hr 06 min 43 sec)
Heartbeat CPU 0 instructions: 68000381 cycles: 32191489 heartbeat IPC: 1.563 cumulative IPC: 1.578 (Simulation time: 00 hr 06 min 47 sec)
Heartbeat CPU 0 instructions: 68500384 cycles: 32516184 heartbeat IPC: 1.54 cumulative IPC: 1.577 (Simulation time: 00 hr 06 min 52 sec)
Heartbeat CPU 0 instructions: 69000386 cycles: 32841022 heartbeat IPC: 1.539 cumulative IPC: 1.576 (Simulation time: 00 hr 06 min 56 sec)
Heartbeat CPU 0 instructions: 69500390 cycles: 33180984 heartbeat IPC: 1.471 cumulative IPC: 1.573 (Simulation time: 00 hr 07 min 00 sec)
Heartbeat CPU 0 instructions: 70000390 cycles: 33542503 heartbeat IPC: 1.383 cumulative IPC: 1.568 (Simulation time: 00 hr 07 min 05 sec)
Heartbeat CPU 0 instructions: 70500393 cycles: 33863019 heartbeat IPC: 1.56 cumulative IPC: 1.568 (Simulation time: 00 hr 07 min 09 sec)
Heartbeat CPU 0 instructions: 71000395 cycles: 34192378 heartbeat IPC: 1.518 cumulative IPC: 1.566 (Simulation time: 00 hr 07 min 14 sec)
Heartbeat CPU 0 instructions: 71500398 cycles: 34508966 heartbeat IPC: 1.579 cumulative IPC: 1.567 (Simulation time: 00 hr 07 min 18 sec)
Heartbeat CPU 0 instructions: 72000398 cycles: 34816694 heartbeat IPC: 1.625 cumulative IPC: 1.568 (Simulation time: 00 hr 07 min 22 sec)
Heartbeat CPU 0 instructions: 72500400 cycles: 35135810 heartbeat IPC: 1.567 cumulative IPC: 1.568 (Simulation time: 00 hr 07 min 27 sec)
Heartbeat CPU 0 instructions: 73000407 cycles: 35454807 heartbeat IPC: 1.567 cumulative IPC: 1.568 (Simulation time: 00 hr 07 min 31 sec)
Heartbeat CPU 0 instructions: 73500413 cycles: 35784681 heartbeat IPC: 1.516 cumulative IPC: 1.567 (Simulation time: 00 hr 07 min 35 sec)
Heartbeat CPU 0 instructions: 74000420 cycles: 36120751 heartbeat IPC: 1.488 cumulative IPC: 1.565 (Simulation time: 00 hr 07 min 40 sec)
Heartbeat CPU 0 instructions: 74500420 cycles: 36437316 heartbeat IPC: 1.579 cumulative IPC: 1.565 (Simulation time: 00 hr 07 min 44 sec)
Heartbeat CPU 0 instructions: 75000420 cycles: 36743722 heartbeat IPC: 1.632 cumulative IPC: 1.567 (Simulation time: 00 hr 07 min 48 sec)
Heartbeat CPU 0 instructions: 75500420 cycles: 37070769 heartbeat IPC: 1.529 cumulative IPC: 1.566 (Simulation time: 00 hr 07 min 53 sec)
Heartbeat CPU 0 instructions: 76000425 cycles: 37394375 heartbeat IPC: 1.545 cumulative IPC: 1.565 (Simulation time: 00 hr 07 min 57 sec)
Heartbeat CPU 0 instructions: 76500426 cycles: 37722071 heartbeat IPC: 1.526 cumulative IPC: 1.565 (Simulation time: 00 hr 08 min 02 sec)
Heartbeat CPU 0 instructions: 77000430 cycles: 38039339 heartbeat IPC: 1.576 cumulative IPC: 1.565 (Simulation time: 00 hr 08 min 06 sec)
Heartbeat CPU 0 instructions: 77500431 cycles: 38363268 heartbeat IPC: 1.544 cumulative IPC: 1.565 (Simulation time: 00 hr 08 min 10 sec)
Heartbeat CPU 0 instructions: 78000432 cycles: 38697925 heartbeat IPC: 1.494 cumulative IPC: 1.563 (Simulation time: 00 hr 08 min 15 sec)
Heartbeat CPU 0 instructions: 78500435 cycles: 39009933 heartbeat IPC: 1.603 cumulative IPC: 1.564 (Simulation time: 00 hr 08 min 19 sec)
Heartbeat CPU 0 instructions: 79000439 cycles: 39338248 heartbeat IPC: 1.523 cumulative IPC: 1.563 (Simulation time: 00 hr 08 min 23 sec)
Heartbeat CPU 0 instructions: 79500442 cycles: 39661992 heartbeat IPC: 1.544 cumulative IPC: 1.563 (Simulation time: 00 hr 08 min 27 sec)
Heartbeat CPU 0 instructions: 80000444 cycles: 39994310 heartbeat IPC: 1.505 cumulative IPC: 1.562 (Simulation time: 00 hr 08 min 32 sec)
Heartbeat CPU 0 instructions: 80500444 cycles: 40317258 heartbeat IPC: 1.548 cumulative IPC: 1.562 (Simulation time: 00 hr 08 min 36 sec)
Heartbeat CPU 0 instructions: 81000448 cycles: 40648602 heartbeat IPC: 1.509 cumulative IPC: 1.561 (Simulation time: 00 hr 08 min 40 sec)
Heartbeat CPU 0 instructions: 81500452 cycles: 40978412 heartbeat IPC: 1.516 cumulative IPC: 1.56 (Simulation time: 00 hr 08 min 45 sec)
Heartbeat CPU 0 instructions: 82000456 cycles: 41292695 heartbeat IPC: 1.591 cumulative IPC: 1.56 (Simulation time: 00 hr 08 min 49 sec)
Heartbeat CPU 0 instructions: 82500459 cycles: 41611747 heartbeat IPC: 1.567 cumulative IPC: 1.561 (Simulation time: 00 hr 08 min 53 sec)
Heartbeat CPU 0 instructions: 83000462 cycles: 41924279 heartbeat IPC: 1.6 cumulative IPC: 1.561 (Simulation time: 00 hr 08 min 57 sec)
Heartbeat CPU 0 instructions: 83500463 cycles: 42245122 heartbeat IPC: 1.558 cumulative IPC: 1.561 (Simulation time: 00 hr 09 min 02 sec)
Heartbeat CPU 0 instructions: 84000464 cycles: 42565282 heartbeat IPC: 1.562 cumulative IPC: 1.561 (Simulation time: 00 hr 09 min 06 sec)
Heartbeat CPU 0 instructions: 84500468 cycles: 42882302 heartbeat IPC: 1.577 cumulative IPC: 1.561 (Simulation time: 00 hr 09 min 10 sec)
Heartbeat CPU 0 instructions: 85000468 cycles: 43207049 heartbeat IPC: 1.54 cumulative IPC: 1.561 (Simulation time: 00 hr 09 min 15 sec)
Heartbeat CPU 0 instructions: 85500471 cycles: 43532208 heartbeat IPC: 1.538 cumulative IPC: 1.561 (Simulation time: 00 hr 09 min 19 sec)
Heartbeat CPU 0 instructions: 86000471 cycles: 43862412 heartbeat IPC: 1.514 cumulative IPC: 1.56 (Simulation time: 00 hr 09 min 23 sec)
Heartbeat CPU 0 instructions: 86500471 cycles: 44196210 heartbeat IPC: 1.498 cumulative IPC: 1.559 (Simulation time: 00 hr 09 min 28 sec)
Heartbeat CPU 0 instructions: 87000475 cycles: 44519686 heartbeat IPC: 1.546 cumulative IPC: 1.559 (Simulation time: 00 hr 09 min 32 sec)
Heartbeat CPU 0 instructions: 87500477 cycles: 44843523 heartbeat IPC: 1.544 cumulative IPC: 1.559 (Simulation time: 00 hr 09 min 36 sec)
Heartbeat CPU 0 instructions: 88000477 cycles: 45171010 heartbeat IPC: 1.527 cumulative IPC: 1.558 (Simulation time: 00 hr 09 min 41 sec)
Heartbeat CPU 0 instructions: 88500479 cycles: 45537784 heartbeat IPC: 1.363 cumulative IPC: 1.555 (Simulation time: 00 hr 09 min 45 sec)
Heartbeat CPU 0 instructions: 89000479 cycles: 45871331 heartbeat IPC: 1.499 cumulative IPC: 1.555 (Simulation time: 00 hr 09 min 50 sec)
Heartbeat CPU 0 instructions: 89500484 cycles: 46191038 heartbeat IPC: 1.564 cumulative IPC: 1.555 (Simulation time: 00 hr 09 min 54 sec)
Heartbeat CPU 0 instructions: 90000485 cycles: 46513759 heartbeat IPC: 1.549 cumulative IPC: 1.555 (Simulation time: 00 hr 09 min 58 sec)
Heartbeat CPU 0 instructions: 90500487 cycles: 46832481 heartbeat IPC: 1.569 cumulative IPC: 1.555 (Simulation time: 00 hr 10 min 02 sec)
Heartbeat CPU 0 instructions: 91000490 cycles: 47161211 heartbeat IPC: 1.521 cumulative IPC: 1.555 (Simulation time: 00 hr 10 min 06 sec)
Heartbeat CPU 0 instructions: 91500492 cycles: 47499011 heartbeat IPC: 1.48 cumulative IPC: 1.554 (Simulation time: 00 hr 10 min 11 sec)
Heartbeat CPU 0 instructions: 92000493 cycles: 47830923 heartbeat IPC: 1.506 cumulative IPC: 1.553 (Simulation time: 00 hr 10 min 15 sec)
Heartbeat CPU 0 instructions: 92500493 cycles: 48200457 heartbeat IPC: 1.353 cumulative IPC: 1.55 (Simulation time: 00 hr 10 min 20 sec)
Heartbeat CPU 0 instructions: 93000496 cycles: 48528750 heartbeat IPC: 1.523 cumulative IPC: 1.55 (Simulation time: 00 hr 10 min 24 sec)
Heartbeat CPU 0 instructions: 93500496 cycles: 48879611 heartbeat IPC: 1.425 cumulative IPC: 1.548 (Simulation time: 00 hr 10 min 28 sec)
Heartbeat CPU 0 instructions: 94000500 cycles: 49199548 heartbeat IPC: 1.563 cumulative IPC: 1.549 (Simulation time: 00 hr 10 min 32 sec)
Heartbeat CPU 0 instructions: 94500502 cycles: 49520326 heartbeat IPC: 1.559 cumulative IPC: 1.549 (Simulation time: 00 hr 10 min 37 sec)
Heartbeat CPU 0 instructions: 95000505 cycles: 49856329 heartbeat IPC: 1.488 cumulative IPC: 1.548 (Simulation time: 00 hr 10 min 41 sec)
Heartbeat CPU 0 instructions: 95500506 cycles: 50190049 heartbeat IPC: 1.498 cumulative IPC: 1.547 (Simulation time: 00 hr 10 min 45 sec)
Heartbeat CPU 0 instructions: 96000511 cycles: 50567186 heartbeat IPC: 1.326 cumulative IPC: 1.545 (Simulation time: 00 hr 10 min 50 sec)
Heartbeat CPU 0 instructions: 96500516 cycles: 50912900 heartbeat IPC: 1.446 cumulative IPC: 1.543 (Simulation time: 00 hr 10 min 54 sec)
Heartbeat CPU 0 instructions: 97000516 cycles: 51240945 heartbeat IPC: 1.524 cumulative IPC: 1.543 (Simulation time: 00 hr 10 min 58 sec)
Heartbeat CPU 0 instructions: 97500516 cycles: 51531113 heartbeat IPC: 1.723 cumulative IPC: 1.545 (Simulation time: 00 hr 11 min 02 sec)
Heartbeat CPU 0 instructions: 98000521 cycles: 51850271 heartbeat IPC: 1.567 cumulative IPC: 1.545 (Simulation time: 00 hr 11 min 06 sec)
Heartbeat CPU 0 instructions: 98500527 cycles: 52175211 heartbeat IPC: 1.539 cumulative IPC: 1.545 (Simulation time: 00 hr 11 min 10 sec)
Heartbeat CPU 0 instructions: 99000533 cycles: 52501612 heartbeat IPC: 1.532 cumulative IPC: 1.545 (Simulation time: 00 hr 11 min 15 sec)
Heartbeat CPU 0 instructions: 99500533 cycles: 52838467 heartbeat IPC: 1.484 cumulative IPC: 1.544 (Simulation time: 00 hr 11 min 19 sec)
Heartbeat CPU 0 instructions: 100000537 cycles: 53177045 heartbeat IPC: 1.477 cumulative IPC: 1.544 (Simulation time: 00 hr 11 min 23 sec)
Heartbeat CPU 0 instructions: 100500540 cycles: 53517112 heartbeat IPC: 1.47 cumulative IPC: 1.543 (Simulation time: 00 hr 11 min 28 sec)
Heartbeat CPU 0 instructions: 101000543 cycles: 53854196 heartbeat IPC: 1.483 cumulative IPC: 1.542 (Simulation time: 00 hr 11 min 32 sec)
Heartbeat CPU 0 instructions: 101500544 cycles: 54203183 heartbeat IPC: 1.433 cumulative IPC: 1.541 (Simulation time: 00 hr 11 min 37 sec)
Heartbeat CPU 0 instructions: 102000544 cycles: 54539030 heartbeat IPC: 1.489 cumulative IPC: 1.541 (Simulation time: 00 hr 11 min 41 sec)
Heartbeat CPU 0 instructions: 102500545 cycles: 54891165 heartbeat IPC: 1.42 cumulative IPC: 1.539 (Simulation time: 00 hr 11 min 45 sec)
Heartbeat CPU 0 instructions: 103000546 cycles: 55232910 heartbeat IPC: 1.463 cumulative IPC: 1.539 (Simulation time: 00 hr 11 min 50 sec)
Heartbeat CPU 0 instructions: 103500548 cycles: 55582637 heartbeat IPC: 1.43 cumulative IPC: 1.538 (Simulation time: 00 hr 11 min 54 sec)
Heartbeat CPU 0 instructions: 104000550 cycles: 55941307 heartbeat IPC: 1.394 cumulative IPC: 1.536 (Simulation time: 00 hr 11 min 58 sec)
Heartbeat CPU 0 instructions: 104500552 cycles: 56279496 heartbeat IPC: 1.478 cumulative IPC: 1.536 (Simulation time: 00 hr 12 min 03 sec)
Heartbeat CPU 0 instructions: 105000552 cycles: 56621631 heartbeat IPC: 1.461 cumulative IPC: 1.535 (Simulation time: 00 hr 12 min 07 sec)
Heartbeat CPU 0 instructions: 105500553 cycles: 56952516 heartbeat IPC: 1.511 cumulative IPC: 1.535 (Simulation time: 00 hr 12 min 11 sec)
Heartbeat CPU 0 instructions: 106000556 cycles: 57286779 heartbeat IPC: 1.496 cumulative IPC: 1.534 (Simulation time: 00 hr 12 min 16 sec)
Heartbeat CPU 0 instructions: 106500561 cycles: 57624481 heartbeat IPC: 1.481 cumulative IPC: 1.534 (Simulation time: 00 hr 12 min 20 sec)
Heartbeat CPU 0 instructions: 107000561 cycles: 57970632 heartbeat IPC: 1.444 cumulative IPC: 1.533 (Simulation time: 00 hr 12 min 24 sec)
Heartbeat CPU 0 instructions: 107500564 cycles: 58325907 heartbeat IPC: 1.407 cumulative IPC: 1.532 (Simulation time: 00 hr 12 min 29 sec)
Heartbeat CPU 0 instructions: 108000566 cycles: 58669366 heartbeat IPC: 1.456 cumulative IPC: 1.531 (Simulation time: 00 hr 12 min 33 sec)
Heartbeat CPU 0 instructions: 108500568 cycles: 59019056 heartbeat IPC: 1.43 cumulative IPC: 1.53 (Simulation time: 00 hr 12 min 37 sec)
Heartbeat CPU 0 instructions: 109000569 cycles: 59325023 heartbeat IPC: 1.634 cumulative IPC: 1.531 (Simulation time: 00 hr 12 min 41 sec)
Heartbeat CPU 0 instructions: 109500569 cycles: 59677270 heartbeat IPC: 1.419 cumulative IPC: 1.53 (Simulation time: 00 hr 12 min 46 sec)
Heartbeat CPU 0 instructions: 110000573 cycles: 60020327 heartbeat IPC: 1.457 cumulative IPC: 1.529 (Simulation time: 00 hr 12 min 50 sec)
Heartbeat CPU 0 instructions: 110500573 cycles: 60372186 heartbeat IPC: 1.421 cumulative IPC: 1.528 (Simulation time: 00 hr 12 min 54 sec)
Heartbeat CPU 0 instructions: 111000579 cycles: 60716358 heartbeat IPC: 1.453 cumulative IPC: 1.528 (Simulation time: 00 hr 12 min 59 sec)
Heartbeat CPU 0 instructions: 111500580 cycles: 61069501 heartbeat IPC: 1.416 cumulative IPC: 1.527 (Simulation time: 00 hr 13 min 03 sec)
Heartbeat CPU 0 instructions: 112000581 cycles: 61402778 heartbeat IPC: 1.5 cumulative IPC: 1.526 (Simulation time: 00 hr 13 min 07 sec)
Heartbeat CPU 0 instructions: 112500585 cycles: 61715927 heartbeat IPC: 1.597 cumulative IPC: 1.527 (Simulation time: 00 hr 13 min 11 sec)
Heartbeat CPU 0 instructions: 113000586 cycles: 62040665 heartbeat IPC: 1.54 cumulative IPC: 1.527 (Simulation time: 00 hr 13 min 15 sec)
Heartbeat CPU 0 instructions: 113500586 cycles: 62387303 heartbeat IPC: 1.442 cumulative IPC: 1.526 (Simulation time: 00 hr 13 min 20 sec)
Heartbeat CPU 0 instructions: 114000586 cycles: 62769186 heartbeat IPC: 1.309 cumulative IPC: 1.524 (Simulation time: 00 hr 13 min 24 sec)
Heartbeat CPU 0 instructions: 114500587 cycles: 63136442 heartbeat IPC: 1.361 cumulative IPC: 1.523 (Simulation time: 00 hr 13 min 29 sec)
Heartbeat CPU 0 instructions: 115000590 cycles: 63481180 heartbeat IPC: 1.45 cumulative IPC: 1.522 (Simulation time: 00 hr 13 min 33 sec)
Heartbeat CPU 0 instructions: 115500590 cycles: 63843258 heartbeat IPC: 1.381 cumulative IPC: 1.521 (Simulation time: 00 hr 13 min 38 sec)
Heartbeat CPU 0 instructions: 116000590 cycles: 64179532 heartbeat IPC: 1.487 cumulative IPC: 1.521 (Simulation time: 00 hr 13 min 42 sec)
Heartbeat CPU 0 instructions: 116500591 cycles: 64535403 heartbeat IPC: 1.405 cumulative IPC: 1.52 (Simulation time: 00 hr 13 min 46 sec)
Heartbeat CPU 0 instructions: 117000596 cycles: 64835068 heartbeat IPC: 1.669 cumulative IPC: 1.521 (Simulation time: 00 hr 13 min 50 sec)
Heartbeat CPU 0 instructions: 117500601 cycles: 65168654 heartbeat IPC: 1.499 cumulative IPC: 1.521 (Simulation time: 00 hr 13 min 54 sec)
Heartbeat CPU 0 instructions: 118000601 cycles: 65517952 heartbeat IPC: 1.431 cumulative IPC: 1.52 (Simulation time: 00 hr 13 min 58 sec)
Heartbeat CPU 0 instructions: 118500606 cycles: 65894779 heartbeat IPC: 1.327 cumulative IPC: 1.519 (Simulation time: 00 hr 14 min 03 sec)
Heartbeat CPU 0 instructions: 119000608 cycles: 66263048 heartbeat IPC: 1.358 cumulative IPC: 1.517 (Simulation time: 00 hr 14 min 08 sec)
Heartbeat CPU 0 instructions: 119500610 cycles: 66622546 heartbeat IPC: 1.391 cumulative IPC: 1.516 (Simulation time: 00 hr 14 min 12 sec)
Heartbeat CPU 0 instructions: 120000612 cycles: 66993620 heartbeat IPC: 1.347 cumulative IPC: 1.515 (Simulation time: 00 hr 14 min 17 sec)
Heartbeat CPU 0 instructions: 120500615 cycles: 67359827 heartbeat IPC: 1.365 cumulative IPC: 1.514 (Simulation time: 00 hr 14 min 21 sec)
Heartbeat CPU 0 instructions: 121000622 cycles: 67717747 heartbeat IPC: 1.397 cumulative IPC: 1.513 (Simulation time: 00 hr 14 min 25 sec)
Heartbeat CPU 0 instructions: 121500622 cycles: 68026829 heartbeat IPC: 1.618 cumulative IPC: 1.514 (Simulation time: 00 hr 14 min 29 sec)
Heartbeat CPU 0 instructions: 122000622 cycles: 68353156 heartbeat IPC: 1.532 cumulative IPC: 1.514 (Simulation time: 00 hr 14 min 33 sec)
Heartbeat CPU 0 instructions: 122500622 cycles: 68647889 heartbeat IPC: 1.696 cumulative IPC: 1.515 (Simulation time: 00 hr 14 min 37 sec)
Heartbeat CPU 0 instructions: 123000622 cycles: 69025900 heartbeat IPC: 1.323 cumulative IPC: 1.513 (Simulation time: 00 hr 14 min 42 sec)
Heartbeat CPU 0 instructions: 123500623 cycles: 69400717 heartbeat IPC: 1.334 cumulative IPC: 1.512 (Simulation time: 00 hr 14 min 46 sec)
Heartbeat CPU 0 instructions: 124000625 cycles: 69792792 heartbeat IPC: 1.275 cumulative IPC: 1.51 (Simulation time: 00 hr 14 min 51 sec)
Heartbeat CPU 0 instructions: 124500626 cycles: 70175204 heartbeat IPC: 1.307 cumulative IPC: 1.508 (Simulation time: 00 hr 14 min 56 sec)
Heartbeat CPU 0 instructions: 125000628 cycles: 70544017 heartbeat IPC: 1.356 cumulative IPC: 1.507 (Simulation time: 00 hr 15 min 00 sec)
Heartbeat CPU 0 instructions: 125500629 cycles: 70918662 heartbeat IPC: 1.335 cumulative IPC: 1.506 (Simulation time: 00 hr 15 min 04 sec)
Heartbeat CPU 0 instructions: 126000629 cycles: 71294300 heartbeat IPC: 1.331 cumulative IPC: 1.505 (Simulation time: 00 hr 15 min 09 sec)
Heartbeat CPU 0 instructions: 126500629 cycles: 71678738 heartbeat IPC: 1.301 cumulative IPC: 1.503 (Simulation time: 00 hr 15 min 13 sec)
Heartbeat CPU 0 instructions: 127000630 cycles: 72062159 heartbeat IPC: 1.304 cumulative IPC: 1.502 (Simulation time: 00 hr 15 min 18 sec)
Heartbeat CPU 0 instructions: 127500634 cycles: 72441159 heartbeat IPC: 1.319 cumulative IPC: 1.5 (Simulation time: 00 hr 15 min 22 sec)
Heartbeat CPU 0 instructions: 128000636 cycles: 72831683 heartbeat IPC: 1.28 cumulative IPC: 1.499 (Simulation time: 00 hr 15 min 27 sec)
Heartbeat CPU 0 instructions: 128500640 cycles: 73200031 heartbeat IPC: 1.357 cumulative IPC: 1.498 (Simulation time: 00 hr 15 min 31 sec)
Heartbeat CPU 0 instructions: 129000644 cycles: 73572774 heartbeat IPC: 1.341 cumulative IPC: 1.497 (Simulation time: 00 hr 15 min 35 sec)
Heartbeat CPU 0 instructions: 129500649 cycles: 73910908 heartbeat IPC: 1.479 cumulative IPC: 1.496 (Simulation time: 00 hr 15 min 39 sec)
Heartbeat CPU 0 instructions: 130000649 cycles: 74288417 heartbeat IPC: 1.324 cumulative IPC: 1.495 (Simulation time: 00 hr 15 min 44 sec)
Heartbeat CPU 0 instructions: 130500650 cycles: 74635877 heartbeat IPC: 1.439 cumulative IPC: 1.495 (Simulation time: 00 hr 15 min 48 sec)
Heartbeat CPU 0 instructions: 131000651 cycles: 74995462 heartbeat IPC: 1.39 cumulative IPC: 1.494 (Simulation time: 00 hr 15 min 52 sec)
Heartbeat CPU 0 instructions: 131500656 cycles: 75319513 heartbeat IPC: 1.543 cumulative IPC: 1.495 (Simulation time: 00 hr 15 min 56 sec)
Heartbeat CPU 0 instructions: 132000660 cycles: 75656795 heartbeat IPC: 1.482 cumulative IPC: 1.494 (Simulation time: 00 hr 16 min 00 sec)
Heartbeat CPU 0 instructions: 132500663 cycles: 76053793 heartbeat IPC: 1.259 cumulative IPC: 1.493 (Simulation time: 00 hr 16 min 05 sec)
Heartbeat CPU 0 instructions: 133000667 cycles: 76435714 heartbeat IPC: 1.309 cumulative IPC: 1.491 (Simulation time: 00 hr 16 min 10 sec)
Heartbeat CPU 0 instructions: 133500674 cycles: 76860933 heartbeat IPC: 1.176 cumulative IPC: 1.489 (Simulation time: 00 hr 16 min 15 sec)
Heartbeat CPU 0 instructions: 134000674 cycles: 77223494 heartbeat IPC: 1.379 cumulative IPC: 1.488 (Simulation time: 00 hr 16 min 19 sec)
Heartbeat CPU 0 instructions: 134500675 cycles: 77630381 heartbeat IPC: 1.229 cumulative IPC: 1.487 (Simulation time: 00 hr 16 min 24 sec)
Heartbeat CPU 0 instructions: 135000675 cycles: 77940720 heartbeat IPC: 1.611 cumulative IPC: 1.487 (Simulation time: 00 hr 16 min 28 sec)
Heartbeat CPU 0 instructions: 135500675 cycles: 78332407 heartbeat IPC: 1.277 cumulative IPC: 1.486 (Simulation time: 00 hr 16 min 32 sec)
Heartbeat CPU 0 instructions: 136000675 cycles: 78739713 heartbeat IPC: 1.228 cumulative IPC: 1.484 (Simulation time: 00 hr 16 min 37 sec)
Heartbeat CPU 0 instructions: 136500676 cycles: 79160795 heartbeat IPC: 1.187 cumulative IPC: 1.482 (Simulation time: 00 hr 16 min 42 sec)
Heartbeat CPU 0 instructions: 137000680 cycles: 79588390 heartbeat IPC: 1.169 cumulative IPC: 1.48 (Simulation time: 00 hr 16 min 46 sec)
Heartbeat CPU 0 instructions: 137500687 cycles: 79991624 heartbeat IPC: 1.24 cumulative IPC: 1.478 (Simulation time: 00 hr 16 min 51 sec)
Heartbeat CPU 0 instructions: 138000691 cycles: 80410553 heartbeat IPC: 1.194 cumulative IPC: 1.476 (Simulation time: 00 hr 16 min 55 sec)
Heartbeat CPU 0 instructions: 138500692 cycles: 80796897 heartbeat IPC: 1.294 cumulative IPC: 1.475 (Simulation time: 00 hr 17 min 00 sec)
Heartbeat CPU 0 instructions: 139000695 cycles: 81200145 heartbeat IPC: 1.24 cumulative IPC: 1.473 (Simulation time: 00 hr 17 min 04 sec)
Heartbeat CPU 0 instructions: 139500696 cycles: 81513402 heartbeat IPC: 1.596 cumulative IPC: 1.474 (Simulation time: 00 hr 17 min 08 sec)
Heartbeat CPU 0 instructions: 140000697 cycles: 81778636 heartbeat IPC: 1.885 cumulative IPC: 1.476 (Simulation time: 00 hr 17 min 12 sec)
Heartbeat CPU 0 instructions: 140500698 cycles: 82196446 heartbeat IPC: 1.197 cumulative IPC: 1.474 (Simulation time: 00 hr 17 min 16 sec)
Heartbeat CPU 0 instructions: 141000702 cycles: 82536141 heartbeat IPC: 1.472 cumulative IPC: 1.474 (Simulation time: 00 hr 17 min 21 sec)
Heartbeat CPU 0 instructions: 141500703 cycles: 82970124 heartbeat IPC: 1.152 cumulative IPC: 1.471 (Simulation time: 00 hr 17 min 26 sec)
Heartbeat CPU 0 instructions: 142000703 cycles: 83336657 heartbeat IPC: 1.364 cumulative IPC: 1.471 (Simulation time: 00 hr 17 min 30 sec)
Heartbeat CPU 0 instructions: 142500703 cycles: 83738863 heartbeat IPC: 1.243 cumulative IPC: 1.469 (Simulation time: 00 hr 17 min 35 sec)
Heartbeat CPU 0 instructions: 143000703 cycles: 84184183 heartbeat IPC: 1.123 cumulative IPC: 1.467 (Simulation time: 00 hr 17 min 40 sec)
Heartbeat CPU 0 instructions: 143500707 cycles: 84621604 heartbeat IPC: 1.143 cumulative IPC: 1.465 (Simulation time: 00 hr 17 min 44 sec)
Heartbeat CPU 0 instructions: 144000708 cycles: 85044820 heartbeat IPC: 1.181 cumulative IPC: 1.463 (Simulation time: 00 hr 17 min 49 sec)
Heartbeat CPU 0 instructions: 144500708 cycles: 85484724 heartbeat IPC: 1.137 cumulative IPC: 1.461 (Simulation time: 00 hr 17 min 54 sec)
Heartbeat CPU 0 instructions: 145000715 cycles: 85876214 heartbeat IPC: 1.277 cumulative IPC: 1.46 (Simulation time: 00 hr 17 min 58 sec)
Heartbeat CPU 0 instructions: 145500717 cycles: 86270646 heartbeat IPC: 1.268 cumulative IPC: 1.458 (Simulation time: 00 hr 18 min 03 sec)
Heartbeat CPU 0 instructions: 146000719 cycles: 86683758 heartbeat IPC: 1.21 cumulative IPC: 1.457 (Simulation time: 00 hr 18 min 07 sec)
Heartbeat CPU 0 instructions: 146500724 cycles: 87086672 heartbeat IPC: 1.241 cumulative IPC: 1.455 (Simulation time: 00 hr 18 min 12 sec)
Heartbeat CPU 0 instructions: 147000724 cycles: 87457149 heartbeat IPC: 1.35 cumulative IPC: 1.455 (Simulation time: 00 hr 18 min 16 sec)
Heartbeat CPU 0 instructions: 147500724 cycles: 87878189 heartbeat IPC: 1.188 cumulative IPC: 1.453 (Simulation time: 00 hr 18 min 21 sec)
Heartbeat CPU 0 instructions: 148000724 cycles: 88276722 heartbeat IPC: 1.255 cumulative IPC: 1.452 (Simulation time: 00 hr 18 min 25 sec)
Heartbeat CPU 0 instructions: 148500725 cycles: 88693034 heartbeat IPC: 1.201 cumulative IPC: 1.451 (Simulation time: 00 hr 18 min 30 sec)
Heartbeat CPU 0 instructions: 149000728 cycles: 89110054 heartbeat IPC: 1.199 cumulative IPC: 1.449 (Simulation time: 00 hr 18 min 35 sec)
Heartbeat CPU 0 instructions: 149500731 cycles: 89514731 heartbeat IPC: 1.236 cumulative IPC: 1.448 (Simulation time: 00 hr 18 min 39 sec)
Heartbeat CPU 0 instructions: 150000731 cycles: 89925780 heartbeat IPC: 1.216 cumulative IPC: 1.446 (Simulation time: 00 hr 18 min 44 sec)
Heartbeat CPU 0 instructions: 150500734 cycles: 90341179 heartbeat IPC: 1.204 cumulative IPC: 1.445 (Simulation time: 00 hr 18 min 48 sec)
Heartbeat CPU 0 instructions: 151000734 cycles: 90754891 heartbeat IPC: 1.209 cumulative IPC: 1.444 (Simulation time: 00 hr 18 min 53 sec)
Heartbeat CPU 0 instructions: 151500739 cycles: 91129389 heartbeat IPC: 1.335 cumulative IPC: 1.443 (Simulation time: 00 hr 18 min 57 sec)
Heartbeat CPU 0 instructions: 152000740 cycles: 91551066 heartbeat IPC: 1.186 cumulative IPC: 1.441 (Simulation time: 00 hr 19 min 02 sec)
Heartbeat CPU 0 instructions: 152500740 cycles: 91961954 heartbeat IPC: 1.217 cumulative IPC: 1.44 (Simulation time: 00 hr 19 min 06 sec)
Heartbeat CPU 0 instructions: 153000740 cycles: 92364329 heartbeat IPC: 1.243 cumulative IPC: 1.439 (Simulation time: 00 hr 19 min 11 sec)
Heartbeat CPU 0 instructions: 153500741 cycles: 92773818 heartbeat IPC: 1.221 cumulative IPC: 1.438 (Simulation time: 00 hr 19 min 15 sec)
Heartbeat CPU 0 instructions: 154000743 cycles: 93154370 heartbeat IPC: 1.314 cumulative IPC: 1.437 (Simulation time: 00 hr 19 min 20 sec)
Heartbeat CPU 0 instructions: 154500744 cycles: 93529365 heartbeat IPC: 1.333 cumulative IPC: 1.437 (Simulation time: 00 hr 19 min 24 sec)
Heartbeat CPU 0 instructions: 155000744 cycles: 93853875 heartbeat IPC: 1.541 cumulative IPC: 1.437 (Simulation time: 00 hr 19 min 28 sec)
Heartbeat CPU 0 instructions: 155500749 cycles: 94196845 heartbeat IPC: 1.458 cumulative IPC: 1.437 (Simulation time: 00 hr 19 min 32 sec)
Heartbeat CPU 0 instructions: 156000753 cycles: 94611004 heartbeat IPC: 1.207 cumulative IPC: 1.436 (Simulation time: 00 hr 19 min 37 sec)
Heartbeat CPU 0 instructions: 156500755 cycles: 95016375 heartbeat IPC: 1.233 cumulative IPC: 1.435 (Simulation time: 00 hr 19 min 41 sec)
Heartbeat CPU 0 instructions: 157000755 cycles: 95451330 heartbeat IPC: 1.15 cumulative IPC: 1.433 (Simulation time: 00 hr 19 min 46 sec)
Heartbeat CPU 0 instructions: 157500757 cycles: 95878840 heartbeat IPC: 1.17 cumulative IPC: 1.432 (Simulation time: 00 hr 19 min 51 sec)
Heartbeat CPU 0 instructions: 158000762 cycles: 96289786 heartbeat IPC: 1.217 cumulative IPC: 1.43 (Simulation time: 00 hr 19 min 56 sec)
Heartbeat CPU 0 instructions: 158500764 cycles: 96651499 heartbeat IPC: 1.382 cumulative IPC: 1.43 (Simulation time: 00 hr 20 min 00 sec)
Heartbeat CPU 0 instructions: 159000764 cycles: 97022031 heartbeat IPC: 1.349 cumulative IPC: 1.43 (Simulation time: 00 hr 20 min 04 sec)
Heartbeat CPU 0 instructions: 159500766 cycles: 97424357 heartbeat IPC: 1.243 cumulative IPC: 1.429 (Simulation time: 00 hr 20 min 09 sec)
Heartbeat CPU 0 instructions: 160000767 cycles: 97761736 heartbeat IPC: 1.482 cumulative IPC: 1.429 (Simulation time: 00 hr 20 min 13 sec)
Heartbeat CPU 0 instructions: 160500769 cycles: 98161559 heartbeat IPC: 1.251 cumulative IPC: 1.428 (Simulation time: 00 hr 20 min 17 sec)
Heartbeat CPU 0 instructions: 161000772 cycles: 98547376 heartbeat IPC: 1.296 cumulative IPC: 1.427 (Simulation time: 00 hr 20 min 22 sec)
Heartbeat CPU 0 instructions: 161500777 cycles: 98933951 heartbeat IPC: 1.293 cumulative IPC: 1.427 (Simulation time: 00 hr 20 min 26 sec)
Heartbeat CPU 0 instructions: 162000781 cycles: 99328654 heartbeat IPC: 1.267 cumulative IPC: 1.426 (Simulation time: 00 hr 20 min 31 sec)
Heartbeat CPU 0 instructions: 162500784 cycles: 99704218 heartbeat IPC: 1.331 cumulative IPC: 1.426 (Simulation time: 00 hr 20 min 35 sec)
Heartbeat CPU 0 instructions: 163000787 cycles: 100081722 heartbeat IPC: 1.324 cumulative IPC: 1.425 (Simulation time: 00 hr 20 min 39 sec)
Heartbeat CPU 0 instructions: 163500788 cycles: 100477284 heartbeat IPC: 1.264 cumulative IPC: 1.424 (Simulation time: 00 hr 20 min 44 sec)
Heartbeat CPU 0 instructions: 164000789 cycles: 100877715 heartbeat IPC: 1.249 cumulative IPC: 1.423 (Simulation time: 00 hr 20 min 48 sec)
Heartbeat CPU 0 instructions: 164500792 cycles: 101273812 heartbeat IPC: 1.262 cumulative IPC: 1.423 (Simulation time: 00 hr 20 min 53 sec)
Heartbeat CPU 0 instructions: 165000797 cycles: 101656244 heartbeat IPC: 1.307 cumulative IPC: 1.422 (Simulation time: 00 hr 20 min 57 sec)
Heartbeat CPU 0 instructions: 165500799 cycles: 102035806 heartbeat IPC: 1.317 cumulative IPC: 1.422 (Simulation time: 00 hr 21 min 02 sec)
Heartbeat CPU 0 instructions: 166000806 cycles: 102405835 heartbeat IPC: 1.351 cumulative IPC: 1.421 (Simulation time: 00 hr 21 min 06 sec)
Heartbeat CPU 0 instructions: 166500809 cycles: 102796211 heartbeat IPC: 1.281 cumulative IPC: 1.421 (Simulation time: 00 hr 21 min 10 sec)
Heartbeat CPU 0 instructions: 167000812 cycles: 103185665 heartbeat IPC: 1.284 cumulative IPC: 1.42 (Simulation time: 00 hr 21 min 15 sec)
Heartbeat CPU 0 instructions: 167500814 cycles: 103565917 heartbeat IPC: 1.315 cumulative IPC: 1.419 (Simulation time: 00 hr 21 min 19 sec)
Heartbeat CPU 0 instructions: 168000815 cycles: 103910607 heartbeat IPC: 1.451 cumulative IPC: 1.42 (Simulation time: 00 hr 21 min 23 sec)
Heartbeat CPU 0 instructions: 168500818 cycles: 104268353 heartbeat IPC: 1.398 cumulative IPC: 1.419 (Simulation time: 00 hr 21 min 27 sec)
Heartbeat CPU 0 instructions: 169000818 cycles: 104642663 heartbeat IPC: 1.336 cumulative IPC: 1.419 (Simulation time: 00 hr 21 min 32 sec)
Heartbeat CPU 0 instructions: 169500824 cycles: 105020154 heartbeat IPC: 1.325 cumulative IPC: 1.419 (Simulation time: 00 hr 21 min 36 sec)
Heartbeat CPU 0 instructions: 170000829 cycles: 105194947 heartbeat IPC: 2.861 cumulative IPC: 1.422 (Simulation time: 00 hr 21 min 39 sec)
Heartbeat CPU 0 instructions: 170500834 cycles: 105365165 heartbeat IPC: 2.937 cumulative IPC: 1.425 (Simulation time: 00 hr 21 min 42 sec)
Heartbeat CPU 0 instructions: 171000836 cycles: 105529027 heartbeat IPC: 3.051 cumulative IPC: 1.428 (Simulation time: 00 hr 21 min 44 sec)
Heartbeat CPU 0 instructions: 171500840 cycles: 105695167 heartbeat IPC: 3.01 cumulative IPC: 1.431 (Simulation time: 00 hr 21 min 47 sec)
Heartbeat CPU 0 instructions: 172000844 cycles: 105872222 heartbeat IPC: 2.824 cumulative IPC: 1.434 (Simulation time: 00 hr 21 min 50 sec)
Heartbeat CPU 0 instructions: 172500848 cycles: 106048321 heartbeat IPC: 2.839 cumulative IPC: 1.437 (Simulation time: 00 hr 21 min 53 sec)
Heartbeat CPU 0 instructions: 173000853 cycles: 106226865 heartbeat IPC: 2.8 cumulative IPC: 1.44 (Simulation time: 00 hr 21 min 56 sec)
Heartbeat CPU 0 instructions: 173500860 cycles: 106418444 heartbeat IPC: 2.61 cumulative IPC: 1.442 (Simulation time: 00 hr 21 min 59 sec)
Heartbeat CPU 0 instructions: 174000861 cycles: 106608429 heartbeat IPC: 2.632 cumulative IPC: 1.445 (Simulation time: 00 hr 22 min 02 sec)
Heartbeat CPU 0 instructions: 174500862 cycles: 106801436 heartbeat IPC: 2.591 cumulative IPC: 1.447 (Simulation time: 00 hr 22 min 05 sec)
Heartbeat CPU 0 instructions: 175000862 cycles: 106992283 heartbeat IPC: 2.62 cumulative IPC: 1.45 (Simulation time: 00 hr 22 min 08 sec)
Heartbeat CPU 0 instructions: 175500865 cycles: 107189154 heartbeat IPC: 2.54 cumulative IPC: 1.453 (Simulation time: 00 hr 22 min 11 sec)
Heartbeat CPU 0 instructions: 176000865 cycles: 107392573 heartbeat IPC: 2.458 cumulative IPC: 1.455 (Simulation time: 00 hr 22 min 15 sec)
Heartbeat CPU 0 instructions: 176500869 cycles: 107601273 heartbeat IPC: 2.396 cumulative IPC: 1.457 (Simulation time: 00 hr 22 min 18 sec)
Heartbeat CPU 0 instructions: 177000871 cycles: 107801660 heartbeat IPC: 2.495 cumulative IPC: 1.46 (Simulation time: 00 hr 22 min 21 sec)
Heartbeat CPU 0 instructions: 177500875 cycles: 108001101 heartbeat IPC: 2.507 cumulative IPC: 1.462 (Simulation time: 00 hr 22 min 25 sec)
Heartbeat CPU 0 instructions: 178000879 cycles: 108219122 heartbeat IPC: 2.293 cumulative IPC: 1.464 (Simulation time: 00 hr 22 min 28 sec)
Heartbeat CPU 0 instructions: 178500885 cycles: 108433880 heartbeat IPC: 2.328 cumulative IPC: 1.466 (Simulation time: 00 hr 22 min 32 sec)
Heartbeat CPU 0 instructions: 179000888 cycles: 108635812 heartbeat IPC: 2.476 cumulative IPC: 1.468 (Simulation time: 00 hr 22 min 35 sec)
Heartbeat CPU 0 instructions: 179500895 cycles: 108841181 heartbeat IPC: 2.435 cumulative IPC: 1.471 (Simulation time: 00 hr 22 min 39 sec)
Heartbeat CPU 0 instructions: 180000896 cycles: 109061692 heartbeat IPC: 2.267 cumulative IPC: 1.473 (Simulation time: 00 hr 22 min 42 sec)
Heartbeat CPU 0 instructions: 180500902 cycles: 109272334 heartbeat IPC: 2.374 cumulative IPC: 1.475 (Simulation time: 00 hr 22 min 46 sec)
Heartbeat CPU 0 instructions: 181000905 cycles: 109479488 heartbeat IPC: 2.414 cumulative IPC: 1.477 (Simulation time: 00 hr 22 min 49 sec)
Heartbeat CPU 0 instructions: 181500906 cycles: 109683973 heartbeat IPC: 2.445 cumulative IPC: 1.479 (Simulation time: 00 hr 22 min 52 sec)
Heartbeat CPU 0 instructions: 182000907 cycles: 109901415 heartbeat IPC: 2.299 cumulative IPC: 1.481 (Simulation time: 00 hr 22 min 56 sec)
Heartbeat CPU 0 instructions: 182500910 cycles: 110115714 heartbeat IPC: 2.333 cumulative IPC: 1.483 (Simulation time: 00 hr 23 min 00 sec)
Heartbeat CPU 0 instructions: 183000914 cycles: 110317548 heartbeat IPC: 2.477 cumulative IPC: 1.486 (Simulation time: 00 hr 23 min 03 sec)
Heartbeat CPU 0 instructions: 183500914 cycles: 110523049 heartbeat IPC: 2.433 cumulative IPC: 1.488 (Simulation time: 00 hr 23 min 06 sec)
Heartbeat CPU 0 instructions: 184000914 cycles: 110740021 heartbeat IPC: 2.304 cumulative IPC: 1.49 (Simulation time: 00 hr 23 min 10 sec)
Heartbeat CPU 0 instructions: 184500920 cycles: 110952057 heartbeat IPC: 2.358 cumulative IPC: 1.492 (Simulation time: 00 hr 23 min 13 sec)
Heartbeat CPU 0 instructions: 185000923 cycles: 111166166 heartbeat IPC: 2.335 cumulative IPC: 1.494 (Simulation time: 00 hr 23 min 17 sec)
Heartbeat CPU 0 instructions: 185500924 cycles: 111372938 heartbeat IPC: 2.418 cumulative IPC: 1.496 (Simulation time: 00 hr 23 min 20 sec)
Heartbeat CPU 0 instructions: 186000924 cycles: 111580568 heartbeat IPC: 2.408 cumulative IPC: 1.498 (Simulation time: 00 hr 23 min 24 sec)
Heartbeat CPU 0 instructions: 186500930 cycles: 111797901 heartbeat IPC: 2.301 cumulative IPC: 1.5 (Simulation time: 00 hr 23 min 27 sec)
Heartbeat CPU 0 instructions: 187000932 cycles: 112001656 heartbeat IPC: 2.454 cumulative IPC: 1.502 (Simulation time: 00 hr 23 min 31 sec)
Heartbeat CPU 0 instructions: 187500933 cycles: 112214260 heartbeat IPC: 2.352 cumulative IPC: 1.504 (Simulation time: 00 hr 23 min 34 sec)
Heartbeat CPU 0 instructions: 188000939 cycles: 112429947 heartbeat IPC: 2.318 cumulative IPC: 1.506 (Simulation time: 00 hr 23 min 38 sec)
Heartbeat CPU 0 instructions: 188500941 cycles: 112636616 heartbeat IPC: 2.419 cumulative IPC: 1.508 (Simulation time: 00 hr 23 min 41 sec)
Heartbeat CPU 0 instructions: 189000941 cycles: 112839521 heartbeat IPC: 2.464 cumulative IPC: 1.51 (Simulation time: 00 hr 23 min 44 sec)
Heartbeat CPU 0 instructions: 189500942 cycles: 113045235 heartbeat IPC: 2.431 cumulative IPC: 1.512 (Simulation time: 00 hr 23 min 48 sec)
Heartbeat CPU 0 instructions: 190000949 cycles: 113263310 heartbeat IPC: 2.293 cumulative IPC: 1.514 (Simulation time: 00 hr 23 min 51 sec)
Heartbeat CPU 0 instructions: 190500950 cycles: 113479179 heartbeat IPC: 2.316 cumulative IPC: 1.516 (Simulation time: 00 hr 23 min 55 sec)
Heartbeat CPU 0 instructions: 191000950 cycles: 113687496 heartbeat IPC: 2.4 cumulative IPC: 1.518 (Simulation time: 00 hr 23 min 58 sec)
Heartbeat CPU 0 instructions: 191500951 cycles: 113889990 heartbeat IPC: 2.469 cumulative IPC: 1.52 (Simulation time: 00 hr 24 min 01 sec)
Heartbeat CPU 0 instructions: 192000956 cycles: 114109519 heartbeat IPC: 2.278 cumulative IPC: 1.522 (Simulation time: 00 hr 24 min 05 sec)
Heartbeat CPU 0 instructions: 192500958 cycles: 114319522 heartbeat IPC: 2.381 cumulative IPC: 1.524 (Simulation time: 00 hr 24 min 08 sec)
Heartbeat CPU 0 instructions: 193000958 cycles: 114529470 heartbeat IPC: 2.382 cumulative IPC: 1.525 (Simulation time: 00 hr 24 min 12 sec)
Heartbeat CPU 0 instructions: 193500960 cycles: 114739227 heartbeat IPC: 2.384 cumulative IPC: 1.527 (Simulation time: 00 hr 24 min 15 sec)
Heartbeat CPU 0 instructions: 194000964 cycles: 114957143 heartbeat IPC: 2.294 cumulative IPC: 1.529 (Simulation time: 00 hr 24 min 19 sec)
Heartbeat CPU 0 instructions: 194500968 cycles: 115164254 heartbeat IPC: 2.414 cumulative IPC: 1.531 (Simulation time: 00 hr 24 min 22 sec)
Heartbeat CPU 0 instructions: 195000968 cycles: 115372654 heartbeat IPC: 2.399 cumulative IPC: 1.533 (Simulation time: 00 hr 24 min 26 sec)
Heartbeat CPU 0 instructions: 195500969 cycles: 115578019 heartbeat IPC: 2.435 cumulative IPC: 1.535 (Simulation time: 00 hr 24 min 29 sec)
Heartbeat CPU 0 instructions: 196000976 cycles: 115793263 heartbeat IPC: 2.323 cumulative IPC: 1.537 (Simulation time: 00 hr 24 min 33 sec)
Heartbeat CPU 0 instructions: 196500977 cycles: 116018823 heartbeat IPC: 2.217 cumulative IPC: 1.538 (Simulation time: 00 hr 24 min 36 sec)
Heartbeat CPU 0 instructions: 197000977 cycles: 116229697 heartbeat IPC: 2.371 cumulative IPC: 1.54 (Simulation time: 00 hr 24 min 40 sec)
Heartbeat CPU 0 instructions: 197500978 cycles: 116428684 heartbeat IPC: 2.513 cumulative IPC: 1.542 (Simulation time: 00 hr 24 min 43 sec)
Heartbeat CPU 0 instructions: 198000980 cycles: 116646293 heartbeat IPC: 2.298 cumulative IPC: 1.544 (Simulation time: 00 hr 24 min 47 sec)
Heartbeat CPU 0 instructions: 198500981 cycles: 116861262 heartbeat IPC: 2.326 cumulative IPC: 1.546 (Simulation time: 00 hr 24 min 50 sec)
Heartbeat CPU 0 instructions: 199000986 cycles: 117062063 heartbeat IPC: 2.49 cumulative IPC: 1.548 (Simulation time: 00 hr 24 min 53 sec)
Heartbeat CPU 0 instructions: 199500987 cycles: 117273900 heartbeat IPC: 2.36 cumulative IPC: 1.549 (Simulation time: 00 hr 24 min 57 sec)
Heartbeat CPU 0 instructions: 200000988 cycles: 117486993 heartbeat IPC: 2.346 cumulative IPC: 1.551 (Simulation time: 00 hr 25 min 00 sec)
Heartbeat CPU 0 instructions: 200500995 cycles: 117701695 heartbeat IPC: 2.329 cumulative IPC: 1.553 (Simulation time: 00 hr 25 min 04 sec)
Heartbeat CPU 0 instructions: 201000995 cycles: 117914915 heartbeat IPC: 2.345 cumulative IPC: 1.555 (Simulation time: 00 hr 25 min 07 sec)
Heartbeat CPU 0 instructions: 201500995 cycles: 118120409 heartbeat IPC: 2.433 cumulative IPC: 1.556 (Simulation time: 00 hr 25 min 11 sec)
Heartbeat CPU 0 instructions: 202001001 cycles: 118332891 heartbeat IPC: 2.353 cumulative IPC: 1.558 (Simulation time: 00 hr 25 min 14 sec)
Heartbeat CPU 0 instructions: 202501004 cycles: 118551508 heartbeat IPC: 2.287 cumulative IPC: 1.56 (Simulation time: 00 hr 25 min 18 sec)
Heartbeat CPU 0 instructions: 203001004 cycles: 118767184 heartbeat IPC: 2.318 cumulative IPC: 1.562 (Simulation time: 00 hr 25 min 21 sec)
Heartbeat CPU 0 instructions: 203501005 cycles: 118971417 heartbeat IPC: 2.448 cumulative IPC: 1.563 (Simulation time: 00 hr 25 min 25 sec)
Heartbeat CPU 0 instructions: 204001010 cycles: 119186177 heartbeat IPC: 2.328 cumulative IPC: 1.565 (Simulation time: 00 hr 25 min 28 sec)
Heartbeat CPU 0 instructions: 204501013 cycles: 119401495 heartbeat IPC: 2.322 cumulative IPC: 1.567 (Simulation time: 00 hr 25 min 32 sec)
Heartbeat CPU 0 instructions: 205001013 cycles: 119597560 heartbeat IPC: 2.55 cumulative IPC: 1.569 (Simulation time: 00 hr 25 min 35 sec)
Heartbeat CPU 0 instructions: 205501018 cycles: 119806104 heartbeat IPC: 2.398 cumulative IPC: 1.57 (Simulation time: 00 hr 25 min 38 sec)
Heartbeat CPU 0 instructions: 206001019 cycles: 120022812 heartbeat IPC: 2.307 cumulative IPC: 1.572 (Simulation time: 00 hr 25 min 42 sec)
Heartbeat CPU 0 instructions: 206501022 cycles: 120244638 heartbeat IPC: 2.254 cumulative IPC: 1.574 (Simulation time: 00 hr 25 min 45 sec)
Heartbeat CPU 0 instructions: 207001022 cycles: 120450752 heartbeat IPC: 2.426 cumulative IPC: 1.575 (Simulation time: 00 hr 25 min 49 sec)
Heartbeat CPU 0 instructions: 207501022 cycles: 120659977 heartbeat IPC: 2.39 cumulative IPC: 1.577 (Simulation time: 00 hr 25 min 52 sec)
Heartbeat CPU 0 instructions: 208001022 cycles: 120871291 heartbeat IPC: 2.366 cumulative IPC: 1.579 (Simulation time: 00 hr 25 min 56 sec)
Heartbeat CPU 0 instructions: 208501029 cycles: 121084180 heartbeat IPC: 2.349 cumulative IPC: 1.58 (Simulation time: 00 hr 25 min 59 sec)
Heartbeat CPU 0 instructions: 209001034 cycles: 121301397 heartbeat IPC: 2.302 cumulative IPC: 1.582 (Simulation time: 00 hr 26 min 03 sec)
Heartbeat CPU 0 instructions: 209501040 cycles: 121511642 heartbeat IPC: 2.378 cumulative IPC: 1.584 (Simulation time: 00 hr 26 min 06 sec)
Heartbeat CPU 0 instructions: 210001045 cycles: 121721111 heartbeat IPC: 2.387 cumulative IPC: 1.585 (Simulation time: 00 hr 26 min 09 sec)
Heartbeat CPU 0 instructions: 210501050 cycles: 121942371 heartbeat IPC: 2.26 cumulative IPC: 1.587 (Simulation time: 00 hr 26 min 13 sec)
Heartbeat CPU 0 instructions: 211001050 cycles: 122152453 heartbeat IPC: 2.38 cumulative IPC: 1.588 (Simulation time: 00 hr 26 min 16 sec)
Heartbeat CPU 0 instructions: 211501057 cycles: 122364421 heartbeat IPC: 2.359 cumulative IPC: 1.59 (Simulation time: 00 hr 26 min 20 sec)
Heartbeat CPU 0 instructions: 212001061 cycles: 122578230 heartbeat IPC: 2.339 cumulative IPC: 1.591 (Simulation time: 00 hr 26 min 23 sec)
Heartbeat CPU 0 instructions: 212501065 cycles: 122788005 heartbeat IPC: 2.384 cumulative IPC: 1.593 (Simulation time: 00 hr 26 min 27 sec)
Heartbeat CPU 0 instructions: 213001069 cycles: 122998253 heartbeat IPC: 2.378 cumulative IPC: 1.595 (Simulation time: 00 hr 26 min 30 sec)
Heartbeat CPU 0 instructions: 213501074 cycles: 123196817 heartbeat IPC: 2.518 cumulative IPC: 1.597 (Simulation time: 00 hr 26 min 33 sec)
Heartbeat CPU 0 instructions: 214001081 cycles: 123412385 heartbeat IPC: 2.319 cumulative IPC: 1.598 (Simulation time: 00 hr 26 min 37 sec)
Heartbeat CPU 0 instructions: 214501088 cycles: 123636978 heartbeat IPC: 2.226 cumulative IPC: 1.599 (Simulation time: 00 hr 26 min 41 sec)
Heartbeat CPU 0 instructions: 215001091 cycles: 123850960 heartbeat IPC: 2.337 cumulative IPC: 1.601 (Simulation time: 00 hr 26 min 44 sec)
Heartbeat CPU 0 instructions: 215501091 cycles: 124055932 heartbeat IPC: 2.439 cumulative IPC: 1.603 (Simulation time: 00 hr 26 min 47 sec)
Heartbeat CPU 0 instructions: 216001093 cycles: 124265267 heartbeat IPC: 2.389 cumulative IPC: 1.604 (Simulation time: 00 hr 26 min 51 sec)
Heartbeat CPU 0 instructions: 216501098 cycles: 124477778 heartbeat IPC: 2.353 cumulative IPC: 1.606 (Simulation time: 00 hr 26 min 54 sec)
Heartbeat CPU 0 instructions: 217001103 cycles: 124694700 heartbeat IPC: 2.305 cumulative IPC: 1.607 (Simulation time: 00 hr 26 min 58 sec)
Heartbeat CPU 0 instructions: 217501108 cycles: 124906057 heartbeat IPC: 2.366 cumulative IPC: 1.609 (Simulation time: 00 hr 27 min 01 sec)
Heartbeat CPU 0 instructions: 218001115 cycles: 125120392 heartbeat IPC: 2.333 cumulative IPC: 1.61 (Simulation time: 00 hr 27 min 05 sec)
Heartbeat CPU 0 instructions: 218501120 cycles: 125335349 heartbeat IPC: 2.326 cumulative IPC: 1.612 (Simulation time: 00 hr 27 min 08 sec)
Heartbeat CPU 0 instructions: 219001121 cycles: 125554770 heartbeat IPC: 2.279 cumulative IPC: 1.613 (Simulation time: 00 hr 27 min 12 sec)
Heartbeat CPU 0 instructions: 219501125 cycles: 125764728 heartbeat IPC: 2.381 cumulative IPC: 1.615 (Simulation time: 00 hr 27 min 16 sec)
Heartbeat CPU 0 instructions: 220001132 cycles: 125974123 heartbeat IPC: 2.388 cumulative IPC: 1.616 (Simulation time: 00 hr 27 min 19 sec)
Heartbeat CPU 0 instructions: 220501136 cycles: 126195824 heartbeat IPC: 2.255 cumulative IPC: 1.618 (Simulation time: 00 hr 27 min 23 sec)
Heartbeat CPU 0 instructions: 221001141 cycles: 126398809 heartbeat IPC: 2.463 cumulative IPC: 1.619 (Simulation time: 00 hr 27 min 26 sec)
Heartbeat CPU 0 instructions: 221501142 cycles: 126606184 heartbeat IPC: 2.411 cumulative IPC: 1.621 (Simulation time: 00 hr 27 min 29 sec)
Heartbeat CPU 0 instructions: 222001147 cycles: 126804900 heartbeat IPC: 2.516 cumulative IPC: 1.622 (Simulation time: 00 hr 27 min 33 sec)
Heartbeat CPU 0 instructions: 222501150 cycles: 127020325 heartbeat IPC: 2.321 cumulative IPC: 1.624 (Simulation time: 00 hr 27 min 36 sec)
Heartbeat CPU 0 instructions: 223001155 cycles: 127234128 heartbeat IPC: 2.339 cumulative IPC: 1.625 (Simulation time: 00 hr 27 min 40 sec)
Heartbeat CPU 0 instructions: 223501159 cycles: 127434526 heartbeat IPC: 2.495 cumulative IPC: 1.627 (Simulation time: 00 hr 27 min 43 sec)
Heartbeat CPU 0 instructions: 224001160 cycles: 127645078 heartbeat IPC: 2.375 cumulative IPC: 1.628 (Simulation time: 00 hr 27 min 46 sec)
Heartbeat CPU 0 instructions: 224501167 cycles: 127864370 heartbeat IPC: 2.28 cumulative IPC: 1.63 (Simulation time: 00 hr 27 min 50 sec)
Heartbeat CPU 0 instructions: 225001167 cycles: 128079219 heartbeat IPC: 2.327 cumulative IPC: 1.631 (Simulation time: 00 hr 27 min 53 sec)
Heartbeat CPU 0 instructions: 225501168 cycles: 128281854 heartbeat IPC: 2.467 cumulative IPC: 1.633 (Simulation time: 00 hr 27 min 57 sec)
Heartbeat CPU 0 instructions: 226001169 cycles: 128490991 heartbeat IPC: 2.391 cumulative IPC: 1.634 (Simulation time: 00 hr 28 min 00 sec)
Heartbeat CPU 0 instructions: 226501171 cycles: 128707112 heartbeat IPC: 2.314 cumulative IPC: 1.635 (Simulation time: 00 hr 28 min 04 sec)
Heartbeat CPU 0 instructions: 227001173 cycles: 128921425 heartbeat IPC: 2.333 cumulative IPC: 1.637 (Simulation time: 00 hr 28 min 07 sec)
Heartbeat CPU 0 instructions: 227501177 cycles: 129126966 heartbeat IPC: 2.433 cumulative IPC: 1.638 (Simulation time: 00 hr 28 min 11 sec)
Heartbeat CPU 0 instructions: 228001178 cycles: 129330834 heartbeat IPC: 2.453 cumulative IPC: 1.64 (Simulation time: 00 hr 28 min 14 sec)
Heartbeat CPU 0 instructions: 228501185 cycles: 129552165 heartbeat IPC: 2.259 cumulative IPC: 1.641 (Simulation time: 00 hr 28 min 18 sec)
Heartbeat CPU 0 instructions: 229001186 cycles: 129764125 heartbeat IPC: 2.359 cumulative IPC: 1.643 (Simulation time: 00 hr 28 min 21 sec)
Heartbeat CPU 0 instructions: 229501186 cycles: 129963536 heartbeat IPC: 2.507 cumulative IPC: 1.644 (Simulation time: 00 hr 28 min 24 sec)
Heartbeat CPU 0 instructions: 230001187 cycles: 130177131 heartbeat IPC: 2.341 cumulative IPC: 1.645 (Simulation time: 00 hr 28 min 28 sec)
Heartbeat CPU 0 instructions: 230501190 cycles: 130389910 heartbeat IPC: 2.35 cumulative IPC: 1.647 (Simulation time: 00 hr 28 min 31 sec)
Heartbeat CPU 0 instructions: 231001191 cycles: 130609883 heartbeat IPC: 2.273 cumulative IPC: 1.648 (Simulation time: 00 hr 28 min 35 sec)
Heartbeat CPU 0 instructions: 231501195 cycles: 130814415 heartbeat IPC: 2.445 cumulative IPC: 1.65 (Simulation time: 00 hr 28 min 38 sec)
Heartbeat CPU 0 instructions: 232001196 cycles: 131022658 heartbeat IPC: 2.401 cumulative IPC: 1.651 (Simulation time: 00 hr 28 min 42 sec)
Heartbeat CPU 0 instructions: 232501203 cycles: 131233631 heartbeat IPC: 2.37 cumulative IPC: 1.652 (Simulation time: 00 hr 28 min 45 sec)
Heartbeat CPU 0 instructions: 233001204 cycles: 131447211 heartbeat IPC: 2.341 cumulative IPC: 1.654 (Simulation time: 00 hr 28 min 49 sec)
Heartbeat CPU 0 instructions: 233501204 cycles: 131646687 heartbeat IPC: 2.507 cumulative IPC: 1.655 (Simulation time: 00 hr 28 min 52 sec)
Heartbeat CPU 0 instructions: 234001205 cycles: 131855124 heartbeat IPC: 2.399 cumulative IPC: 1.657 (Simulation time: 00 hr 28 min 56 sec)
Heartbeat CPU 0 instructions: 234501206 cycles: 132066552 heartbeat IPC: 2.365 cumulative IPC: 1.658 (Simulation time: 00 hr 28 min 59 sec)
Heartbeat CPU 0 instructions: 235001208 cycles: 132271801 heartbeat IPC: 2.436 cumulative IPC: 1.659 (Simulation time: 00 hr 29 min 02 sec)
Heartbeat CPU 0 instructions: 235501213 cycles: 132478907 heartbeat IPC: 2.414 cumulative IPC: 1.661 (Simulation time: 00 hr 29 min 06 sec)
Heartbeat CPU 0 instructions: 236001214 cycles: 132673774 heartbeat IPC: 2.566 cumulative IPC: 1.662 (Simulation time: 00 hr 29 min 09 sec)
Heartbeat CPU 0 instructions: 236501218 cycles: 132895135 heartbeat IPC: 2.259 cumulative IPC: 1.664 (Simulation time: 00 hr 29 min 13 sec)
Heartbeat CPU 0 instructions: 237001219 cycles: 133111404 heartbeat IPC: 2.312 cumulative IPC: 1.665 (Simulation time: 00 hr 29 min 16 sec)
Heartbeat CPU 0 instructions: 237501222 cycles: 133316776 heartbeat IPC: 2.435 cumulative IPC: 1.666 (Simulation time: 00 hr 29 min 20 sec)
Heartbeat CPU 0 instructions: 238001223 cycles: 133520235 heartbeat IPC: 2.458 cumulative IPC: 1.668 (Simulation time: 00 hr 29 min 23 sec)
Heartbeat CPU 0 instructions: 238501228 cycles: 133738355 heartbeat IPC: 2.292 cumulative IPC: 1.669 (Simulation time: 00 hr 29 min 27 sec)
Heartbeat CPU 0 instructions: 239001231 cycles: 133949274 heartbeat IPC: 2.371 cumulative IPC: 1.67 (Simulation time: 00 hr 29 min 30 sec)
Heartbeat CPU 0 instructions: 239501231 cycles: 134156085 heartbeat IPC: 2.418 cumulative IPC: 1.672 (Simulation time: 00 hr 29 min 34 sec)
Heartbeat CPU 0 instructions: 240001231 cycles: 134366589 heartbeat IPC: 2.375 cumulative IPC: 1.673 (Simulation time: 00 hr 29 min 37 sec)
Heartbeat CPU 0 instructions: 240501231 cycles: 134578439 heartbeat IPC: 2.36 cumulative IPC: 1.674 (Simulation time: 00 hr 29 min 41 sec)
Heartbeat CPU 0 instructions: 241001236 cycles: 134804371 heartbeat IPC: 2.213 cumulative IPC: 1.675 (Simulation time: 00 hr 29 min 44 sec)
Heartbeat CPU 0 instructions: 241501240 cycles: 135011183 heartbeat IPC: 2.418 cumulative IPC: 1.677 (Simulation time: 00 hr 29 min 48 sec)
Heartbeat CPU 0 instructions: 242001241 cycles: 135217129 heartbeat IPC: 2.428 cumulative IPC: 1.678 (Simulation time: 00 hr 29 min 51 sec)
Heartbeat CPU 0 instructions: 242501243 cycles: 135427981 heartbeat IPC: 2.371 cumulative IPC: 1.679 (Simulation time: 00 hr 29 min 55 sec)
Heartbeat CPU 0 instructions: 243001249 cycles: 135652614 heartbeat IPC: 2.226 cumulative IPC: 1.68 (Simulation time: 00 hr 29 min 58 sec)
Heartbeat CPU 0 instructions: 243501249 cycles: 135864712 heartbeat IPC: 2.357 cumulative IPC: 1.681 (Simulation time: 00 hr 30 min 02 sec)
Heartbeat CPU 0 instructions: 244001250 cycles: 136071737 heartbeat IPC: 2.415 cumulative IPC: 1.683 (Simulation time: 00 hr 30 min 05 sec)
Heartbeat CPU 0 instructions: 244501255 cycles: 136290955 heartbeat IPC: 2.281 cumulative IPC: 1.684 (Simulation time: 00 hr 30 min 09 sec)
Heartbeat CPU 0 instructions: 245001255 cycles: 136502745 heartbeat IPC: 2.361 cumulative IPC: 1.685 (Simulation time: 00 hr 30 min 12 sec)
Heartbeat CPU 0 instructions: 245501258 cycles: 136715206 heartbeat IPC: 2.353 cumulative IPC: 1.686 (Simulation time: 00 hr 30 min 16 sec)
Heartbeat CPU 0 instructions: 246001259 cycles: 136921233 heartbeat IPC: 2.427 cumulative IPC: 1.688 (Simulation time: 00 hr 30 min 19 sec)
Heartbeat CPU 0 instructions: 246501260 cycles: 137134169 heartbeat IPC: 2.348 cumulative IPC: 1.689 (Simulation time: 00 hr 30 min 23 sec)
Heartbeat CPU 0 instructions: 247001265 cycles: 137350683 heartbeat IPC: 2.309 cumulative IPC: 1.69 (Simulation time: 00 hr 30 min 26 sec)
Heartbeat CPU 0 instructions: 247501267 cycles: 137557074 heartbeat IPC: 2.423 cumulative IPC: 1.691 (Simulation time: 00 hr 30 min 30 sec)
Heartbeat CPU 0 instructions: 248001268 cycles: 137766130 heartbeat IPC: 2.392 cumulative IPC: 1.693 (Simulation time: 00 hr 30 min 33 sec)
Heartbeat CPU 0 instructions: 248501275 cycles: 137978686 heartbeat IPC: 2.352 cumulative IPC: 1.694 (Simulation time: 00 hr 30 min 37 sec)
Heartbeat CPU 0 instructions: 249001281 cycles: 138190445 heartbeat IPC: 2.361 cumulative IPC: 1.695 (Simulation time: 00 hr 30 min 40 sec)
Heartbeat CPU 0 instructions: 249501284 cycles: 138404052 heartbeat IPC: 2.341 cumulative IPC: 1.696 (Simulation time: 00 hr 30 min 44 sec)
*** Reached end of trace: (0, "/local-ssd/ben/dpc4-traces/Graph/Ligra/ligra_MIS.com-lj.ungraph.gcc_6.3.0_O3.drop_15750M.length_250M.champsimtrace.xz")
Simulation finished CPU 0 instructions: 200000000 cycles: 117817736 cumulative IPC: 1.698 (Simulation time: 00 hr 30 min 47 sec)
Simulation complete CPU 0 instructions: 200000000 cycles: 117817736 cumulative IPC: 1.698 (Simulation time: 00 hr 30 min 47 sec)

ChampSim completed all CPUs

=== Simulation ===
CPU 0 runs /local-ssd/ben/dpc4-traces/Graph/Ligra/ligra_MIS.com-lj.ungraph.gcc_6.3.0_O3.drop_15750M.length_250M.champsimtrace.xz

Region of Interest Statistics

CPU 0 cumulative IPC: 1.698 instructions: 200000000 cycles: 117817736
CPU 0 Branch Prediction Accuracy: 89.85% MPKI: 11.89 Average ROB Occupancy at Mispredict: 22.37
Branch type MPKI
BRANCH_DIRECT_JUMP: 0.000125
BRANCH_INDIRECT: 1e-05
BRANCH_CONDITIONAL: 11.89
BRANCH_DIRECT_CALL: 9.5e-05
BRANCH_INDIRECT_CALL: 1e-05
BRANCH_RETURN: 9e-05

cpu0->cpu0_STLB TOTAL        ACCESS:      66725 HIT:       1337 MISS:      65388 MSHR_MERGE:          0
cpu0->cpu0_STLB LOAD         ACCESS:      66725 HIT:       1337 MISS:      65388 MSHR_MERGE:          0
cpu0->cpu0_STLB RFO          ACCESS:          0 HIT:          0 MISS:          0 MSHR_MERGE:          0
cpu0->cpu0_STLB PREFETCH     ACCESS:          0 HIT:          0 MISS:          0 MSHR_MERGE:          0
cpu0->cpu0_STLB WRITE        ACCESS:          0 HIT:          0 MISS:          0 MSHR_MERGE:          0
cpu0->cpu0_STLB TRANSLATION  ACCESS:          0 HIT:          0 MISS:          0 MSHR_MERGE:          0
cpu0->cpu0_STLB PREFETCH REQUESTED:          0 ISSUED:          0 USEFUL:          0 USELESS:          0
cpu0->cpu0_STLB AVERAGE MISS LATENCY: 269.2 cycles
cpu0->cpu0_L2C TOTAL        ACCESS:   18991094 HIT:   12270631 MISS:    6720463 MSHR_MERGE:    2531080
cpu0->cpu0_L2C LOAD         ACCESS:     784570 HIT:     726289 MISS:      58281 MSHR_MERGE:      33146
cpu0->cpu0_L2C RFO          ACCESS:    1839298 HIT:     104297 MISS:    1735001 MSHR_MERGE:          0
cpu0->cpu0_L2C PREFETCH     ACCESS:   14511331 HIT:    9592497 MISS:    4918834 MSHR_MERGE:    2497934
cpu0->cpu0_L2C WRITE        ACCESS:    1843388 HIT:    1843388 MISS:          0 MSHR_MERGE:          0
cpu0->cpu0_L2C TRANSLATION  ACCESS:      12507 HIT:       4160 MISS:       8347 MSHR_MERGE:          0
cpu0->cpu0_L2C PREFETCH REQUESTED:   12731311 ISSUED:   12462570 USEFUL:    1885869 USELESS:     346103
cpu0->cpu0_L2C AVERAGE MISS LATENCY: 470.3 cycles
cpu0->cpu0_L1I TOTAL        ACCESS:   13510997 HIT:   13510839 MISS:        158 MSHR_MERGE:         12
cpu0->cpu0_L1I LOAD         ACCESS:   13510997 HIT:   13510839 MISS:        158 MSHR_MERGE:         12
cpu0->cpu0_L1I RFO          ACCESS:          0 HIT:          0 MISS:          0 MSHR_MERGE:          0
cpu0->cpu0_L1I PREFETCH     ACCESS:          0 HIT:          0 MISS:          0 MSHR_MERGE:          0
cpu0->cpu0_L1I WRITE        ACCESS:          0 HIT:          0 MISS:          0 MSHR_MERGE:          0
cpu0->cpu0_L1I TRANSLATION  ACCESS:          0 HIT:          0 MISS:          0 MSHR_MERGE:          0
cpu0->cpu0_L1I PREFETCH REQUESTED:          0 ISSUED:          0 USEFUL:          0 USELESS:          0
cpu0->cpu0_L1I AVERAGE MISS LATENCY: 281.8 cycles
cpu0->cpu0_L1D TOTAL        ACCESS:   67113627 HIT:   33585519 MISS:   33528108 MSHR_MERGE:   28843058
cpu0->cpu0_L1D LOAD         ACCESS:   20199128 HIT:   18550601 MISS:    1648527 MSHR_MERGE:     864102
cpu0->cpu0_L1D RFO          ACCESS:          0 HIT:          0 MISS:          0 MSHR_MERGE:          0
cpu0->cpu0_L1D PREFETCH     ACCESS:   13000968 HIT:    8262011 MISS:    4738957 MSHR_MERGE:    2690196
cpu0->cpu0_L1D WRITE        ACCESS:   33783438 HIT:    6656015 MISS:   27127423 MSHR_MERGE:   25288066
cpu0->cpu0_L1D TRANSLATION  ACCESS:     130093 HIT:     116892 MISS:      13201 MSHR_MERGE:        694
cpu0->cpu0_L1D PREFETCH REQUESTED:   23218848 ISSUED:   13000969 USEFUL:    2014603 USELESS:      34182
cpu0->cpu0_L1D AVERAGE MISS LATENCY: 329.5 cycles
cpu0->cpu0_ITLB TOTAL        ACCESS:   12670279 HIT:   12670249 MISS:         30 MSHR_MERGE:         10
cpu0->cpu0_ITLB LOAD         ACCESS:   12670279 HIT:   12670249 MISS:         30 MSHR_MERGE:         10
cpu0->cpu0_ITLB RFO          ACCESS:          0 HIT:          0 MISS:          0 MSHR_MERGE:          0
cpu0->cpu0_ITLB PREFETCH     ACCESS:          0 HIT:          0 MISS:          0 MSHR_MERGE:          0
cpu0->cpu0_ITLB WRITE        ACCESS:          0 HIT:          0 MISS:          0 MSHR_MERGE:          0
cpu0->cpu0_ITLB TRANSLATION  ACCESS:          0 HIT:          0 MISS:          0 MSHR_MERGE:          0
cpu0->cpu0_ITLB PREFETCH REQUESTED:          0 ISSUED:          0 USEFUL:          0 USELESS:          0
cpu0->cpu0_ITLB AVERAGE MISS LATENCY: 468.2 cycles
cpu0->cpu0_DTLB TOTAL        ACCESS:   60497175 HIT:   59654337 MISS:     842838 MSHR_MERGE:     776132
cpu0->cpu0_DTLB LOAD         ACCESS:   60497175 HIT:   59654337 MISS:     842838 MSHR_MERGE:     776132
cpu0->cpu0_DTLB RFO          ACCESS:          0 HIT:          0 MISS:          0 MSHR_MERGE:          0
cpu0->cpu0_DTLB PREFETCH     ACCESS:          0 HIT:          0 MISS:          0 MSHR_MERGE:          0
cpu0->cpu0_DTLB WRITE        ACCESS:          0 HIT:          0 MISS:          0 MSHR_MERGE:          0
cpu0->cpu0_DTLB TRANSLATION  ACCESS:          0 HIT:          0 MISS:          0 MSHR_MERGE:          0
cpu0->cpu0_DTLB PREFETCH REQUESTED:          0 ISSUED:          0 USEFUL:          0 USELESS:          0
cpu0->cpu0_DTLB AVERAGE MISS LATENCY: 269.7 cycles
cpu0->LLC TOTAL        ACCESS:    8314581 HIT:    1691115 MISS:    6623466 MSHR_MERGE:     914872
cpu0->LLC LOAD         ACCESS:      25135 HIT:       4531 MISS:      20604 MSHR_MERGE:       2637
cpu0->LLC RFO          ACCESS:    1735001 HIT:       3641 MISS:    1731360 MSHR_MERGE:         39
cpu0->LLC PREFETCH     ACCESS:    4790385 HIT:    1441723 MISS:    3348662 MSHR_MERGE:     912196
cpu0->LLC WRITE        ACCESS:    1755713 HIT:     241214 MISS:    1514499 MSHR_MERGE:          0
cpu0->LLC TRANSLATION  ACCESS:       8347 HIT:          6 MISS:       8341 MSHR_MERGE:          0
cpu0->LLC PREFETCH REQUESTED:    2454364 ISSUED:    2369485 USEFUL:    1448912 USELESS:     634917
cpu0->LLC AVERAGE MISS LATENCY: 250.7 cycles

DRAM Statistics

Channel 0 RQ ROW_BUFFER_HIT:     344871
  ROW_BUFFER_MISS:    3849214
  AVG DBUS CONGESTED CYCLE: 9.492
Channel 0 WQ ROW_BUFFER_HIT:     100042
  ROW_BUFFER_MISS:    1652285
  FULL:     146808
Channel 0 REFRESHES ISSUED:       9817
