[VMEM] WARNING: physical memory size is smaller than virtual memory size.

*** ChampSim Multicore Out-of-Order Simulator ***
Warmup Instructions: 50000000
Simulation Instructions: 200000000
Number of CPUs: 1
Page size: 4096
Core 0: /local-ssd/ben/dpc4-traces/gtraces_v2/arizona_0002.champsim.gz
Off-chip DRAM Size: 64 GiB Channels: 1 Width: 64-bit Data Rate: 4807 MT/s
[BTB] WARNING: target of return is a lower address than the corresponding call. This is usually a problem with your trace.
[BTB] WARNING: target of return is a lower address than the corresponding call. This is usually a problem with your trace.
[BTB] WARNING: target of return is a lower address than the corresponding call. This is usually a problem with your trace.
[BTB] WARNING: target of return is a lower address than the corresponding call. This is usually a problem with your trace.
[BTB] WARNING: target of return is a lower address than the corresponding call. This is usually a problem with your trace.
[BTB] WARNING: target of return is a lower address than the corresponding call. This is usually a problem with your trace.
[BTB] WARNING: target of return is a lower address than the corresponding call. This is usually a problem with your trace.
[BTB] WARNING: target of return is a lower address than the corresponding call. This is usually a problem with your trace.
[BTB] WARNING: target of return is a lower address than the corresponding call. This is usually a problem with your trace.
[BTB] WARNING: target of return is a lower address than the corresponding call. This is usually a problem with your trace.
Heartbeat CPU 0 instructions: 500005 cycles: 282650 heartbeat IPC: 1.769 cumulative IPC: 1.769 (Simulation time: 00 hr 00 min 07 sec)
Heartbeat CPU 0 instructions: 1000010 cycles: 537907 heartbeat IPC: 1.959 cumulative IPC: 1.859 (Simulation time: 00 hr 00 min 13 sec)
Heartbeat CPU 0 instructions: 1500011 cycles: 730929 heartbeat IPC: 2.59 cumulative IPC: 2.052 (Simulation time: 00 hr 00 min 17 sec)
Heartbeat CPU 0 instructions: 2000014 cycles: 948885 heartbeat IPC: 2.294 cumulative IPC: 2.108 (Simulation time: 00 hr 00 min 22 sec)
Heartbeat CPU 0 instructions: 2500016 cycles: 1119135 heartbeat IPC: 2.937 cumulative IPC: 2.234 (Simulation time: 00 hr 00 min 27 sec)
Heartbeat CPU 0 instructions: 3000021 cycles: 1302659 heartbeat IPC: 2.724 cumulative IPC: 2.303 (Simulation time: 00 hr 00 min 32 sec)
Heartbeat CPU 0 instructions: 3500022 cycles: 1453238 heartbeat IPC: 3.321 cumulative IPC: 2.408 (Simulation time: 00 hr 00 min 36 sec)
Heartbeat CPU 0 instructions: 4000026 cycles: 1590248 heartbeat IPC: 3.649 cumulative IPC: 2.515 (Simulation time: 00 hr 00 min 39 sec)
Heartbeat CPU 0 instructions: 4500033 cycles: 1751625 heartbeat IPC: 3.098 cumulative IPC: 2.569 (Simulation time: 00 hr 00 min 44 sec)
Heartbeat CPU 0 instructions: 5000034 cycles: 1905806 heartbeat IPC: 3.243 cumulative IPC: 2.624 (Simulation time: 00 hr 00 min 47 sec)
Heartbeat CPU 0 instructions: 5500041 cycles: 2097003 heartbeat IPC: 2.615 cumulative IPC: 2.623 (Simulation time: 00 hr 00 min 51 sec)
Heartbeat CPU 0 instructions: 6000041 cycles: 2267512 heartbeat IPC: 2.932 cumulative IPC: 2.646 (Simulation time: 00 hr 00 min 54 sec)
Heartbeat CPU 0 instructions: 6500048 cycles: 2420944 heartbeat IPC: 3.259 cumulative IPC: 2.685 (Simulation time: 00 hr 00 min 57 sec)
Heartbeat CPU 0 instructions: 7000050 cycles: 2570103 heartbeat IPC: 3.352 cumulative IPC: 2.724 (Simulation time: 00 hr 01 min 00 sec)
Heartbeat CPU 0 instructions: 7500055 cycles: 2715973 heartbeat IPC: 3.428 cumulative IPC: 2.761 (Simulation time: 00 hr 01 min 03 sec)
Heartbeat CPU 0 instructions: 8000062 cycles: 2872317 heartbeat IPC: 3.198 cumulative IPC: 2.785 (Simulation time: 00 hr 01 min 06 sec)
Heartbeat CPU 0 instructions: 8500065 cycles: 3042328 heartbeat IPC: 2.941 cumulative IPC: 2.794 (Simulation time: 00 hr 01 min 09 sec)
Heartbeat CPU 0 instructions: 9000070 cycles: 3160035 heartbeat IPC: 4.248 cumulative IPC: 2.848 (Simulation time: 00 hr 01 min 11 sec)
Heartbeat CPU 0 instructions: 9500077 cycles: 3261066 heartbeat IPC: 4.949 cumulative IPC: 2.913 (Simulation time: 00 hr 01 min 12 sec)
Heartbeat CPU 0 instructions: 10000078 cycles: 3362993 heartbeat IPC: 4.905 cumulative IPC: 2.974 (Simulation time: 00 hr 01 min 14 sec)
Heartbeat CPU 0 instructions: 10500079 cycles: 3464787 heartbeat IPC: 4.912 cumulative IPC: 3.031 (Simulation time: 00 hr 01 min 15 sec)
Heartbeat CPU 0 instructions: 11000083 cycles: 3566157 heartbeat IPC: 4.932 cumulative IPC: 3.085 (Simulation time: 00 hr 01 min 17 sec)
Heartbeat CPU 0 instructions: 11500085 cycles: 3666156 heartbeat IPC: 5 cumulative IPC: 3.137 (Simulation time: 00 hr 01 min 18 sec)
Heartbeat CPU 0 instructions: 12000086 cycles: 3767782 heartbeat IPC: 4.92 cumulative IPC: 3.185 (Simulation time: 00 hr 01 min 20 sec)
Heartbeat CPU 0 instructions: 12500092 cycles: 3869158 heartbeat IPC: 4.932 cumulative IPC: 3.231 (Simulation time: 00 hr 01 min 21 sec)
Heartbeat CPU 0 instructions: 13000098 cycles: 3969470 heartbeat IPC: 4.985 cumulative IPC: 3.275 (Simulation time: 00 hr 01 min 23 sec)
Heartbeat CPU 0 instructions: 13500099 cycles: 4070400 heartbeat IPC: 4.954 cumulative IPC: 3.317 (Simulation time: 00 hr 01 min 24 sec)
Heartbeat CPU 0 instructions: 14000100 cycles: 4170684 heartbeat IPC: 4.986 cumulative IPC: 3.357 (Simulation time: 00 hr 01 min 25 sec)
Heartbeat CPU 0 instructions: 14500106 cycles: 4271674 heartbeat IPC: 4.951 cumulative IPC: 3.394 (Simulation time: 00 hr 01 min 27 sec)
Heartbeat CPU 0 instructions: 15000111 cycles: 4371710 heartbeat IPC: 4.998 cumulative IPC: 3.431 (Simulation time: 00 hr 01 min 28 sec)
Heartbeat CPU 0 instructions: 15500111 cycles: 4472774 heartbeat IPC: 4.947 cumulative IPC: 3.465 (Simulation time: 00 hr 01 min 30 sec)
Heartbeat CPU 0 instructions: 16000112 cycles: 4573028 heartbeat IPC: 4.987 cumulative IPC: 3.499 (Simulation time: 00 hr 01 min 31 sec)
Heartbeat CPU 0 instructions: 16500118 cycles: 4674149 heartbeat IPC: 4.945 cumulative IPC: 3.53 (Simulation time: 00 hr 01 min 33 sec)
Heartbeat CPU 0 instructions: 17000122 cycles: 4774149 heartbeat IPC: 5 cumulative IPC: 3.561 (Simulation time: 00 hr 01 min 34 sec)
Heartbeat CPU 0 instructions: 17500125 cycles: 4875505 heartbeat IPC: 4.933 cumulative IPC: 3.589 (Simulation time: 00 hr 01 min 35 sec)
Heartbeat CPU 0 instructions: 18000128 cycles: 4975506 heartbeat IPC: 5 cumulative IPC: 3.618 (Simulation time: 00 hr 01 min 37 sec)
Heartbeat CPU 0 instructions: 18500134 cycles: 5102474 heartbeat IPC: 3.938 cumulative IPC: 3.626 (Simulation time: 00 hr 01 min 39 sec)
Heartbeat CPU 0 instructions: 19000140 cycles: 5202684 heartbeat IPC: 4.99 cumulative IPC: 3.652 (Simulation time: 00 hr 01 min 40 sec)
Heartbeat CPU 0 instructions: 19500140 cycles: 5304152 heartbeat IPC: 4.928 cumulative IPC: 3.676 (Simulation time: 00 hr 01 min 42 sec)
Heartbeat CPU 0 instructions: 20000145 cycles: 5404356 heartbeat IPC: 4.99 cumulative IPC: 3.701 (Simulation time: 00 hr 01 min 43 sec)
Heartbeat CPU 0 instructions: 20500150 cycles: 5505923 heartbeat IPC: 4.923 cumulative IPC: 3.723 (Simulation time: 00 hr 01 min 45 sec)
Heartbeat CPU 0 instructions: 21000155 cycles: 5607194 heartbeat IPC: 4.937 cumulative IPC: 3.745 (Simulation time: 00 hr 01 min 46 sec)
Heartbeat CPU 0 instructions: 21500157 cycles: 5709079 heartbeat IPC: 4.908 cumulative IPC: 3.766 (Simulation time: 00 hr 01 min 48 sec)
Heartbeat CPU 0 instructions: 22000161 cycles: 5810295 heartbeat IPC: 4.94 cumulative IPC: 3.786 (Simulation time: 00 hr 01 min 49 sec)
Heartbeat CPU 0 instructions: 22500163 cycles: 5911104 heartbeat IPC: 4.96 cumulative IPC: 3.806 (Simulation time: 00 hr 01 min 51 sec)
Heartbeat CPU 0 instructions: 23000170 cycles: 6012881 heartbeat IPC: 4.913 cumulative IPC: 3.825 (Simulation time: 00 hr 01 min 52 sec)
Heartbeat CPU 0 instructions: 23500174 cycles: 6113450 heartbeat IPC: 4.972 cumulative IPC: 3.844 (Simulation time: 00 hr 01 min 53 sec)
Heartbeat CPU 0 instructions: 24000176 cycles: 6215771 heartbeat IPC: 4.887 cumulative IPC: 3.861 (Simulation time: 00 hr 01 min 55 sec)
Heartbeat CPU 0 instructions: 24500176 cycles: 6316405 heartbeat IPC: 4.968 cumulative IPC: 3.879 (Simulation time: 00 hr 01 min 56 sec)
Heartbeat CPU 0 instructions: 25000177 cycles: 6417506 heartbeat IPC: 4.946 cumulative IPC: 3.896 (Simulation time: 00 hr 01 min 58 sec)
Heartbeat CPU 0 instructions: 25500181 cycles: 6518296 heartbeat IPC: 4.961 cumulative IPC: 3.912 (Simulation time: 00 hr 01 min 59 sec)
Heartbeat CPU 0 instructions: 26000184 cycles: 6619610 heartbeat IPC: 4.935 cumulative IPC: 3.928 (Simulation time: 00 hr 02 min 01 sec)
Heartbeat CPU 0 instructions: 26500190 cycles: 6719761 heartbeat IPC: 4.993 cumulative IPC: 3.944 (Simulation time: 00 hr 02 min 02 sec)
Heartbeat CPU 0 instructions: 27000196 cycles: 6820790 heartbeat IPC: 4.949 cumulative IPC: 3.959 (Simulation time: 00 hr 02 min 04 sec)
Heartbeat CPU 0 instructions: 27500196 cycles: 6920791 heartbeat IPC: 5 cumulative IPC: 3.974 (Simulation time: 00 hr 02 min 05 sec)
Heartbeat CPU 0 instructions: 28000199 cycles: 7021909 heartbeat IPC: 4.945 cumulative IPC: 3.988 (Simulation time: 00 hr 02 min 07 sec)
Heartbeat CPU 0 instructions: 28500204 cycles: 7130725 heartbeat IPC: 4.595 cumulative IPC: 3.997 (Simulation time: 00 hr 02 min 08 sec)
Heartbeat CPU 0 instructions: 29000210 cycles: 7246652 heartbeat IPC: 4.313 cumulative IPC: 4.002 (Simulation time: 00 hr 02 min 10 sec)
Heartbeat CPU 0 instructions: 29500216 cycles: 7373321 heartbeat IPC: 3.947 cumulative IPC: 4.001 (Simulation time: 00 hr 02 min 13 sec)
Heartbeat CPU 0 instructions: 30000216 cycles: 7474935 heartbeat IPC: 4.921 cumulative IPC: 4.013 (Simulation time: 00 hr 02 min 14 sec)
Heartbeat CPU 0 instructions: 30500218 cycles: 7575837 heartbeat IPC: 4.955 cumulative IPC: 4.026 (Simulation time: 00 hr 02 min 16 sec)
Heartbeat CPU 0 instructions: 31000223 cycles: 7677018 heartbeat IPC: 4.942 cumulative IPC: 4.038 (Simulation time: 00 hr 02 min 17 sec)
Heartbeat CPU 0 instructions: 31500224 cycles: 7777020 heartbeat IPC: 5 cumulative IPC: 4.05 (Simulation time: 00 hr 02 min 18 sec)
Heartbeat CPU 0 instructions: 32000227 cycles: 7878078 heartbeat IPC: 4.948 cumulative IPC: 4.062 (Simulation time: 00 hr 02 min 20 sec)
Heartbeat CPU 0 instructions: 32500233 cycles: 7978112 heartbeat IPC: 4.998 cumulative IPC: 4.074 (Simulation time: 00 hr 02 min 21 sec)
Heartbeat CPU 0 instructions: 33000240 cycles: 8079112 heartbeat IPC: 4.951 cumulative IPC: 4.085 (Simulation time: 00 hr 02 min 23 sec)
Heartbeat CPU 0 instructions: 33500247 cycles: 8180004 heartbeat IPC: 4.956 cumulative IPC: 4.095 (Simulation time: 00 hr 02 min 24 sec)
Heartbeat CPU 0 instructions: 34000251 cycles: 8280330 heartbeat IPC: 4.984 cumulative IPC: 4.106 (Simulation time: 00 hr 02 min 26 sec)
Heartbeat CPU 0 instructions: 34500253 cycles: 8380992 heartbeat IPC: 4.967 cumulative IPC: 4.116 (Simulation time: 00 hr 02 min 27 sec)
Heartbeat CPU 0 instructions: 35000260 cycles: 8481128 heartbeat IPC: 4.993 cumulative IPC: 4.127 (Simulation time: 00 hr 02 min 29 sec)
Heartbeat CPU 0 instructions: 35500261 cycles: 8582156 heartbeat IPC: 4.949 cumulative IPC: 4.137 (Simulation time: 00 hr 02 min 30 sec)
Heartbeat CPU 0 instructions: 36000267 cycles: 8682324 heartbeat IPC: 4.992 cumulative IPC: 4.146 (Simulation time: 00 hr 02 min 31 sec)
Heartbeat CPU 0 instructions: 36500270 cycles: 8783370 heartbeat IPC: 4.948 cumulative IPC: 4.156 (Simulation time: 00 hr 02 min 33 sec)
Heartbeat CPU 0 instructions: 37000272 cycles: 8883374 heartbeat IPC: 5 cumulative IPC: 4.165 (Simulation time: 00 hr 02 min 34 sec)
Heartbeat CPU 0 instructions: 37500276 cycles: 8984648 heartbeat IPC: 4.937 cumulative IPC: 4.174 (Simulation time: 00 hr 02 min 36 sec)
Heartbeat CPU 0 instructions: 38000278 cycles: 9086107 heartbeat IPC: 4.928 cumulative IPC: 4.182 (Simulation time: 00 hr 02 min 37 sec)
Heartbeat CPU 0 instructions: 38500280 cycles: 9188652 heartbeat IPC: 4.876 cumulative IPC: 4.19 (Simulation time: 00 hr 02 min 39 sec)
Heartbeat CPU 0 instructions: 39000280 cycles: 9288652 heartbeat IPC: 5 cumulative IPC: 4.199 (Simulation time: 00 hr 02 min 40 sec)
Heartbeat CPU 0 instructions: 39500287 cycles: 9406666 heartbeat IPC: 4.237 cumulative IPC: 4.199 (Simulation time: 00 hr 02 min 42 sec)
Heartbeat CPU 0 instructions: 40000290 cycles: 9514706 heartbeat IPC: 4.628 cumulative IPC: 4.204 (Simulation time: 00 hr 02 min 44 sec)
Heartbeat CPU 0 instructions: 40500296 cycles: 9618436 heartbeat IPC: 4.82 cumulative IPC: 4.211 (Simulation time: 00 hr 02 min 46 sec)
Heartbeat CPU 0 instructions: 41000301 cycles: 9722079 heartbeat IPC: 4.824 cumulative IPC: 4.217 (Simulation time: 00 hr 02 min 47 sec)
Heartbeat CPU 0 instructions: 41500308 cycles: 9827625 heartbeat IPC: 4.737 cumulative IPC: 4.223 (Simulation time: 00 hr 02 min 49 sec)
Heartbeat CPU 0 instructions: 42000312 cycles: 9942792 heartbeat IPC: 4.342 cumulative IPC: 4.224 (Simulation time: 00 hr 02 min 51 sec)
Heartbeat CPU 0 instructions: 42500312 cycles: 10045352 heartbeat IPC: 4.875 cumulative IPC: 4.231 (Simulation time: 00 hr 02 min 53 sec)
Heartbeat CPU 0 instructions: 43000314 cycles: 10145807 heartbeat IPC: 4.977 cumulative IPC: 4.238 (Simulation time: 00 hr 02 min 54 sec)
Heartbeat CPU 0 instructions: 43500319 cycles: 10247412 heartbeat IPC: 4.921 cumulative IPC: 4.245 (Simulation time: 00 hr 02 min 56 sec)
Heartbeat CPU 0 instructions: 44000323 cycles: 10347796 heartbeat IPC: 4.981 cumulative IPC: 4.252 (Simulation time: 00 hr 02 min 57 sec)
Heartbeat CPU 0 instructions: 44500328 cycles: 10449381 heartbeat IPC: 4.922 cumulative IPC: 4.259 (Simulation time: 00 hr 02 min 59 sec)
Heartbeat CPU 0 instructions: 45000328 cycles: 10549377 heartbeat IPC: 5 cumulative IPC: 4.266 (Simulation time: 00 hr 03 min 00 sec)
Heartbeat CPU 0 instructions: 45500335 cycles: 10650730 heartbeat IPC: 4.933 cumulative IPC: 4.272 (Simulation time: 00 hr 03 min 01 sec)
Heartbeat CPU 0 instructions: 46000336 cycles: 10750729 heartbeat IPC: 5 cumulative IPC: 4.279 (Simulation time: 00 hr 03 min 03 sec)
Heartbeat CPU 0 instructions: 46500340 cycles: 10852260 heartbeat IPC: 4.925 cumulative IPC: 4.285 (Simulation time: 00 hr 03 min 04 sec)
Heartbeat CPU 0 instructions: 47000342 cycles: 10953185 heartbeat IPC: 4.954 cumulative IPC: 4.291 (Simulation time: 00 hr 03 min 06 sec)
Heartbeat CPU 0 instructions: 47500349 cycles: 11053704 heartbeat IPC: 4.974 cumulative IPC: 4.297 (Simulation time: 00 hr 03 min 07 sec)
Heartbeat CPU 0 instructions: 48000352 cycles: 11154604 heartbeat IPC: 4.955 cumulative IPC: 4.303 (Simulation time: 00 hr 03 min 09 sec)
Heartbeat CPU 0 instructions: 48500358 cycles: 11254910 heartbeat IPC: 4.985 cumulative IPC: 4.309 (Simulation time: 00 hr 03 min 10 sec)
Heartbeat CPU 0 instructions: 49000361 cycles: 11355965 heartbeat IPC: 4.948 cumulative IPC: 4.315 (Simulation time: 00 hr 03 min 11 sec)
Heartbeat CPU 0 instructions: 49500363 cycles: 11456127 heartbeat IPC: 4.992 cumulative IPC: 4.321 (Simulation time: 00 hr 03 min 13 sec)
Warmup halting CPU 0 at instruction 50000002 cycle 11557105 for remainder of phase
Warmup finished CPU 0 instructions: 50000002 cycles: 11557105 cumulative IPC: 4.326 (Simulation time: 00 hr 03 min 14 sec)
Warmup complete CPU 0 instructions: 50000002 cycles: 11557105 cumulative IPC: 4.326 (Simulation time: 00 hr 03 min 14 sec)
Heartbeat CPU 0 instructions: 50000368 cycles: 11557195 heartbeat IPC: 4.947 cumulative IPC: 4.067 (Simulation time: 00 hr 03 min 14 sec)
Heartbeat CPU 0 instructions: 50500370 cycles: 11677251 heartbeat IPC: 4.165 cumulative IPC: 4.165 (Simulation time: 00 hr 03 min 17 sec)
Heartbeat CPU 0 instructions: 51000373 cycles: 11807973 heartbeat IPC: 3.825 cumulative IPC: 3.988 (Simulation time: 00 hr 03 min 19 sec)
Heartbeat CPU 0 instructions: 51500373 cycles: 11925153 heartbeat IPC: 4.267 cumulative IPC: 4.077 (Simulation time: 00 hr 03 min 21 sec)
Heartbeat CPU 0 instructions: 52000373 cycles: 13404267 heartbeat IPC: 0.338 cumulative IPC: 1.083 (Simulation time: 00 hr 03 min 35 sec)
Heartbeat CPU 0 instructions: 52500377 cycles: 14583245 heartbeat IPC: 0.4241 cumulative IPC: 0.8263 (Simulation time: 00 hr 03 min 45 sec)
Heartbeat CPU 0 instructions: 53000378 cycles: 14839399 heartbeat IPC: 1.952 cumulative IPC: 0.9141 (Simulation time: 00 hr 03 min 48 sec)
Heartbeat CPU 0 instructions: 53500380 cycles: 15085843 heartbeat IPC: 2.029 cumulative IPC: 0.992 (Simulation time: 00 hr 03 min 52 sec)
Heartbeat CPU 0 instructions: 54000383 cycles: 15331206 heartbeat IPC: 2.038 cumulative IPC: 1.06 (Simulation time: 00 hr 03 min 55 sec)
Heartbeat CPU 0 instructions: 54500387 cycles: 15573201 heartbeat IPC: 2.066 cumulative IPC: 1.121 (Simulation time: 00 hr 03 min 58 sec)
Heartbeat CPU 0 instructions: 55000393 cycles: 15858078 heartbeat IPC: 1.755 cumulative IPC: 1.163 (Simulation time: 00 hr 04 min 01 sec)
Heartbeat CPU 0 instructions: 55500394 cycles: 16100679 heartbeat IPC: 2.061 cumulative IPC: 1.211 (Simulation time: 00 hr 04 min 04 sec)
Heartbeat CPU 0 instructions: 56000401 cycles: 16323607 heartbeat IPC: 2.243 cumulative IPC: 1.259 (Simulation time: 00 hr 04 min 07 sec)
Heartbeat CPU 0 instructions: 56500402 cycles: 16556914 heartbeat IPC: 2.143 cumulative IPC: 1.3 (Simulation time: 00 hr 04 min 10 sec)
Heartbeat CPU 0 instructions: 57000406 cycles: 16785225 heartbeat IPC: 2.19 cumulative IPC: 1.339 (Simulation time: 00 hr 04 min 13 sec)
Heartbeat CPU 0 instructions: 57500412 cycles: 17017896 heartbeat IPC: 2.149 cumulative IPC: 1.374 (Simulation time: 00 hr 04 min 16 sec)
Heartbeat CPU 0 instructions: 58000417 cycles: 17672884 heartbeat IPC: 0.7634 cumulative IPC: 1.308 (Simulation time: 00 hr 04 min 22 sec)
Heartbeat CPU 0 instructions: 58500418 cycles: 18215962 heartbeat IPC: 0.9207 cumulative IPC: 1.277 (Simulation time: 00 hr 04 min 28 sec)
Heartbeat CPU 0 instructions: 59000424 cycles: 18341905 heartbeat IPC: 3.97 cumulative IPC: 1.327 (Simulation time: 00 hr 04 min 30 sec)
Heartbeat CPU 0 instructions: 59500431 cycles: 18477058 heartbeat IPC: 3.7 cumulative IPC: 1.373 (Simulation time: 00 hr 04 min 32 sec)
Heartbeat CPU 0 instructions: 60000431 cycles: 18603058 heartbeat IPC: 3.968 cumulative IPC: 1.419 (Simulation time: 00 hr 04 min 35 sec)
Heartbeat CPU 0 instructions: 60500431 cycles: 18736701 heartbeat IPC: 3.741 cumulative IPC: 1.463 (Simulation time: 00 hr 04 min 37 sec)
Heartbeat CPU 0 instructions: 61000432 cycles: 18856069 heartbeat IPC: 4.189 cumulative IPC: 1.507 (Simulation time: 00 hr 04 min 39 sec)
Heartbeat CPU 0 instructions: 61500432 cycles: 18986975 heartbeat IPC: 3.82 cumulative IPC: 1.548 (Simulation time: 00 hr 04 min 42 sec)
Heartbeat CPU 0 instructions: 62000433 cycles: 19106494 heartbeat IPC: 4.183 cumulative IPC: 1.59 (Simulation time: 00 hr 04 min 44 sec)
Heartbeat CPU 0 instructions: 62500434 cycles: 19245582 heartbeat IPC: 3.595 cumulative IPC: 1.626 (Simulation time: 00 hr 04 min 46 sec)
Heartbeat CPU 0 instructions: 63000436 cycles: 19379668 heartbeat IPC: 3.729 cumulative IPC: 1.662 (Simulation time: 00 hr 04 min 49 sec)
Heartbeat CPU 0 instructions: 63500436 cycles: 19528802 heartbeat IPC: 3.353 cumulative IPC: 1.694 (Simulation time: 00 hr 04 min 51 sec)
Heartbeat CPU 0 instructions: 64000440 cycles: 19683327 heartbeat IPC: 3.236 cumulative IPC: 1.723 (Simulation time: 00 hr 04 min 54 sec)
Heartbeat CPU 0 instructions: 64500442 cycles: 19807427 heartbeat IPC: 4.029 cumulative IPC: 1.758 (Simulation time: 00 hr 04 min 56 sec)
Heartbeat CPU 0 instructions: 65000443 cycles: 19938511 heartbeat IPC: 3.814 cumulative IPC: 1.79 (Simulation time: 00 hr 04 min 59 sec)
Heartbeat CPU 0 instructions: 65500446 cycles: 20061921 heartbeat IPC: 4.052 cumulative IPC: 1.823 (Simulation time: 00 hr 05 min 01 sec)
Heartbeat CPU 0 instructions: 66000447 cycles: 20192690 heartbeat IPC: 3.824 cumulative IPC: 1.853 (Simulation time: 00 hr 05 min 03 sec)
Heartbeat CPU 0 instructions: 66500449 cycles: 20312513 heartbeat IPC: 4.173 cumulative IPC: 1.885 (Simulation time: 00 hr 05 min 05 sec)
Heartbeat CPU 0 instructions: 67000451 cycles: 20441426 heartbeat IPC: 3.879 cumulative IPC: 1.914 (Simulation time: 00 hr 05 min 08 sec)
Heartbeat CPU 0 instructions: 67500455 cycles: 20562410 heartbeat IPC: 4.133 cumulative IPC: 1.943 (Simulation time: 00 hr 05 min 10 sec)
Heartbeat CPU 0 instructions: 68000455 cycles: 20691416 heartbeat IPC: 3.876 cumulative IPC: 1.971 (Simulation time: 00 hr 05 min 12 sec)
Heartbeat CPU 0 instructions: 68500456 cycles: 21317433 heartbeat IPC: 0.7987 cumulative IPC: 1.895 (Simulation time: 00 hr 05 min 19 sec)
Heartbeat CPU 0 instructions: 69000456 cycles: 21469666 heartbeat IPC: 3.284 cumulative IPC: 1.917 (Simulation time: 00 hr 05 min 22 sec)
Heartbeat CPU 0 instructions: 69500463 cycles: 21591050 heartbeat IPC: 4.119 cumulative IPC: 1.943 (Simulation time: 00 hr 05 min 24 sec)
Heartbeat CPU 0 instructions: 70000466 cycles: 21720118 heartbeat IPC: 3.874 cumulative IPC: 1.968 (Simulation time: 00 hr 05 min 26 sec)
Heartbeat CPU 0 instructions: 70500466 cycles: 21846740 heartbeat IPC: 3.949 cumulative IPC: 1.992 (Simulation time: 00 hr 05 min 29 sec)
Heartbeat CPU 0 instructions: 71000467 cycles: 21980876 heartbeat IPC: 3.728 cumulative IPC: 2.015 (Simulation time: 00 hr 05 min 31 sec)
Heartbeat CPU 0 instructions: 71500467 cycles: 22106335 heartbeat IPC: 3.985 cumulative IPC: 2.038 (Simulation time: 00 hr 05 min 33 sec)
Heartbeat CPU 0 instructions: 72000469 cycles: 22251099 heartbeat IPC: 3.454 cumulative IPC: 2.057 (Simulation time: 00 hr 05 min 36 sec)
Heartbeat CPU 0 instructions: 72500471 cycles: 22369087 heartbeat IPC: 4.238 cumulative IPC: 2.081 (Simulation time: 00 hr 05 min 38 sec)
Heartbeat CPU 0 instructions: 73000474 cycles: 22505742 heartbeat IPC: 3.659 cumulative IPC: 2.101 (Simulation time: 00 hr 05 min 41 sec)
Heartbeat CPU 0 instructions: 73500475 cycles: 22631833 heartbeat IPC: 3.965 cumulative IPC: 2.122 (Simulation time: 00 hr 05 min 43 sec)
Heartbeat CPU 0 instructions: 74000476 cycles: 22757385 heartbeat IPC: 3.982 cumulative IPC: 2.143 (Simulation time: 00 hr 05 min 45 sec)
Heartbeat CPU 0 instructions: 74500478 cycles: 22884200 heartbeat IPC: 3.943 cumulative IPC: 2.163 (Simulation time: 00 hr 05 min 48 sec)
Heartbeat CPU 0 instructions: 75000480 cycles: 23006576 heartbeat IPC: 4.086 cumulative IPC: 2.184 (Simulation time: 00 hr 05 min 50 sec)
Heartbeat CPU 0 instructions: 75500483 cycles: 23135669 heartbeat IPC: 3.873 cumulative IPC: 2.202 (Simulation time: 00 hr 05 min 52 sec)
Heartbeat CPU 0 instructions: 76000486 cycles: 23255185 heartbeat IPC: 4.184 cumulative IPC: 2.223 (Simulation time: 00 hr 05 min 55 sec)
Heartbeat CPU 0 instructions: 76500486 cycles: 23383183 heartbeat IPC: 3.906 cumulative IPC: 2.241 (Simulation time: 00 hr 05 min 57 sec)
Heartbeat CPU 0 instructions: 77000490 cycles: 23501875 heartbeat IPC: 4.213 cumulative IPC: 2.26 (Simulation time: 00 hr 05 min 59 sec)
Heartbeat CPU 0 instructions: 77500497 cycles: 23629742 heartbeat IPC: 3.91 cumulative IPC: 2.278 (Simulation time: 00 hr 06 min 02 sec)
Heartbeat CPU 0 instructions: 78000499 cycles: 23749604 heartbeat IPC: 4.171 cumulative IPC: 2.297 (Simulation time: 00 hr 06 min 04 sec)
Heartbeat CPU 0 instructions: 78500499 cycles: 24307168 heartbeat IPC: 0.8968 cumulative IPC: 2.235 (Simulation time: 00 hr 06 min 09 sec)
Heartbeat CPU 0 instructions: 79000501 cycles: 25184084 heartbeat IPC: 0.5702 cumulative IPC: 2.128 (Simulation time: 00 hr 06 min 17 sec)
Heartbeat CPU 0 instructions: 79500504 cycles: 25684520 heartbeat IPC: 0.9991 cumulative IPC: 2.088 (Simulation time: 00 hr 06 min 23 sec)
Heartbeat CPU 0 instructions: 80000507 cycles: 26107361 heartbeat IPC: 1.182 cumulative IPC: 2.062 (Simulation time: 00 hr 06 min 27 sec)
Heartbeat CPU 0 instructions: 80500510 cycles: 26268435 heartbeat IPC: 3.104 cumulative IPC: 2.073 (Simulation time: 00 hr 06 min 30 sec)
Heartbeat CPU 0 instructions: 81000517 cycles: 26391438 heartbeat IPC: 4.065 cumulative IPC: 2.09 (Simulation time: 00 hr 06 min 32 sec)
Heartbeat CPU 0 instructions: 81500518 cycles: 26526111 heartbeat IPC: 3.713 cumulative IPC: 2.104 (Simulation time: 00 hr 06 min 34 sec)
Heartbeat CPU 0 instructions: 82000519 cycles: 26653733 heartbeat IPC: 3.918 cumulative IPC: 2.12 (Simulation time: 00 hr 06 min 37 sec)
Heartbeat CPU 0 instructions: 82500523 cycles: 26785226 heartbeat IPC: 3.803 cumulative IPC: 2.134 (Simulation time: 00 hr 06 min 39 sec)
Heartbeat CPU 0 instructions: 83000523 cycles: 26903833 heartbeat IPC: 4.216 cumulative IPC: 2.15 (Simulation time: 00 hr 06 min 41 sec)
Heartbeat CPU 0 instructions: 83500524 cycles: 27034244 heartbeat IPC: 3.834 cumulative IPC: 2.165 (Simulation time: 00 hr 06 min 44 sec)
Heartbeat CPU 0 instructions: 84000526 cycles: 27152465 heartbeat IPC: 4.229 cumulative IPC: 2.18 (Simulation time: 00 hr 06 min 46 sec)
Heartbeat CPU 0 instructions: 84500528 cycles: 27282180 heartbeat IPC: 3.855 cumulative IPC: 2.194 (Simulation time: 00 hr 06 min 48 sec)
Heartbeat CPU 0 instructions: 85000535 cycles: 27408856 heartbeat IPC: 3.947 cumulative IPC: 2.208 (Simulation time: 00 hr 06 min 51 sec)
Heartbeat CPU 0 instructions: 85500535 cycles: 27533503 heartbeat IPC: 4.011 cumulative IPC: 2.222 (Simulation time: 00 hr 06 min 53 sec)
Heartbeat CPU 0 instructions: 86000542 cycles: 27661131 heartbeat IPC: 3.918 cumulative IPC: 2.235 (Simulation time: 00 hr 06 min 55 sec)
Heartbeat CPU 0 instructions: 86500544 cycles: 27781488 heartbeat IPC: 4.154 cumulative IPC: 2.25 (Simulation time: 00 hr 06 min 57 sec)
Heartbeat CPU 0 instructions: 87000547 cycles: 27909833 heartbeat IPC: 3.896 cumulative IPC: 2.263 (Simulation time: 00 hr 07 min 00 sec)
Heartbeat CPU 0 instructions: 87500547 cycles: 28028936 heartbeat IPC: 4.198 cumulative IPC: 2.277 (Simulation time: 00 hr 07 min 02 sec)
Heartbeat CPU 0 instructions: 88000550 cycles: 28157211 heartbeat IPC: 3.898 cumulative IPC: 2.289 (Simulation time: 00 hr 07 min 04 sec)
Heartbeat CPU 0 instructions: 88500551 cycles: 28280532 heartbeat IPC: 4.054 cumulative IPC: 2.302 (Simulation time: 00 hr 07 min 07 sec)
Heartbeat CPU 0 instructions: 89000552 cycles: 28428608 heartbeat IPC: 3.377 cumulative IPC: 2.312 (Simulation time: 00 hr 07 min 09 sec)
Heartbeat CPU 0 instructions: 89500556 cycles: 28547618 heartbeat IPC: 4.201 cumulative IPC: 2.325 (Simulation time: 00 hr 07 min 12 sec)
Heartbeat CPU 0 instructions: 90000561 cycles: 29744755 heartbeat IPC: 0.4177 cumulative IPC: 2.199 (Simulation time: 00 hr 07 min 22 sec)
Heartbeat CPU 0 instructions: 90500561 cycles: 30174118 heartbeat IPC: 1.165 cumulative IPC: 2.175 (Simulation time: 00 hr 07 min 27 sec)
Heartbeat CPU 0 instructions: 91000564 cycles: 30297142 heartbeat IPC: 4.064 cumulative IPC: 2.188 (Simulation time: 00 hr 07 min 29 sec)
Heartbeat CPU 0 instructions: 91500564 cycles: 30430583 heartbeat IPC: 3.747 cumulative IPC: 2.199 (Simulation time: 00 hr 07 min 32 sec)
Heartbeat CPU 0 instructions: 92000567 cycles: 30551704 heartbeat IPC: 4.128 cumulative IPC: 2.211 (Simulation time: 00 hr 07 min 34 sec)
Heartbeat CPU 0 instructions: 92500571 cycles: 30688529 heartbeat IPC: 3.654 cumulative IPC: 2.222 (Simulation time: 00 hr 07 min 36 sec)
Heartbeat CPU 0 instructions: 93000577 cycles: 30809385 heartbeat IPC: 4.137 cumulative IPC: 2.234 (Simulation time: 00 hr 07 min 39 sec)
Heartbeat CPU 0 instructions: 93500581 cycles: 30957743 heartbeat IPC: 3.37 cumulative IPC: 2.242 (Simulation time: 00 hr 07 min 41 sec)
Heartbeat CPU 0 instructions: 94000584 cycles: 31102824 heartbeat IPC: 3.446 cumulative IPC: 2.251 (Simulation time: 00 hr 07 min 44 sec)
Heartbeat CPU 0 instructions: 94500586 cycles: 31230571 heartbeat IPC: 3.914 cumulative IPC: 2.262 (Simulation time: 00 hr 07 min 46 sec)
Heartbeat CPU 0 instructions: 95000586 cycles: 31359335 heartbeat IPC: 3.883 cumulative IPC: 2.273 (Simulation time: 00 hr 07 min 48 sec)
Heartbeat CPU 0 instructions: 95500589 cycles: 31488369 heartbeat IPC: 3.875 cumulative IPC: 2.283 (Simulation time: 00 hr 07 min 51 sec)
Heartbeat CPU 0 instructions: 96000589 cycles: 31641052 heartbeat IPC: 3.275 cumulative IPC: 2.29 (Simulation time: 00 hr 07 min 53 sec)
Heartbeat CPU 0 instructions: 96500590 cycles: 31774224 heartbeat IPC: 3.755 cumulative IPC: 2.3 (Simulation time: 00 hr 07 min 55 sec)
Heartbeat CPU 0 instructions: 97000592 cycles: 31903053 heartbeat IPC: 3.881 cumulative IPC: 2.31 (Simulation time: 00 hr 07 min 58 sec)
Heartbeat CPU 0 instructions: 97500598 cycles: 32027278 heartbeat IPC: 4.025 cumulative IPC: 2.32 (Simulation time: 00 hr 08 min 00 sec)
Heartbeat CPU 0 instructions: 98000598 cycles: 32157916 heartbeat IPC: 3.827 cumulative IPC: 2.33 (Simulation time: 00 hr 08 min 02 sec)
Heartbeat CPU 0 instructions: 98500601 cycles: 32275353 heartbeat IPC: 4.258 cumulative IPC: 2.341 (Simulation time: 00 hr 08 min 05 sec)
Heartbeat CPU 0 instructions: 99000605 cycles: 32407830 heartbeat IPC: 3.774 cumulative IPC: 2.35 (Simulation time: 00 hr 08 min 07 sec)
Heartbeat CPU 0 instructions: 99500609 cycles: 32525057 heartbeat IPC: 4.265 cumulative IPC: 2.361 (Simulation time: 00 hr 08 min 09 sec)
Heartbeat CPU 0 instructions: 100000611 cycles: 32686352 heartbeat IPC: 3.1 cumulative IPC: 2.366 (Simulation time: 00 hr 08 min 12 sec)
Heartbeat CPU 0 instructions: 100500614 cycles: 33331924 heartbeat IPC: 0.7745 cumulative IPC: 2.319 (Simulation time: 00 hr 08 min 18 sec)
Heartbeat CPU 0 instructions: 101000616 cycles: 33487031 heartbeat IPC: 3.224 cumulative IPC: 2.326 (Simulation time: 00 hr 08 min 21 sec)
Heartbeat CPU 0 instructions: 101500623 cycles: 33616945 heartbeat IPC: 3.849 cumulative IPC: 2.335 (Simulation time: 00 hr 08 min 23 sec)
Heartbeat CPU 0 instructions: 102000623 cycles: 33746201 heartbeat IPC: 3.868 cumulative IPC: 2.344 (Simulation time: 00 hr 08 min 25 sec)
Heartbeat CPU 0 instructions: 102500624 cycles: 33869045 heartbeat IPC: 4.07 cumulative IPC: 2.353 (Simulation time: 00 hr 08 min 28 sec)
Heartbeat CPU 0 instructions: 103000625 cycles: 33998587 heartbeat IPC: 3.86 cumulative IPC: 2.362 (Simulation time: 00 hr 08 min 30 sec)
Heartbeat CPU 0 instructions: 103500628 cycles: 34120403 heartbeat IPC: 4.105 cumulative IPC: 2.371 (Simulation time: 00 hr 08 min 32 sec)
Heartbeat CPU 0 instructions: 104000631 cycles: 34250787 heartbeat IPC: 3.835 cumulative IPC: 2.38 (Simulation time: 00 hr 08 min 35 sec)
Heartbeat CPU 0 instructions: 104500631 cycles: 34368691 heartbeat IPC: 4.241 cumulative IPC: 2.389 (Simulation time: 00 hr 08 min 37 sec)
Heartbeat CPU 0 instructions: 105000635 cycles: 34499902 heartbeat IPC: 3.811 cumulative IPC: 2.397 (Simulation time: 00 hr 08 min 39 sec)
Heartbeat CPU 0 instructions: 105500636 cycles: 34617662 heartbeat IPC: 4.246 cumulative IPC: 2.407 (Simulation time: 00 hr 08 min 41 sec)
Heartbeat CPU 0 instructions: 106000641 cycles: 34761130 heartbeat IPC: 3.485 cumulative IPC: 2.413 (Simulation time: 00 hr 08 min 44 sec)
Heartbeat CPU 0 instructions: 106500646 cycles: 34900214 heartbeat IPC: 3.595 cumulative IPC: 2.42 (Simulation time: 00 hr 08 min 46 sec)
Heartbeat CPU 0 instructions: 107000646 cycles: 35047066 heartbeat IPC: 3.405 cumulative IPC: 2.427 (Simulation time: 00 hr 08 min 49 sec)
Heartbeat CPU 0 instructions: 107500650 cycles: 35193967 heartbeat IPC: 3.404 cumulative IPC: 2.433 (Simulation time: 00 hr 08 min 51 sec)
Heartbeat CPU 0 instructions: 108000651 cycles: 35336221 heartbeat IPC: 3.515 cumulative IPC: 2.439 (Simulation time: 00 hr 08 min 54 sec)
Heartbeat CPU 0 instructions: 108500656 cycles: 35477243 heartbeat IPC: 3.546 cumulative IPC: 2.446 (Simulation time: 00 hr 08 min 56 sec)
Heartbeat CPU 0 instructions: 109000656 cycles: 35597610 heartbeat IPC: 4.154 cumulative IPC: 2.454 (Simulation time: 00 hr 08 min 59 sec)
Heartbeat CPU 0 instructions: 109500658 cycles: 35729479 heartbeat IPC: 3.792 cumulative IPC: 2.462 (Simulation time: 00 hr 09 min 01 sec)
Heartbeat CPU 0 instructions: 110000659 cycles: 35847834 heartbeat IPC: 4.225 cumulative IPC: 2.47 (Simulation time: 00 hr 09 min 03 sec)
Heartbeat CPU 0 instructions: 110500665 cycles: 36126640 heartbeat IPC: 1.793 cumulative IPC: 2.462 (Simulation time: 00 hr 09 min 07 sec)
Heartbeat CPU 0 instructions: 111000666 cycles: 38327149 heartbeat IPC: 0.2272 cumulative IPC: 2.279 (Simulation time: 00 hr 09 min 27 sec)
Heartbeat CPU 0 instructions: 111500668 cycles: 38727212 heartbeat IPC: 1.25 cumulative IPC: 2.264 (Simulation time: 00 hr 09 min 32 sec)
Heartbeat CPU 0 instructions: 112000669 cycles: 39426300 heartbeat IPC: 0.7152 cumulative IPC: 2.225 (Simulation time: 00 hr 09 min 38 sec)
Heartbeat CPU 0 instructions: 112500669 cycles: 41122778 heartbeat IPC: 0.2947 cumulative IPC: 2.114 (Simulation time: 00 hr 09 min 51 sec)
Heartbeat CPU 0 instructions: 113000671 cycles: 42000340 heartbeat IPC: 0.5698 cumulative IPC: 2.069 (Simulation time: 00 hr 09 min 58 sec)
Heartbeat CPU 0 instructions: 113500673 cycles: 43578484 heartbeat IPC: 0.3168 cumulative IPC: 1.983 (Simulation time: 00 hr 10 min 12 sec)
Heartbeat CPU 0 instructions: 114000680 cycles: 44291329 heartbeat IPC: 0.7014 cumulative IPC: 1.955 (Simulation time: 00 hr 10 min 18 sec)
Heartbeat CPU 0 instructions: 114500682 cycles: 44587762 heartbeat IPC: 1.687 cumulative IPC: 1.953 (Simulation time: 00 hr 10 min 22 sec)
Heartbeat CPU 0 instructions: 115000683 cycles: 44845822 heartbeat IPC: 1.938 cumulative IPC: 1.953 (Simulation time: 00 hr 10 min 25 sec)
Heartbeat CPU 0 instructions: 115500688 cycles: 45113688 heartbeat IPC: 1.867 cumulative IPC: 1.952 (Simulation time: 00 hr 10 min 28 sec)
Heartbeat CPU 0 instructions: 116000690 cycles: 45362615 heartbeat IPC: 2.009 cumulative IPC: 1.952 (Simulation time: 00 hr 10 min 31 sec)
Heartbeat CPU 0 instructions: 116500692 cycles: 45995114 heartbeat IPC: 0.7905 cumulative IPC: 1.931 (Simulation time: 00 hr 10 min 37 sec)
Heartbeat CPU 0 instructions: 117000693 cycles: 46341434 heartbeat IPC: 1.444 cumulative IPC: 1.926 (Simulation time: 00 hr 10 min 41 sec)
Heartbeat CPU 0 instructions: 117500697 cycles: 46587786 heartbeat IPC: 2.03 cumulative IPC: 1.927 (Simulation time: 00 hr 10 min 44 sec)
Heartbeat CPU 0 instructions: 118000698 cycles: 46825209 heartbeat IPC: 2.106 cumulative IPC: 1.928 (Simulation time: 00 hr 10 min 47 sec)
Heartbeat CPU 0 instructions: 118500705 cycles: 47053226 heartbeat IPC: 2.193 cumulative IPC: 1.93 (Simulation time: 00 hr 10 min 50 sec)
Heartbeat CPU 0 instructions: 119000709 cycles: 47317114 heartbeat IPC: 1.895 cumulative IPC: 1.93 (Simulation time: 00 hr 10 min 54 sec)
Heartbeat CPU 0 instructions: 119500711 cycles: 47553108 heartbeat IPC: 2.119 cumulative IPC: 1.931 (Simulation time: 00 hr 10 min 57 sec)
Heartbeat CPU 0 instructions: 120000711 cycles: 47784476 heartbeat IPC: 2.161 cumulative IPC: 1.932 (Simulation time: 00 hr 11 min 00 sec)
Heartbeat CPU 0 instructions: 120500716 cycles: 48020195 heartbeat IPC: 2.121 cumulative IPC: 1.933 (Simulation time: 00 hr 11 min 03 sec)
Heartbeat CPU 0 instructions: 121000718 cycles: 48240170 heartbeat IPC: 2.273 cumulative IPC: 1.936 (Simulation time: 00 hr 11 min 06 sec)
Heartbeat CPU 0 instructions: 121500720 cycles: 48956069 heartbeat IPC: 0.6984 cumulative IPC: 1.912 (Simulation time: 00 hr 11 min 12 sec)
Heartbeat CPU 0 instructions: 122000721 cycles: 49684985 heartbeat IPC: 0.686 cumulative IPC: 1.888 (Simulation time: 00 hr 11 min 18 sec)
Heartbeat CPU 0 instructions: 122500727 cycles: 50388959 heartbeat IPC: 0.7103 cumulative IPC: 1.867 (Simulation time: 00 hr 11 min 24 sec)
Heartbeat CPU 0 instructions: 123000728 cycles: 51147485 heartbeat IPC: 0.6592 cumulative IPC: 1.844 (Simulation time: 00 hr 11 min 32 sec)
Heartbeat CPU 0 instructions: 123500730 cycles: 52950474 heartbeat IPC: 0.2773 cumulative IPC: 1.776 (Simulation time: 00 hr 11 min 45 sec)
Heartbeat CPU 0 instructions: 124000734 cycles: 53984951 heartbeat IPC: 0.4833 cumulative IPC: 1.744 (Simulation time: 00 hr 11 min 53 sec)
Heartbeat CPU 0 instructions: 124500735 cycles: 55477340 heartbeat IPC: 0.335 cumulative IPC: 1.696 (Simulation time: 00 hr 12 min 04 sec)
Heartbeat CPU 0 instructions: 125000736 cycles: 56022046 heartbeat IPC: 0.9179 cumulative IPC: 1.687 (Simulation time: 00 hr 12 min 09 sec)
Heartbeat CPU 0 instructions: 125500736 cycles: 57034424 heartbeat IPC: 0.4939 cumulative IPC: 1.66 (Simulation time: 00 hr 12 min 19 sec)
Heartbeat CPU 0 instructions: 126000739 cycles: 57758333 heartbeat IPC: 0.6907 cumulative IPC: 1.645 (Simulation time: 00 hr 12 min 25 sec)
Heartbeat CPU 0 instructions: 126500739 cycles: 57881167 heartbeat IPC: 4.071 cumulative IPC: 1.651 (Simulation time: 00 hr 12 min 28 sec)
Heartbeat CPU 0 instructions: 127000740 cycles: 58030005 heartbeat IPC: 3.359 cumulative IPC: 1.657 (Simulation time: 00 hr 12 min 30 sec)
Heartbeat CPU 0 instructions: 127500743 cycles: 58152525 heartbeat IPC: 4.081 cumulative IPC: 1.663 (Simulation time: 00 hr 12 min 32 sec)
Heartbeat CPU 0 instructions: 128000747 cycles: 58289847 heartbeat IPC: 3.641 cumulative IPC: 1.669 (Simulation time: 00 hr 12 min 35 sec)
Heartbeat CPU 0 instructions: 128500749 cycles: 58409376 heartbeat IPC: 4.183 cumulative IPC: 1.675 (Simulation time: 00 hr 12 min 37 sec)
Heartbeat CPU 0 instructions: 129000755 cycles: 58541297 heartbeat IPC: 3.79 cumulative IPC: 1.681 (Simulation time: 00 hr 12 min 39 sec)
Heartbeat CPU 0 instructions: 129500757 cycles: 58677796 heartbeat IPC: 3.663 cumulative IPC: 1.687 (Simulation time: 00 hr 12 min 42 sec)
Heartbeat CPU 0 instructions: 130000759 cycles: 58799730 heartbeat IPC: 4.101 cumulative IPC: 1.693 (Simulation time: 00 hr 12 min 44 sec)
Heartbeat CPU 0 instructions: 130500760 cycles: 58927902 heartbeat IPC: 3.901 cumulative IPC: 1.699 (Simulation time: 00 hr 12 min 46 sec)
Heartbeat CPU 0 instructions: 131000761 cycles: 59050920 heartbeat IPC: 4.064 cumulative IPC: 1.706 (Simulation time: 00 hr 12 min 49 sec)
Heartbeat CPU 0 instructions: 131500765 cycles: 59179457 heartbeat IPC: 3.89 cumulative IPC: 1.711 (Simulation time: 00 hr 12 min 51 sec)
Heartbeat CPU 0 instructions: 132000766 cycles: 59300629 heartbeat IPC: 4.126 cumulative IPC: 1.718 (Simulation time: 00 hr 12 min 53 sec)
Heartbeat CPU 0 instructions: 132500768 cycles: 59430827 heartbeat IPC: 3.84 cumulative IPC: 1.723 (Simulation time: 00 hr 12 min 56 sec)
Heartbeat CPU 0 instructions: 133000769 cycles: 59550292 heartbeat IPC: 4.185 cumulative IPC: 1.729 (Simulation time: 00 hr 12 min 58 sec)
Heartbeat CPU 0 instructions: 133500772 cycles: 59683408 heartbeat IPC: 3.756 cumulative IPC: 1.735 (Simulation time: 00 hr 13 min 00 sec)
Heartbeat CPU 0 instructions: 134000775 cycles: 59801138 heartbeat IPC: 4.247 cumulative IPC: 1.741 (Simulation time: 00 hr 13 min 03 sec)
Heartbeat CPU 0 instructions: 134500778 cycles: 60504084 heartbeat IPC: 0.7113 cumulative IPC: 1.726 (Simulation time: 00 hr 13 min 09 sec)
Heartbeat CPU 0 instructions: 135000778 cycles: 61263912 heartbeat IPC: 0.658 cumulative IPC: 1.71 (Simulation time: 00 hr 13 min 16 sec)
Heartbeat CPU 0 instructions: 135500780 cycles: 61474514 heartbeat IPC: 2.374 cumulative IPC: 1.713 (Simulation time: 00 hr 13 min 19 sec)
Heartbeat CPU 0 instructions: 136000783 cycles: 61607418 heartbeat IPC: 3.762 cumulative IPC: 1.718 (Simulation time: 00 hr 13 min 21 sec)
Heartbeat CPU 0 instructions: 136500783 cycles: 61729758 heartbeat IPC: 4.087 cumulative IPC: 1.724 (Simulation time: 00 hr 13 min 24 sec)
Heartbeat CPU 0 instructions: 137000784 cycles: 61859881 heartbeat IPC: 3.843 cumulative IPC: 1.73 (Simulation time: 00 hr 13 min 26 sec)
Heartbeat CPU 0 instructions: 137500785 cycles: 61981392 heartbeat IPC: 4.115 cumulative IPC: 1.735 (Simulation time: 00 hr 13 min 28 sec)
Heartbeat CPU 0 instructions: 138000788 cycles: 62112870 heartbeat IPC: 3.803 cumulative IPC: 1.741 (Simulation time: 00 hr 13 min 31 sec)
Heartbeat CPU 0 instructions: 138500789 cycles: 62233129 heartbeat IPC: 4.158 cumulative IPC: 1.746 (Simulation time: 00 hr 13 min 33 sec)
Heartbeat CPU 0 instructions: 139000791 cycles: 62362316 heartbeat IPC: 3.87 cumulative IPC: 1.752 (Simulation time: 00 hr 13 min 35 sec)
Heartbeat CPU 0 instructions: 139500795 cycles: 62483903 heartbeat IPC: 4.112 cumulative IPC: 1.757 (Simulation time: 00 hr 13 min 38 sec)
Heartbeat CPU 0 instructions: 140000797 cycles: 62615924 heartbeat IPC: 3.787 cumulative IPC: 1.763 (Simulation time: 00 hr 13 min 40 sec)
Heartbeat CPU 0 instructions: 140500798 cycles: 62745596 heartbeat IPC: 3.856 cumulative IPC: 1.768 (Simulation time: 00 hr 13 min 42 sec)
Heartbeat CPU 0 instructions: 141000798 cycles: 62884148 heartbeat IPC: 3.609 cumulative IPC: 1.773 (Simulation time: 00 hr 13 min 45 sec)
Heartbeat CPU 0 instructions: 141500802 cycles: 63011782 heartbeat IPC: 3.917 cumulative IPC: 1.778 (Simulation time: 00 hr 13 min 47 sec)
Heartbeat CPU 0 instructions: 142000804 cycles: 63166560 heartbeat IPC: 3.23 cumulative IPC: 1.783 (Simulation time: 00 hr 13 min 50 sec)
Heartbeat CPU 0 instructions: 142500806 cycles: 63286501 heartbeat IPC: 4.169 cumulative IPC: 1.788 (Simulation time: 00 hr 13 min 52 sec)
Heartbeat CPU 0 instructions: 143000808 cycles: 63420245 heartbeat IPC: 3.739 cumulative IPC: 1.793 (Simulation time: 00 hr 13 min 54 sec)
Heartbeat CPU 0 instructions: 143500809 cycles: 63550751 heartbeat IPC: 3.831 cumulative IPC: 1.798 (Simulation time: 00 hr 13 min 57 sec)
Heartbeat CPU 0 instructions: 144000809 cycles: 63670981 heartbeat IPC: 4.159 cumulative IPC: 1.804 (Simulation time: 00 hr 13 min 59 sec)
Heartbeat CPU 0 instructions: 144500812 cycles: 63797577 heartbeat IPC: 3.95 cumulative IPC: 1.809 (Simulation time: 00 hr 14 min 02 sec)
Heartbeat CPU 0 instructions: 145000816 cycles: 63917023 heartbeat IPC: 4.186 cumulative IPC: 1.814 (Simulation time: 00 hr 14 min 04 sec)
Heartbeat CPU 0 instructions: 145500816 cycles: 65278539 heartbeat IPC: 0.3672 cumulative IPC: 1.778 (Simulation time: 00 hr 14 min 16 sec)
Heartbeat CPU 0 instructions: 146000816 cycles: 65418484 heartbeat IPC: 3.573 cumulative IPC: 1.782 (Simulation time: 00 hr 14 min 18 sec)
Heartbeat CPU 0 instructions: 146500822 cycles: 65537593 heartbeat IPC: 4.198 cumulative IPC: 1.788 (Simulation time: 00 hr 14 min 21 sec)
Heartbeat CPU 0 instructions: 147000822 cycles: 65677931 heartbeat IPC: 3.563 cumulative IPC: 1.792 (Simulation time: 00 hr 14 min 23 sec)
Heartbeat CPU 0 instructions: 147500824 cycles: 65796322 heartbeat IPC: 4.223 cumulative IPC: 1.798 (Simulation time: 00 hr 14 min 25 sec)
Heartbeat CPU 0 instructions: 148000824 cycles: 65936739 heartbeat IPC: 3.561 cumulative IPC: 1.802 (Simulation time: 00 hr 14 min 28 sec)
Heartbeat CPU 0 instructions: 148500824 cycles: 66055573 heartbeat IPC: 4.208 cumulative IPC: 1.807 (Simulation time: 00 hr 14 min 30 sec)
Heartbeat CPU 0 instructions: 149000829 cycles: 66185109 heartbeat IPC: 3.86 cumulative IPC: 1.812 (Simulation time: 00 hr 14 min 33 sec)
Heartbeat CPU 0 instructions: 149500831 cycles: 66313988 heartbeat IPC: 3.88 cumulative IPC: 1.817 (Simulation time: 00 hr 14 min 35 sec)
Heartbeat CPU 0 instructions: 150000835 cycles: 66434482 heartbeat IPC: 4.15 cumulative IPC: 1.822 (Simulation time: 00 hr 14 min 37 sec)
Heartbeat CPU 0 instructions: 150500836 cycles: 66563976 heartbeat IPC: 3.861 cumulative IPC: 1.827 (Simulation time: 00 hr 14 min 39 sec)
Heartbeat CPU 0 instructions: 151000842 cycles: 66684376 heartbeat IPC: 4.153 cumulative IPC: 1.832 (Simulation time: 00 hr 14 min 42 sec)
Heartbeat CPU 0 instructions: 151500843 cycles: 66811415 heartbeat IPC: 3.936 cumulative IPC: 1.837 (Simulation time: 00 hr 14 min 44 sec)
Heartbeat CPU 0 instructions: 152000849 cycles: 66939144 heartbeat IPC: 3.915 cumulative IPC: 1.842 (Simulation time: 00 hr 14 min 46 sec)
Heartbeat CPU 0 instructions: 152500851 cycles: 67076514 heartbeat IPC: 3.64 cumulative IPC: 1.846 (Simulation time: 00 hr 14 min 49 sec)
Heartbeat CPU 0 instructions: 153000852 cycles: 67194393 heartbeat IPC: 4.242 cumulative IPC: 1.851 (Simulation time: 00 hr 14 min 51 sec)
Heartbeat CPU 0 instructions: 153500854 cycles: 67326888 heartbeat IPC: 3.774 cumulative IPC: 1.856 (Simulation time: 00 hr 14 min 53 sec)
Heartbeat CPU 0 instructions: 154000854 cycles: 67446691 heartbeat IPC: 4.174 cumulative IPC: 1.861 (Simulation time: 00 hr 14 min 56 sec)
Heartbeat CPU 0 instructions: 154500855 cycles: 67575846 heartbeat IPC: 3.871 cumulative IPC: 1.865 (Simulation time: 00 hr 14 min 58 sec)
Heartbeat CPU 0 instructions: 155000859 cycles: 67693104 heartbeat IPC: 4.264 cumulative IPC: 1.87 (Simulation time: 00 hr 15 min 00 sec)
Heartbeat CPU 0 instructions: 155500860 cycles: 68125442 heartbeat IPC: 1.157 cumulative IPC: 1.865 (Simulation time: 00 hr 15 min 05 sec)
Heartbeat CPU 0 instructions: 156000862 cycles: 68725952 heartbeat IPC: 0.8326 cumulative IPC: 1.854 (Simulation time: 00 hr 15 min 11 sec)
Heartbeat CPU 0 instructions: 156500866 cycles: 68874768 heartbeat IPC: 3.36 cumulative IPC: 1.858 (Simulation time: 00 hr 15 min 14 sec)
Heartbeat CPU 0 instructions: 157000871 cycles: 69003648 heartbeat IPC: 3.88 cumulative IPC: 1.863 (Simulation time: 00 hr 15 min 16 sec)
Heartbeat CPU 0 instructions: 157500871 cycles: 69158473 heartbeat IPC: 3.229 cumulative IPC: 1.866 (Simulation time: 00 hr 15 min 19 sec)
Heartbeat CPU 0 instructions: 158000871 cycles: 69281005 heartbeat IPC: 4.081 cumulative IPC: 1.871 (Simulation time: 00 hr 15 min 21 sec)
Heartbeat CPU 0 instructions: 158500873 cycles: 69414368 heartbeat IPC: 3.749 cumulative IPC: 1.875 (Simulation time: 00 hr 15 min 23 sec)
Heartbeat CPU 0 instructions: 159000875 cycles: 69536249 heartbeat IPC: 4.102 cumulative IPC: 1.88 (Simulation time: 00 hr 15 min 26 sec)
Heartbeat CPU 0 instructions: 159500876 cycles: 69666303 heartbeat IPC: 3.845 cumulative IPC: 1.884 (Simulation time: 00 hr 15 min 28 sec)
Heartbeat CPU 0 instructions: 160000877 cycles: 69783781 heartbeat IPC: 4.256 cumulative IPC: 1.889 (Simulation time: 00 hr 15 min 30 sec)
Heartbeat CPU 0 instructions: 160500877 cycles: 69912784 heartbeat IPC: 3.876 cumulative IPC: 1.894 (Simulation time: 00 hr 15 min 33 sec)
Heartbeat CPU 0 instructions: 161000881 cycles: 70030125 heartbeat IPC: 4.261 cumulative IPC: 1.898 (Simulation time: 00 hr 15 min 35 sec)
Heartbeat CPU 0 instructions: 161500881 cycles: 70158793 heartbeat IPC: 3.886 cumulative IPC: 1.903 (Simulation time: 00 hr 15 min 37 sec)
Heartbeat CPU 0 instructions: 162000882 cycles: 70275644 heartbeat IPC: 4.279 cumulative IPC: 1.907 (Simulation time: 00 hr 15 min 40 sec)
Heartbeat CPU 0 instructions: 162500882 cycles: 70406923 heartbeat IPC: 3.809 cumulative IPC: 1.912 (Simulation time: 00 hr 15 min 42 sec)
Heartbeat CPU 0 instructions: 163000884 cycles: 70535348 heartbeat IPC: 3.893 cumulative IPC: 1.916 (Simulation time: 00 hr 15 min 44 sec)
Heartbeat CPU 0 instructions: 163500885 cycles: 70655036 heartbeat IPC: 4.178 cumulative IPC: 1.921 (Simulation time: 00 hr 15 min 46 sec)
Heartbeat CPU 0 instructions: 164000885 cycles: 70781571 heartbeat IPC: 3.951 cumulative IPC: 1.925 (Simulation time: 00 hr 15 min 49 sec)
Heartbeat CPU 0 instructions: 164500889 cycles: 70901485 heartbeat IPC: 4.17 cumulative IPC: 1.929 (Simulation time: 00 hr 15 min 51 sec)
Heartbeat CPU 0 instructions: 165000889 cycles: 71028561 heartbeat IPC: 3.935 cumulative IPC: 1.934 (Simulation time: 00 hr 15 min 53 sec)
Heartbeat CPU 0 instructions: 165500891 cycles: 71147061 heartbeat IPC: 4.219 cumulative IPC: 1.938 (Simulation time: 00 hr 15 min 56 sec)
Heartbeat CPU 0 instructions: 166000891 cycles: 71881077 heartbeat IPC: 0.6812 cumulative IPC: 1.923 (Simulation time: 00 hr 16 min 02 sec)
Heartbeat CPU 0 instructions: 166500891 cycles: 72005224 heartbeat IPC: 4.027 cumulative IPC: 1.927 (Simulation time: 00 hr 16 min 05 sec)
Heartbeat CPU 0 instructions: 167000891 cycles: 72133434 heartbeat IPC: 3.9 cumulative IPC: 1.931 (Simulation time: 00 hr 16 min 07 sec)
Heartbeat CPU 0 instructions: 167500895 cycles: 72270111 heartbeat IPC: 3.658 cumulative IPC: 1.935 (Simulation time: 00 hr 16 min 09 sec)
Heartbeat CPU 0 instructions: 168000896 cycles: 72401681 heartbeat IPC: 3.8 cumulative IPC: 1.939 (Simulation time: 00 hr 16 min 12 sec)
Heartbeat CPU 0 instructions: 168500897 cycles: 72528310 heartbeat IPC: 3.949 cumulative IPC: 1.944 (Simulation time: 00 hr 16 min 14 sec)
Heartbeat CPU 0 instructions: 169000901 cycles: 72663278 heartbeat IPC: 3.705 cumulative IPC: 1.947 (Simulation time: 00 hr 16 min 17 sec)
Heartbeat CPU 0 instructions: 169500903 cycles: 72783594 heartbeat IPC: 4.156 cumulative IPC: 1.952 (Simulation time: 00 hr 16 min 19 sec)
Heartbeat CPU 0 instructions: 170000903 cycles: 72916717 heartbeat IPC: 3.756 cumulative IPC: 1.956 (Simulation time: 00 hr 16 min 21 sec)
Heartbeat CPU 0 instructions: 170500903 cycles: 73043881 heartbeat IPC: 3.932 cumulative IPC: 1.96 (Simulation time: 00 hr 16 min 24 sec)
Heartbeat CPU 0 instructions: 171000903 cycles: 73176419 heartbeat IPC: 3.773 cumulative IPC: 1.964 (Simulation time: 00 hr 16 min 26 sec)
Heartbeat CPU 0 instructions: 171500904 cycles: 73293761 heartbeat IPC: 4.261 cumulative IPC: 1.968 (Simulation time: 00 hr 16 min 28 sec)
Heartbeat CPU 0 instructions: 172000904 cycles: 73437026 heartbeat IPC: 3.49 cumulative IPC: 1.972 (Simulation time: 00 hr 16 min 31 sec)
Heartbeat CPU 0 instructions: 172500904 cycles: 73567771 heartbeat IPC: 3.824 cumulative IPC: 1.975 (Simulation time: 00 hr 16 min 33 sec)
Heartbeat CPU 0 instructions: 173000906 cycles: 73706179 heartbeat IPC: 3.613 cumulative IPC: 1.979 (Simulation time: 00 hr 16 min 35 sec)
Heartbeat CPU 0 instructions: 173500908 cycles: 73835203 heartbeat IPC: 3.875 cumulative IPC: 1.983 (Simulation time: 00 hr 16 min 38 sec)
Heartbeat CPU 0 instructions: 174000910 cycles: 73958742 heartbeat IPC: 4.047 cumulative IPC: 1.987 (Simulation time: 00 hr 16 min 40 sec)
Heartbeat CPU 0 instructions: 174500912 cycles: 74088220 heartbeat IPC: 3.862 cumulative IPC: 1.991 (Simulation time: 00 hr 16 min 42 sec)
Heartbeat CPU 0 instructions: 175000916 cycles: 74207426 heartbeat IPC: 4.194 cumulative IPC: 1.995 (Simulation time: 00 hr 16 min 45 sec)
Heartbeat CPU 0 instructions: 175500918 cycles: 74334939 heartbeat IPC: 3.921 cumulative IPC: 1.999 (Simulation time: 00 hr 16 min 47 sec)
Heartbeat CPU 0 instructions: 176000919 cycles: 74950443 heartbeat IPC: 0.8123 cumulative IPC: 1.988 (Simulation time: 00 hr 16 min 53 sec)
Heartbeat CPU 0 instructions: 176500925 cycles: 75639105 heartbeat IPC: 0.7261 cumulative IPC: 1.974 (Simulation time: 00 hr 16 min 59 sec)
Heartbeat CPU 0 instructions: 177000925 cycles: 76088456 heartbeat IPC: 1.113 cumulative IPC: 1.968 (Simulation time: 00 hr 17 min 04 sec)
Heartbeat CPU 0 instructions: 177500925 cycles: 76214364 heartbeat IPC: 3.971 cumulative IPC: 1.972 (Simulation time: 00 hr 17 min 06 sec)
Heartbeat CPU 0 instructions: 178000930 cycles: 76343928 heartbeat IPC: 3.859 cumulative IPC: 1.976 (Simulation time: 00 hr 17 min 09 sec)
Heartbeat CPU 0 instructions: 178500931 cycles: 76467552 heartbeat IPC: 4.045 cumulative IPC: 1.98 (Simulation time: 00 hr 17 min 11 sec)
Heartbeat CPU 0 instructions: 179000932 cycles: 76596051 heartbeat IPC: 3.891 cumulative IPC: 1.983 (Simulation time: 00 hr 17 min 13 sec)
Heartbeat CPU 0 instructions: 179500935 cycles: 76715841 heartbeat IPC: 4.174 cumulative IPC: 1.987 (Simulation time: 00 hr 17 min 15 sec)
Heartbeat CPU 0 instructions: 180000937 cycles: 76844914 heartbeat IPC: 3.874 cumulative IPC: 1.991 (Simulation time: 00 hr 17 min 18 sec)
Heartbeat CPU 0 instructions: 180500943 cycles: 76963477 heartbeat IPC: 4.217 cumulative IPC: 1.995 (Simulation time: 00 hr 17 min 20 sec)
Heartbeat CPU 0 instructions: 181000945 cycles: 77093736 heartbeat IPC: 3.839 cumulative IPC: 1.999 (Simulation time: 00 hr 17 min 22 sec)
Heartbeat CPU 0 instructions: 181500951 cycles: 77211252 heartbeat IPC: 4.255 cumulative IPC: 2.003 (Simulation time: 00 hr 17 min 25 sec)
Heartbeat CPU 0 instructions: 182000953 cycles: 77340572 heartbeat IPC: 3.866 cumulative IPC: 2.007 (Simulation time: 00 hr 17 min 27 sec)
Heartbeat CPU 0 instructions: 182500954 cycles: 77458303 heartbeat IPC: 4.247 cumulative IPC: 2.011 (Simulation time: 00 hr 17 min 29 sec)
Heartbeat CPU 0 instructions: 183000954 cycles: 77587244 heartbeat IPC: 3.878 cumulative IPC: 2.014 (Simulation time: 00 hr 17 min 31 sec)
Heartbeat CPU 0 instructions: 183500954 cycles: 77704303 heartbeat IPC: 4.271 cumulative IPC: 2.018 (Simulation time: 00 hr 17 min 34 sec)
Heartbeat CPU 0 instructions: 184000955 cycles: 77839678 heartbeat IPC: 3.693 cumulative IPC: 2.022 (Simulation time: 00 hr 17 min 36 sec)
Heartbeat CPU 0 instructions: 184500958 cycles: 77977563 heartbeat IPC: 3.626 cumulative IPC: 2.025 (Simulation time: 00 hr 17 min 38 sec)
Heartbeat CPU 0 instructions: 185000960 cycles: 78114632 heartbeat IPC: 3.648 cumulative IPC: 2.028 (Simulation time: 00 hr 17 min 41 sec)
Heartbeat CPU 0 instructions: 185500962 cycles: 78258652 heartbeat IPC: 3.472 cumulative IPC: 2.031 (Simulation time: 00 hr 17 min 43 sec)
Heartbeat CPU 0 instructions: 186000969 cycles: 78390572 heartbeat IPC: 3.79 cumulative IPC: 2.035 (Simulation time: 00 hr 17 min 46 sec)
Heartbeat CPU 0 instructions: 186500970 cycles: 78530441 heartbeat IPC: 3.575 cumulative IPC: 2.038 (Simulation time: 00 hr 17 min 48 sec)
Heartbeat CPU 0 instructions: 187000970 cycles: 79046962 heartbeat IPC: 0.968 cumulative IPC: 2.03 (Simulation time: 00 hr 17 min 54 sec)
Heartbeat CPU 0 instructions: 187500970 cycles: 79192695 heartbeat IPC: 3.431 cumulative IPC: 2.033 (Simulation time: 00 hr 17 min 56 sec)
Heartbeat CPU 0 instructions: 188000970 cycles: 79327166 heartbeat IPC: 3.718 cumulative IPC: 2.036 (Simulation time: 00 hr 17 min 58 sec)
Heartbeat CPU 0 instructions: 188500970 cycles: 79479065 heartbeat IPC: 3.292 cumulative IPC: 2.039 (Simulation time: 00 hr 18 min 01 sec)
Heartbeat CPU 0 instructions: 189000973 cycles: 79603248 heartbeat IPC: 4.026 cumulative IPC: 2.043 (Simulation time: 00 hr 18 min 03 sec)
Heartbeat CPU 0 instructions: 189500977 cycles: 79736787 heartbeat IPC: 3.744 cumulative IPC: 2.046 (Simulation time: 00 hr 18 min 05 sec)
Heartbeat CPU 0 instructions: 190000980 cycles: 79858536 heartbeat IPC: 4.107 cumulative IPC: 2.05 (Simulation time: 00 hr 18 min 08 sec)
Heartbeat CPU 0 instructions: 190500982 cycles: 79989363 heartbeat IPC: 3.822 cumulative IPC: 2.053 (Simulation time: 00 hr 18 min 10 sec)
Heartbeat CPU 0 instructions: 191000985 cycles: 80108632 heartbeat IPC: 4.192 cumulative IPC: 2.057 (Simulation time: 00 hr 18 min 12 sec)
Heartbeat CPU 0 instructions: 191500986 cycles: 80240954 heartbeat IPC: 3.779 cumulative IPC: 2.06 (Simulation time: 00 hr 18 min 15 sec)
Heartbeat CPU 0 instructions: 192000988 cycles: 80358332 heartbeat IPC: 4.26 cumulative IPC: 2.064 (Simulation time: 00 hr 18 min 17 sec)
Heartbeat CPU 0 instructions: 192500989 cycles: 80487291 heartbeat IPC: 3.877 cumulative IPC: 2.067 (Simulation time: 00 hr 18 min 19 sec)
Heartbeat CPU 0 instructions: 193000992 cycles: 80604762 heartbeat IPC: 4.256 cumulative IPC: 2.071 (Simulation time: 00 hr 18 min 21 sec)
Heartbeat CPU 0 instructions: 193500994 cycles: 80735340 heartbeat IPC: 3.829 cumulative IPC: 2.074 (Simulation time: 00 hr 18 min 24 sec)
Heartbeat CPU 0 instructions: 194000998 cycles: 80853037 heartbeat IPC: 4.248 cumulative IPC: 2.078 (Simulation time: 00 hr 18 min 26 sec)
Heartbeat CPU 0 instructions: 194500998 cycles: 80981789 heartbeat IPC: 3.883 cumulative IPC: 2.081 (Simulation time: 00 hr 18 min 28 sec)
Heartbeat CPU 0 instructions: 195001004 cycles: 81107531 heartbeat IPC: 3.976 cumulative IPC: 2.085 (Simulation time: 00 hr 18 min 31 sec)
Heartbeat CPU 0 instructions: 195501004 cycles: 81229102 heartbeat IPC: 4.113 cumulative IPC: 2.088 (Simulation time: 00 hr 18 min 33 sec)
Heartbeat CPU 0 instructions: 196001004 cycles: 81355764 heartbeat IPC: 3.948 cumulative IPC: 2.092 (Simulation time: 00 hr 18 min 35 sec)
Heartbeat CPU 0 instructions: 196501006 cycles: 81475122 heartbeat IPC: 4.189 cumulative IPC: 2.095 (Simulation time: 00 hr 18 min 37 sec)
Heartbeat CPU 0 instructions: 197001007 cycles: 82075070 heartbeat IPC: 0.8334 cumulative IPC: 2.085 (Simulation time: 00 hr 18 min 43 sec)
Heartbeat CPU 0 instructions: 197501007 cycles: 82551098 heartbeat IPC: 1.05 cumulative IPC: 2.078 (Simulation time: 00 hr 18 min 47 sec)
Heartbeat CPU 0 instructions: 198001008 cycles: 83375842 heartbeat IPC: 0.6062 cumulative IPC: 2.061 (Simulation time: 00 hr 18 min 55 sec)
Heartbeat CPU 0 instructions: 198501014 cycles: 84299491 heartbeat IPC: 0.5413 cumulative IPC: 2.041 (Simulation time: 00 hr 19 min 04 sec)
Heartbeat CPU 0 instructions: 199001016 cycles: 84427273 heartbeat IPC: 3.913 cumulative IPC: 2.045 (Simulation time: 00 hr 19 min 06 sec)
Heartbeat CPU 0 instructions: 199501016 cycles: 84566019 heartbeat IPC: 3.604 cumulative IPC: 2.048 (Simulation time: 00 hr 19 min 08 sec)
Heartbeat CPU 0 instructions: 200001021 cycles: 84708948 heartbeat IPC: 3.498 cumulative IPC: 2.051 (Simulation time: 00 hr 19 min 11 sec)
Heartbeat CPU 0 instructions: 200501023 cycles: 84853053 heartbeat IPC: 3.47 cumulative IPC: 2.053 (Simulation time: 00 hr 19 min 13 sec)
Heartbeat CPU 0 instructions: 201001024 cycles: 84974040 heartbeat IPC: 4.133 cumulative IPC: 2.057 (Simulation time: 00 hr 19 min 15 sec)
Heartbeat CPU 0 instructions: 201501029 cycles: 85111075 heartbeat IPC: 3.649 cumulative IPC: 2.06 (Simulation time: 00 hr 19 min 18 sec)
Heartbeat CPU 0 instructions: 202001031 cycles: 85232967 heartbeat IPC: 4.102 cumulative IPC: 2.063 (Simulation time: 00 hr 19 min 20 sec)
Heartbeat CPU 0 instructions: 202501031 cycles: 85365826 heartbeat IPC: 3.763 cumulative IPC: 2.066 (Simulation time: 00 hr 19 min 22 sec)
Heartbeat CPU 0 instructions: 203001036 cycles: 85483912 heartbeat IPC: 4.234 cumulative IPC: 2.07 (Simulation time: 00 hr 19 min 25 sec)
Heartbeat CPU 0 instructions: 203501041 cycles: 85622047 heartbeat IPC: 3.62 cumulative IPC: 2.073 (Simulation time: 00 hr 19 min 27 sec)
Heartbeat CPU 0 instructions: 204001044 cycles: 85749727 heartbeat IPC: 3.916 cumulative IPC: 2.076 (Simulation time: 00 hr 19 min 29 sec)
Heartbeat CPU 0 instructions: 204501048 cycles: 85884763 heartbeat IPC: 3.703 cumulative IPC: 2.079 (Simulation time: 00 hr 19 min 31 sec)
Heartbeat CPU 0 instructions: 205001048 cycles: 86012793 heartbeat IPC: 3.905 cumulative IPC: 2.082 (Simulation time: 00 hr 19 min 34 sec)
Heartbeat CPU 0 instructions: 205501051 cycles: 86159830 heartbeat IPC: 3.401 cumulative IPC: 2.084 (Simulation time: 00 hr 19 min 36 sec)
Heartbeat CPU 0 instructions: 206001051 cycles: 86294287 heartbeat IPC: 3.719 cumulative IPC: 2.087 (Simulation time: 00 hr 19 min 39 sec)
Heartbeat CPU 0 instructions: 206501051 cycles: 86415816 heartbeat IPC: 4.114 cumulative IPC: 2.091 (Simulation time: 00 hr 19 min 41 sec)
Heartbeat CPU 0 instructions: 207001054 cycles: 86558530 heartbeat IPC: 3.504 cumulative IPC: 2.093 (Simulation time: 00 hr 19 min 43 sec)
Heartbeat CPU 0 instructions: 207501057 cycles: 86682180 heartbeat IPC: 4.044 cumulative IPC: 2.097 (Simulation time: 00 hr 19 min 45 sec)
Heartbeat CPU 0 instructions: 208001062 cycles: 86813050 heartbeat IPC: 3.821 cumulative IPC: 2.1 (Simulation time: 00 hr 19 min 48 sec)
Heartbeat CPU 0 instructions: 208501066 cycles: 87419435 heartbeat IPC: 0.8246 cumulative IPC: 2.089 (Simulation time: 00 hr 19 min 53 sec)
Heartbeat CPU 0 instructions: 209001069 cycles: 88369676 heartbeat IPC: 0.5262 cumulative IPC: 2.07 (Simulation time: 00 hr 20 min 01 sec)
Heartbeat CPU 0 instructions: 209501070 cycles: 88660328 heartbeat IPC: 1.72 cumulative IPC: 2.069 (Simulation time: 00 hr 20 min 05 sec)
Heartbeat CPU 0 instructions: 210001072 cycles: 88798945 heartbeat IPC: 3.607 cumulative IPC: 2.071 (Simulation time: 00 hr 20 min 08 sec)
Heartbeat CPU 0 instructions: 210501075 cycles: 88935801 heartbeat IPC: 3.653 cumulative IPC: 2.074 (Simulation time: 00 hr 20 min 10 sec)
Heartbeat CPU 0 instructions: 211001080 cycles: 89061581 heartbeat IPC: 3.975 cumulative IPC: 2.077 (Simulation time: 00 hr 20 min 12 sec)
Heartbeat CPU 0 instructions: 211501084 cycles: 89192568 heartbeat IPC: 3.817 cumulative IPC: 2.08 (Simulation time: 00 hr 20 min 15 sec)
Heartbeat CPU 0 instructions: 212001085 cycles: 89316223 heartbeat IPC: 4.044 cumulative IPC: 2.083 (Simulation time: 00 hr 20 min 17 sec)
Heartbeat CPU 0 instructions: 212501085 cycles: 89446855 heartbeat IPC: 3.828 cumulative IPC: 2.086 (Simulation time: 00 hr 20 min 19 sec)
Heartbeat CPU 0 instructions: 213001088 cycles: 89572426 heartbeat IPC: 3.982 cumulative IPC: 2.089 (Simulation time: 00 hr 20 min 21 sec)
Heartbeat CPU 0 instructions: 213501091 cycles: 89703392 heartbeat IPC: 3.818 cumulative IPC: 2.092 (Simulation time: 00 hr 20 min 24 sec)
Heartbeat CPU 0 instructions: 214001092 cycles: 89820894 heartbeat IPC: 4.255 cumulative IPC: 2.095 (Simulation time: 00 hr 20 min 26 sec)
Heartbeat CPU 0 instructions: 214501092 cycles: 89950566 heartbeat IPC: 3.856 cumulative IPC: 2.098 (Simulation time: 00 hr 20 min 28 sec)
Heartbeat CPU 0 instructions: 215001094 cycles: 90067795 heartbeat IPC: 4.265 cumulative IPC: 2.102 (Simulation time: 00 hr 20 min 30 sec)
Heartbeat CPU 0 instructions: 215501096 cycles: 90203752 heartbeat IPC: 3.678 cumulative IPC: 2.104 (Simulation time: 00 hr 20 min 33 sec)
Heartbeat CPU 0 instructions: 216001098 cycles: 90332962 heartbeat IPC: 3.87 cumulative IPC: 2.107 (Simulation time: 00 hr 20 min 35 sec)
Heartbeat CPU 0 instructions: 216501098 cycles: 90471187 heartbeat IPC: 3.617 cumulative IPC: 2.11 (Simulation time: 00 hr 20 min 37 sec)
Heartbeat CPU 0 instructions: 217001100 cycles: 90614653 heartbeat IPC: 3.485 cumulative IPC: 2.112 (Simulation time: 00 hr 20 min 40 sec)
Heartbeat CPU 0 instructions: 217501104 cycles: 90743822 heartbeat IPC: 3.871 cumulative IPC: 2.115 (Simulation time: 00 hr 20 min 42 sec)
Heartbeat CPU 0 instructions: 218001106 cycles: 90879926 heartbeat IPC: 3.674 cumulative IPC: 2.118 (Simulation time: 00 hr 20 min 44 sec)
Heartbeat CPU 0 instructions: 218501109 cycles: 91018145 heartbeat IPC: 3.617 cumulative IPC: 2.121 (Simulation time: 00 hr 20 min 47 sec)
Heartbeat CPU 0 instructions: 219001109 cycles: 91157222 heartbeat IPC: 3.595 cumulative IPC: 2.123 (Simulation time: 00 hr 20 min 49 sec)
Heartbeat CPU 0 instructions: 219501113 cycles: 92039628 heartbeat IPC: 0.5666 cumulative IPC: 2.106 (Simulation time: 00 hr 20 min 56 sec)
Heartbeat CPU 0 instructions: 220001117 cycles: 92419752 heartbeat IPC: 1.315 cumulative IPC: 2.102 (Simulation time: 00 hr 21 min 00 sec)
Heartbeat CPU 0 instructions: 220501117 cycles: 92564895 heartbeat IPC: 3.445 cumulative IPC: 2.105 (Simulation time: 00 hr 21 min 03 sec)
Heartbeat CPU 0 instructions: 221001120 cycles: 92697750 heartbeat IPC: 3.764 cumulative IPC: 2.107 (Simulation time: 00 hr 21 min 05 sec)
Heartbeat CPU 0 instructions: 221501120 cycles: 93206079 heartbeat IPC: 0.9836 cumulative IPC: 2.1 (Simulation time: 00 hr 21 min 10 sec)
Heartbeat CPU 0 instructions: 222001121 cycles: 93806583 heartbeat IPC: 0.8326 cumulative IPC: 2.091 (Simulation time: 00 hr 21 min 16 sec)
Heartbeat CPU 0 instructions: 222501122 cycles: 95546326 heartbeat IPC: 0.2874 cumulative IPC: 2.054 (Simulation time: 00 hr 21 min 28 sec)
Heartbeat CPU 0 instructions: 223001129 cycles: 96905682 heartbeat IPC: 0.3678 cumulative IPC: 2.027 (Simulation time: 00 hr 21 min 38 sec)
Heartbeat CPU 0 instructions: 223501129 cycles: 98395650 heartbeat IPC: 0.3356 cumulative IPC: 1.998 (Simulation time: 00 hr 21 min 53 sec)
Heartbeat CPU 0 instructions: 224001130 cycles: 99691778 heartbeat IPC: 0.3858 cumulative IPC: 1.974 (Simulation time: 00 hr 22 min 03 sec)
Heartbeat CPU 0 instructions: 224501136 cycles: 100606559 heartbeat IPC: 0.5466 cumulative IPC: 1.96 (Simulation time: 00 hr 22 min 11 sec)
Heartbeat CPU 0 instructions: 225001139 cycles: 101541511 heartbeat IPC: 0.5348 cumulative IPC: 1.945 (Simulation time: 00 hr 22 min 18 sec)
Heartbeat CPU 0 instructions: 225501145 cycles: 102378736 heartbeat IPC: 0.5972 cumulative IPC: 1.932 (Simulation time: 00 hr 22 min 26 sec)
Heartbeat CPU 0 instructions: 226001147 cycles: 103411980 heartbeat IPC: 0.4839 cumulative IPC: 1.916 (Simulation time: 00 hr 22 min 35 sec)
Heartbeat CPU 0 instructions: 226501147 cycles: 104151564 heartbeat IPC: 0.6761 cumulative IPC: 1.906 (Simulation time: 00 hr 22 min 41 sec)
Heartbeat CPU 0 instructions: 227001150 cycles: 104655439 heartbeat IPC: 0.9923 cumulative IPC: 1.901 (Simulation time: 00 hr 22 min 47 sec)
Heartbeat CPU 0 instructions: 227501157 cycles: 105303406 heartbeat IPC: 0.7717 cumulative IPC: 1.893 (Simulation time: 00 hr 22 min 53 sec)
Heartbeat CPU 0 instructions: 228001164 cycles: 106245574 heartbeat IPC: 0.5307 cumulative IPC: 1.88 (Simulation time: 00 hr 23 min 02 sec)
Heartbeat CPU 0 instructions: 228501168 cycles: 107262255 heartbeat IPC: 0.4918 cumulative IPC: 1.865 (Simulation time: 00 hr 23 min 11 sec)
Heartbeat CPU 0 instructions: 229001171 cycles: 108177327 heartbeat IPC: 0.5464 cumulative IPC: 1.853 (Simulation time: 00 hr 23 min 19 sec)
Heartbeat CPU 0 instructions: 229501171 cycles: 109049729 heartbeat IPC: 0.5731 cumulative IPC: 1.841 (Simulation time: 00 hr 23 min 26 sec)
Heartbeat CPU 0 instructions: 230001172 cycles: 109856719 heartbeat IPC: 0.6196 cumulative IPC: 1.831 (Simulation time: 00 hr 23 min 33 sec)
Heartbeat CPU 0 instructions: 230501172 cycles: 110835379 heartbeat IPC: 0.5109 cumulative IPC: 1.818 (Simulation time: 00 hr 23 min 43 sec)
Heartbeat CPU 0 instructions: 231001172 cycles: 111767792 heartbeat IPC: 0.5362 cumulative IPC: 1.806 (Simulation time: 00 hr 23 min 50 sec)
Heartbeat CPU 0 instructions: 231501179 cycles: 111940269 heartbeat IPC: 2.899 cumulative IPC: 1.808 (Simulation time: 00 hr 23 min 53 sec)
Heartbeat CPU 0 instructions: 232001182 cycles: 112099750 heartbeat IPC: 3.135 cumulative IPC: 1.81 (Simulation time: 00 hr 23 min 55 sec)
Heartbeat CPU 0 instructions: 232501183 cycles: 112254345 heartbeat IPC: 3.234 cumulative IPC: 1.812 (Simulation time: 00 hr 23 min 57 sec)
Heartbeat CPU 0 instructions: 233001184 cycles: 112422201 heartbeat IPC: 2.979 cumulative IPC: 1.814 (Simulation time: 00 hr 24 min 00 sec)
Heartbeat CPU 0 instructions: 233501191 cycles: 112569520 heartbeat IPC: 3.394 cumulative IPC: 1.817 (Simulation time: 00 hr 24 min 02 sec)
Heartbeat CPU 0 instructions: 234001194 cycles: 112764204 heartbeat IPC: 2.568 cumulative IPC: 1.818 (Simulation time: 00 hr 24 min 04 sec)
Heartbeat CPU 0 instructions: 234501198 cycles: 112919265 heartbeat IPC: 3.225 cumulative IPC: 1.82 (Simulation time: 00 hr 24 min 07 sec)
Heartbeat CPU 0 instructions: 235001201 cycles: 113092158 heartbeat IPC: 2.892 cumulative IPC: 1.822 (Simulation time: 00 hr 24 min 09 sec)
Heartbeat CPU 0 instructions: 235501208 cycles: 113238248 heartbeat IPC: 3.423 cumulative IPC: 1.824 (Simulation time: 00 hr 24 min 12 sec)
Heartbeat CPU 0 instructions: 236001209 cycles: 113392210 heartbeat IPC: 3.248 cumulative IPC: 1.826 (Simulation time: 00 hr 24 min 14 sec)
Heartbeat CPU 0 instructions: 236501213 cycles: 113557940 heartbeat IPC: 3.017 cumulative IPC: 1.828 (Simulation time: 00 hr 24 min 16 sec)
Heartbeat CPU 0 instructions: 237001216 cycles: 113735887 heartbeat IPC: 2.81 cumulative IPC: 1.83 (Simulation time: 00 hr 24 min 19 sec)
Heartbeat CPU 0 instructions: 237501223 cycles: 113914824 heartbeat IPC: 2.794 cumulative IPC: 1.832 (Simulation time: 00 hr 24 min 22 sec)
Heartbeat CPU 0 instructions: 238001224 cycles: 114076007 heartbeat IPC: 3.102 cumulative IPC: 1.834 (Simulation time: 00 hr 24 min 24 sec)
Heartbeat CPU 0 instructions: 238501224 cycles: 115191798 heartbeat IPC: 0.4481 cumulative IPC: 1.819 (Simulation time: 00 hr 24 min 34 sec)
Heartbeat CPU 0 instructions: 239001225 cycles: 115701169 heartbeat IPC: 0.9816 cumulative IPC: 1.815 (Simulation time: 00 hr 24 min 39 sec)
Heartbeat CPU 0 instructions: 239501229 cycles: 115861878 heartbeat IPC: 3.111 cumulative IPC: 1.817 (Simulation time: 00 hr 24 min 41 sec)
Heartbeat CPU 0 instructions: 240001230 cycles: 116011013 heartbeat IPC: 3.353 cumulative IPC: 1.819 (Simulation time: 00 hr 24 min 43 sec)
Heartbeat CPU 0 instructions: 240501230 cycles: 116171242 heartbeat IPC: 3.121 cumulative IPC: 1.821 (Simulation time: 00 hr 24 min 46 sec)
Heartbeat CPU 0 instructions: 241001231 cycles: 116369015 heartbeat IPC: 2.528 cumulative IPC: 1.822 (Simulation time: 00 hr 24 min 48 sec)
Heartbeat CPU 0 instructions: 241501235 cycles: 116586470 heartbeat IPC: 2.299 cumulative IPC: 1.823 (Simulation time: 00 hr 24 min 51 sec)
Heartbeat CPU 0 instructions: 242001242 cycles: 116745492 heartbeat IPC: 3.144 cumulative IPC: 1.825 (Simulation time: 00 hr 24 min 54 sec)
Heartbeat CPU 0 instructions: 242501247 cycles: 116918732 heartbeat IPC: 2.886 cumulative IPC: 1.827 (Simulation time: 00 hr 24 min 56 sec)
Heartbeat CPU 0 instructions: 243001250 cycles: 117066293 heartbeat IPC: 3.388 cumulative IPC: 1.829 (Simulation time: 00 hr 24 min 59 sec)
Heartbeat CPU 0 instructions: 243501252 cycles: 117232482 heartbeat IPC: 3.009 cumulative IPC: 1.831 (Simulation time: 00 hr 25 min 01 sec)
Heartbeat CPU 0 instructions: 244001254 cycles: 117390086 heartbeat IPC: 3.173 cumulative IPC: 1.833 (Simulation time: 00 hr 25 min 03 sec)
Heartbeat CPU 0 instructions: 244501257 cycles: 117573815 heartbeat IPC: 2.721 cumulative IPC: 1.835 (Simulation time: 00 hr 25 min 06 sec)
Heartbeat CPU 0 instructions: 245001262 cycles: 117719266 heartbeat IPC: 3.438 cumulative IPC: 1.837 (Simulation time: 00 hr 25 min 08 sec)
Heartbeat CPU 0 instructions: 245501266 cycles: 117878604 heartbeat IPC: 3.138 cumulative IPC: 1.839 (Simulation time: 00 hr 25 min 11 sec)
Heartbeat CPU 0 instructions: 246001273 cycles: 118023773 heartbeat IPC: 3.444 cumulative IPC: 1.841 (Simulation time: 00 hr 25 min 13 sec)
Heartbeat CPU 0 instructions: 246501275 cycles: 118182943 heartbeat IPC: 3.141 cumulative IPC: 1.843 (Simulation time: 00 hr 25 min 15 sec)
Heartbeat CPU 0 instructions: 247001277 cycles: 118327145 heartbeat IPC: 3.467 cumulative IPC: 1.845 (Simulation time: 00 hr 25 min 17 sec)
Heartbeat CPU 0 instructions: 247501280 cycles: 118514842 heartbeat IPC: 2.664 cumulative IPC: 1.847 (Simulation time: 00 hr 25 min 20 sec)
Heartbeat CPU 0 instructions: 248001286 cycles: 118678096 heartbeat IPC: 3.063 cumulative IPC: 1.848 (Simulation time: 00 hr 25 min 22 sec)
Heartbeat CPU 0 instructions: 248501287 cycles: 118834057 heartbeat IPC: 3.206 cumulative IPC: 1.85 (Simulation time: 00 hr 25 min 25 sec)
Heartbeat CPU 0 instructions: 249001293 cycles: 119339339 heartbeat IPC: 0.9896 cumulative IPC: 1.846 (Simulation time: 00 hr 25 min 30 sec)
Heartbeat CPU 0 instructions: 249501293 cycles: 119483675 heartbeat IPC: 3.464 cumulative IPC: 1.848 (Simulation time: 00 hr 25 min 32 sec)
Simulation finished CPU 0 instructions: 200000002 cycles: 108085922 cumulative IPC: 1.85 (Simulation time: 00 hr 25 min 34 sec)
Simulation complete CPU 0 instructions: 200000002 cycles: 108085922 cumulative IPC: 1.85 (Simulation time: 00 hr 25 min 34 sec)

ChampSim completed all CPUs

=== Simulation ===
CPU 0 runs /local-ssd/ben/dpc4-traces/gtraces_v2/arizona_0002.champsim.gz

Region of Interest Statistics

CPU 0 cumulative IPC: 1.85 instructions: 200000002 cycles: 108085922
CPU 0 Branch Prediction Accuracy: 93.98% MPKI: 2.853 Average ROB Occupancy at Mispredict: 41.08
Branch type MPKI
BRANCH_DIRECT_JUMP: 0.06592
BRANCH_INDIRECT: 0.01835
BRANCH_CONDITIONAL: 2.632
BRANCH_DIRECT_CALL: 0.04312
BRANCH_INDIRECT_CALL: 0.01607
BRANCH_RETURN: 0.07738

cpu0->cpu0_STLB TOTAL        ACCESS:     556702 HIT:     430367 MISS:     126335 MSHR_MERGE:          0
cpu0->cpu0_STLB LOAD         ACCESS:     556702 HIT:     430367 MISS:     126335 MSHR_MERGE:          0
cpu0->cpu0_STLB RFO          ACCESS:          0 HIT:          0 MISS:          0 MSHR_MERGE:          0
cpu0->cpu0_STLB PREFETCH     ACCESS:          0 HIT:          0 MISS:          0 MSHR_MERGE:          0
cpu0->cpu0_STLB WRITE        ACCESS:          0 HIT:          0 MISS:          0 MSHR_MERGE:          0
cpu0->cpu0_STLB TRANSLATION  ACCESS:          0 HIT:          0 MISS:          0 MSHR_MERGE:          0
cpu0->cpu0_STLB PREFETCH REQUESTED:          0 ISSUED:          0 USEFUL:          0 USELESS:          0
cpu0->cpu0_STLB AVERAGE MISS LATENCY: 204.4 cycles
cpu0->cpu0_L2C TOTAL        ACCESS:    6790495 HIT:    4917231 MISS:    1873264 MSHR_MERGE:     425344
cpu0->cpu0_L2C LOAD         ACCESS:     794792 HIT:     462975 MISS:     331817 MSHR_MERGE:      17746
cpu0->cpu0_L2C RFO          ACCESS:     386555 HIT:     254748 MISS:     131807 MSHR_MERGE:        606
cpu0->cpu0_L2C PREFETCH     ACCESS:    4919234 HIT:    3570503 MISS:    1348731 MSHR_MERGE:     406992
cpu0->cpu0_L2C WRITE        ACCESS:     568933 HIT:     568916 MISS:         17 MSHR_MERGE:          0
cpu0->cpu0_L2C TRANSLATION  ACCESS:     120981 HIT:      60089 MISS:      60892 MSHR_MERGE:          0
cpu0->cpu0_L2C PREFETCH REQUESTED:    4134134 ISSUED:    3949468 USEFUL:     395342 USELESS:     371305
cpu0->cpu0_L2C AVERAGE MISS LATENCY: 221.2 cycles
cpu0->cpu0_L1I TOTAL        ACCESS:   26942204 HIT:   26727993 MISS:     214211 MSHR_MERGE:      48944
cpu0->cpu0_L1I LOAD         ACCESS:   26942204 HIT:   26727993 MISS:     214211 MSHR_MERGE:      48944
cpu0->cpu0_L1I RFO          ACCESS:          0 HIT:          0 MISS:          0 MSHR_MERGE:          0
cpu0->cpu0_L1I PREFETCH     ACCESS:          0 HIT:          0 MISS:          0 MSHR_MERGE:          0
cpu0->cpu0_L1I WRITE        ACCESS:          0 HIT:          0 MISS:          0 MSHR_MERGE:          0
cpu0->cpu0_L1I TRANSLATION  ACCESS:          0 HIT:          0 MISS:          0 MSHR_MERGE:          0
cpu0->cpu0_L1I PREFETCH REQUESTED:          0 ISSUED:          0 USEFUL:          0 USELESS:          0
cpu0->cpu0_L1I AVERAGE MISS LATENCY: 124.6 cycles
cpu0->cpu0_L1D TOTAL        ACCESS:   54443360 HIT:   50694056 MISS:    3749304 MSHR_MERGE:    1642440
cpu0->cpu0_L1D LOAD         ACCESS:   23491554 HIT:   22630308 MISS:     861246 MSHR_MERGE:     231708
cpu0->cpu0_L1D RFO          ACCESS:          0 HIT:          0 MISS:          0 MSHR_MERGE:          0
cpu0->cpu0_L1D PREFETCH     ACCESS:   20493962 HIT:   18958991 MISS:    1534971 MSHR_MERGE:     565199
cpu0->cpu0_L1D WRITE        ACCESS:   10156639 HIT:    8927816 MISS:    1228823 MSHR_MERGE:     842250
cpu0->cpu0_L1D TRANSLATION  ACCESS:     301205 HIT:     176941 MISS:     124264 MSHR_MERGE:       3283
cpu0->cpu0_L1D PREFETCH REQUESTED:   24932604 ISSUED:   20493960 USEFUL:     493139 USELESS:     476628
cpu0->cpu0_L1D AVERAGE MISS LATENCY: 94.68 cycles
cpu0->cpu0_ITLB TOTAL        ACCESS:   22511263 HIT:   22466283 MISS:      44980 MSHR_MERGE:      22016
cpu0->cpu0_ITLB LOAD         ACCESS:   22511263 HIT:   22466283 MISS:      44980 MSHR_MERGE:      22016
cpu0->cpu0_ITLB RFO          ACCESS:          0 HIT:          0 MISS:          0 MSHR_MERGE:          0
cpu0->cpu0_ITLB PREFETCH     ACCESS:          0 HIT:          0 MISS:          0 MSHR_MERGE:          0
cpu0->cpu0_ITLB WRITE        ACCESS:          0 HIT:          0 MISS:          0 MSHR_MERGE:          0
cpu0->cpu0_ITLB TRANSLATION  ACCESS:          0 HIT:          0 MISS:          0 MSHR_MERGE:          0
cpu0->cpu0_ITLB PREFETCH REQUESTED:          0 ISSUED:          0 USEFUL:          0 USELESS:          0
cpu0->cpu0_ITLB AVERAGE MISS LATENCY: 57.96 cycles
cpu0->cpu0_DTLB TOTAL        ACCESS:   49201792 HIT:   48350491 MISS:     851301 MSHR_MERGE:     317563
cpu0->cpu0_DTLB LOAD         ACCESS:   49201792 HIT:   48350491 MISS:     851301 MSHR_MERGE:     317563
cpu0->cpu0_DTLB RFO          ACCESS:          0 HIT:          0 MISS:          0 MSHR_MERGE:          0
cpu0->cpu0_DTLB PREFETCH     ACCESS:          0 HIT:          0 MISS:          0 MSHR_MERGE:          0
cpu0->cpu0_DTLB WRITE        ACCESS:          0 HIT:          0 MISS:          0 MSHR_MERGE:          0
cpu0->cpu0_DTLB TRANSLATION  ACCESS:          0 HIT:          0 MISS:          0 MSHR_MERGE:          0
cpu0->cpu0_DTLB PREFETCH REQUESTED:          0 ISSUED:          0 USEFUL:          0 USELESS:          0
cpu0->cpu0_DTLB AVERAGE MISS LATENCY: 51.35 cycles
cpu0->LLC TOTAL        ACCESS:    2726896 HIT:     792066 MISS:    1934830 MSHR_MERGE:     253676
cpu0->LLC LOAD         ACCESS:     314070 HIT:      89432 MISS:     224638 MSHR_MERGE:       6835
cpu0->LLC RFO          ACCESS:     131201 HIT:      21291 MISS:     109910 MSHR_MERGE:         83
cpu0->LLC PREFETCH     ACCESS:    1809077 HIT:     490044 MISS:    1319033 MSHR_MERGE:     246758
cpu0->LLC WRITE        ACCESS:     411656 HIT:     188227 MISS:     223429 MSHR_MERGE:          0
cpu0->LLC TRANSLATION  ACCESS:      60892 HIT:       3072 MISS:      57820 MSHR_MERGE:          0
cpu0->LLC PREFETCH REQUESTED:     982012 ISSUED:     867338 USEFUL:     259447 USELESS:     289903
cpu0->LLC AVERAGE MISS LATENCY: 170.7 cycles

DRAM Statistics

Channel 0 RQ ROW_BUFFER_HIT:     128439
  ROW_BUFFER_MISS:    1329175
  AVG DBUS CONGESTED CYCLE: 12.94
Channel 0 WQ ROW_BUFFER_HIT:      51243
  ROW_BUFFER_MISS:     316229
  FULL:       1005
Channel 0 REFRESHES ISSUED:       9006
