[VMEM] WARNING: physical memory size is smaller than virtual memory size.

*** ChampSim Multicore Out-of-Order Simulator ***
Warmup Instructions: 50000000
Simulation Instructions: 200000000
Number of CPUs: 1
Page size: 4096
Core 0: /local-ssd/ben/dpc4-traces/gtraces_v2/charlie_0002.champsim.gz
Off-chip DRAM Size: 64 GiB Channels: 1 Width: 64-bit Data Rate: 4807 MT/s
[BTB] WARNING: target of return is a lower address than the corresponding call. This is usually a problem with your trace.
[BTB] WARNING: target of return is a lower address than the corresponding call. This is usually a problem with your trace.
[BTB] WARNING: target of return is a lower address than the corresponding call. This is usually a problem with your trace.
[BTB] WARNING: target of return is a lower address than the corresponding call. This is usually a problem with your trace.
[BTB] WARNING: target of return is a lower address than the corresponding call. This is usually a problem with your trace.
Heartbeat CPU 0 instructions: 500003 cycles: 258969 heartbeat IPC: 1.931 cumulative IPC: 1.931 (Simulation time: 00 hr 00 min 07 sec)
[BTB] WARNING: target of return is a lower address than the corresponding call. This is usually a problem with your trace.
Heartbeat CPU 0 instructions: 1000004 cycles: 457859 heartbeat IPC: 2.514 cumulative IPC: 2.184 (Simulation time: 00 hr 00 min 12 sec)
Heartbeat CPU 0 instructions: 1500009 cycles: 635524 heartbeat IPC: 2.814 cumulative IPC: 2.36 (Simulation time: 00 hr 00 min 17 sec)
[BTB] WARNING: target of return is a lower address than the corresponding call. This is usually a problem with your trace.
[BTB] WARNING: target of return is a lower address than the corresponding call. This is usually a problem with your trace.
Heartbeat CPU 0 instructions: 2000015 cycles: 808533 heartbeat IPC: 2.89 cumulative IPC: 2.474 (Simulation time: 00 hr 00 min 21 sec)
[BTB] WARNING: target of return is a lower address than the corresponding call. This is usually a problem with your trace.
[BTB] WARNING: target of return is a lower address than the corresponding call. This is usually a problem with your trace.
Heartbeat CPU 0 instructions: 2500019 cycles: 987754 heartbeat IPC: 2.79 cumulative IPC: 2.531 (Simulation time: 00 hr 00 min 26 sec)
Heartbeat CPU 0 instructions: 3000022 cycles: 1137751 heartbeat IPC: 3.333 cumulative IPC: 2.637 (Simulation time: 00 hr 00 min 31 sec)
Heartbeat CPU 0 instructions: 3500023 cycles: 1279185 heartbeat IPC: 3.535 cumulative IPC: 2.736 (Simulation time: 00 hr 00 min 35 sec)
Heartbeat CPU 0 instructions: 4000029 cycles: 1413666 heartbeat IPC: 3.718 cumulative IPC: 2.83 (Simulation time: 00 hr 00 min 38 sec)
Heartbeat CPU 0 instructions: 4500034 cycles: 1561522 heartbeat IPC: 3.382 cumulative IPC: 2.882 (Simulation time: 00 hr 00 min 43 sec)
Heartbeat CPU 0 instructions: 5000039 cycles: 1704321 heartbeat IPC: 3.501 cumulative IPC: 2.934 (Simulation time: 00 hr 00 min 47 sec)
Heartbeat CPU 0 instructions: 5500042 cycles: 1868947 heartbeat IPC: 3.037 cumulative IPC: 2.943 (Simulation time: 00 hr 00 min 51 sec)
Heartbeat CPU 0 instructions: 6000048 cycles: 2027755 heartbeat IPC: 3.148 cumulative IPC: 2.959 (Simulation time: 00 hr 00 min 55 sec)
Heartbeat CPU 0 instructions: 6500054 cycles: 2196956 heartbeat IPC: 2.955 cumulative IPC: 2.959 (Simulation time: 00 hr 00 min 58 sec)
Heartbeat CPU 0 instructions: 7000058 cycles: 2340889 heartbeat IPC: 3.474 cumulative IPC: 2.99 (Simulation time: 00 hr 01 min 01 sec)
Heartbeat CPU 0 instructions: 7500065 cycles: 2491462 heartbeat IPC: 3.321 cumulative IPC: 3.01 (Simulation time: 00 hr 01 min 04 sec)
Heartbeat CPU 0 instructions: 8000071 cycles: 2644595 heartbeat IPC: 3.265 cumulative IPC: 3.025 (Simulation time: 00 hr 01 min 07 sec)
Heartbeat CPU 0 instructions: 8500072 cycles: 2756351 heartbeat IPC: 4.474 cumulative IPC: 3.084 (Simulation time: 00 hr 01 min 09 sec)
Heartbeat CPU 0 instructions: 9000077 cycles: 2861720 heartbeat IPC: 4.745 cumulative IPC: 3.145 (Simulation time: 00 hr 01 min 11 sec)
Heartbeat CPU 0 instructions: 9500084 cycles: 2974578 heartbeat IPC: 4.43 cumulative IPC: 3.194 (Simulation time: 00 hr 01 min 13 sec)
Heartbeat CPU 0 instructions: 10000088 cycles: 3101977 heartbeat IPC: 3.925 cumulative IPC: 3.224 (Simulation time: 00 hr 01 min 15 sec)
Heartbeat CPU 0 instructions: 10500095 cycles: 3304531 heartbeat IPC: 2.469 cumulative IPC: 3.177 (Simulation time: 00 hr 01 min 19 sec)
Heartbeat CPU 0 instructions: 11000095 cycles: 3436231 heartbeat IPC: 3.797 cumulative IPC: 3.201 (Simulation time: 00 hr 01 min 21 sec)
Heartbeat CPU 0 instructions: 11500095 cycles: 3631792 heartbeat IPC: 2.557 cumulative IPC: 3.167 (Simulation time: 00 hr 01 min 24 sec)
Heartbeat CPU 0 instructions: 12000096 cycles: 3808184 heartbeat IPC: 2.835 cumulative IPC: 3.151 (Simulation time: 00 hr 01 min 27 sec)
Heartbeat CPU 0 instructions: 12500097 cycles: 3927563 heartbeat IPC: 4.188 cumulative IPC: 3.183 (Simulation time: 00 hr 01 min 29 sec)
Heartbeat CPU 0 instructions: 13000099 cycles: 4033602 heartbeat IPC: 4.715 cumulative IPC: 3.223 (Simulation time: 00 hr 01 min 31 sec)
Heartbeat CPU 0 instructions: 13500103 cycles: 4215363 heartbeat IPC: 2.751 cumulative IPC: 3.203 (Simulation time: 00 hr 01 min 34 sec)
Heartbeat CPU 0 instructions: 14000108 cycles: 4429894 heartbeat IPC: 2.331 cumulative IPC: 3.16 (Simulation time: 00 hr 01 min 38 sec)
Heartbeat CPU 0 instructions: 14500108 cycles: 4568193 heartbeat IPC: 3.615 cumulative IPC: 3.174 (Simulation time: 00 hr 01 min 40 sec)
Heartbeat CPU 0 instructions: 15000114 cycles: 4673732 heartbeat IPC: 4.738 cumulative IPC: 3.209 (Simulation time: 00 hr 01 min 42 sec)
Heartbeat CPU 0 instructions: 15500119 cycles: 4778568 heartbeat IPC: 4.769 cumulative IPC: 3.244 (Simulation time: 00 hr 01 min 44 sec)
Heartbeat CPU 0 instructions: 16000122 cycles: 4882294 heartbeat IPC: 4.82 cumulative IPC: 3.277 (Simulation time: 00 hr 01 min 46 sec)
Heartbeat CPU 0 instructions: 16500129 cycles: 4985862 heartbeat IPC: 4.828 cumulative IPC: 3.309 (Simulation time: 00 hr 01 min 47 sec)
Heartbeat CPU 0 instructions: 17000135 cycles: 5090218 heartbeat IPC: 4.791 cumulative IPC: 3.34 (Simulation time: 00 hr 01 min 49 sec)
Heartbeat CPU 0 instructions: 17500141 cycles: 5197997 heartbeat IPC: 4.639 cumulative IPC: 3.367 (Simulation time: 00 hr 01 min 51 sec)
Heartbeat CPU 0 instructions: 18000147 cycles: 5300636 heartbeat IPC: 4.872 cumulative IPC: 3.396 (Simulation time: 00 hr 01 min 53 sec)
Heartbeat CPU 0 instructions: 18500153 cycles: 5403200 heartbeat IPC: 4.875 cumulative IPC: 3.424 (Simulation time: 00 hr 01 min 55 sec)
Heartbeat CPU 0 instructions: 19000154 cycles: 5506796 heartbeat IPC: 4.826 cumulative IPC: 3.45 (Simulation time: 00 hr 01 min 56 sec)
Heartbeat CPU 0 instructions: 19500158 cycles: 5610897 heartbeat IPC: 4.803 cumulative IPC: 3.475 (Simulation time: 00 hr 01 min 58 sec)
Heartbeat CPU 0 instructions: 20000158 cycles: 5714536 heartbeat IPC: 4.824 cumulative IPC: 3.5 (Simulation time: 00 hr 02 min 00 sec)
Heartbeat CPU 0 instructions: 20500158 cycles: 5820508 heartbeat IPC: 4.718 cumulative IPC: 3.522 (Simulation time: 00 hr 02 min 02 sec)
Heartbeat CPU 0 instructions: 21000161 cycles: 5924307 heartbeat IPC: 4.817 cumulative IPC: 3.545 (Simulation time: 00 hr 02 min 04 sec)
Heartbeat CPU 0 instructions: 21500165 cycles: 6027157 heartbeat IPC: 4.861 cumulative IPC: 3.567 (Simulation time: 00 hr 02 min 06 sec)
Heartbeat CPU 0 instructions: 22000166 cycles: 6130966 heartbeat IPC: 4.817 cumulative IPC: 3.588 (Simulation time: 00 hr 02 min 07 sec)
Heartbeat CPU 0 instructions: 22500168 cycles: 6235085 heartbeat IPC: 4.802 cumulative IPC: 3.609 (Simulation time: 00 hr 02 min 09 sec)
Heartbeat CPU 0 instructions: 23000170 cycles: 6338715 heartbeat IPC: 4.825 cumulative IPC: 3.629 (Simulation time: 00 hr 02 min 11 sec)
Heartbeat CPU 0 instructions: 23500175 cycles: 6443672 heartbeat IPC: 4.764 cumulative IPC: 3.647 (Simulation time: 00 hr 02 min 13 sec)
Heartbeat CPU 0 instructions: 24000176 cycles: 6550450 heartbeat IPC: 4.683 cumulative IPC: 3.664 (Simulation time: 00 hr 02 min 15 sec)
Heartbeat CPU 0 instructions: 24500176 cycles: 6689244 heartbeat IPC: 3.602 cumulative IPC: 3.663 (Simulation time: 00 hr 02 min 17 sec)
Heartbeat CPU 0 instructions: 25000178 cycles: 6798707 heartbeat IPC: 4.568 cumulative IPC: 3.677 (Simulation time: 00 hr 02 min 19 sec)
Heartbeat CPU 0 instructions: 25500184 cycles: 6908431 heartbeat IPC: 4.557 cumulative IPC: 3.691 (Simulation time: 00 hr 02 min 21 sec)
Heartbeat CPU 0 instructions: 26000190 cycles: 7021308 heartbeat IPC: 4.43 cumulative IPC: 3.703 (Simulation time: 00 hr 02 min 23 sec)
Heartbeat CPU 0 instructions: 26500197 cycles: 7167498 heartbeat IPC: 3.42 cumulative IPC: 3.697 (Simulation time: 00 hr 02 min 25 sec)
Heartbeat CPU 0 instructions: 27000197 cycles: 7290093 heartbeat IPC: 4.078 cumulative IPC: 3.704 (Simulation time: 00 hr 02 min 27 sec)
Heartbeat CPU 0 instructions: 27500201 cycles: 7413847 heartbeat IPC: 4.04 cumulative IPC: 3.709 (Simulation time: 00 hr 02 min 29 sec)
Heartbeat CPU 0 instructions: 28000204 cycles: 7553969 heartbeat IPC: 3.568 cumulative IPC: 3.707 (Simulation time: 00 hr 02 min 32 sec)
Heartbeat CPU 0 instructions: 28500204 cycles: 7687308 heartbeat IPC: 3.75 cumulative IPC: 3.707 (Simulation time: 00 hr 02 min 34 sec)
Heartbeat CPU 0 instructions: 29000210 cycles: 7793189 heartbeat IPC: 4.722 cumulative IPC: 3.721 (Simulation time: 00 hr 02 min 36 sec)
Heartbeat CPU 0 instructions: 29500213 cycles: 7898511 heartbeat IPC: 4.747 cumulative IPC: 3.735 (Simulation time: 00 hr 02 min 38 sec)
Heartbeat CPU 0 instructions: 30000216 cycles: 8009523 heartbeat IPC: 4.504 cumulative IPC: 3.746 (Simulation time: 00 hr 02 min 40 sec)
Heartbeat CPU 0 instructions: 30500220 cycles: 8165424 heartbeat IPC: 3.207 cumulative IPC: 3.735 (Simulation time: 00 hr 02 min 42 sec)
Heartbeat CPU 0 instructions: 31000225 cycles: 8300802 heartbeat IPC: 3.693 cumulative IPC: 3.735 (Simulation time: 00 hr 02 min 45 sec)
Heartbeat CPU 0 instructions: 31500232 cycles: 8441668 heartbeat IPC: 3.55 cumulative IPC: 3.732 (Simulation time: 00 hr 02 min 47 sec)
Heartbeat CPU 0 instructions: 32000234 cycles: 8583190 heartbeat IPC: 3.533 cumulative IPC: 3.728 (Simulation time: 00 hr 02 min 50 sec)
Heartbeat CPU 0 instructions: 32500240 cycles: 8687155 heartbeat IPC: 4.809 cumulative IPC: 3.741 (Simulation time: 00 hr 02 min 52 sec)
Heartbeat CPU 0 instructions: 33000240 cycles: 8793123 heartbeat IPC: 4.718 cumulative IPC: 3.753 (Simulation time: 00 hr 02 min 53 sec)
Heartbeat CPU 0 instructions: 33500246 cycles: 8906962 heartbeat IPC: 4.392 cumulative IPC: 3.761 (Simulation time: 00 hr 02 min 55 sec)
Heartbeat CPU 0 instructions: 34000249 cycles: 9059190 heartbeat IPC: 3.285 cumulative IPC: 3.753 (Simulation time: 00 hr 02 min 58 sec)
Heartbeat CPU 0 instructions: 34500249 cycles: 9225980 heartbeat IPC: 2.998 cumulative IPC: 3.739 (Simulation time: 00 hr 03 min 01 sec)
Heartbeat CPU 0 instructions: 35000251 cycles: 9423640 heartbeat IPC: 2.53 cumulative IPC: 3.714 (Simulation time: 00 hr 03 min 05 sec)
Heartbeat CPU 0 instructions: 35500255 cycles: 9618648 heartbeat IPC: 2.564 cumulative IPC: 3.691 (Simulation time: 00 hr 03 min 08 sec)
Heartbeat CPU 0 instructions: 36000256 cycles: 9776358 heartbeat IPC: 3.17 cumulative IPC: 3.682 (Simulation time: 00 hr 03 min 11 sec)
Heartbeat CPU 0 instructions: 36500262 cycles: 9900566 heartbeat IPC: 4.026 cumulative IPC: 3.687 (Simulation time: 00 hr 03 min 13 sec)
Heartbeat CPU 0 instructions: 37000265 cycles: 10003926 heartbeat IPC: 4.837 cumulative IPC: 3.699 (Simulation time: 00 hr 03 min 15 sec)
Heartbeat CPU 0 instructions: 37500267 cycles: 10106972 heartbeat IPC: 4.852 cumulative IPC: 3.71 (Simulation time: 00 hr 03 min 17 sec)
Heartbeat CPU 0 instructions: 38000269 cycles: 10210291 heartbeat IPC: 4.839 cumulative IPC: 3.722 (Simulation time: 00 hr 03 min 19 sec)
Heartbeat CPU 0 instructions: 38500270 cycles: 10314013 heartbeat IPC: 4.821 cumulative IPC: 3.733 (Simulation time: 00 hr 03 min 20 sec)
Heartbeat CPU 0 instructions: 39000275 cycles: 10417560 heartbeat IPC: 4.829 cumulative IPC: 3.744 (Simulation time: 00 hr 03 min 22 sec)
Heartbeat CPU 0 instructions: 39500278 cycles: 10521608 heartbeat IPC: 4.806 cumulative IPC: 3.754 (Simulation time: 00 hr 03 min 24 sec)
Heartbeat CPU 0 instructions: 40000279 cycles: 10625289 heartbeat IPC: 4.822 cumulative IPC: 3.765 (Simulation time: 00 hr 03 min 26 sec)
Heartbeat CPU 0 instructions: 40500282 cycles: 10729385 heartbeat IPC: 4.803 cumulative IPC: 3.775 (Simulation time: 00 hr 03 min 28 sec)
Heartbeat CPU 0 instructions: 41000288 cycles: 10831390 heartbeat IPC: 4.902 cumulative IPC: 3.785 (Simulation time: 00 hr 03 min 29 sec)
Heartbeat CPU 0 instructions: 41500293 cycles: 10944910 heartbeat IPC: 4.405 cumulative IPC: 3.792 (Simulation time: 00 hr 03 min 31 sec)
Heartbeat CPU 0 instructions: 42000295 cycles: 11056929 heartbeat IPC: 4.464 cumulative IPC: 3.799 (Simulation time: 00 hr 03 min 33 sec)
Heartbeat CPU 0 instructions: 42500301 cycles: 11164029 heartbeat IPC: 4.669 cumulative IPC: 3.807 (Simulation time: 00 hr 03 min 35 sec)
Heartbeat CPU 0 instructions: 43000307 cycles: 11275222 heartbeat IPC: 4.497 cumulative IPC: 3.814 (Simulation time: 00 hr 03 min 37 sec)
Heartbeat CPU 0 instructions: 43500309 cycles: 11383470 heartbeat IPC: 4.619 cumulative IPC: 3.821 (Simulation time: 00 hr 03 min 39 sec)
Heartbeat CPU 0 instructions: 44000309 cycles: 11497892 heartbeat IPC: 4.37 cumulative IPC: 3.827 (Simulation time: 00 hr 03 min 41 sec)
Heartbeat CPU 0 instructions: 44500315 cycles: 11606591 heartbeat IPC: 4.6 cumulative IPC: 3.834 (Simulation time: 00 hr 03 min 43 sec)
Heartbeat CPU 0 instructions: 45000319 cycles: 11718555 heartbeat IPC: 4.466 cumulative IPC: 3.84 (Simulation time: 00 hr 03 min 45 sec)
Heartbeat CPU 0 instructions: 45500319 cycles: 11830054 heartbeat IPC: 4.484 cumulative IPC: 3.846 (Simulation time: 00 hr 03 min 47 sec)
Heartbeat CPU 0 instructions: 46000320 cycles: 11937526 heartbeat IPC: 4.652 cumulative IPC: 3.853 (Simulation time: 00 hr 03 min 49 sec)
Heartbeat CPU 0 instructions: 46500327 cycles: 12048050 heartbeat IPC: 4.524 cumulative IPC: 3.86 (Simulation time: 00 hr 03 min 50 sec)
Heartbeat CPU 0 instructions: 47000327 cycles: 12160726 heartbeat IPC: 4.438 cumulative IPC: 3.865 (Simulation time: 00 hr 03 min 52 sec)
Heartbeat CPU 0 instructions: 47500328 cycles: 12269881 heartbeat IPC: 4.581 cumulative IPC: 3.871 (Simulation time: 00 hr 03 min 54 sec)
Heartbeat CPU 0 instructions: 48000330 cycles: 12413919 heartbeat IPC: 3.471 cumulative IPC: 3.867 (Simulation time: 00 hr 03 min 57 sec)
Heartbeat CPU 0 instructions: 48500333 cycles: 12551273 heartbeat IPC: 3.64 cumulative IPC: 3.864 (Simulation time: 00 hr 04 min 00 sec)
Heartbeat CPU 0 instructions: 49000338 cycles: 12726785 heartbeat IPC: 2.849 cumulative IPC: 3.85 (Simulation time: 00 hr 04 min 03 sec)
Heartbeat CPU 0 instructions: 49500345 cycles: 12831173 heartbeat IPC: 4.79 cumulative IPC: 3.858 (Simulation time: 00 hr 04 min 05 sec)
Warmup halting CPU 0 at instruction 50000002 cycle 12934700 for remainder of phase
Warmup finished CPU 0 instructions: 50000002 cycles: 12934700 cumulative IPC: 3.866 (Simulation time: 00 hr 04 min 06 sec)
Warmup complete CPU 0 instructions: 50000002 cycles: 12934700 cumulative IPC: 3.866 (Simulation time: 00 hr 04 min 06 sec)
Heartbeat CPU 0 instructions: 50000347 cycles: 12934833 heartbeat IPC: 4.823 cumulative IPC: 2.594 (Simulation time: 00 hr 04 min 06 sec)
Heartbeat CPU 0 instructions: 50500347 cycles: 13134514 heartbeat IPC: 2.504 cumulative IPC: 2.504 (Simulation time: 00 hr 04 min 09 sec)
Heartbeat CPU 0 instructions: 51000350 cycles: 13586763 heartbeat IPC: 1.106 cumulative IPC: 1.534 (Simulation time: 00 hr 04 min 14 sec)
Heartbeat CPU 0 instructions: 51500353 cycles: 13844105 heartbeat IPC: 1.943 cumulative IPC: 1.65 (Simulation time: 00 hr 04 min 17 sec)
Heartbeat CPU 0 instructions: 52000353 cycles: 14084989 heartbeat IPC: 2.076 cumulative IPC: 1.739 (Simulation time: 00 hr 04 min 20 sec)
Heartbeat CPU 0 instructions: 52500357 cycles: 14317408 heartbeat IPC: 2.151 cumulative IPC: 1.808 (Simulation time: 00 hr 04 min 23 sec)
Heartbeat CPU 0 instructions: 53000363 cycles: 14614755 heartbeat IPC: 1.682 cumulative IPC: 1.786 (Simulation time: 00 hr 04 min 26 sec)
Heartbeat CPU 0 instructions: 53500366 cycles: 14864557 heartbeat IPC: 2.002 cumulative IPC: 1.814 (Simulation time: 00 hr 04 min 29 sec)
Heartbeat CPU 0 instructions: 54000367 cycles: 16426767 heartbeat IPC: 0.3201 cumulative IPC: 1.146 (Simulation time: 00 hr 04 min 41 sec)
Heartbeat CPU 0 instructions: 54500369 cycles: 18195286 heartbeat IPC: 0.2827 cumulative IPC: 0.8555 (Simulation time: 00 hr 04 min 55 sec)
Heartbeat CPU 0 instructions: 55000373 cycles: 19219947 heartbeat IPC: 0.488 cumulative IPC: 0.7956 (Simulation time: 00 hr 05 min 04 sec)
Heartbeat CPU 0 instructions: 55500376 cycles: 20920244 heartbeat IPC: 0.2941 cumulative IPC: 0.6888 (Simulation time: 00 hr 05 min 17 sec)
Heartbeat CPU 0 instructions: 56000377 cycles: 21680528 heartbeat IPC: 0.6577 cumulative IPC: 0.6861 (Simulation time: 00 hr 05 min 24 sec)
Heartbeat CPU 0 instructions: 56500381 cycles: 23458896 heartbeat IPC: 0.2812 cumulative IPC: 0.6177 (Simulation time: 00 hr 05 min 37 sec)
Heartbeat CPU 0 instructions: 57000381 cycles: 25138412 heartbeat IPC: 0.2977 cumulative IPC: 0.5736 (Simulation time: 00 hr 05 min 50 sec)
Heartbeat CPU 0 instructions: 57500385 cycles: 26112610 heartbeat IPC: 0.5132 cumulative IPC: 0.5692 (Simulation time: 00 hr 05 min 57 sec)
Heartbeat CPU 0 instructions: 58000388 cycles: 27382056 heartbeat IPC: 0.3939 cumulative IPC: 0.5538 (Simulation time: 00 hr 06 min 07 sec)
Heartbeat CPU 0 instructions: 58500388 cycles: 28056239 heartbeat IPC: 0.7416 cumulative IPC: 0.5621 (Simulation time: 00 hr 06 min 12 sec)
Heartbeat CPU 0 instructions: 59000388 cycles: 28412346 heartbeat IPC: 1.404 cumulative IPC: 0.5815 (Simulation time: 00 hr 06 min 16 sec)
Heartbeat CPU 0 instructions: 59500389 cycles: 28747157 heartbeat IPC: 1.493 cumulative IPC: 0.6008 (Simulation time: 00 hr 06 min 19 sec)
Heartbeat CPU 0 instructions: 60000393 cycles: 30148778 heartbeat IPC: 0.3567 cumulative IPC: 0.5809 (Simulation time: 00 hr 06 min 30 sec)
Heartbeat CPU 0 instructions: 60500394 cycles: 31454557 heartbeat IPC: 0.3829 cumulative IPC: 0.567 (Simulation time: 00 hr 06 min 40 sec)
Heartbeat CPU 0 instructions: 61000396 cycles: 31794136 heartbeat IPC: 1.472 cumulative IPC: 0.5833 (Simulation time: 00 hr 06 min 43 sec)
Heartbeat CPU 0 instructions: 61500398 cycles: 32088120 heartbeat IPC: 1.701 cumulative IPC: 0.6004 (Simulation time: 00 hr 06 min 47 sec)
Heartbeat CPU 0 instructions: 62000398 cycles: 32375240 heartbeat IPC: 1.741 cumulative IPC: 0.6173 (Simulation time: 00 hr 06 min 50 sec)
Heartbeat CPU 0 instructions: 62500402 cycles: 32639520 heartbeat IPC: 1.892 cumulative IPC: 0.6344 (Simulation time: 00 hr 06 min 53 sec)
Heartbeat CPU 0 instructions: 63000404 cycles: 32990322 heartbeat IPC: 1.425 cumulative IPC: 0.6482 (Simulation time: 00 hr 06 min 57 sec)
Heartbeat CPU 0 instructions: 63500406 cycles: 33276561 heartbeat IPC: 1.747 cumulative IPC: 0.6637 (Simulation time: 00 hr 07 min 00 sec)
Heartbeat CPU 0 instructions: 64000410 cycles: 33567326 heartbeat IPC: 1.72 cumulative IPC: 0.6786 (Simulation time: 00 hr 07 min 03 sec)
Heartbeat CPU 0 instructions: 64500412 cycles: 33845287 heartbeat IPC: 1.799 cumulative IPC: 0.6934 (Simulation time: 00 hr 07 min 06 sec)
Heartbeat CPU 0 instructions: 65000414 cycles: 34156196 heartbeat IPC: 1.608 cumulative IPC: 0.7068 (Simulation time: 00 hr 07 min 10 sec)
Heartbeat CPU 0 instructions: 65500418 cycles: 34443236 heartbeat IPC: 1.742 cumulative IPC: 0.7207 (Simulation time: 00 hr 07 min 13 sec)
Heartbeat CPU 0 instructions: 66000419 cycles: 34716989 heartbeat IPC: 1.826 cumulative IPC: 0.7346 (Simulation time: 00 hr 07 min 16 sec)
Heartbeat CPU 0 instructions: 66500420 cycles: 34949467 heartbeat IPC: 2.151 cumulative IPC: 0.7495 (Simulation time: 00 hr 07 min 19 sec)
Heartbeat CPU 0 instructions: 67000420 cycles: 35298955 heartbeat IPC: 1.431 cumulative IPC: 0.7602 (Simulation time: 00 hr 07 min 23 sec)
Heartbeat CPU 0 instructions: 67500424 cycles: 35570670 heartbeat IPC: 1.84 cumulative IPC: 0.7731 (Simulation time: 00 hr 07 min 26 sec)
Heartbeat CPU 0 instructions: 68000431 cycles: 35816388 heartbeat IPC: 2.035 cumulative IPC: 0.7867 (Simulation time: 00 hr 07 min 29 sec)
Heartbeat CPU 0 instructions: 68500436 cycles: 36294648 heartbeat IPC: 1.045 cumulative IPC: 0.792 (Simulation time: 00 hr 07 min 33 sec)
Heartbeat CPU 0 instructions: 69000442 cycles: 36798358 heartbeat IPC: 0.9926 cumulative IPC: 0.7962 (Simulation time: 00 hr 07 min 38 sec)
Heartbeat CPU 0 instructions: 69500449 cycles: 37101351 heartbeat IPC: 1.65 cumulative IPC: 0.8069 (Simulation time: 00 hr 07 min 42 sec)
Heartbeat CPU 0 instructions: 70000449 cycles: 37406082 heartbeat IPC: 1.641 cumulative IPC: 0.8173 (Simulation time: 00 hr 07 min 45 sec)
Heartbeat CPU 0 instructions: 70500450 cycles: 37675363 heartbeat IPC: 1.857 cumulative IPC: 0.8286 (Simulation time: 00 hr 07 min 48 sec)
Heartbeat CPU 0 instructions: 71000450 cycles: 37950247 heartbeat IPC: 1.819 cumulative IPC: 0.8395 (Simulation time: 00 hr 07 min 52 sec)
Heartbeat CPU 0 instructions: 71500451 cycles: 38287333 heartbeat IPC: 1.483 cumulative IPC: 0.8481 (Simulation time: 00 hr 07 min 55 sec)
Heartbeat CPU 0 instructions: 72000451 cycles: 38606331 heartbeat IPC: 1.567 cumulative IPC: 0.857 (Simulation time: 00 hr 07 min 59 sec)
Heartbeat CPU 0 instructions: 72500451 cycles: 38953791 heartbeat IPC: 1.439 cumulative IPC: 0.8648 (Simulation time: 00 hr 08 min 03 sec)
Heartbeat CPU 0 instructions: 73000452 cycles: 39181914 heartbeat IPC: 2.192 cumulative IPC: 0.8763 (Simulation time: 00 hr 08 min 06 sec)
Heartbeat CPU 0 instructions: 73500456 cycles: 39461105 heartbeat IPC: 1.791 cumulative IPC: 0.8859 (Simulation time: 00 hr 08 min 09 sec)
Heartbeat CPU 0 instructions: 74000462 cycles: 39741674 heartbeat IPC: 1.782 cumulative IPC: 0.8953 (Simulation time: 00 hr 08 min 12 sec)
Heartbeat CPU 0 instructions: 74500463 cycles: 40044597 heartbeat IPC: 1.651 cumulative IPC: 0.9037 (Simulation time: 00 hr 08 min 16 sec)
Heartbeat CPU 0 instructions: 75000468 cycles: 40349846 heartbeat IPC: 1.638 cumulative IPC: 0.9119 (Simulation time: 00 hr 08 min 19 sec)
Heartbeat CPU 0 instructions: 75500468 cycles: 40701177 heartbeat IPC: 1.423 cumulative IPC: 0.9184 (Simulation time: 00 hr 08 min 23 sec)
Heartbeat CPU 0 instructions: 76000468 cycles: 40981141 heartbeat IPC: 1.786 cumulative IPC: 0.9271 (Simulation time: 00 hr 08 min 26 sec)
Heartbeat CPU 0 instructions: 76500470 cycles: 41248600 heartbeat IPC: 1.869 cumulative IPC: 0.936 (Simulation time: 00 hr 08 min 29 sec)
Heartbeat CPU 0 instructions: 77000473 cycles: 41520129 heartbeat IPC: 1.841 cumulative IPC: 0.9446 (Simulation time: 00 hr 08 min 33 sec)
Heartbeat CPU 0 instructions: 77500474 cycles: 41783133 heartbeat IPC: 1.901 cumulative IPC: 0.9533 (Simulation time: 00 hr 08 min 36 sec)
Heartbeat CPU 0 instructions: 78000480 cycles: 42087144 heartbeat IPC: 1.645 cumulative IPC: 0.9605 (Simulation time: 00 hr 08 min 39 sec)
Heartbeat CPU 0 instructions: 78500482 cycles: 42401910 heartbeat IPC: 1.588 cumulative IPC: 0.9672 (Simulation time: 00 hr 08 min 43 sec)
Heartbeat CPU 0 instructions: 79000482 cycles: 43009816 heartbeat IPC: 0.8225 cumulative IPC: 0.9643 (Simulation time: 00 hr 08 min 49 sec)
Heartbeat CPU 0 instructions: 79500483 cycles: 43271873 heartbeat IPC: 1.908 cumulative IPC: 0.9724 (Simulation time: 00 hr 08 min 52 sec)
Heartbeat CPU 0 instructions: 80000485 cycles: 43571595 heartbeat IPC: 1.668 cumulative IPC: 0.9792 (Simulation time: 00 hr 08 min 55 sec)
Heartbeat CPU 0 instructions: 80500486 cycles: 43841071 heartbeat IPC: 1.855 cumulative IPC: 0.9869 (Simulation time: 00 hr 08 min 59 sec)
Heartbeat CPU 0 instructions: 81000487 cycles: 44151851 heartbeat IPC: 1.609 cumulative IPC: 0.9931 (Simulation time: 00 hr 09 min 02 sec)
Heartbeat CPU 0 instructions: 81500494 cycles: 44427069 heartbeat IPC: 1.817 cumulative IPC: 1 (Simulation time: 00 hr 09 min 05 sec)
Heartbeat CPU 0 instructions: 82000495 cycles: 44704304 heartbeat IPC: 1.804 cumulative IPC: 1.007 (Simulation time: 00 hr 09 min 09 sec)
Heartbeat CPU 0 instructions: 82500495 cycles: 44970546 heartbeat IPC: 1.878 cumulative IPC: 1.015 (Simulation time: 00 hr 09 min 12 sec)
Heartbeat CPU 0 instructions: 83000500 cycles: 45406240 heartbeat IPC: 1.148 cumulative IPC: 1.016 (Simulation time: 00 hr 09 min 16 sec)
Heartbeat CPU 0 instructions: 83500502 cycles: 45674087 heartbeat IPC: 1.867 cumulative IPC: 1.023 (Simulation time: 00 hr 09 min 19 sec)
Heartbeat CPU 0 instructions: 84000506 cycles: 45962601 heartbeat IPC: 1.733 cumulative IPC: 1.029 (Simulation time: 00 hr 09 min 23 sec)
Heartbeat CPU 0 instructions: 84500513 cycles: 46286260 heartbeat IPC: 1.545 cumulative IPC: 1.034 (Simulation time: 00 hr 09 min 26 sec)
Heartbeat CPU 0 instructions: 85000514 cycles: 46604133 heartbeat IPC: 1.573 cumulative IPC: 1.04 (Simulation time: 00 hr 09 min 30 sec)
Heartbeat CPU 0 instructions: 85500514 cycles: 46837008 heartbeat IPC: 2.147 cumulative IPC: 1.047 (Simulation time: 00 hr 09 min 33 sec)
Heartbeat CPU 0 instructions: 86000514 cycles: 47146402 heartbeat IPC: 1.616 cumulative IPC: 1.052 (Simulation time: 00 hr 09 min 36 sec)
Heartbeat CPU 0 instructions: 86500514 cycles: 47457108 heartbeat IPC: 1.609 cumulative IPC: 1.057 (Simulation time: 00 hr 09 min 40 sec)
Heartbeat CPU 0 instructions: 87000514 cycles: 47816915 heartbeat IPC: 1.39 cumulative IPC: 1.061 (Simulation time: 00 hr 09 min 44 sec)
Heartbeat CPU 0 instructions: 87500517 cycles: 48126394 heartbeat IPC: 1.616 cumulative IPC: 1.066 (Simulation time: 00 hr 09 min 47 sec)
Heartbeat CPU 0 instructions: 88000523 cycles: 48374320 heartbeat IPC: 2.017 cumulative IPC: 1.072 (Simulation time: 00 hr 09 min 50 sec)
Heartbeat CPU 0 instructions: 88500524 cycles: 48580810 heartbeat IPC: 2.421 cumulative IPC: 1.08 (Simulation time: 00 hr 09 min 53 sec)
Heartbeat CPU 0 instructions: 89000531 cycles: 49725936 heartbeat IPC: 0.4366 cumulative IPC: 1.06 (Simulation time: 00 hr 10 min 03 sec)
Heartbeat CPU 0 instructions: 89500531 cycles: 50062483 heartbeat IPC: 1.486 cumulative IPC: 1.064 (Simulation time: 00 hr 10 min 07 sec)
Heartbeat CPU 0 instructions: 90000536 cycles: 50333215 heartbeat IPC: 1.847 cumulative IPC: 1.07 (Simulation time: 00 hr 10 min 10 sec)
Heartbeat CPU 0 instructions: 90500537 cycles: 50651707 heartbeat IPC: 1.57 cumulative IPC: 1.074 (Simulation time: 00 hr 10 min 13 sec)
Heartbeat CPU 0 instructions: 91000541 cycles: 50913274 heartbeat IPC: 1.912 cumulative IPC: 1.08 (Simulation time: 00 hr 10 min 16 sec)
Heartbeat CPU 0 instructions: 91500548 cycles: 51173099 heartbeat IPC: 1.924 cumulative IPC: 1.085 (Simulation time: 00 hr 10 min 19 sec)
Heartbeat CPU 0 instructions: 92000548 cycles: 51435892 heartbeat IPC: 1.903 cumulative IPC: 1.091 (Simulation time: 00 hr 10 min 22 sec)
Heartbeat CPU 0 instructions: 92500548 cycles: 51686156 heartbeat IPC: 1.998 cumulative IPC: 1.097 (Simulation time: 00 hr 10 min 25 sec)
Heartbeat CPU 0 instructions: 93000549 cycles: 52002969 heartbeat IPC: 1.578 cumulative IPC: 1.101 (Simulation time: 00 hr 10 min 29 sec)
Heartbeat CPU 0 instructions: 93500550 cycles: 52280872 heartbeat IPC: 1.799 cumulative IPC: 1.106 (Simulation time: 00 hr 10 min 32 sec)
Heartbeat CPU 0 instructions: 94000551 cycles: 52593709 heartbeat IPC: 1.598 cumulative IPC: 1.109 (Simulation time: 00 hr 10 min 36 sec)
Heartbeat CPU 0 instructions: 94500551 cycles: 52827257 heartbeat IPC: 2.141 cumulative IPC: 1.116 (Simulation time: 00 hr 10 min 39 sec)
Heartbeat CPU 0 instructions: 95000552 cycles: 53084191 heartbeat IPC: 1.946 cumulative IPC: 1.121 (Simulation time: 00 hr 10 min 42 sec)
Heartbeat CPU 0 instructions: 95500558 cycles: 53360267 heartbeat IPC: 1.811 cumulative IPC: 1.126 (Simulation time: 00 hr 10 min 45 sec)
Heartbeat CPU 0 instructions: 96000564 cycles: 53631537 heartbeat IPC: 1.843 cumulative IPC: 1.13 (Simulation time: 00 hr 10 min 48 sec)
Heartbeat CPU 0 instructions: 96500564 cycles: 53902534 heartbeat IPC: 1.845 cumulative IPC: 1.135 (Simulation time: 00 hr 10 min 52 sec)
Heartbeat CPU 0 instructions: 97000569 cycles: 54145774 heartbeat IPC: 2.056 cumulative IPC: 1.14 (Simulation time: 00 hr 10 min 55 sec)
Heartbeat CPU 0 instructions: 97500574 cycles: 54470330 heartbeat IPC: 1.541 cumulative IPC: 1.144 (Simulation time: 00 hr 10 min 59 sec)
Heartbeat CPU 0 instructions: 98000580 cycles: 54736938 heartbeat IPC: 1.875 cumulative IPC: 1.148 (Simulation time: 00 hr 11 min 02 sec)
Heartbeat CPU 0 instructions: 98500580 cycles: 54921256 heartbeat IPC: 2.713 cumulative IPC: 1.155 (Simulation time: 00 hr 11 min 05 sec)
Heartbeat CPU 0 instructions: 99000581 cycles: 55651571 heartbeat IPC: 0.6846 cumulative IPC: 1.147 (Simulation time: 00 hr 11 min 12 sec)
Heartbeat CPU 0 instructions: 99500583 cycles: 55984660 heartbeat IPC: 1.501 cumulative IPC: 1.15 (Simulation time: 00 hr 11 min 16 sec)
Heartbeat CPU 0 instructions: 100000584 cycles: 56290878 heartbeat IPC: 1.633 cumulative IPC: 1.153 (Simulation time: 00 hr 11 min 19 sec)
Heartbeat CPU 0 instructions: 100500584 cycles: 56577703 heartbeat IPC: 1.743 cumulative IPC: 1.157 (Simulation time: 00 hr 11 min 22 sec)
Heartbeat CPU 0 instructions: 101000590 cycles: 56888991 heartbeat IPC: 1.606 cumulative IPC: 1.16 (Simulation time: 00 hr 11 min 26 sec)
Heartbeat CPU 0 instructions: 101500591 cycles: 57215628 heartbeat IPC: 1.531 cumulative IPC: 1.163 (Simulation time: 00 hr 11 min 29 sec)
Heartbeat CPU 0 instructions: 102000592 cycles: 57539497 heartbeat IPC: 1.544 cumulative IPC: 1.166 (Simulation time: 00 hr 11 min 33 sec)
Heartbeat CPU 0 instructions: 102500594 cycles: 57830555 heartbeat IPC: 1.718 cumulative IPC: 1.169 (Simulation time: 00 hr 11 min 36 sec)
Heartbeat CPU 0 instructions: 103000600 cycles: 58111672 heartbeat IPC: 1.779 cumulative IPC: 1.173 (Simulation time: 00 hr 11 min 40 sec)
Heartbeat CPU 0 instructions: 103500607 cycles: 58462744 heartbeat IPC: 1.424 cumulative IPC: 1.175 (Simulation time: 00 hr 11 min 43 sec)
Heartbeat CPU 0 instructions: 104000608 cycles: 58730431 heartbeat IPC: 1.868 cumulative IPC: 1.179 (Simulation time: 00 hr 11 min 47 sec)
Heartbeat CPU 0 instructions: 104500608 cycles: 59034476 heartbeat IPC: 1.644 cumulative IPC: 1.182 (Simulation time: 00 hr 11 min 50 sec)
Heartbeat CPU 0 instructions: 105000608 cycles: 59314168 heartbeat IPC: 1.788 cumulative IPC: 1.186 (Simulation time: 00 hr 11 min 53 sec)
Heartbeat CPU 0 instructions: 105500614 cycles: 59635100 heartbeat IPC: 1.558 cumulative IPC: 1.188 (Simulation time: 00 hr 11 min 57 sec)
Heartbeat CPU 0 instructions: 106000614 cycles: 59911594 heartbeat IPC: 1.808 cumulative IPC: 1.192 (Simulation time: 00 hr 12 min 00 sec)
Heartbeat CPU 0 instructions: 106500617 cycles: 60220184 heartbeat IPC: 1.62 cumulative IPC: 1.195 (Simulation time: 00 hr 12 min 04 sec)
Heartbeat CPU 0 instructions: 107000620 cycles: 60528203 heartbeat IPC: 1.623 cumulative IPC: 1.198 (Simulation time: 00 hr 12 min 07 sec)
Heartbeat CPU 0 instructions: 107500623 cycles: 60827267 heartbeat IPC: 1.672 cumulative IPC: 1.201 (Simulation time: 00 hr 12 min 10 sec)
Heartbeat CPU 0 instructions: 108000624 cycles: 61065621 heartbeat IPC: 2.098 cumulative IPC: 1.205 (Simulation time: 00 hr 12 min 13 sec)
Heartbeat CPU 0 instructions: 108500625 cycles: 61307833 heartbeat IPC: 2.064 cumulative IPC: 1.209 (Simulation time: 00 hr 12 min 17 sec)
Heartbeat CPU 0 instructions: 109000629 cycles: 62267201 heartbeat IPC: 0.5212 cumulative IPC: 1.196 (Simulation time: 00 hr 12 min 26 sec)
Heartbeat CPU 0 instructions: 109500635 cycles: 62629272 heartbeat IPC: 1.381 cumulative IPC: 1.197 (Simulation time: 00 hr 12 min 30 sec)
Heartbeat CPU 0 instructions: 110000640 cycles: 62901687 heartbeat IPC: 1.835 cumulative IPC: 1.201 (Simulation time: 00 hr 12 min 33 sec)
Heartbeat CPU 0 instructions: 110500642 cycles: 63184140 heartbeat IPC: 1.77 cumulative IPC: 1.204 (Simulation time: 00 hr 12 min 36 sec)
Heartbeat CPU 0 instructions: 111000642 cycles: 63476105 heartbeat IPC: 1.713 cumulative IPC: 1.207 (Simulation time: 00 hr 12 min 39 sec)
Heartbeat CPU 0 instructions: 111500642 cycles: 63751125 heartbeat IPC: 1.818 cumulative IPC: 1.21 (Simulation time: 00 hr 12 min 42 sec)
Heartbeat CPU 0 instructions: 112000646 cycles: 64030552 heartbeat IPC: 1.789 cumulative IPC: 1.213 (Simulation time: 00 hr 12 min 45 sec)
Heartbeat CPU 0 instructions: 112500646 cycles: 64261509 heartbeat IPC: 2.165 cumulative IPC: 1.218 (Simulation time: 00 hr 12 min 48 sec)
Heartbeat CPU 0 instructions: 113000649 cycles: 64581527 heartbeat IPC: 1.562 cumulative IPC: 1.22 (Simulation time: 00 hr 12 min 52 sec)
Heartbeat CPU 0 instructions: 113500650 cycles: 64902718 heartbeat IPC: 1.557 cumulative IPC: 1.222 (Simulation time: 00 hr 12 min 55 sec)
Heartbeat CPU 0 instructions: 114000650 cycles: 65187803 heartbeat IPC: 1.754 cumulative IPC: 1.225 (Simulation time: 00 hr 12 min 59 sec)
Heartbeat CPU 0 instructions: 114500654 cycles: 65497057 heartbeat IPC: 1.617 cumulative IPC: 1.227 (Simulation time: 00 hr 13 min 02 sec)
Heartbeat CPU 0 instructions: 115000659 cycles: 65777819 heartbeat IPC: 1.781 cumulative IPC: 1.23 (Simulation time: 00 hr 13 min 05 sec)
Heartbeat CPU 0 instructions: 115500662 cycles: 66085263 heartbeat IPC: 1.626 cumulative IPC: 1.232 (Simulation time: 00 hr 13 min 09 sec)
Heartbeat CPU 0 instructions: 116000665 cycles: 66430548 heartbeat IPC: 1.448 cumulative IPC: 1.234 (Simulation time: 00 hr 13 min 13 sec)
Heartbeat CPU 0 instructions: 116500666 cycles: 66725662 heartbeat IPC: 1.694 cumulative IPC: 1.236 (Simulation time: 00 hr 13 min 16 sec)
Heartbeat CPU 0 instructions: 117000666 cycles: 66979638 heartbeat IPC: 1.969 cumulative IPC: 1.24 (Simulation time: 00 hr 13 min 19 sec)
Heartbeat CPU 0 instructions: 117500669 cycles: 67238644 heartbeat IPC: 1.93 cumulative IPC: 1.243 (Simulation time: 00 hr 13 min 22 sec)
Heartbeat CPU 0 instructions: 118000674 cycles: 68779491 heartbeat IPC: 0.3245 cumulative IPC: 1.218 (Simulation time: 00 hr 13 min 36 sec)
Heartbeat CPU 0 instructions: 118500674 cycles: 71052852 heartbeat IPC: 0.2199 cumulative IPC: 1.179 (Simulation time: 00 hr 14 min 01 sec)
Heartbeat CPU 0 instructions: 119000675 cycles: 72877677 heartbeat IPC: 0.274 cumulative IPC: 1.151 (Simulation time: 00 hr 14 min 23 sec)
Heartbeat CPU 0 instructions: 119500675 cycles: 74961518 heartbeat IPC: 0.2399 cumulative IPC: 1.12 (Simulation time: 00 hr 14 min 47 sec)
Heartbeat CPU 0 instructions: 120000675 cycles: 77685849 heartbeat IPC: 0.1835 cumulative IPC: 1.081 (Simulation time: 00 hr 15 min 06 sec)
Heartbeat CPU 0 instructions: 120500677 cycles: 79212705 heartbeat IPC: 0.3275 cumulative IPC: 1.064 (Simulation time: 00 hr 15 min 18 sec)
Heartbeat CPU 0 instructions: 121000683 cycles: 79573362 heartbeat IPC: 1.386 cumulative IPC: 1.065 (Simulation time: 00 hr 15 min 21 sec)
Heartbeat CPU 0 instructions: 121500686 cycles: 79910312 heartbeat IPC: 1.484 cumulative IPC: 1.068 (Simulation time: 00 hr 15 min 25 sec)
Heartbeat CPU 0 instructions: 122000690 cycles: 80236899 heartbeat IPC: 1.531 cumulative IPC: 1.07 (Simulation time: 00 hr 15 min 28 sec)
Heartbeat CPU 0 instructions: 122500695 cycles: 82250721 heartbeat IPC: 0.2483 cumulative IPC: 1.046 (Simulation time: 00 hr 15 min 43 sec)
Heartbeat CPU 0 instructions: 123000696 cycles: 83176344 heartbeat IPC: 0.5402 cumulative IPC: 1.039 (Simulation time: 00 hr 15 min 50 sec)
Heartbeat CPU 0 instructions: 123500700 cycles: 85059869 heartbeat IPC: 0.2655 cumulative IPC: 1.019 (Simulation time: 00 hr 16 min 04 sec)
Heartbeat CPU 0 instructions: 124000707 cycles: 87037962 heartbeat IPC: 0.2528 cumulative IPC: 0.9986 (Simulation time: 00 hr 16 min 19 sec)
Heartbeat CPU 0 instructions: 124500708 cycles: 88552919 heartbeat IPC: 0.33 cumulative IPC: 0.9852 (Simulation time: 00 hr 16 min 30 sec)
Heartbeat CPU 0 instructions: 125000708 cycles: 89856012 heartbeat IPC: 0.3837 cumulative IPC: 0.975 (Simulation time: 00 hr 16 min 40 sec)
Heartbeat CPU 0 instructions: 125500709 cycles: 90566057 heartbeat IPC: 0.7042 cumulative IPC: 0.9726 (Simulation time: 00 hr 16 min 46 sec)
Heartbeat CPU 0 instructions: 126000714 cycles: 91042885 heartbeat IPC: 1.049 cumulative IPC: 0.973 (Simulation time: 00 hr 16 min 51 sec)
Heartbeat CPU 0 instructions: 126500721 cycles: 91531458 heartbeat IPC: 1.023 cumulative IPC: 0.9733 (Simulation time: 00 hr 16 min 56 sec)
Heartbeat CPU 0 instructions: 127000724 cycles: 92224420 heartbeat IPC: 0.7215 cumulative IPC: 0.9711 (Simulation time: 00 hr 17 min 02 sec)
Heartbeat CPU 0 instructions: 127500729 cycles: 94063811 heartbeat IPC: 0.2718 cumulative IPC: 0.9553 (Simulation time: 00 hr 17 min 17 sec)
Heartbeat CPU 0 instructions: 128000729 cycles: 94983867 heartbeat IPC: 0.5434 cumulative IPC: 0.9507 (Simulation time: 00 hr 17 min 28 sec)
Heartbeat CPU 0 instructions: 128500729 cycles: 96331646 heartbeat IPC: 0.371 cumulative IPC: 0.9413 (Simulation time: 00 hr 17 min 42 sec)
Heartbeat CPU 0 instructions: 129000736 cycles: 98065413 heartbeat IPC: 0.2884 cumulative IPC: 0.928 (Simulation time: 00 hr 17 min 54 sec)
Heartbeat CPU 0 instructions: 129500742 cycles: 98425752 heartbeat IPC: 1.388 cumulative IPC: 0.9299 (Simulation time: 00 hr 17 min 58 sec)
Heartbeat CPU 0 instructions: 130000743 cycles: 98737869 heartbeat IPC: 1.602 cumulative IPC: 0.9324 (Simulation time: 00 hr 18 min 01 sec)
Heartbeat CPU 0 instructions: 130500745 cycles: 99072885 heartbeat IPC: 1.492 cumulative IPC: 0.9346 (Simulation time: 00 hr 18 min 05 sec)
Heartbeat CPU 0 instructions: 131000746 cycles: 101009049 heartbeat IPC: 0.2582 cumulative IPC: 0.9197 (Simulation time: 00 hr 18 min 19 sec)
Heartbeat CPU 0 instructions: 131500746 cycles: 102241504 heartbeat IPC: 0.4057 cumulative IPC: 0.9126 (Simulation time: 00 hr 18 min 29 sec)
Heartbeat CPU 0 instructions: 132000749 cycles: 102812139 heartbeat IPC: 0.8762 cumulative IPC: 0.9124 (Simulation time: 00 hr 18 min 33 sec)
Heartbeat CPU 0 instructions: 132500751 cycles: 103773460 heartbeat IPC: 0.5201 cumulative IPC: 0.9082 (Simulation time: 00 hr 18 min 40 sec)
Heartbeat CPU 0 instructions: 133000757 cycles: 105248512 heartbeat IPC: 0.339 cumulative IPC: 0.8991 (Simulation time: 00 hr 18 min 51 sec)
Heartbeat CPU 0 instructions: 133500758 cycles: 106210661 heartbeat IPC: 0.5197 cumulative IPC: 0.8952 (Simulation time: 00 hr 18 min 59 sec)
Heartbeat CPU 0 instructions: 134000759 cycles: 107370304 heartbeat IPC: 0.4312 cumulative IPC: 0.8895 (Simulation time: 00 hr 19 min 08 sec)
Heartbeat CPU 0 instructions: 134500760 cycles: 108899976 heartbeat IPC: 0.3269 cumulative IPC: 0.8805 (Simulation time: 00 hr 19 min 19 sec)
Heartbeat CPU 0 instructions: 135000764 cycles: 109300468 heartbeat IPC: 1.248 cumulative IPC: 0.8821 (Simulation time: 00 hr 19 min 23 sec)
Heartbeat CPU 0 instructions: 135500764 cycles: 109566737 heartbeat IPC: 1.878 cumulative IPC: 0.8848 (Simulation time: 00 hr 19 min 26 sec)
Heartbeat CPU 0 instructions: 136000765 cycles: 109886170 heartbeat IPC: 1.565 cumulative IPC: 0.887 (Simulation time: 00 hr 19 min 30 sec)
Heartbeat CPU 0 instructions: 136500768 cycles: 110796809 heartbeat IPC: 0.5491 cumulative IPC: 0.8839 (Simulation time: 00 hr 19 min 37 sec)
Heartbeat CPU 0 instructions: 137000772 cycles: 113251212 heartbeat IPC: 0.2037 cumulative IPC: 0.8673 (Simulation time: 00 hr 19 min 55 sec)
Heartbeat CPU 0 instructions: 137500779 cycles: 114380902 heartbeat IPC: 0.4426 cumulative IPC: 0.8625 (Simulation time: 00 hr 20 min 04 sec)
Heartbeat CPU 0 instructions: 138000779 cycles: 114790343 heartbeat IPC: 1.221 cumulative IPC: 0.864 (Simulation time: 00 hr 20 min 08 sec)
Heartbeat CPU 0 instructions: 138500786 cycles: 115298688 heartbeat IPC: 0.9836 cumulative IPC: 0.8646 (Simulation time: 00 hr 20 min 13 sec)
Heartbeat CPU 0 instructions: 139000789 cycles: 115525322 heartbeat IPC: 2.206 cumulative IPC: 0.8675 (Simulation time: 00 hr 20 min 16 sec)
Heartbeat CPU 0 instructions: 139500794 cycles: 115725395 heartbeat IPC: 2.499 cumulative IPC: 0.8707 (Simulation time: 00 hr 20 min 18 sec)
Heartbeat CPU 0 instructions: 140000794 cycles: 117092954 heartbeat IPC: 0.3656 cumulative IPC: 0.8641 (Simulation time: 00 hr 20 min 30 sec)
Heartbeat CPU 0 instructions: 140500797 cycles: 118235983 heartbeat IPC: 0.4374 cumulative IPC: 0.8594 (Simulation time: 00 hr 20 min 39 sec)
Heartbeat CPU 0 instructions: 141000797 cycles: 119178101 heartbeat IPC: 0.5307 cumulative IPC: 0.8565 (Simulation time: 00 hr 20 min 46 sec)
Heartbeat CPU 0 instructions: 141500799 cycles: 119947126 heartbeat IPC: 0.6502 cumulative IPC: 0.855 (Simulation time: 00 hr 20 min 52 sec)
Heartbeat CPU 0 instructions: 142000805 cycles: 120411387 heartbeat IPC: 1.077 cumulative IPC: 0.856 (Simulation time: 00 hr 20 min 57 sec)
Heartbeat CPU 0 instructions: 142500812 cycles: 121396693 heartbeat IPC: 0.5075 cumulative IPC: 0.8528 (Simulation time: 00 hr 21 min 05 sec)
Heartbeat CPU 0 instructions: 143000816 cycles: 122634026 heartbeat IPC: 0.4041 cumulative IPC: 0.8478 (Simulation time: 00 hr 21 min 14 sec)
Heartbeat CPU 0 instructions: 143500816 cycles: 123628700 heartbeat IPC: 0.5027 cumulative IPC: 0.8447 (Simulation time: 00 hr 21 min 22 sec)
Heartbeat CPU 0 instructions: 144000816 cycles: 125334177 heartbeat IPC: 0.2932 cumulative IPC: 0.8363 (Simulation time: 00 hr 21 min 35 sec)
Heartbeat CPU 0 instructions: 144500816 cycles: 127029403 heartbeat IPC: 0.2949 cumulative IPC: 0.8283 (Simulation time: 00 hr 21 min 47 sec)
Heartbeat CPU 0 instructions: 145000816 cycles: 128737433 heartbeat IPC: 0.2927 cumulative IPC: 0.8204 (Simulation time: 00 hr 21 min 59 sec)
Heartbeat CPU 0 instructions: 145500817 cycles: 130251201 heartbeat IPC: 0.3303 cumulative IPC: 0.814 (Simulation time: 00 hr 22 min 10 sec)
Heartbeat CPU 0 instructions: 146000824 cycles: 130846156 heartbeat IPC: 0.8404 cumulative IPC: 0.8142 (Simulation time: 00 hr 22 min 15 sec)
Heartbeat CPU 0 instructions: 146500824 cycles: 131217765 heartbeat IPC: 1.346 cumulative IPC: 0.8158 (Simulation time: 00 hr 22 min 19 sec)
Heartbeat CPU 0 instructions: 147000828 cycles: 131538038 heartbeat IPC: 1.561 cumulative IPC: 0.8179 (Simulation time: 00 hr 22 min 22 sec)
Heartbeat CPU 0 instructions: 147500830 cycles: 131851660 heartbeat IPC: 1.594 cumulative IPC: 0.8199 (Simulation time: 00 hr 22 min 26 sec)
Heartbeat CPU 0 instructions: 148000833 cycles: 132107892 heartbeat IPC: 1.951 cumulative IPC: 0.8223 (Simulation time: 00 hr 22 min 29 sec)
Heartbeat CPU 0 instructions: 148500834 cycles: 132432666 heartbeat IPC: 1.54 cumulative IPC: 0.8243 (Simulation time: 00 hr 22 min 33 sec)
Heartbeat CPU 0 instructions: 149000837 cycles: 132736858 heartbeat IPC: 1.644 cumulative IPC: 0.8264 (Simulation time: 00 hr 22 min 36 sec)
Heartbeat CPU 0 instructions: 149500837 cycles: 133048766 heartbeat IPC: 1.603 cumulative IPC: 0.8284 (Simulation time: 00 hr 22 min 39 sec)
Heartbeat CPU 0 instructions: 150000840 cycles: 133329537 heartbeat IPC: 1.781 cumulative IPC: 0.8306 (Simulation time: 00 hr 22 min 43 sec)
Heartbeat CPU 0 instructions: 150500843 cycles: 133602498 heartbeat IPC: 1.832 cumulative IPC: 0.8329 (Simulation time: 00 hr 22 min 46 sec)
Heartbeat CPU 0 instructions: 151000845 cycles: 133858883 heartbeat IPC: 1.95 cumulative IPC: 0.8352 (Simulation time: 00 hr 22 min 49 sec)
Heartbeat CPU 0 instructions: 151500849 cycles: 134408350 heartbeat IPC: 0.91 cumulative IPC: 0.8356 (Simulation time: 00 hr 22 min 54 sec)
Heartbeat CPU 0 instructions: 152000849 cycles: 134662936 heartbeat IPC: 1.964 cumulative IPC: 0.8379 (Simulation time: 00 hr 22 min 57 sec)
Heartbeat CPU 0 instructions: 152500851 cycles: 135720616 heartbeat IPC: 0.4727 cumulative IPC: 0.8348 (Simulation time: 00 hr 23 min 06 sec)
Heartbeat CPU 0 instructions: 153000852 cycles: 137184218 heartbeat IPC: 0.3416 cumulative IPC: 0.829 (Simulation time: 00 hr 23 min 18 sec)
Heartbeat CPU 0 instructions: 153500854 cycles: 139080948 heartbeat IPC: 0.2636 cumulative IPC: 0.8205 (Simulation time: 00 hr 23 min 32 sec)
Heartbeat CPU 0 instructions: 154000854 cycles: 141483969 heartbeat IPC: 0.2081 cumulative IPC: 0.809 (Simulation time: 00 hr 23 min 49 sec)
Heartbeat CPU 0 instructions: 154500855 cycles: 142073336 heartbeat IPC: 0.8484 cumulative IPC: 0.8092 (Simulation time: 00 hr 23 min 54 sec)
Heartbeat CPU 0 instructions: 155000855 cycles: 142670292 heartbeat IPC: 0.8376 cumulative IPC: 0.8093 (Simulation time: 00 hr 24 min 00 sec)
Heartbeat CPU 0 instructions: 155500856 cycles: 143271871 heartbeat IPC: 0.8311 cumulative IPC: 0.8094 (Simulation time: 00 hr 24 min 06 sec)
Heartbeat CPU 0 instructions: 156000858 cycles: 143824946 heartbeat IPC: 0.904 cumulative IPC: 0.8098 (Simulation time: 00 hr 24 min 12 sec)
Heartbeat CPU 0 instructions: 156500859 cycles: 144440884 heartbeat IPC: 0.8118 cumulative IPC: 0.8099 (Simulation time: 00 hr 24 min 19 sec)
Heartbeat CPU 0 instructions: 157000859 cycles: 145162869 heartbeat IPC: 0.6925 cumulative IPC: 0.8092 (Simulation time: 00 hr 24 min 26 sec)
Heartbeat CPU 0 instructions: 157500866 cycles: 145677461 heartbeat IPC: 0.9717 cumulative IPC: 0.8098 (Simulation time: 00 hr 24 min 33 sec)
Heartbeat CPU 0 instructions: 158000870 cycles: 146138398 heartbeat IPC: 1.085 cumulative IPC: 0.8108 (Simulation time: 00 hr 24 min 39 sec)
Heartbeat CPU 0 instructions: 158500875 cycles: 146833617 heartbeat IPC: 0.7192 cumulative IPC: 0.8103 (Simulation time: 00 hr 24 min 47 sec)
Heartbeat CPU 0 instructions: 159000876 cycles: 147386579 heartbeat IPC: 0.9042 cumulative IPC: 0.8107 (Simulation time: 00 hr 24 min 54 sec)
Heartbeat CPU 0 instructions: 159500876 cycles: 147975540 heartbeat IPC: 0.849 cumulative IPC: 0.8109 (Simulation time: 00 hr 25 min 00 sec)
Heartbeat CPU 0 instructions: 160000879 cycles: 148528159 heartbeat IPC: 0.9048 cumulative IPC: 0.8113 (Simulation time: 00 hr 25 min 07 sec)
Heartbeat CPU 0 instructions: 160500879 cycles: 149168068 heartbeat IPC: 0.7814 cumulative IPC: 0.8111 (Simulation time: 00 hr 25 min 14 sec)
Heartbeat CPU 0 instructions: 161000881 cycles: 149757024 heartbeat IPC: 0.849 cumulative IPC: 0.8113 (Simulation time: 00 hr 25 min 21 sec)
Heartbeat CPU 0 instructions: 161500882 cycles: 150460606 heartbeat IPC: 0.7107 cumulative IPC: 0.8108 (Simulation time: 00 hr 25 min 29 sec)
Heartbeat CPU 0 instructions: 162000884 cycles: 150949282 heartbeat IPC: 1.023 cumulative IPC: 0.8115 (Simulation time: 00 hr 25 min 36 sec)
Heartbeat CPU 0 instructions: 162500889 cycles: 151589004 heartbeat IPC: 0.7816 cumulative IPC: 0.8114 (Simulation time: 00 hr 25 min 44 sec)
Heartbeat CPU 0 instructions: 163000896 cycles: 152527190 heartbeat IPC: 0.533 cumulative IPC: 0.8095 (Simulation time: 00 hr 25 min 53 sec)
Heartbeat CPU 0 instructions: 163500902 cycles: 153239728 heartbeat IPC: 0.7017 cumulative IPC: 0.809 (Simulation time: 00 hr 26 min 01 sec)
Heartbeat CPU 0 instructions: 164000908 cycles: 153773799 heartbeat IPC: 0.9362 cumulative IPC: 0.8094 (Simulation time: 00 hr 26 min 07 sec)
Heartbeat CPU 0 instructions: 164500908 cycles: 154394079 heartbeat IPC: 0.8061 cumulative IPC: 0.8094 (Simulation time: 00 hr 26 min 14 sec)
Heartbeat CPU 0 instructions: 165000914 cycles: 154978914 heartbeat IPC: 0.855 cumulative IPC: 0.8096 (Simulation time: 00 hr 26 min 21 sec)
Heartbeat CPU 0 instructions: 165500916 cycles: 155482344 heartbeat IPC: 0.9932 cumulative IPC: 0.8103 (Simulation time: 00 hr 26 min 27 sec)
Heartbeat CPU 0 instructions: 166000916 cycles: 156120152 heartbeat IPC: 0.7839 cumulative IPC: 0.8101 (Simulation time: 00 hr 26 min 35 sec)
Heartbeat CPU 0 instructions: 166500921 cycles: 156589062 heartbeat IPC: 1.066 cumulative IPC: 0.811 (Simulation time: 00 hr 26 min 41 sec)
Heartbeat CPU 0 instructions: 167000923 cycles: 157175781 heartbeat IPC: 0.8522 cumulative IPC: 0.8111 (Simulation time: 00 hr 26 min 48 sec)
Heartbeat CPU 0 instructions: 167500927 cycles: 157909965 heartbeat IPC: 0.681 cumulative IPC: 0.8105 (Simulation time: 00 hr 26 min 56 sec)
Heartbeat CPU 0 instructions: 168000933 cycles: 158452251 heartbeat IPC: 0.922 cumulative IPC: 0.8109 (Simulation time: 00 hr 27 min 02 sec)
Heartbeat CPU 0 instructions: 168500934 cycles: 159052748 heartbeat IPC: 0.8326 cumulative IPC: 0.811 (Simulation time: 00 hr 27 min 09 sec)
Heartbeat CPU 0 instructions: 169000936 cycles: 159531589 heartbeat IPC: 1.044 cumulative IPC: 0.8118 (Simulation time: 00 hr 27 min 16 sec)
Heartbeat CPU 0 instructions: 169500941 cycles: 160120618 heartbeat IPC: 0.8489 cumulative IPC: 0.8119 (Simulation time: 00 hr 27 min 22 sec)
Heartbeat CPU 0 instructions: 170000943 cycles: 160670459 heartbeat IPC: 0.9094 cumulative IPC: 0.8123 (Simulation time: 00 hr 27 min 29 sec)
Heartbeat CPU 0 instructions: 170500949 cycles: 161203732 heartbeat IPC: 0.9376 cumulative IPC: 0.8127 (Simulation time: 00 hr 27 min 35 sec)
Heartbeat CPU 0 instructions: 171000955 cycles: 161835089 heartbeat IPC: 0.792 cumulative IPC: 0.8126 (Simulation time: 00 hr 27 min 42 sec)
Heartbeat CPU 0 instructions: 171500955 cycles: 162528284 heartbeat IPC: 0.7213 cumulative IPC: 0.8122 (Simulation time: 00 hr 27 min 50 sec)
Heartbeat CPU 0 instructions: 172000961 cycles: 163048631 heartbeat IPC: 0.9609 cumulative IPC: 0.8127 (Simulation time: 00 hr 27 min 57 sec)
Heartbeat CPU 0 instructions: 172500963 cycles: 163580927 heartbeat IPC: 0.9393 cumulative IPC: 0.8132 (Simulation time: 00 hr 28 min 03 sec)
Heartbeat CPU 0 instructions: 173000963 cycles: 164284856 heartbeat IPC: 0.7103 cumulative IPC: 0.8127 (Simulation time: 00 hr 28 min 11 sec)
Heartbeat CPU 0 instructions: 173500969 cycles: 164862946 heartbeat IPC: 0.8649 cumulative IPC: 0.8129 (Simulation time: 00 hr 28 min 17 sec)
Heartbeat CPU 0 instructions: 174000970 cycles: 165391513 heartbeat IPC: 0.946 cumulative IPC: 0.8134 (Simulation time: 00 hr 28 min 24 sec)
Heartbeat CPU 0 instructions: 174500974 cycles: 165933876 heartbeat IPC: 0.9219 cumulative IPC: 0.8137 (Simulation time: 00 hr 28 min 30 sec)
Heartbeat CPU 0 instructions: 175000976 cycles: 166446075 heartbeat IPC: 0.9762 cumulative IPC: 0.8143 (Simulation time: 00 hr 28 min 36 sec)
Heartbeat CPU 0 instructions: 175500976 cycles: 169233846 heartbeat IPC: 0.1794 cumulative IPC: 0.803 (Simulation time: 00 hr 28 min 58 sec)
Heartbeat CPU 0 instructions: 176000976 cycles: 170931835 heartbeat IPC: 0.2945 cumulative IPC: 0.7975 (Simulation time: 00 hr 29 min 10 sec)
Heartbeat CPU 0 instructions: 176500976 cycles: 172221144 heartbeat IPC: 0.3878 cumulative IPC: 0.7942 (Simulation time: 00 hr 29 min 20 sec)
Heartbeat CPU 0 instructions: 177000979 cycles: 173347534 heartbeat IPC: 0.4439 cumulative IPC: 0.7917 (Simulation time: 00 hr 29 min 29 sec)
Heartbeat CPU 0 instructions: 177500979 cycles: 177702744 heartbeat IPC: 0.1148 cumulative IPC: 0.7738 (Simulation time: 00 hr 29 min 58 sec)
Heartbeat CPU 0 instructions: 178000982 cycles: 181288115 heartbeat IPC: 0.1395 cumulative IPC: 0.7603 (Simulation time: 00 hr 30 min 22 sec)
Heartbeat CPU 0 instructions: 178500987 cycles: 182697968 heartbeat IPC: 0.3547 cumulative IPC: 0.7569 (Simulation time: 00 hr 30 min 33 sec)
Heartbeat CPU 0 instructions: 179000991 cycles: 183285612 heartbeat IPC: 0.8509 cumulative IPC: 0.7573 (Simulation time: 00 hr 30 min 40 sec)
Heartbeat CPU 0 instructions: 179500998 cycles: 183679379 heartbeat IPC: 1.27 cumulative IPC: 0.7584 (Simulation time: 00 hr 30 min 44 sec)
Heartbeat CPU 0 instructions: 180001004 cycles: 183950819 heartbeat IPC: 1.842 cumulative IPC: 0.7602 (Simulation time: 00 hr 30 min 48 sec)
Heartbeat CPU 0 instructions: 180501009 cycles: 184146699 heartbeat IPC: 2.553 cumulative IPC: 0.7622 (Simulation time: 00 hr 30 min 51 sec)
Heartbeat CPU 0 instructions: 181001013 cycles: 184960970 heartbeat IPC: 0.6141 cumulative IPC: 0.7615 (Simulation time: 00 hr 31 min 00 sec)
Heartbeat CPU 0 instructions: 181501013 cycles: 185711621 heartbeat IPC: 0.6661 cumulative IPC: 0.7611 (Simulation time: 00 hr 31 min 08 sec)
Heartbeat CPU 0 instructions: 182001016 cycles: 186385235 heartbeat IPC: 0.7423 cumulative IPC: 0.761 (Simulation time: 00 hr 31 min 16 sec)
Heartbeat CPU 0 instructions: 182501019 cycles: 187059376 heartbeat IPC: 0.7417 cumulative IPC: 0.761 (Simulation time: 00 hr 31 min 24 sec)
Heartbeat CPU 0 instructions: 183001025 cycles: 187807264 heartbeat IPC: 0.6686 cumulative IPC: 0.7606 (Simulation time: 00 hr 31 min 34 sec)
Heartbeat CPU 0 instructions: 183501028 cycles: 188631312 heartbeat IPC: 0.6068 cumulative IPC: 0.7598 (Simulation time: 00 hr 31 min 41 sec)
Heartbeat CPU 0 instructions: 184001030 cycles: 189292228 heartbeat IPC: 0.7565 cumulative IPC: 0.7598 (Simulation time: 00 hr 31 min 49 sec)
Heartbeat CPU 0 instructions: 184501031 cycles: 190944361 heartbeat IPC: 0.3026 cumulative IPC: 0.7556 (Simulation time: 00 hr 32 min 01 sec)
Heartbeat CPU 0 instructions: 185001033 cycles: 191812290 heartbeat IPC: 0.5761 cumulative IPC: 0.7547 (Simulation time: 00 hr 32 min 09 sec)
Heartbeat CPU 0 instructions: 185501034 cycles: 192626058 heartbeat IPC: 0.6144 cumulative IPC: 0.7541 (Simulation time: 00 hr 32 min 16 sec)
Heartbeat CPU 0 instructions: 186001041 cycles: 193187504 heartbeat IPC: 0.8906 cumulative IPC: 0.7545 (Simulation time: 00 hr 32 min 22 sec)
Heartbeat CPU 0 instructions: 186501045 cycles: 193906257 heartbeat IPC: 0.6957 cumulative IPC: 0.7543 (Simulation time: 00 hr 32 min 30 sec)
Heartbeat CPU 0 instructions: 187001051 cycles: 194680601 heartbeat IPC: 0.6457 cumulative IPC: 0.7538 (Simulation time: 00 hr 32 min 37 sec)
Heartbeat CPU 0 instructions: 187501055 cycles: 195338590 heartbeat IPC: 0.7599 cumulative IPC: 0.7538 (Simulation time: 00 hr 32 min 44 sec)
Heartbeat CPU 0 instructions: 188001060 cycles: 196043469 heartbeat IPC: 0.7093 cumulative IPC: 0.7537 (Simulation time: 00 hr 32 min 52 sec)
Heartbeat CPU 0 instructions: 188501067 cycles: 196723348 heartbeat IPC: 0.7354 cumulative IPC: 0.7536 (Simulation time: 00 hr 32 min 59 sec)
Heartbeat CPU 0 instructions: 189001067 cycles: 197362734 heartbeat IPC: 0.782 cumulative IPC: 0.7537 (Simulation time: 00 hr 33 min 05 sec)
Heartbeat CPU 0 instructions: 189501070 cycles: 198428340 heartbeat IPC: 0.4692 cumulative IPC: 0.7521 (Simulation time: 00 hr 33 min 14 sec)
Heartbeat CPU 0 instructions: 190001071 cycles: 199460014 heartbeat IPC: 0.4847 cumulative IPC: 0.7506 (Simulation time: 00 hr 33 min 24 sec)
Heartbeat CPU 0 instructions: 190501076 cycles: 201126288 heartbeat IPC: 0.3001 cumulative IPC: 0.7466 (Simulation time: 00 hr 33 min 42 sec)
Heartbeat CPU 0 instructions: 191001081 cycles: 202716379 heartbeat IPC: 0.3145 cumulative IPC: 0.743 (Simulation time: 00 hr 33 min 58 sec)
Heartbeat CPU 0 instructions: 191501082 cycles: 204109205 heartbeat IPC: 0.359 cumulative IPC: 0.7402 (Simulation time: 00 hr 34 min 10 sec)
Heartbeat CPU 0 instructions: 192001082 cycles: 205316553 heartbeat IPC: 0.4141 cumulative IPC: 0.7381 (Simulation time: 00 hr 34 min 21 sec)
Heartbeat CPU 0 instructions: 192501085 cycles: 206635205 heartbeat IPC: 0.3792 cumulative IPC: 0.7357 (Simulation time: 00 hr 34 min 33 sec)
Heartbeat CPU 0 instructions: 193001085 cycles: 207828475 heartbeat IPC: 0.419 cumulative IPC: 0.7337 (Simulation time: 00 hr 34 min 44 sec)
Heartbeat CPU 0 instructions: 193501087 cycles: 209197628 heartbeat IPC: 0.3652 cumulative IPC: 0.7312 (Simulation time: 00 hr 34 min 57 sec)
Heartbeat CPU 0 instructions: 194001089 cycles: 210546116 heartbeat IPC: 0.3708 cumulative IPC: 0.7287 (Simulation time: 00 hr 35 min 10 sec)
Heartbeat CPU 0 instructions: 194501090 cycles: 211732753 heartbeat IPC: 0.4214 cumulative IPC: 0.7269 (Simulation time: 00 hr 35 min 22 sec)
Heartbeat CPU 0 instructions: 195001093 cycles: 212767328 heartbeat IPC: 0.4833 cumulative IPC: 0.7256 (Simulation time: 00 hr 35 min 31 sec)
Heartbeat CPU 0 instructions: 195501094 cycles: 214122275 heartbeat IPC: 0.369 cumulative IPC: 0.7232 (Simulation time: 00 hr 35 min 45 sec)
Heartbeat CPU 0 instructions: 196001096 cycles: 214964181 heartbeat IPC: 0.5939 cumulative IPC: 0.7227 (Simulation time: 00 hr 35 min 54 sec)
Heartbeat CPU 0 instructions: 196501103 cycles: 215770926 heartbeat IPC: 0.6198 cumulative IPC: 0.7223 (Simulation time: 00 hr 36 min 03 sec)
Heartbeat CPU 0 instructions: 197001104 cycles: 216612251 heartbeat IPC: 0.5943 cumulative IPC: 0.7217 (Simulation time: 00 hr 36 min 12 sec)
Heartbeat CPU 0 instructions: 197501107 cycles: 217660887 heartbeat IPC: 0.4768 cumulative IPC: 0.7205 (Simulation time: 00 hr 36 min 23 sec)
Heartbeat CPU 0 instructions: 198001107 cycles: 219460611 heartbeat IPC: 0.2778 cumulative IPC: 0.7166 (Simulation time: 00 hr 36 min 39 sec)
Heartbeat CPU 0 instructions: 198501110 cycles: 220494403 heartbeat IPC: 0.4837 cumulative IPC: 0.7155 (Simulation time: 00 hr 36 min 50 sec)
Heartbeat CPU 0 instructions: 199001110 cycles: 221500643 heartbeat IPC: 0.4969 cumulative IPC: 0.7144 (Simulation time: 00 hr 37 min 00 sec)
Heartbeat CPU 0 instructions: 199501113 cycles: 222583953 heartbeat IPC: 0.4616 cumulative IPC: 0.7131 (Simulation time: 00 hr 37 min 10 sec)
Heartbeat CPU 0 instructions: 200001113 cycles: 224190040 heartbeat IPC: 0.3113 cumulative IPC: 0.71 (Simulation time: 00 hr 37 min 21 sec)
Heartbeat CPU 0 instructions: 200501113 cycles: 224921647 heartbeat IPC: 0.6834 cumulative IPC: 0.71 (Simulation time: 00 hr 37 min 28 sec)
Heartbeat CPU 0 instructions: 201001116 cycles: 226547309 heartbeat IPC: 0.3076 cumulative IPC: 0.7069 (Simulation time: 00 hr 37 min 44 sec)
Heartbeat CPU 0 instructions: 201501117 cycles: 228008645 heartbeat IPC: 0.3422 cumulative IPC: 0.7044 (Simulation time: 00 hr 37 min 59 sec)
Heartbeat CPU 0 instructions: 202001117 cycles: 229752372 heartbeat IPC: 0.2867 cumulative IPC: 0.7011 (Simulation time: 00 hr 38 min 11 sec)
Heartbeat CPU 0 instructions: 202501120 cycles: 230825640 heartbeat IPC: 0.4659 cumulative IPC: 0.6999 (Simulation time: 00 hr 38 min 18 sec)
Heartbeat CPU 0 instructions: 203001120 cycles: 231228489 heartbeat IPC: 1.241 cumulative IPC: 0.7009 (Simulation time: 00 hr 38 min 22 sec)
Heartbeat CPU 0 instructions: 203501125 cycles: 231501944 heartbeat IPC: 1.828 cumulative IPC: 0.7023 (Simulation time: 00 hr 38 min 25 sec)
Heartbeat CPU 0 instructions: 204001130 cycles: 231806741 heartbeat IPC: 1.64 cumulative IPC: 0.7036 (Simulation time: 00 hr 38 min 28 sec)
Heartbeat CPU 0 instructions: 204501135 cycles: 233592535 heartbeat IPC: 0.28 cumulative IPC: 0.7002 (Simulation time: 00 hr 38 min 40 sec)
Heartbeat CPU 0 instructions: 205001135 cycles: 233985388 heartbeat IPC: 1.273 cumulative IPC: 0.7012 (Simulation time: 00 hr 38 min 43 sec)
Heartbeat CPU 0 instructions: 205501136 cycles: 234795854 heartbeat IPC: 0.6169 cumulative IPC: 0.7009 (Simulation time: 00 hr 38 min 49 sec)
Heartbeat CPU 0 instructions: 206001136 cycles: 235197100 heartbeat IPC: 1.246 cumulative IPC: 0.7019 (Simulation time: 00 hr 38 min 53 sec)
Heartbeat CPU 0 instructions: 206501140 cycles: 236097605 heartbeat IPC: 0.5552 cumulative IPC: 0.7013 (Simulation time: 00 hr 38 min 59 sec)
Heartbeat CPU 0 instructions: 207001146 cycles: 236493317 heartbeat IPC: 1.264 cumulative IPC: 0.7023 (Simulation time: 00 hr 39 min 03 sec)
Heartbeat CPU 0 instructions: 207501147 cycles: 237121883 heartbeat IPC: 0.7955 cumulative IPC: 0.7025 (Simulation time: 00 hr 39 min 07 sec)
Heartbeat CPU 0 instructions: 208001148 cycles: 237453380 heartbeat IPC: 1.508 cumulative IPC: 0.7037 (Simulation time: 00 hr 39 min 11 sec)
Heartbeat CPU 0 instructions: 208501148 cycles: 237752945 heartbeat IPC: 1.669 cumulative IPC: 0.705 (Simulation time: 00 hr 39 min 13 sec)
Heartbeat CPU 0 instructions: 209001152 cycles: 238121887 heartbeat IPC: 1.355 cumulative IPC: 0.7061 (Simulation time: 00 hr 39 min 17 sec)
Heartbeat CPU 0 instructions: 209501154 cycles: 238462013 heartbeat IPC: 1.47 cumulative IPC: 0.7072 (Simulation time: 00 hr 39 min 20 sec)
Heartbeat CPU 0 instructions: 210001156 cycles: 238790395 heartbeat IPC: 1.523 cumulative IPC: 0.7084 (Simulation time: 00 hr 39 min 23 sec)
Heartbeat CPU 0 instructions: 210501158 cycles: 239128936 heartbeat IPC: 1.477 cumulative IPC: 0.7096 (Simulation time: 00 hr 39 min 26 sec)
Heartbeat CPU 0 instructions: 211001162 cycles: 239452257 heartbeat IPC: 1.546 cumulative IPC: 0.7108 (Simulation time: 00 hr 39 min 29 sec)
Heartbeat CPU 0 instructions: 211501167 cycles: 239748065 heartbeat IPC: 1.69 cumulative IPC: 0.712 (Simulation time: 00 hr 39 min 32 sec)
Heartbeat CPU 0 instructions: 212001169 cycles: 240003934 heartbeat IPC: 1.954 cumulative IPC: 0.7134 (Simulation time: 00 hr 39 min 35 sec)
Heartbeat CPU 0 instructions: 212501170 cycles: 240317087 heartbeat IPC: 1.597 cumulative IPC: 0.7147 (Simulation time: 00 hr 39 min 38 sec)
Heartbeat CPU 0 instructions: 213001174 cycles: 240596511 heartbeat IPC: 1.789 cumulative IPC: 0.716 (Simulation time: 00 hr 39 min 41 sec)
Heartbeat CPU 0 instructions: 213501177 cycles: 240863821 heartbeat IPC: 1.87 cumulative IPC: 0.7173 (Simulation time: 00 hr 39 min 44 sec)
Heartbeat CPU 0 instructions: 214001184 cycles: 241126785 heartbeat IPC: 1.901 cumulative IPC: 0.7187 (Simulation time: 00 hr 39 min 46 sec)
Heartbeat CPU 0 instructions: 214501184 cycles: 241783997 heartbeat IPC: 0.7608 cumulative IPC: 0.7188 (Simulation time: 00 hr 39 min 52 sec)
Heartbeat CPU 0 instructions: 215001191 cycles: 242133775 heartbeat IPC: 1.429 cumulative IPC: 0.7199 (Simulation time: 00 hr 39 min 55 sec)
Heartbeat CPU 0 instructions: 215501192 cycles: 242401279 heartbeat IPC: 1.869 cumulative IPC: 0.7212 (Simulation time: 00 hr 39 min 58 sec)
Heartbeat CPU 0 instructions: 216001197 cycles: 242617633 heartbeat IPC: 2.311 cumulative IPC: 0.7227 (Simulation time: 00 hr 40 min 00 sec)
Heartbeat CPU 0 instructions: 216501197 cycles: 242888619 heartbeat IPC: 1.845 cumulative IPC: 0.7241 (Simulation time: 00 hr 40 min 03 sec)
Heartbeat CPU 0 instructions: 217001200 cycles: 243165256 heartbeat IPC: 1.807 cumulative IPC: 0.7254 (Simulation time: 00 hr 40 min 06 sec)
Heartbeat CPU 0 instructions: 217501202 cycles: 243557357 heartbeat IPC: 1.275 cumulative IPC: 0.7263 (Simulation time: 00 hr 40 min 09 sec)
Heartbeat CPU 0 instructions: 218001203 cycles: 243783026 heartbeat IPC: 2.216 cumulative IPC: 0.7278 (Simulation time: 00 hr 40 min 12 sec)
Heartbeat CPU 0 instructions: 218501203 cycles: 244166392 heartbeat IPC: 1.304 cumulative IPC: 0.7287 (Simulation time: 00 hr 40 min 15 sec)
Heartbeat CPU 0 instructions: 219001203 cycles: 244486853 heartbeat IPC: 1.56 cumulative IPC: 0.7299 (Simulation time: 00 hr 40 min 18 sec)
Heartbeat CPU 0 instructions: 219501206 cycles: 244857189 heartbeat IPC: 1.35 cumulative IPC: 0.7309 (Simulation time: 00 hr 40 min 22 sec)
Heartbeat CPU 0 instructions: 220001212 cycles: 245221685 heartbeat IPC: 1.372 cumulative IPC: 0.7319 (Simulation time: 00 hr 40 min 25 sec)
Heartbeat CPU 0 instructions: 220501212 cycles: 246389665 heartbeat IPC: 0.4281 cumulative IPC: 0.7303 (Simulation time: 00 hr 40 min 34 sec)
Heartbeat CPU 0 instructions: 221001212 cycles: 246698841 heartbeat IPC: 1.617 cumulative IPC: 0.7315 (Simulation time: 00 hr 40 min 37 sec)
Heartbeat CPU 0 instructions: 221501213 cycles: 247003507 heartbeat IPC: 1.641 cumulative IPC: 0.7327 (Simulation time: 00 hr 40 min 40 sec)
Heartbeat CPU 0 instructions: 222001214 cycles: 247311315 heartbeat IPC: 1.624 cumulative IPC: 0.7339 (Simulation time: 00 hr 40 min 43 sec)
Heartbeat CPU 0 instructions: 222501215 cycles: 247591836 heartbeat IPC: 1.782 cumulative IPC: 0.7351 (Simulation time: 00 hr 40 min 45 sec)
Heartbeat CPU 0 instructions: 223001218 cycles: 248037875 heartbeat IPC: 1.121 cumulative IPC: 0.7359 (Simulation time: 00 hr 40 min 49 sec)
Heartbeat CPU 0 instructions: 223501222 cycles: 248306033 heartbeat IPC: 1.865 cumulative IPC: 0.7371 (Simulation time: 00 hr 40 min 52 sec)
Heartbeat CPU 0 instructions: 224001222 cycles: 248590822 heartbeat IPC: 1.756 cumulative IPC: 0.7384 (Simulation time: 00 hr 40 min 55 sec)
Heartbeat CPU 0 instructions: 224501224 cycles: 248876252 heartbeat IPC: 1.752 cumulative IPC: 0.7396 (Simulation time: 00 hr 40 min 57 sec)
Heartbeat CPU 0 instructions: 225001231 cycles: 249225533 heartbeat IPC: 1.432 cumulative IPC: 0.7406 (Simulation time: 00 hr 41 min 01 sec)
Heartbeat CPU 0 instructions: 225501233 cycles: 249577674 heartbeat IPC: 1.42 cumulative IPC: 0.7416 (Simulation time: 00 hr 41 min 04 sec)
Heartbeat CPU 0 instructions: 226001236 cycles: 249879246 heartbeat IPC: 1.658 cumulative IPC: 0.7428 (Simulation time: 00 hr 41 min 07 sec)
Heartbeat CPU 0 instructions: 226501241 cycles: 250165503 heartbeat IPC: 1.747 cumulative IPC: 0.744 (Simulation time: 00 hr 41 min 10 sec)
Heartbeat CPU 0 instructions: 227001243 cycles: 250443891 heartbeat IPC: 1.796 cumulative IPC: 0.7452 (Simulation time: 00 hr 41 min 12 sec)
Heartbeat CPU 0 instructions: 227501243 cycles: 250733572 heartbeat IPC: 1.726 cumulative IPC: 0.7464 (Simulation time: 00 hr 41 min 15 sec)
Heartbeat CPU 0 instructions: 228001247 cycles: 250976854 heartbeat IPC: 2.055 cumulative IPC: 0.7478 (Simulation time: 00 hr 41 min 18 sec)
Heartbeat CPU 0 instructions: 228501251 cycles: 251243827 heartbeat IPC: 1.873 cumulative IPC: 0.749 (Simulation time: 00 hr 41 min 20 sec)
Heartbeat CPU 0 instructions: 229001255 cycles: 251496455 heartbeat IPC: 1.979 cumulative IPC: 0.7503 (Simulation time: 00 hr 41 min 23 sec)
Heartbeat CPU 0 instructions: 229501255 cycles: 251778438 heartbeat IPC: 1.773 cumulative IPC: 0.7515 (Simulation time: 00 hr 41 min 26 sec)
Heartbeat CPU 0 instructions: 230001258 cycles: 252019606 heartbeat IPC: 2.073 cumulative IPC: 0.7529 (Simulation time: 00 hr 41 min 28 sec)
Heartbeat CPU 0 instructions: 230501260 cycles: 252621623 heartbeat IPC: 0.8305 cumulative IPC: 0.7531 (Simulation time: 00 hr 41 min 33 sec)
Heartbeat CPU 0 instructions: 231001265 cycles: 253011584 heartbeat IPC: 1.282 cumulative IPC: 0.7539 (Simulation time: 00 hr 41 min 37 sec)
Heartbeat CPU 0 instructions: 231501266 cycles: 253374554 heartbeat IPC: 1.378 cumulative IPC: 0.7549 (Simulation time: 00 hr 41 min 40 sec)
Heartbeat CPU 0 instructions: 232001272 cycles: 253745259 heartbeat IPC: 1.349 cumulative IPC: 0.7558 (Simulation time: 00 hr 41 min 43 sec)
Heartbeat CPU 0 instructions: 232501272 cycles: 254032652 heartbeat IPC: 1.74 cumulative IPC: 0.757 (Simulation time: 00 hr 41 min 46 sec)
Heartbeat CPU 0 instructions: 233001277 cycles: 254289900 heartbeat IPC: 1.944 cumulative IPC: 0.7582 (Simulation time: 00 hr 41 min 49 sec)
Heartbeat CPU 0 instructions: 233501278 cycles: 254679038 heartbeat IPC: 1.285 cumulative IPC: 0.7591 (Simulation time: 00 hr 41 min 52 sec)
Heartbeat CPU 0 instructions: 234001280 cycles: 255032302 heartbeat IPC: 1.415 cumulative IPC: 0.76 (Simulation time: 00 hr 41 min 55 sec)
Heartbeat CPU 0 instructions: 234501285 cycles: 255307366 heartbeat IPC: 1.818 cumulative IPC: 0.7612 (Simulation time: 00 hr 41 min 58 sec)
Heartbeat CPU 0 instructions: 235001287 cycles: 255571542 heartbeat IPC: 1.893 cumulative IPC: 0.7625 (Simulation time: 00 hr 42 min 01 sec)
Heartbeat CPU 0 instructions: 235501287 cycles: 256239695 heartbeat IPC: 0.7483 cumulative IPC: 0.7624 (Simulation time: 00 hr 42 min 06 sec)
Heartbeat CPU 0 instructions: 236001289 cycles: 256623854 heartbeat IPC: 1.302 cumulative IPC: 0.7633 (Simulation time: 00 hr 42 min 09 sec)
Heartbeat CPU 0 instructions: 236501289 cycles: 256963178 heartbeat IPC: 1.474 cumulative IPC: 0.7643 (Simulation time: 00 hr 42 min 12 sec)
Heartbeat CPU 0 instructions: 237001289 cycles: 257298237 heartbeat IPC: 1.492 cumulative IPC: 0.7653 (Simulation time: 00 hr 42 min 15 sec)
Heartbeat CPU 0 instructions: 237501295 cycles: 257587689 heartbeat IPC: 1.727 cumulative IPC: 0.7664 (Simulation time: 00 hr 42 min 18 sec)
Heartbeat CPU 0 instructions: 238001299 cycles: 257963296 heartbeat IPC: 1.331 cumulative IPC: 0.7673 (Simulation time: 00 hr 42 min 22 sec)
Heartbeat CPU 0 instructions: 238501300 cycles: 258196745 heartbeat IPC: 2.142 cumulative IPC: 0.7686 (Simulation time: 00 hr 42 min 24 sec)
Heartbeat CPU 0 instructions: 239001307 cycles: 258514109 heartbeat IPC: 1.576 cumulative IPC: 0.7696 (Simulation time: 00 hr 42 min 28 sec)
Heartbeat CPU 0 instructions: 239501314 cycles: 258819610 heartbeat IPC: 1.637 cumulative IPC: 0.7707 (Simulation time: 00 hr 42 min 31 sec)
Heartbeat CPU 0 instructions: 240001314 cycles: 259186570 heartbeat IPC: 1.363 cumulative IPC: 0.7716 (Simulation time: 00 hr 42 min 34 sec)
Heartbeat CPU 0 instructions: 240501319 cycles: 259417544 heartbeat IPC: 2.165 cumulative IPC: 0.7729 (Simulation time: 00 hr 42 min 37 sec)
Heartbeat CPU 0 instructions: 241001319 cycles: 259647729 heartbeat IPC: 2.172 cumulative IPC: 0.7742 (Simulation time: 00 hr 42 min 40 sec)
Heartbeat CPU 0 instructions: 241501319 cycles: 260023986 heartbeat IPC: 1.329 cumulative IPC: 0.775 (Simulation time: 00 hr 42 min 43 sec)
Heartbeat CPU 0 instructions: 242001321 cycles: 260372981 heartbeat IPC: 1.433 cumulative IPC: 0.776 (Simulation time: 00 hr 42 min 46 sec)
Heartbeat CPU 0 instructions: 242501325 cycles: 260733955 heartbeat IPC: 1.385 cumulative IPC: 0.7768 (Simulation time: 00 hr 42 min 49 sec)
Heartbeat CPU 0 instructions: 243001327 cycles: 261289508 heartbeat IPC: 0.9 cumulative IPC: 0.7771 (Simulation time: 00 hr 42 min 54 sec)
Heartbeat CPU 0 instructions: 243501327 cycles: 261580753 heartbeat IPC: 1.717 cumulative IPC: 0.7782 (Simulation time: 00 hr 42 min 57 sec)
Heartbeat CPU 0 instructions: 244001327 cycles: 261845813 heartbeat IPC: 1.886 cumulative IPC: 0.7794 (Simulation time: 00 hr 42 min 59 sec)
Heartbeat CPU 0 instructions: 244501327 cycles: 262819519 heartbeat IPC: 0.5135 cumulative IPC: 0.7784 (Simulation time: 00 hr 43 min 07 sec)
Heartbeat CPU 0 instructions: 245001331 cycles: 263561952 heartbeat IPC: 0.6735 cumulative IPC: 0.7781 (Simulation time: 00 hr 43 min 12 sec)
Heartbeat CPU 0 instructions: 245501331 cycles: 264144346 heartbeat IPC: 0.8585 cumulative IPC: 0.7782 (Simulation time: 00 hr 43 min 18 sec)
Heartbeat CPU 0 instructions: 246001331 cycles: 264778283 heartbeat IPC: 0.7887 cumulative IPC: 0.7783 (Simulation time: 00 hr 43 min 23 sec)
Heartbeat CPU 0 instructions: 246501331 cycles: 265354322 heartbeat IPC: 0.868 cumulative IPC: 0.7785 (Simulation time: 00 hr 43 min 28 sec)
Heartbeat CPU 0 instructions: 247001333 cycles: 266024748 heartbeat IPC: 0.7458 cumulative IPC: 0.7784 (Simulation time: 00 hr 43 min 34 sec)
Heartbeat CPU 0 instructions: 247501336 cycles: 266580373 heartbeat IPC: 0.8999 cumulative IPC: 0.7787 (Simulation time: 00 hr 43 min 39 sec)
Heartbeat CPU 0 instructions: 248001336 cycles: 267298718 heartbeat IPC: 0.696 cumulative IPC: 0.7784 (Simulation time: 00 hr 43 min 45 sec)
Heartbeat CPU 0 instructions: 248501337 cycles: 268047082 heartbeat IPC: 0.6681 cumulative IPC: 0.7781 (Simulation time: 00 hr 43 min 51 sec)
Heartbeat CPU 0 instructions: 249001337 cycles: 268726508 heartbeat IPC: 0.7359 cumulative IPC: 0.778 (Simulation time: 00 hr 43 min 58 sec)
Heartbeat CPU 0 instructions: 249501340 cycles: 269185044 heartbeat IPC: 1.09 cumulative IPC: 0.7785 (Simulation time: 00 hr 44 min 03 sec)
Simulation finished CPU 0 instructions: 200000002 cycles: 256758627 cumulative IPC: 0.7789 (Simulation time: 00 hr 44 min 08 sec)
Simulation complete CPU 0 instructions: 200000002 cycles: 256758627 cumulative IPC: 0.7789 (Simulation time: 00 hr 44 min 08 sec)

ChampSim completed all CPUs

=== Simulation ===
CPU 0 runs /local-ssd/ben/dpc4-traces/gtraces_v2/charlie_0002.champsim.gz

Region of Interest Statistics

CPU 0 cumulative IPC: 0.7789 instructions: 200000002 cycles: 256758627
CPU 0 Branch Prediction Accuracy: 93.59% MPKI: 11.85 Average ROB Occupancy at Mispredict: 41.22
Branch type MPKI
BRANCH_DIRECT_JUMP: 0.2716
BRANCH_INDIRECT: 0.4003
BRANCH_CONDITIONAL: 10.34
BRANCH_DIRECT_CALL: 0.2414
BRANCH_INDIRECT_CALL: 0.3428
BRANCH_RETURN: 0.2576

cpu0->cpu0_STLB TOTAL        ACCESS:    1190072 HIT:     845124 MISS:     344948 MSHR_MERGE:          0
cpu0->cpu0_STLB LOAD         ACCESS:    1190072 HIT:     845124 MISS:     344948 MSHR_MERGE:          0
cpu0->cpu0_STLB RFO          ACCESS:          0 HIT:          0 MISS:          0 MSHR_MERGE:          0
cpu0->cpu0_STLB PREFETCH     ACCESS:          0 HIT:          0 MISS:          0 MSHR_MERGE:          0
cpu0->cpu0_STLB WRITE        ACCESS:          0 HIT:          0 MISS:          0 MSHR_MERGE:          0
cpu0->cpu0_STLB TRANSLATION  ACCESS:          0 HIT:          0 MISS:          0 MSHR_MERGE:          0
cpu0->cpu0_STLB PREFETCH REQUESTED:          0 ISSUED:          0 USEFUL:          0 USELESS:          0
cpu0->cpu0_STLB AVERAGE MISS LATENCY: 222.4 cycles
cpu0->cpu0_L2C TOTAL        ACCESS:   15879462 HIT:   11452435 MISS:    4427027 MSHR_MERGE:     848039
cpu0->cpu0_L2C LOAD         ACCESS:    2395365 HIT:    1719386 MISS:     675979 MSHR_MERGE:      17026
cpu0->cpu0_L2C RFO          ACCESS:     704131 HIT:     322596 MISS:     381535 MSHR_MERGE:       6228
cpu0->cpu0_L2C PREFETCH     ACCESS:   10975390 HIT:    7773982 MISS:    3201408 MSHR_MERGE:     824785
cpu0->cpu0_L2C WRITE        ACCESS:    1449145 HIT:    1449054 MISS:         91 MSHR_MERGE:          0
cpu0->cpu0_L2C TRANSLATION  ACCESS:     355431 HIT:     187417 MISS:     168014 MSHR_MERGE:          0
cpu0->cpu0_L2C PREFETCH REQUESTED:    9486956 ISSUED:    8997782 USEFUL:    1010078 USELESS:     879165
cpu0->cpu0_L2C AVERAGE MISS LATENCY: 255.7 cycles
cpu0->cpu0_L1I TOTAL        ACCESS:   14951210 HIT:   13482813 MISS:    1468397 MSHR_MERGE:     380534
cpu0->cpu0_L1I LOAD         ACCESS:   14951210 HIT:   13482813 MISS:    1468397 MSHR_MERGE:     380534
cpu0->cpu0_L1I RFO          ACCESS:          0 HIT:          0 MISS:          0 MSHR_MERGE:          0
cpu0->cpu0_L1I PREFETCH     ACCESS:          0 HIT:          0 MISS:          0 MSHR_MERGE:          0
cpu0->cpu0_L1I WRITE        ACCESS:          0 HIT:          0 MISS:          0 MSHR_MERGE:          0
cpu0->cpu0_L1I TRANSLATION  ACCESS:          0 HIT:          0 MISS:          0 MSHR_MERGE:          0
cpu0->cpu0_L1I PREFETCH REQUESTED:          0 ISSUED:          0 USEFUL:          0 USELESS:          0
cpu0->cpu0_L1I AVERAGE MISS LATENCY: 66.75 cycles
cpu0->cpu0_L1D TOTAL        ACCESS:   83565422 HIT:   75802847 MISS:    7762575 MSHR_MERGE:    3417849
cpu0->cpu0_L1D LOAD         ACCESS:   31060390 HIT:   29241680 MISS:    1818710 MSHR_MERGE:     511203
cpu0->cpu0_L1D RFO          ACCESS:          0 HIT:          0 MISS:          0 MSHR_MERGE:          0
cpu0->cpu0_L1D PREFETCH     ACCESS:   26809148 HIT:   23949668 MISS:    2859480 MSHR_MERGE:     881869
cpu0->cpu0_L1D WRITE        ACCESS:   24770188 HIT:   22046213 MISS:    2723975 MSHR_MERGE:    2019798
cpu0->cpu0_L1D TRANSLATION  ACCESS:     925696 HIT:     565286 MISS:     360410 MSHR_MERGE:       4979
cpu0->cpu0_L1D PREFETCH REQUESTED:   31726769 ISSUED:   26809140 USEFUL:     745932 USELESS:    1231495
cpu0->cpu0_L1D AVERAGE MISS LATENCY: 114.3 cycles
cpu0->cpu0_ITLB TOTAL        ACCESS:   11985123 HIT:   11865924 MISS:     119199 MSHR_MERGE:      56203
cpu0->cpu0_ITLB LOAD         ACCESS:   11985123 HIT:   11865924 MISS:     119199 MSHR_MERGE:      56203
cpu0->cpu0_ITLB RFO          ACCESS:          0 HIT:          0 MISS:          0 MSHR_MERGE:          0
cpu0->cpu0_ITLB PREFETCH     ACCESS:          0 HIT:          0 MISS:          0 MSHR_MERGE:          0
cpu0->cpu0_ITLB WRITE        ACCESS:          0 HIT:          0 MISS:          0 MSHR_MERGE:          0
cpu0->cpu0_ITLB TRANSLATION  ACCESS:          0 HIT:          0 MISS:          0 MSHR_MERGE:          0
cpu0->cpu0_ITLB PREFETCH REQUESTED:          0 ISSUED:          0 USEFUL:          0 USELESS:          0
cpu0->cpu0_ITLB AVERAGE MISS LATENCY: 53.09 cycles
cpu0->cpu0_DTLB TOTAL        ACCESS:   75423795 HIT:   73550995 MISS:    1872800 MSHR_MERGE:     745724
cpu0->cpu0_DTLB LOAD         ACCESS:   75423795 HIT:   73550995 MISS:    1872800 MSHR_MERGE:     745724
cpu0->cpu0_DTLB RFO          ACCESS:          0 HIT:          0 MISS:          0 MSHR_MERGE:          0
cpu0->cpu0_DTLB PREFETCH     ACCESS:          0 HIT:          0 MISS:          0 MSHR_MERGE:          0
cpu0->cpu0_DTLB WRITE        ACCESS:          0 HIT:          0 MISS:          0 MSHR_MERGE:          0
cpu0->cpu0_DTLB TRANSLATION  ACCESS:          0 HIT:          0 MISS:          0 MSHR_MERGE:          0
cpu0->cpu0_DTLB PREFETCH REQUESTED:          0 ISSUED:          0 USEFUL:          0 USELESS:          0
cpu0->cpu0_DTLB AVERAGE MISS LATENCY: 70.68 cycles
cpu0->LLC TOTAL        ACCESS:    6589661 HIT:    1492852 MISS:    5096809 MSHR_MERGE:     500086
cpu0->LLC LOAD         ACCESS:     658953 HIT:      84678 MISS:     574275 MSHR_MERGE:       2358
cpu0->LLC RFO          ACCESS:     375307 HIT:      40749 MISS:     334558 MSHR_MERGE:       1406
cpu0->LLC PREFETCH     ACCESS:    4173017 HIT:     748038 MISS:    3424979 MSHR_MERGE:     496322
cpu0->LLC WRITE        ACCESS:    1214370 HIT:     611914 MISS:     602456 MSHR_MERGE:          0
cpu0->LLC TRANSLATION  ACCESS:     168014 HIT:       7473 MISS:     160541 MSHR_MERGE:          0
cpu0->LLC PREFETCH REQUESTED:    1815347 ISSUED:    1796394 USEFUL:     591301 USELESS:     656497
cpu0->LLC AVERAGE MISS LATENCY: 173.8 cycles

DRAM Statistics

Channel 0 RQ ROW_BUFFER_HIT:     174118
  ROW_BUFFER_MISS:    3819962
  AVG DBUS CONGESTED CYCLE: 13.71
Channel 0 WQ ROW_BUFFER_HIT:     186957
  ROW_BUFFER_MISS:     991565
  FULL:       2578
Channel 0 REFRESHES ISSUED:      21396
