[VMEM] WARNING: physical memory size is smaller than virtual memory size.

*** ChampSim Multicore Out-of-Order Simulator ***
Warmup Instructions: 50000000
Simulation Instructions: 200000000
Number of CPUs: 1
Page size: 4096
Core 0: /local-ssd/ben/dpc4-traces/gtraces_v2/sierra.a.6_0004.champsim.gz
Off-chip DRAM Size: 64 GiB Channels: 1 Width: 64-bit Data Rate: 4807 MT/s
[BTB] WARNING: target of return is a lower address than the corresponding call. This is usually a problem with your trace.
[BTB] WARNING: target of return is a lower address than the corresponding call. This is usually a problem with your trace.
[BTB] WARNING: target of return is a lower address than the corresponding call. This is usually a problem with your trace.
[BTB] WARNING: target of return is a lower address than the corresponding call. This is usually a problem with your trace.
[BTB] WARNING: target of return is a lower address than the corresponding call. This is usually a problem with your trace.
[BTB] WARNING: target of return is a lower address than the corresponding call. This is usually a problem with your trace.
Heartbeat CPU 0 instructions: 500006 cycles: 210697 heartbeat IPC: 2.373 cumulative IPC: 2.373 (Simulation time: 00 hr 00 min 04 sec)
[BTB] WARNING: target of return is a lower address than the corresponding call. This is usually a problem with your trace.
[BTB] WARNING: target of return is a lower address than the corresponding call. This is usually a problem with your trace.
[BTB] WARNING: target of return is a lower address than the corresponding call. This is usually a problem with your trace.
[BTB] WARNING: target of return is a lower address than the corresponding call. This is usually a problem with your trace.
Heartbeat CPU 0 instructions: 1000006 cycles: 445923 heartbeat IPC: 2.126 cumulative IPC: 2.243 (Simulation time: 00 hr 00 min 08 sec)
Heartbeat CPU 0 instructions: 1500008 cycles: 644598 heartbeat IPC: 2.517 cumulative IPC: 2.327 (Simulation time: 00 hr 00 min 11 sec)
Heartbeat CPU 0 instructions: 2000014 cycles: 848719 heartbeat IPC: 2.45 cumulative IPC: 2.357 (Simulation time: 00 hr 00 min 15 sec)
Heartbeat CPU 0 instructions: 2500020 cycles: 1004758 heartbeat IPC: 3.204 cumulative IPC: 2.488 (Simulation time: 00 hr 00 min 18 sec)
Heartbeat CPU 0 instructions: 3000027 cycles: 1159131 heartbeat IPC: 3.239 cumulative IPC: 2.588 (Simulation time: 00 hr 00 min 21 sec)
Heartbeat CPU 0 instructions: 3500027 cycles: 1305297 heartbeat IPC: 3.421 cumulative IPC: 2.681 (Simulation time: 00 hr 00 min 23 sec)
Heartbeat CPU 0 instructions: 4000029 cycles: 1476749 heartbeat IPC: 2.916 cumulative IPC: 2.709 (Simulation time: 00 hr 00 min 26 sec)
Heartbeat CPU 0 instructions: 4500034 cycles: 1596396 heartbeat IPC: 4.179 cumulative IPC: 2.819 (Simulation time: 00 hr 00 min 29 sec)
Heartbeat CPU 0 instructions: 5000036 cycles: 1760009 heartbeat IPC: 3.056 cumulative IPC: 2.841 (Simulation time: 00 hr 00 min 32 sec)
Heartbeat CPU 0 instructions: 5500042 cycles: 1910301 heartbeat IPC: 3.327 cumulative IPC: 2.879 (Simulation time: 00 hr 00 min 35 sec)
Heartbeat CPU 0 instructions: 6000043 cycles: 2062404 heartbeat IPC: 3.287 cumulative IPC: 2.909 (Simulation time: 00 hr 00 min 38 sec)
Heartbeat CPU 0 instructions: 6500049 cycles: 2188940 heartbeat IPC: 3.951 cumulative IPC: 2.969 (Simulation time: 00 hr 00 min 40 sec)
Heartbeat CPU 0 instructions: 7000054 cycles: 2319213 heartbeat IPC: 3.838 cumulative IPC: 3.018 (Simulation time: 00 hr 00 min 43 sec)
Heartbeat CPU 0 instructions: 7500061 cycles: 2457040 heartbeat IPC: 3.628 cumulative IPC: 3.052 (Simulation time: 00 hr 00 min 46 sec)
Heartbeat CPU 0 instructions: 8000063 cycles: 2591101 heartbeat IPC: 3.73 cumulative IPC: 3.088 (Simulation time: 00 hr 00 min 49 sec)
Heartbeat CPU 0 instructions: 8500066 cycles: 2724299 heartbeat IPC: 3.754 cumulative IPC: 3.12 (Simulation time: 00 hr 00 min 51 sec)
Heartbeat CPU 0 instructions: 9000066 cycles: 2859253 heartbeat IPC: 3.705 cumulative IPC: 3.148 (Simulation time: 00 hr 00 min 54 sec)
Heartbeat CPU 0 instructions: 9500068 cycles: 3003047 heartbeat IPC: 3.477 cumulative IPC: 3.163 (Simulation time: 00 hr 00 min 57 sec)
Heartbeat CPU 0 instructions: 10000069 cycles: 3136791 heartbeat IPC: 3.738 cumulative IPC: 3.188 (Simulation time: 00 hr 01 min 00 sec)
Heartbeat CPU 0 instructions: 10500072 cycles: 3260293 heartbeat IPC: 4.049 cumulative IPC: 3.221 (Simulation time: 00 hr 01 min 02 sec)
Heartbeat CPU 0 instructions: 11000077 cycles: 3422645 heartbeat IPC: 3.08 cumulative IPC: 3.214 (Simulation time: 00 hr 01 min 05 sec)
Heartbeat CPU 0 instructions: 11500084 cycles: 3559362 heartbeat IPC: 3.657 cumulative IPC: 3.231 (Simulation time: 00 hr 01 min 08 sec)
Heartbeat CPU 0 instructions: 12000089 cycles: 3684722 heartbeat IPC: 3.989 cumulative IPC: 3.257 (Simulation time: 00 hr 01 min 11 sec)
Heartbeat CPU 0 instructions: 12500094 cycles: 3834859 heartbeat IPC: 3.33 cumulative IPC: 3.26 (Simulation time: 00 hr 01 min 14 sec)
Heartbeat CPU 0 instructions: 13000099 cycles: 3975156 heartbeat IPC: 3.564 cumulative IPC: 3.27 (Simulation time: 00 hr 01 min 16 sec)
Heartbeat CPU 0 instructions: 13500102 cycles: 4166117 heartbeat IPC: 2.618 cumulative IPC: 3.24 (Simulation time: 00 hr 01 min 20 sec)
Heartbeat CPU 0 instructions: 14000103 cycles: 4365410 heartbeat IPC: 2.509 cumulative IPC: 3.207 (Simulation time: 00 hr 01 min 23 sec)
Heartbeat CPU 0 instructions: 14500107 cycles: 4578200 heartbeat IPC: 2.35 cumulative IPC: 3.167 (Simulation time: 00 hr 01 min 27 sec)
Heartbeat CPU 0 instructions: 15000114 cycles: 4767705 heartbeat IPC: 2.638 cumulative IPC: 3.146 (Simulation time: 00 hr 01 min 31 sec)
Heartbeat CPU 0 instructions: 15500118 cycles: 4979592 heartbeat IPC: 2.36 cumulative IPC: 3.113 (Simulation time: 00 hr 01 min 35 sec)
Heartbeat CPU 0 instructions: 16000120 cycles: 5181459 heartbeat IPC: 2.477 cumulative IPC: 3.088 (Simulation time: 00 hr 01 min 38 sec)
Heartbeat CPU 0 instructions: 16500124 cycles: 5387225 heartbeat IPC: 2.43 cumulative IPC: 3.063 (Simulation time: 00 hr 01 min 42 sec)
Heartbeat CPU 0 instructions: 17000125 cycles: 5599373 heartbeat IPC: 2.357 cumulative IPC: 3.036 (Simulation time: 00 hr 01 min 46 sec)
Heartbeat CPU 0 instructions: 17500126 cycles: 5775189 heartbeat IPC: 2.844 cumulative IPC: 3.03 (Simulation time: 00 hr 01 min 49 sec)
Heartbeat CPU 0 instructions: 18000133 cycles: 5943332 heartbeat IPC: 2.974 cumulative IPC: 3.029 (Simulation time: 00 hr 01 min 52 sec)
Heartbeat CPU 0 instructions: 18500136 cycles: 6076582 heartbeat IPC: 3.752 cumulative IPC: 3.044 (Simulation time: 00 hr 01 min 55 sec)
Heartbeat CPU 0 instructions: 19000138 cycles: 6279675 heartbeat IPC: 2.462 cumulative IPC: 3.026 (Simulation time: 00 hr 01 min 59 sec)
Heartbeat CPU 0 instructions: 19500143 cycles: 6443406 heartbeat IPC: 3.054 cumulative IPC: 3.026 (Simulation time: 00 hr 02 min 02 sec)
Heartbeat CPU 0 instructions: 20000149 cycles: 6577996 heartbeat IPC: 3.715 cumulative IPC: 3.04 (Simulation time: 00 hr 02 min 04 sec)
Heartbeat CPU 0 instructions: 20500150 cycles: 6723335 heartbeat IPC: 3.44 cumulative IPC: 3.049 (Simulation time: 00 hr 02 min 07 sec)
Heartbeat CPU 0 instructions: 21000152 cycles: 6872672 heartbeat IPC: 3.348 cumulative IPC: 3.056 (Simulation time: 00 hr 02 min 10 sec)
Heartbeat CPU 0 instructions: 21500157 cycles: 6995556 heartbeat IPC: 4.069 cumulative IPC: 3.073 (Simulation time: 00 hr 02 min 13 sec)
Heartbeat CPU 0 instructions: 22000162 cycles: 7121217 heartbeat IPC: 3.979 cumulative IPC: 3.089 (Simulation time: 00 hr 02 min 15 sec)
Heartbeat CPU 0 instructions: 22500165 cycles: 7255645 heartbeat IPC: 3.719 cumulative IPC: 3.101 (Simulation time: 00 hr 02 min 18 sec)
Heartbeat CPU 0 instructions: 23000166 cycles: 7391261 heartbeat IPC: 3.687 cumulative IPC: 3.112 (Simulation time: 00 hr 02 min 21 sec)
Heartbeat CPU 0 instructions: 23500171 cycles: 7541207 heartbeat IPC: 3.335 cumulative IPC: 3.116 (Simulation time: 00 hr 02 min 23 sec)
Heartbeat CPU 0 instructions: 24000176 cycles: 7692842 heartbeat IPC: 3.297 cumulative IPC: 3.12 (Simulation time: 00 hr 02 min 26 sec)
Heartbeat CPU 0 instructions: 24500176 cycles: 7847179 heartbeat IPC: 3.24 cumulative IPC: 3.122 (Simulation time: 00 hr 02 min 29 sec)
Heartbeat CPU 0 instructions: 25000177 cycles: 7972082 heartbeat IPC: 4.003 cumulative IPC: 3.136 (Simulation time: 00 hr 02 min 32 sec)
Heartbeat CPU 0 instructions: 25500179 cycles: 8095397 heartbeat IPC: 4.055 cumulative IPC: 3.15 (Simulation time: 00 hr 02 min 35 sec)
Heartbeat CPU 0 instructions: 26000183 cycles: 8214362 heartbeat IPC: 4.203 cumulative IPC: 3.165 (Simulation time: 00 hr 02 min 37 sec)
Heartbeat CPU 0 instructions: 26500189 cycles: 8354317 heartbeat IPC: 3.573 cumulative IPC: 3.172 (Simulation time: 00 hr 02 min 40 sec)
Heartbeat CPU 0 instructions: 27000189 cycles: 8477956 heartbeat IPC: 4.044 cumulative IPC: 3.185 (Simulation time: 00 hr 02 min 43 sec)
Heartbeat CPU 0 instructions: 27500194 cycles: 8621061 heartbeat IPC: 3.494 cumulative IPC: 3.19 (Simulation time: 00 hr 02 min 45 sec)
Heartbeat CPU 0 instructions: 28000200 cycles: 8753330 heartbeat IPC: 3.78 cumulative IPC: 3.199 (Simulation time: 00 hr 02 min 48 sec)
Heartbeat CPU 0 instructions: 28500204 cycles: 8885672 heartbeat IPC: 3.778 cumulative IPC: 3.207 (Simulation time: 00 hr 02 min 51 sec)
Heartbeat CPU 0 instructions: 29000205 cycles: 9035621 heartbeat IPC: 3.334 cumulative IPC: 3.21 (Simulation time: 00 hr 02 min 54 sec)
Heartbeat CPU 0 instructions: 29500207 cycles: 9188090 heartbeat IPC: 3.279 cumulative IPC: 3.211 (Simulation time: 00 hr 02 min 57 sec)
Heartbeat CPU 0 instructions: 30000207 cycles: 9329640 heartbeat IPC: 3.532 cumulative IPC: 3.216 (Simulation time: 00 hr 03 min 00 sec)
Heartbeat CPU 0 instructions: 30500211 cycles: 9464948 heartbeat IPC: 3.695 cumulative IPC: 3.222 (Simulation time: 00 hr 03 min 02 sec)
Heartbeat CPU 0 instructions: 31000212 cycles: 9597955 heartbeat IPC: 3.759 cumulative IPC: 3.23 (Simulation time: 00 hr 03 min 05 sec)
Heartbeat CPU 0 instructions: 31500216 cycles: 9738723 heartbeat IPC: 3.552 cumulative IPC: 3.235 (Simulation time: 00 hr 03 min 08 sec)
Heartbeat CPU 0 instructions: 32000220 cycles: 9870607 heartbeat IPC: 3.791 cumulative IPC: 3.242 (Simulation time: 00 hr 03 min 10 sec)
Heartbeat CPU 0 instructions: 32500220 cycles: 10017260 heartbeat IPC: 3.409 cumulative IPC: 3.244 (Simulation time: 00 hr 03 min 13 sec)
Heartbeat CPU 0 instructions: 33000221 cycles: 10158962 heartbeat IPC: 3.529 cumulative IPC: 3.248 (Simulation time: 00 hr 03 min 16 sec)
Heartbeat CPU 0 instructions: 33500222 cycles: 10302344 heartbeat IPC: 3.487 cumulative IPC: 3.252 (Simulation time: 00 hr 03 min 19 sec)
Heartbeat CPU 0 instructions: 34000225 cycles: 10437420 heartbeat IPC: 3.702 cumulative IPC: 3.258 (Simulation time: 00 hr 03 min 22 sec)
Heartbeat CPU 0 instructions: 34500232 cycles: 10577771 heartbeat IPC: 3.563 cumulative IPC: 3.262 (Simulation time: 00 hr 03 min 24 sec)
Heartbeat CPU 0 instructions: 35000233 cycles: 10708513 heartbeat IPC: 3.824 cumulative IPC: 3.268 (Simulation time: 00 hr 03 min 27 sec)
Heartbeat CPU 0 instructions: 35500237 cycles: 10841865 heartbeat IPC: 3.75 cumulative IPC: 3.274 (Simulation time: 00 hr 03 min 30 sec)
Heartbeat CPU 0 instructions: 36000240 cycles: 10969170 heartbeat IPC: 3.928 cumulative IPC: 3.282 (Simulation time: 00 hr 03 min 32 sec)
Heartbeat CPU 0 instructions: 36500242 cycles: 11101317 heartbeat IPC: 3.784 cumulative IPC: 3.288 (Simulation time: 00 hr 03 min 35 sec)
Heartbeat CPU 0 instructions: 37000242 cycles: 11237548 heartbeat IPC: 3.67 cumulative IPC: 3.293 (Simulation time: 00 hr 03 min 38 sec)
Heartbeat CPU 0 instructions: 37500244 cycles: 11363684 heartbeat IPC: 3.964 cumulative IPC: 3.3 (Simulation time: 00 hr 03 min 40 sec)
Heartbeat CPU 0 instructions: 38000251 cycles: 11508641 heartbeat IPC: 3.449 cumulative IPC: 3.302 (Simulation time: 00 hr 03 min 43 sec)
Heartbeat CPU 0 instructions: 38500254 cycles: 11654661 heartbeat IPC: 3.424 cumulative IPC: 3.303 (Simulation time: 00 hr 03 min 46 sec)
Heartbeat CPU 0 instructions: 39000258 cycles: 11790312 heartbeat IPC: 3.686 cumulative IPC: 3.308 (Simulation time: 00 hr 03 min 49 sec)
Heartbeat CPU 0 instructions: 39500261 cycles: 11950663 heartbeat IPC: 3.118 cumulative IPC: 3.305 (Simulation time: 00 hr 03 min 52 sec)
Heartbeat CPU 0 instructions: 40000262 cycles: 12112857 heartbeat IPC: 3.083 cumulative IPC: 3.302 (Simulation time: 00 hr 03 min 55 sec)
Heartbeat CPU 0 instructions: 40500264 cycles: 12260942 heartbeat IPC: 3.376 cumulative IPC: 3.303 (Simulation time: 00 hr 03 min 58 sec)
Heartbeat CPU 0 instructions: 41000271 cycles: 12392867 heartbeat IPC: 3.79 cumulative IPC: 3.308 (Simulation time: 00 hr 04 min 01 sec)
Heartbeat CPU 0 instructions: 41500275 cycles: 12533962 heartbeat IPC: 3.544 cumulative IPC: 3.311 (Simulation time: 00 hr 04 min 03 sec)
Heartbeat CPU 0 instructions: 42000276 cycles: 12668965 heartbeat IPC: 3.704 cumulative IPC: 3.315 (Simulation time: 00 hr 04 min 06 sec)
Heartbeat CPU 0 instructions: 42500280 cycles: 12803157 heartbeat IPC: 3.726 cumulative IPC: 3.32 (Simulation time: 00 hr 04 min 09 sec)
Heartbeat CPU 0 instructions: 43000286 cycles: 12939358 heartbeat IPC: 3.671 cumulative IPC: 3.323 (Simulation time: 00 hr 04 min 11 sec)
Heartbeat CPU 0 instructions: 43500287 cycles: 13070735 heartbeat IPC: 3.806 cumulative IPC: 3.328 (Simulation time: 00 hr 04 min 14 sec)
Heartbeat CPU 0 instructions: 44000289 cycles: 13202999 heartbeat IPC: 3.78 cumulative IPC: 3.333 (Simulation time: 00 hr 04 min 16 sec)
Heartbeat CPU 0 instructions: 44500290 cycles: 13344189 heartbeat IPC: 3.541 cumulative IPC: 3.335 (Simulation time: 00 hr 04 min 19 sec)
Heartbeat CPU 0 instructions: 45000294 cycles: 13483532 heartbeat IPC: 3.588 cumulative IPC: 3.337 (Simulation time: 00 hr 04 min 22 sec)
Heartbeat CPU 0 instructions: 45500297 cycles: 13623597 heartbeat IPC: 3.57 cumulative IPC: 3.34 (Simulation time: 00 hr 04 min 25 sec)
Heartbeat CPU 0 instructions: 46000303 cycles: 13753971 heartbeat IPC: 3.835 cumulative IPC: 3.345 (Simulation time: 00 hr 04 min 27 sec)
Heartbeat CPU 0 instructions: 46500308 cycles: 13883164 heartbeat IPC: 3.87 cumulative IPC: 3.349 (Simulation time: 00 hr 04 min 30 sec)
Heartbeat CPU 0 instructions: 47000313 cycles: 14012826 heartbeat IPC: 3.856 cumulative IPC: 3.354 (Simulation time: 00 hr 04 min 33 sec)
Heartbeat CPU 0 instructions: 47500313 cycles: 14148821 heartbeat IPC: 3.677 cumulative IPC: 3.357 (Simulation time: 00 hr 04 min 35 sec)
Heartbeat CPU 0 instructions: 48000317 cycles: 14287120 heartbeat IPC: 3.615 cumulative IPC: 3.36 (Simulation time: 00 hr 04 min 38 sec)
Heartbeat CPU 0 instructions: 48500323 cycles: 14413011 heartbeat IPC: 3.972 cumulative IPC: 3.365 (Simulation time: 00 hr 04 min 41 sec)
Heartbeat CPU 0 instructions: 49000328 cycles: 14537795 heartbeat IPC: 4.007 cumulative IPC: 3.371 (Simulation time: 00 hr 04 min 43 sec)
Heartbeat CPU 0 instructions: 49500332 cycles: 14669555 heartbeat IPC: 3.795 cumulative IPC: 3.374 (Simulation time: 00 hr 04 min 46 sec)
Warmup halting CPU 0 at instruction 50000005 cycle 14796916 for remainder of phase
Warmup finished CPU 0 instructions: 50000005 cycles: 14796916 cumulative IPC: 3.379 (Simulation time: 00 hr 04 min 48 sec)
Warmup complete CPU 0 instructions: 50000005 cycles: 14796916 cumulative IPC: 3.379 (Simulation time: 00 hr 04 min 48 sec)
Heartbeat CPU 0 instructions: 50000333 cycles: 14796957 heartbeat IPC: 3.925 cumulative IPC: 8 (Simulation time: 00 hr 04 min 48 sec)
Heartbeat CPU 0 instructions: 50500339 cycles: 15792208 heartbeat IPC: 0.5024 cumulative IPC: 0.5027 (Simulation time: 00 hr 05 min 00 sec)
Heartbeat CPU 0 instructions: 51000343 cycles: 17534843 heartbeat IPC: 0.2869 cumulative IPC: 0.3654 (Simulation time: 00 hr 05 min 20 sec)
Heartbeat CPU 0 instructions: 51500344 cycles: 19140232 heartbeat IPC: 0.3115 cumulative IPC: 0.3454 (Simulation time: 00 hr 05 min 36 sec)
Heartbeat CPU 0 instructions: 52000344 cycles: 20420800 heartbeat IPC: 0.3905 cumulative IPC: 0.3557 (Simulation time: 00 hr 05 min 45 sec)
Heartbeat CPU 0 instructions: 52500350 cycles: 21644793 heartbeat IPC: 0.4085 cumulative IPC: 0.3651 (Simulation time: 00 hr 05 min 55 sec)
Heartbeat CPU 0 instructions: 53000354 cycles: 22902124 heartbeat IPC: 0.3977 cumulative IPC: 0.3702 (Simulation time: 00 hr 06 min 05 sec)
Heartbeat CPU 0 instructions: 53500361 cycles: 24374875 heartbeat IPC: 0.3395 cumulative IPC: 0.3655 (Simulation time: 00 hr 06 min 16 sec)
Heartbeat CPU 0 instructions: 54000361 cycles: 26019127 heartbeat IPC: 0.3041 cumulative IPC: 0.3565 (Simulation time: 00 hr 06 min 28 sec)
Heartbeat CPU 0 instructions: 54500363 cycles: 27300936 heartbeat IPC: 0.3901 cumulative IPC: 0.3599 (Simulation time: 00 hr 06 min 38 sec)
Heartbeat CPU 0 instructions: 55000363 cycles: 28288110 heartbeat IPC: 0.5065 cumulative IPC: 0.3706 (Simulation time: 00 hr 06 min 46 sec)
Heartbeat CPU 0 instructions: 55500366 cycles: 29510255 heartbeat IPC: 0.4091 cumulative IPC: 0.3738 (Simulation time: 00 hr 06 min 56 sec)
Heartbeat CPU 0 instructions: 56000367 cycles: 30990363 heartbeat IPC: 0.3378 cumulative IPC: 0.3705 (Simulation time: 00 hr 07 min 07 sec)
Heartbeat CPU 0 instructions: 56500368 cycles: 32075242 heartbeat IPC: 0.4609 cumulative IPC: 0.3762 (Simulation time: 00 hr 07 min 17 sec)
Heartbeat CPU 0 instructions: 57000369 cycles: 32957312 heartbeat IPC: 0.5668 cumulative IPC: 0.3855 (Simulation time: 00 hr 07 min 25 sec)
Heartbeat CPU 0 instructions: 57500371 cycles: 34377733 heartbeat IPC: 0.352 cumulative IPC: 0.383 (Simulation time: 00 hr 07 min 37 sec)
Heartbeat CPU 0 instructions: 58000373 cycles: 36113069 heartbeat IPC: 0.2881 cumulative IPC: 0.3753 (Simulation time: 00 hr 07 min 49 sec)
Heartbeat CPU 0 instructions: 58500373 cycles: 37500118 heartbeat IPC: 0.3605 cumulative IPC: 0.3744 (Simulation time: 00 hr 07 min 59 sec)
Heartbeat CPU 0 instructions: 59000373 cycles: 38651942 heartbeat IPC: 0.4341 cumulative IPC: 0.3773 (Simulation time: 00 hr 08 min 08 sec)
Heartbeat CPU 0 instructions: 59500380 cycles: 39789349 heartbeat IPC: 0.4396 cumulative IPC: 0.3801 (Simulation time: 00 hr 08 min 18 sec)
Heartbeat CPU 0 instructions: 60000385 cycles: 41539550 heartbeat IPC: 0.2857 cumulative IPC: 0.3739 (Simulation time: 00 hr 08 min 31 sec)
Heartbeat CPU 0 instructions: 60500389 cycles: 43228905 heartbeat IPC: 0.296 cumulative IPC: 0.3693 (Simulation time: 00 hr 08 min 43 sec)
Heartbeat CPU 0 instructions: 61000389 cycles: 45008774 heartbeat IPC: 0.2809 cumulative IPC: 0.3641 (Simulation time: 00 hr 08 min 56 sec)
Heartbeat CPU 0 instructions: 61500389 cycles: 46331373 heartbeat IPC: 0.378 cumulative IPC: 0.3647 (Simulation time: 00 hr 09 min 06 sec)
Heartbeat CPU 0 instructions: 62000389 cycles: 47710035 heartbeat IPC: 0.3627 cumulative IPC: 0.3646 (Simulation time: 00 hr 09 min 17 sec)
Heartbeat CPU 0 instructions: 62500389 cycles: 48953772 heartbeat IPC: 0.402 cumulative IPC: 0.366 (Simulation time: 00 hr 09 min 26 sec)
Heartbeat CPU 0 instructions: 63000391 cycles: 50070106 heartbeat IPC: 0.4479 cumulative IPC: 0.3686 (Simulation time: 00 hr 09 min 35 sec)
Heartbeat CPU 0 instructions: 63500392 cycles: 51463101 heartbeat IPC: 0.3589 cumulative IPC: 0.3682 (Simulation time: 00 hr 09 min 46 sec)
Heartbeat CPU 0 instructions: 64000395 cycles: 52827248 heartbeat IPC: 0.3665 cumulative IPC: 0.3681 (Simulation time: 00 hr 09 min 56 sec)
Heartbeat CPU 0 instructions: 64500395 cycles: 53974144 heartbeat IPC: 0.436 cumulative IPC: 0.3701 (Simulation time: 00 hr 10 min 05 sec)
Heartbeat CPU 0 instructions: 65000399 cycles: 55217890 heartbeat IPC: 0.402 cumulative IPC: 0.3711 (Simulation time: 00 hr 10 min 15 sec)
Heartbeat CPU 0 instructions: 65500403 cycles: 56095731 heartbeat IPC: 0.5696 cumulative IPC: 0.3753 (Simulation time: 00 hr 10 min 22 sec)
Heartbeat CPU 0 instructions: 66000407 cycles: 57382386 heartbeat IPC: 0.3886 cumulative IPC: 0.3757 (Simulation time: 00 hr 10 min 32 sec)
Heartbeat CPU 0 instructions: 66500407 cycles: 59562419 heartbeat IPC: 0.2294 cumulative IPC: 0.3686 (Simulation time: 00 hr 10 min 48 sec)
Heartbeat CPU 0 instructions: 67000407 cycles: 61483131 heartbeat IPC: 0.2603 cumulative IPC: 0.3641 (Simulation time: 00 hr 11 min 02 sec)
Heartbeat CPU 0 instructions: 67500408 cycles: 62385213 heartbeat IPC: 0.5543 cumulative IPC: 0.3677 (Simulation time: 00 hr 11 min 10 sec)
Heartbeat CPU 0 instructions: 68000408 cycles: 64019935 heartbeat IPC: 0.3059 cumulative IPC: 0.3657 (Simulation time: 00 hr 11 min 21 sec)
Heartbeat CPU 0 instructions: 68500409 cycles: 65791165 heartbeat IPC: 0.2823 cumulative IPC: 0.3628 (Simulation time: 00 hr 11 min 34 sec)
Heartbeat CPU 0 instructions: 69000409 cycles: 66667011 heartbeat IPC: 0.5709 cumulative IPC: 0.3663 (Simulation time: 00 hr 11 min 41 sec)
Heartbeat CPU 0 instructions: 69500416 cycles: 67047373 heartbeat IPC: 1.315 cumulative IPC: 0.3732 (Simulation time: 00 hr 11 min 45 sec)
Heartbeat CPU 0 instructions: 70000416 cycles: 67362458 heartbeat IPC: 1.587 cumulative IPC: 0.3805 (Simulation time: 00 hr 11 min 48 sec)
Heartbeat CPU 0 instructions: 70500420 cycles: 67675695 heartbeat IPC: 1.596 cumulative IPC: 0.3877 (Simulation time: 00 hr 11 min 52 sec)
Heartbeat CPU 0 instructions: 71000420 cycles: 68013798 heartbeat IPC: 1.479 cumulative IPC: 0.3946 (Simulation time: 00 hr 11 min 55 sec)
Heartbeat CPU 0 instructions: 71500420 cycles: 68369150 heartbeat IPC: 1.407 cumulative IPC: 0.4013 (Simulation time: 00 hr 11 min 59 sec)
Heartbeat CPU 0 instructions: 72000420 cycles: 68714080 heartbeat IPC: 1.45 cumulative IPC: 0.408 (Simulation time: 00 hr 12 min 02 sec)
Heartbeat CPU 0 instructions: 72500420 cycles: 69033669 heartbeat IPC: 1.565 cumulative IPC: 0.4149 (Simulation time: 00 hr 12 min 06 sec)
Heartbeat CPU 0 instructions: 73000420 cycles: 70875967 heartbeat IPC: 0.2714 cumulative IPC: 0.4101 (Simulation time: 00 hr 12 min 19 sec)
Heartbeat CPU 0 instructions: 73500424 cycles: 72237764 heartbeat IPC: 0.3672 cumulative IPC: 0.4091 (Simulation time: 00 hr 12 min 29 sec)
Heartbeat CPU 0 instructions: 74000427 cycles: 73652674 heartbeat IPC: 0.3534 cumulative IPC: 0.4078 (Simulation time: 00 hr 12 min 40 sec)
Heartbeat CPU 0 instructions: 74500428 cycles: 75430637 heartbeat IPC: 0.2812 cumulative IPC: 0.4041 (Simulation time: 00 hr 12 min 53 sec)
Heartbeat CPU 0 instructions: 75000431 cycles: 76690248 heartbeat IPC: 0.397 cumulative IPC: 0.4039 (Simulation time: 00 hr 13 min 03 sec)
Heartbeat CPU 0 instructions: 75500431 cycles: 78518223 heartbeat IPC: 0.2735 cumulative IPC: 0.4002 (Simulation time: 00 hr 13 min 16 sec)
Heartbeat CPU 0 instructions: 76000437 cycles: 80090762 heartbeat IPC: 0.318 cumulative IPC: 0.3982 (Simulation time: 00 hr 13 min 28 sec)
Heartbeat CPU 0 instructions: 76500437 cycles: 81131340 heartbeat IPC: 0.4805 cumulative IPC: 0.3995 (Simulation time: 00 hr 13 min 36 sec)
Heartbeat CPU 0 instructions: 77000441 cycles: 82283324 heartbeat IPC: 0.434 cumulative IPC: 0.4001 (Simulation time: 00 hr 13 min 45 sec)
Heartbeat CPU 0 instructions: 77500442 cycles: 83893917 heartbeat IPC: 0.3104 cumulative IPC: 0.398 (Simulation time: 00 hr 13 min 57 sec)
Heartbeat CPU 0 instructions: 78000444 cycles: 85363928 heartbeat IPC: 0.3401 cumulative IPC: 0.3968 (Simulation time: 00 hr 14 min 09 sec)
Heartbeat CPU 0 instructions: 78500446 cycles: 86291964 heartbeat IPC: 0.5388 cumulative IPC: 0.3986 (Simulation time: 00 hr 14 min 17 sec)
Heartbeat CPU 0 instructions: 79000451 cycles: 88012606 heartbeat IPC: 0.2906 cumulative IPC: 0.3961 (Simulation time: 00 hr 14 min 29 sec)
Heartbeat CPU 0 instructions: 79500454 cycles: 89515272 heartbeat IPC: 0.3327 cumulative IPC: 0.3948 (Simulation time: 00 hr 14 min 41 sec)
Heartbeat CPU 0 instructions: 80000458 cycles: 91094029 heartbeat IPC: 0.3167 cumulative IPC: 0.3932 (Simulation time: 00 hr 14 min 52 sec)
Heartbeat CPU 0 instructions: 80500462 cycles: 92267794 heartbeat IPC: 0.426 cumulative IPC: 0.3937 (Simulation time: 00 hr 15 min 01 sec)
Heartbeat CPU 0 instructions: 81000465 cycles: 92660131 heartbeat IPC: 1.274 cumulative IPC: 0.3981 (Simulation time: 00 hr 15 min 05 sec)
Heartbeat CPU 0 instructions: 81500465 cycles: 92974151 heartbeat IPC: 1.592 cumulative IPC: 0.4029 (Simulation time: 00 hr 15 min 09 sec)
Heartbeat CPU 0 instructions: 82000472 cycles: 93290240 heartbeat IPC: 1.582 cumulative IPC: 0.4077 (Simulation time: 00 hr 15 min 12 sec)
Heartbeat CPU 0 instructions: 82500474 cycles: 93603781 heartbeat IPC: 1.595 cumulative IPC: 0.4124 (Simulation time: 00 hr 15 min 16 sec)
Heartbeat CPU 0 instructions: 83000475 cycles: 93930863 heartbeat IPC: 1.529 cumulative IPC: 0.417 (Simulation time: 00 hr 15 min 19 sec)
Heartbeat CPU 0 instructions: 83500476 cycles: 94274892 heartbeat IPC: 1.453 cumulative IPC: 0.4215 (Simulation time: 00 hr 15 min 23 sec)
Heartbeat CPU 0 instructions: 84000476 cycles: 94629077 heartbeat IPC: 1.412 cumulative IPC: 0.4259 (Simulation time: 00 hr 15 min 26 sec)
Heartbeat CPU 0 instructions: 84500479 cycles: 96262641 heartbeat IPC: 0.3061 cumulative IPC: 0.4235 (Simulation time: 00 hr 15 min 38 sec)
Heartbeat CPU 0 instructions: 85000481 cycles: 97862394 heartbeat IPC: 0.3125 cumulative IPC: 0.4214 (Simulation time: 00 hr 15 min 49 sec)
Heartbeat CPU 0 instructions: 85500483 cycles: 99654791 heartbeat IPC: 0.279 cumulative IPC: 0.4184 (Simulation time: 00 hr 16 min 03 sec)
Heartbeat CPU 0 instructions: 86000486 cycles: 101471789 heartbeat IPC: 0.2752 cumulative IPC: 0.4154 (Simulation time: 00 hr 16 min 17 sec)
Heartbeat CPU 0 instructions: 86500486 cycles: 103475214 heartbeat IPC: 0.2496 cumulative IPC: 0.4116 (Simulation time: 00 hr 16 min 30 sec)
Heartbeat CPU 0 instructions: 87000486 cycles: 104562907 heartbeat IPC: 0.4597 cumulative IPC: 0.4122 (Simulation time: 00 hr 16 min 39 sec)
Heartbeat CPU 0 instructions: 87500493 cycles: 105568338 heartbeat IPC: 0.4973 cumulative IPC: 0.4131 (Simulation time: 00 hr 16 min 47 sec)
Heartbeat CPU 0 instructions: 88000497 cycles: 106924320 heartbeat IPC: 0.3687 cumulative IPC: 0.4125 (Simulation time: 00 hr 16 min 57 sec)
Heartbeat CPU 0 instructions: 88500497 cycles: 108290448 heartbeat IPC: 0.366 cumulative IPC: 0.4118 (Simulation time: 00 hr 17 min 08 sec)
Heartbeat CPU 0 instructions: 89000499 cycles: 110303446 heartbeat IPC: 0.2484 cumulative IPC: 0.4084 (Simulation time: 00 hr 17 min 22 sec)
Heartbeat CPU 0 instructions: 89500502 cycles: 111393039 heartbeat IPC: 0.4589 cumulative IPC: 0.4089 (Simulation time: 00 hr 17 min 31 sec)
Heartbeat CPU 0 instructions: 90000507 cycles: 112523680 heartbeat IPC: 0.4422 cumulative IPC: 0.4093 (Simulation time: 00 hr 17 min 40 sec)
Heartbeat CPU 0 instructions: 90500507 cycles: 113814537 heartbeat IPC: 0.3873 cumulative IPC: 0.409 (Simulation time: 00 hr 17 min 50 sec)
Heartbeat CPU 0 instructions: 91000508 cycles: 115664683 heartbeat IPC: 0.2702 cumulative IPC: 0.4065 (Simulation time: 00 hr 18 min 03 sec)
Heartbeat CPU 0 instructions: 91500508 cycles: 116735641 heartbeat IPC: 0.4669 cumulative IPC: 0.4071 (Simulation time: 00 hr 18 min 12 sec)
Heartbeat CPU 0 instructions: 92000509 cycles: 118285985 heartbeat IPC: 0.3225 cumulative IPC: 0.4058 (Simulation time: 00 hr 18 min 24 sec)
Heartbeat CPU 0 instructions: 92500510 cycles: 119575517 heartbeat IPC: 0.3877 cumulative IPC: 0.4056 (Simulation time: 00 hr 18 min 33 sec)
Heartbeat CPU 0 instructions: 93000515 cycles: 120940339 heartbeat IPC: 0.3664 cumulative IPC: 0.4051 (Simulation time: 00 hr 18 min 43 sec)
Heartbeat CPU 0 instructions: 93500515 cycles: 121326862 heartbeat IPC: 1.294 cumulative IPC: 0.4083 (Simulation time: 00 hr 18 min 47 sec)
Heartbeat CPU 0 instructions: 94000518 cycles: 121702158 heartbeat IPC: 1.332 cumulative IPC: 0.4116 (Simulation time: 00 hr 18 min 51 sec)
Heartbeat CPU 0 instructions: 94500518 cycles: 122102523 heartbeat IPC: 1.249 cumulative IPC: 0.4147 (Simulation time: 00 hr 18 min 54 sec)
Heartbeat CPU 0 instructions: 95000519 cycles: 124148052 heartbeat IPC: 0.2444 cumulative IPC: 0.4115 (Simulation time: 00 hr 19 min 08 sec)
Heartbeat CPU 0 instructions: 95500523 cycles: 125427346 heartbeat IPC: 0.3908 cumulative IPC: 0.4113 (Simulation time: 00 hr 19 min 18 sec)
Heartbeat CPU 0 instructions: 96000526 cycles: 126834258 heartbeat IPC: 0.3554 cumulative IPC: 0.4106 (Simulation time: 00 hr 19 min 28 sec)
Heartbeat CPU 0 instructions: 96500526 cycles: 127896383 heartbeat IPC: 0.4708 cumulative IPC: 0.4111 (Simulation time: 00 hr 19 min 37 sec)
Heartbeat CPU 0 instructions: 97000527 cycles: 128632424 heartbeat IPC: 0.6793 cumulative IPC: 0.4129 (Simulation time: 00 hr 19 min 43 sec)
Heartbeat CPU 0 instructions: 97500532 cycles: 129781174 heartbeat IPC: 0.4353 cumulative IPC: 0.4131 (Simulation time: 00 hr 19 min 52 sec)
Heartbeat CPU 0 instructions: 98000533 cycles: 130742517 heartbeat IPC: 0.5201 cumulative IPC: 0.414 (Simulation time: 00 hr 19 min 59 sec)
Heartbeat CPU 0 instructions: 98500539 cycles: 132480318 heartbeat IPC: 0.2877 cumulative IPC: 0.4121 (Simulation time: 00 hr 20 min 12 sec)
Heartbeat CPU 0 instructions: 99000539 cycles: 134060368 heartbeat IPC: 0.3164 cumulative IPC: 0.4109 (Simulation time: 00 hr 20 min 23 sec)
Heartbeat CPU 0 instructions: 99500540 cycles: 135512469 heartbeat IPC: 0.3443 cumulative IPC: 0.4101 (Simulation time: 00 hr 20 min 35 sec)
Heartbeat CPU 0 instructions: 100000542 cycles: 136795924 heartbeat IPC: 0.3896 cumulative IPC: 0.4098 (Simulation time: 00 hr 20 min 44 sec)
Heartbeat CPU 0 instructions: 100500549 cycles: 138204740 heartbeat IPC: 0.3549 cumulative IPC: 0.4092 (Simulation time: 00 hr 20 min 54 sec)
Heartbeat CPU 0 instructions: 101000552 cycles: 139607946 heartbeat IPC: 0.3563 cumulative IPC: 0.4086 (Simulation time: 00 hr 21 min 04 sec)
Heartbeat CPU 0 instructions: 101500553 cycles: 140758806 heartbeat IPC: 0.4345 cumulative IPC: 0.4089 (Simulation time: 00 hr 21 min 13 sec)
Heartbeat CPU 0 instructions: 102000555 cycles: 141779180 heartbeat IPC: 0.49 cumulative IPC: 0.4095 (Simulation time: 00 hr 21 min 21 sec)
Heartbeat CPU 0 instructions: 102500555 cycles: 142959958 heartbeat IPC: 0.4234 cumulative IPC: 0.4096 (Simulation time: 00 hr 21 min 30 sec)
Heartbeat CPU 0 instructions: 103000561 cycles: 144473031 heartbeat IPC: 0.3305 cumulative IPC: 0.4087 (Simulation time: 00 hr 21 min 41 sec)
Heartbeat CPU 0 instructions: 103500564 cycles: 145216076 heartbeat IPC: 0.6729 cumulative IPC: 0.4102 (Simulation time: 00 hr 21 min 47 sec)
Heartbeat CPU 0 instructions: 104000568 cycles: 147566442 heartbeat IPC: 0.2127 cumulative IPC: 0.4067 (Simulation time: 00 hr 22 min 04 sec)
Heartbeat CPU 0 instructions: 104500568 cycles: 149095263 heartbeat IPC: 0.327 cumulative IPC: 0.4058 (Simulation time: 00 hr 22 min 14 sec)
Heartbeat CPU 0 instructions: 105000569 cycles: 150144715 heartbeat IPC: 0.4764 cumulative IPC: 0.4064 (Simulation time: 00 hr 22 min 23 sec)
Heartbeat CPU 0 instructions: 105500574 cycles: 152087886 heartbeat IPC: 0.2573 cumulative IPC: 0.4043 (Simulation time: 00 hr 22 min 36 sec)
Heartbeat CPU 0 instructions: 106000578 cycles: 153197797 heartbeat IPC: 0.4505 cumulative IPC: 0.4046 (Simulation time: 00 hr 22 min 44 sec)
Heartbeat CPU 0 instructions: 106500581 cycles: 154479432 heartbeat IPC: 0.3901 cumulative IPC: 0.4045 (Simulation time: 00 hr 22 min 54 sec)
Heartbeat CPU 0 instructions: 107000584 cycles: 155503235 heartbeat IPC: 0.4884 cumulative IPC: 0.4051 (Simulation time: 00 hr 23 min 02 sec)
Heartbeat CPU 0 instructions: 107500584 cycles: 156780319 heartbeat IPC: 0.3915 cumulative IPC: 0.405 (Simulation time: 00 hr 23 min 12 sec)
Heartbeat CPU 0 instructions: 108000585 cycles: 157915488 heartbeat IPC: 0.4405 cumulative IPC: 0.4053 (Simulation time: 00 hr 23 min 20 sec)
Heartbeat CPU 0 instructions: 108500587 cycles: 159034331 heartbeat IPC: 0.4469 cumulative IPC: 0.4056 (Simulation time: 00 hr 23 min 28 sec)
Heartbeat CPU 0 instructions: 109000588 cycles: 160731805 heartbeat IPC: 0.2946 cumulative IPC: 0.4043 (Simulation time: 00 hr 23 min 41 sec)
Heartbeat CPU 0 instructions: 109500591 cycles: 161755318 heartbeat IPC: 0.4885 cumulative IPC: 0.4049 (Simulation time: 00 hr 23 min 49 sec)
Heartbeat CPU 0 instructions: 110000591 cycles: 162749849 heartbeat IPC: 0.5027 cumulative IPC: 0.4055 (Simulation time: 00 hr 23 min 56 sec)
Heartbeat CPU 0 instructions: 110500591 cycles: 163991948 heartbeat IPC: 0.4025 cumulative IPC: 0.4055 (Simulation time: 00 hr 24 min 05 sec)
Heartbeat CPU 0 instructions: 111000593 cycles: 165174068 heartbeat IPC: 0.423 cumulative IPC: 0.4057 (Simulation time: 00 hr 24 min 14 sec)
Heartbeat CPU 0 instructions: 111500594 cycles: 166790559 heartbeat IPC: 0.3093 cumulative IPC: 0.4046 (Simulation time: 00 hr 24 min 25 sec)
Heartbeat CPU 0 instructions: 112000594 cycles: 168071403 heartbeat IPC: 0.3904 cumulative IPC: 0.4045 (Simulation time: 00 hr 24 min 35 sec)
Heartbeat CPU 0 instructions: 112500594 cycles: 169530563 heartbeat IPC: 0.3427 cumulative IPC: 0.4039 (Simulation time: 00 hr 24 min 45 sec)
Heartbeat CPU 0 instructions: 113000595 cycles: 171109142 heartbeat IPC: 0.3167 cumulative IPC: 0.403 (Simulation time: 00 hr 24 min 57 sec)
Heartbeat CPU 0 instructions: 113500596 cycles: 172220889 heartbeat IPC: 0.4497 cumulative IPC: 0.4034 (Simulation time: 00 hr 25 min 05 sec)
Heartbeat CPU 0 instructions: 114000596 cycles: 174463633 heartbeat IPC: 0.2229 cumulative IPC: 0.4008 (Simulation time: 00 hr 25 min 20 sec)
Heartbeat CPU 0 instructions: 114500600 cycles: 176824013 heartbeat IPC: 0.2118 cumulative IPC: 0.3981 (Simulation time: 00 hr 25 min 35 sec)
Heartbeat CPU 0 instructions: 115000604 cycles: 178382333 heartbeat IPC: 0.3209 cumulative IPC: 0.3973 (Simulation time: 00 hr 25 min 47 sec)
Heartbeat CPU 0 instructions: 115500611 cycles: 179502160 heartbeat IPC: 0.4465 cumulative IPC: 0.3977 (Simulation time: 00 hr 25 min 55 sec)
Heartbeat CPU 0 instructions: 116000614 cycles: 181247180 heartbeat IPC: 0.2865 cumulative IPC: 0.3965 (Simulation time: 00 hr 26 min 08 sec)
Heartbeat CPU 0 instructions: 116500621 cycles: 182123852 heartbeat IPC: 0.5703 cumulative IPC: 0.3974 (Simulation time: 00 hr 26 min 15 sec)
Heartbeat CPU 0 instructions: 117000624 cycles: 182869733 heartbeat IPC: 0.6704 cumulative IPC: 0.3986 (Simulation time: 00 hr 26 min 21 sec)
Heartbeat CPU 0 instructions: 117500630 cycles: 183610021 heartbeat IPC: 0.6754 cumulative IPC: 0.3999 (Simulation time: 00 hr 26 min 27 sec)
Heartbeat CPU 0 instructions: 118000631 cycles: 184554795 heartbeat IPC: 0.5292 cumulative IPC: 0.4006 (Simulation time: 00 hr 26 min 34 sec)
Heartbeat CPU 0 instructions: 118500632 cycles: 186181708 heartbeat IPC: 0.3073 cumulative IPC: 0.3997 (Simulation time: 00 hr 26 min 46 sec)
Heartbeat CPU 0 instructions: 119000634 cycles: 187844544 heartbeat IPC: 0.3007 cumulative IPC: 0.3987 (Simulation time: 00 hr 26 min 58 sec)
Heartbeat CPU 0 instructions: 119500638 cycles: 189023885 heartbeat IPC: 0.424 cumulative IPC: 0.3989 (Simulation time: 00 hr 27 min 06 sec)
Heartbeat CPU 0 instructions: 120000639 cycles: 191358952 heartbeat IPC: 0.2141 cumulative IPC: 0.3965 (Simulation time: 00 hr 27 min 22 sec)
Heartbeat CPU 0 instructions: 120500639 cycles: 192844904 heartbeat IPC: 0.3365 cumulative IPC: 0.396 (Simulation time: 00 hr 27 min 32 sec)
Heartbeat CPU 0 instructions: 121000643 cycles: 193960122 heartbeat IPC: 0.4483 cumulative IPC: 0.3963 (Simulation time: 00 hr 27 min 40 sec)
Heartbeat CPU 0 instructions: 121500644 cycles: 195066437 heartbeat IPC: 0.452 cumulative IPC: 0.3966 (Simulation time: 00 hr 27 min 48 sec)
Heartbeat CPU 0 instructions: 122000648 cycles: 196819362 heartbeat IPC: 0.2852 cumulative IPC: 0.3956 (Simulation time: 00 hr 27 min 59 sec)
Heartbeat CPU 0 instructions: 122500653 cycles: 198174888 heartbeat IPC: 0.3689 cumulative IPC: 0.3954 (Simulation time: 00 hr 28 min 08 sec)
Heartbeat CPU 0 instructions: 123000653 cycles: 199868684 heartbeat IPC: 0.2952 cumulative IPC: 0.3944 (Simulation time: 00 hr 28 min 19 sec)
Heartbeat CPU 0 instructions: 123500656 cycles: 201744410 heartbeat IPC: 0.2666 cumulative IPC: 0.3932 (Simulation time: 00 hr 28 min 31 sec)
Heartbeat CPU 0 instructions: 124000656 cycles: 203227982 heartbeat IPC: 0.337 cumulative IPC: 0.3927 (Simulation time: 00 hr 28 min 42 sec)
Heartbeat CPU 0 instructions: 124500660 cycles: 204243308 heartbeat IPC: 0.4925 cumulative IPC: 0.3933 (Simulation time: 00 hr 28 min 49 sec)
Heartbeat CPU 0 instructions: 125000661 cycles: 205406840 heartbeat IPC: 0.4297 cumulative IPC: 0.3935 (Simulation time: 00 hr 28 min 57 sec)
Heartbeat CPU 0 instructions: 125500661 cycles: 206758312 heartbeat IPC: 0.37 cumulative IPC: 0.3933 (Simulation time: 00 hr 29 min 06 sec)
Heartbeat CPU 0 instructions: 126000666 cycles: 208298560 heartbeat IPC: 0.3246 cumulative IPC: 0.3928 (Simulation time: 00 hr 29 min 17 sec)
Heartbeat CPU 0 instructions: 126500667 cycles: 209669490 heartbeat IPC: 0.3647 cumulative IPC: 0.3926 (Simulation time: 00 hr 29 min 26 sec)
Heartbeat CPU 0 instructions: 127000667 cycles: 210895508 heartbeat IPC: 0.4078 cumulative IPC: 0.3927 (Simulation time: 00 hr 29 min 34 sec)
Heartbeat CPU 0 instructions: 127500669 cycles: 212054987 heartbeat IPC: 0.4312 cumulative IPC: 0.3929 (Simulation time: 00 hr 29 min 42 sec)
Heartbeat CPU 0 instructions: 128000675 cycles: 212504662 heartbeat IPC: 1.112 cumulative IPC: 0.3945 (Simulation time: 00 hr 29 min 46 sec)
Heartbeat CPU 0 instructions: 128500681 cycles: 212833377 heartbeat IPC: 1.521 cumulative IPC: 0.3964 (Simulation time: 00 hr 29 min 49 sec)
Heartbeat CPU 0 instructions: 129000682 cycles: 213192057 heartbeat IPC: 1.394 cumulative IPC: 0.3982 (Simulation time: 00 hr 29 min 52 sec)
Heartbeat CPU 0 instructions: 129500685 cycles: 215418263 heartbeat IPC: 0.2246 cumulative IPC: 0.3963 (Simulation time: 00 hr 30 min 06 sec)
Heartbeat CPU 0 instructions: 130000685 cycles: 217113302 heartbeat IPC: 0.295 cumulative IPC: 0.3954 (Simulation time: 00 hr 30 min 18 sec)
Heartbeat CPU 0 instructions: 130500686 cycles: 218519327 heartbeat IPC: 0.3556 cumulative IPC: 0.3951 (Simulation time: 00 hr 30 min 28 sec)
Heartbeat CPU 0 instructions: 131000686 cycles: 220118291 heartbeat IPC: 0.3127 cumulative IPC: 0.3945 (Simulation time: 00 hr 30 min 39 sec)
Heartbeat CPU 0 instructions: 131500687 cycles: 221539255 heartbeat IPC: 0.3519 cumulative IPC: 0.3942 (Simulation time: 00 hr 30 min 49 sec)
Heartbeat CPU 0 instructions: 132000687 cycles: 224004776 heartbeat IPC: 0.2028 cumulative IPC: 0.392 (Simulation time: 00 hr 31 min 05 sec)
Heartbeat CPU 0 instructions: 132500687 cycles: 225582683 heartbeat IPC: 0.3169 cumulative IPC: 0.3914 (Simulation time: 00 hr 31 min 15 sec)
Heartbeat CPU 0 instructions: 133000694 cycles: 227172793 heartbeat IPC: 0.3144 cumulative IPC: 0.3908 (Simulation time: 00 hr 31 min 26 sec)
Heartbeat CPU 0 instructions: 133500699 cycles: 228561713 heartbeat IPC: 0.36 cumulative IPC: 0.3906 (Simulation time: 00 hr 31 min 35 sec)
Heartbeat CPU 0 instructions: 134000705 cycles: 229921475 heartbeat IPC: 0.3677 cumulative IPC: 0.3905 (Simulation time: 00 hr 31 min 45 sec)
Heartbeat CPU 0 instructions: 134500710 cycles: 231838114 heartbeat IPC: 0.2609 cumulative IPC: 0.3893 (Simulation time: 00 hr 31 min 57 sec)
Heartbeat CPU 0 instructions: 135000714 cycles: 233287199 heartbeat IPC: 0.345 cumulative IPC: 0.389 (Simulation time: 00 hr 32 min 06 sec)
Heartbeat CPU 0 instructions: 135500714 cycles: 235078510 heartbeat IPC: 0.2791 cumulative IPC: 0.3881 (Simulation time: 00 hr 32 min 17 sec)
Heartbeat CPU 0 instructions: 136000716 cycles: 236716509 heartbeat IPC: 0.3053 cumulative IPC: 0.3875 (Simulation time: 00 hr 32 min 28 sec)
Heartbeat CPU 0 instructions: 136500716 cycles: 238305511 heartbeat IPC: 0.3147 cumulative IPC: 0.387 (Simulation time: 00 hr 32 min 39 sec)
Heartbeat CPU 0 instructions: 137000716 cycles: 240446662 heartbeat IPC: 0.2335 cumulative IPC: 0.3856 (Simulation time: 00 hr 32 min 52 sec)
Heartbeat CPU 0 instructions: 137500721 cycles: 241834496 heartbeat IPC: 0.3603 cumulative IPC: 0.3854 (Simulation time: 00 hr 33 min 02 sec)
Heartbeat CPU 0 instructions: 138000722 cycles: 243686703 heartbeat IPC: 0.2699 cumulative IPC: 0.3845 (Simulation time: 00 hr 33 min 14 sec)
Heartbeat CPU 0 instructions: 138500722 cycles: 245302212 heartbeat IPC: 0.3095 cumulative IPC: 0.3839 (Simulation time: 00 hr 33 min 24 sec)
Heartbeat CPU 0 instructions: 139000723 cycles: 246774705 heartbeat IPC: 0.3396 cumulative IPC: 0.3837 (Simulation time: 00 hr 33 min 34 sec)
Heartbeat CPU 0 instructions: 139500723 cycles: 248221156 heartbeat IPC: 0.3457 cumulative IPC: 0.3834 (Simulation time: 00 hr 33 min 44 sec)
Heartbeat CPU 0 instructions: 140000724 cycles: 250110080 heartbeat IPC: 0.2647 cumulative IPC: 0.3825 (Simulation time: 00 hr 33 min 56 sec)
Heartbeat CPU 0 instructions: 140500724 cycles: 251301336 heartbeat IPC: 0.4197 cumulative IPC: 0.3827 (Simulation time: 00 hr 34 min 04 sec)
Heartbeat CPU 0 instructions: 141000726 cycles: 252815445 heartbeat IPC: 0.3302 cumulative IPC: 0.3823 (Simulation time: 00 hr 34 min 14 sec)
Heartbeat CPU 0 instructions: 141500729 cycles: 253945854 heartbeat IPC: 0.4423 cumulative IPC: 0.3826 (Simulation time: 00 hr 34 min 22 sec)
Heartbeat CPU 0 instructions: 142000729 cycles: 255697413 heartbeat IPC: 0.2855 cumulative IPC: 0.3819 (Simulation time: 00 hr 34 min 34 sec)
Heartbeat CPU 0 instructions: 142500730 cycles: 257119095 heartbeat IPC: 0.3517 cumulative IPC: 0.3817 (Simulation time: 00 hr 34 min 43 sec)
Heartbeat CPU 0 instructions: 143000732 cycles: 258455317 heartbeat IPC: 0.3742 cumulative IPC: 0.3817 (Simulation time: 00 hr 34 min 52 sec)
Heartbeat CPU 0 instructions: 143500738 cycles: 260750856 heartbeat IPC: 0.2178 cumulative IPC: 0.3802 (Simulation time: 00 hr 35 min 07 sec)
Heartbeat CPU 0 instructions: 144000738 cycles: 262892603 heartbeat IPC: 0.2335 cumulative IPC: 0.3789 (Simulation time: 00 hr 35 min 20 sec)
Heartbeat CPU 0 instructions: 144500739 cycles: 264323510 heartbeat IPC: 0.3494 cumulative IPC: 0.3787 (Simulation time: 00 hr 35 min 30 sec)
Heartbeat CPU 0 instructions: 145000742 cycles: 265756882 heartbeat IPC: 0.3488 cumulative IPC: 0.3785 (Simulation time: 00 hr 35 min 39 sec)
Heartbeat CPU 0 instructions: 145500748 cycles: 267407955 heartbeat IPC: 0.3028 cumulative IPC: 0.3781 (Simulation time: 00 hr 35 min 50 sec)
Heartbeat CPU 0 instructions: 146000749 cycles: 268847736 heartbeat IPC: 0.3473 cumulative IPC: 0.3779 (Simulation time: 00 hr 35 min 59 sec)
Heartbeat CPU 0 instructions: 146500751 cycles: 270179377 heartbeat IPC: 0.3755 cumulative IPC: 0.3779 (Simulation time: 00 hr 36 min 08 sec)
Heartbeat CPU 0 instructions: 147000756 cycles: 272283614 heartbeat IPC: 0.2376 cumulative IPC: 0.3767 (Simulation time: 00 hr 36 min 21 sec)
Heartbeat CPU 0 instructions: 147500756 cycles: 273627875 heartbeat IPC: 0.372 cumulative IPC: 0.3767 (Simulation time: 00 hr 36 min 30 sec)
Heartbeat CPU 0 instructions: 148000757 cycles: 275398845 heartbeat IPC: 0.2823 cumulative IPC: 0.3761 (Simulation time: 00 hr 36 min 41 sec)
Heartbeat CPU 0 instructions: 148500757 cycles: 277276937 heartbeat IPC: 0.2662 cumulative IPC: 0.3753 (Simulation time: 00 hr 36 min 52 sec)
Heartbeat CPU 0 instructions: 149000758 cycles: 278584686 heartbeat IPC: 0.3823 cumulative IPC: 0.3753 (Simulation time: 00 hr 37 min 01 sec)
Heartbeat CPU 0 instructions: 149500758 cycles: 279638020 heartbeat IPC: 0.4747 cumulative IPC: 0.3757 (Simulation time: 00 hr 37 min 08 sec)
Heartbeat CPU 0 instructions: 150000762 cycles: 280786645 heartbeat IPC: 0.4353 cumulative IPC: 0.376 (Simulation time: 00 hr 37 min 15 sec)
Heartbeat CPU 0 instructions: 150500767 cycles: 281630792 heartbeat IPC: 0.5923 cumulative IPC: 0.3766 (Simulation time: 00 hr 37 min 21 sec)
Heartbeat CPU 0 instructions: 151000769 cycles: 282042100 heartbeat IPC: 1.216 cumulative IPC: 0.3779 (Simulation time: 00 hr 37 min 24 sec)
Heartbeat CPU 0 instructions: 151500769 cycles: 282386242 heartbeat IPC: 1.453 cumulative IPC: 0.3793 (Simulation time: 00 hr 37 min 27 sec)
Heartbeat CPU 0 instructions: 152000771 cycles: 282731646 heartbeat IPC: 1.448 cumulative IPC: 0.3807 (Simulation time: 00 hr 37 min 30 sec)
Heartbeat CPU 0 instructions: 152500778 cycles: 283109155 heartbeat IPC: 1.324 cumulative IPC: 0.382 (Simulation time: 00 hr 37 min 34 sec)
Heartbeat CPU 0 instructions: 153000779 cycles: 284754350 heartbeat IPC: 0.3039 cumulative IPC: 0.3815 (Simulation time: 00 hr 37 min 44 sec)
Heartbeat CPU 0 instructions: 153500780 cycles: 286155090 heartbeat IPC: 0.357 cumulative IPC: 0.3814 (Simulation time: 00 hr 37 min 53 sec)
Heartbeat CPU 0 instructions: 154000780 cycles: 287241872 heartbeat IPC: 0.4601 cumulative IPC: 0.3817 (Simulation time: 00 hr 38 min 00 sec)
Heartbeat CPU 0 instructions: 154500781 cycles: 288981241 heartbeat IPC: 0.2875 cumulative IPC: 0.3811 (Simulation time: 00 hr 38 min 11 sec)
Heartbeat CPU 0 instructions: 155000787 cycles: 290781041 heartbeat IPC: 0.2778 cumulative IPC: 0.3805 (Simulation time: 00 hr 38 min 23 sec)
Heartbeat CPU 0 instructions: 155500787 cycles: 292809798 heartbeat IPC: 0.2465 cumulative IPC: 0.3795 (Simulation time: 00 hr 38 min 35 sec)
Heartbeat CPU 0 instructions: 156000788 cycles: 294577278 heartbeat IPC: 0.2829 cumulative IPC: 0.3789 (Simulation time: 00 hr 38 min 46 sec)
Heartbeat CPU 0 instructions: 156500788 cycles: 295825370 heartbeat IPC: 0.4006 cumulative IPC: 0.379 (Simulation time: 00 hr 38 min 54 sec)
Heartbeat CPU 0 instructions: 157000788 cycles: 297116783 heartbeat IPC: 0.3872 cumulative IPC: 0.379 (Simulation time: 00 hr 39 min 02 sec)
Heartbeat CPU 0 instructions: 157500788 cycles: 298591422 heartbeat IPC: 0.3391 cumulative IPC: 0.3788 (Simulation time: 00 hr 39 min 11 sec)
Heartbeat CPU 0 instructions: 158000791 cycles: 300371201 heartbeat IPC: 0.2809 cumulative IPC: 0.3782 (Simulation time: 00 hr 39 min 22 sec)
Heartbeat CPU 0 instructions: 158500791 cycles: 301960442 heartbeat IPC: 0.3146 cumulative IPC: 0.3778 (Simulation time: 00 hr 39 min 32 sec)
Heartbeat CPU 0 instructions: 159000794 cycles: 304167025 heartbeat IPC: 0.2266 cumulative IPC: 0.3767 (Simulation time: 00 hr 39 min 45 sec)
Heartbeat CPU 0 instructions: 159500796 cycles: 305664016 heartbeat IPC: 0.334 cumulative IPC: 0.3765 (Simulation time: 00 hr 39 min 54 sec)
Heartbeat CPU 0 instructions: 160000797 cycles: 307077418 heartbeat IPC: 0.3538 cumulative IPC: 0.3764 (Simulation time: 00 hr 40 min 03 sec)
Heartbeat CPU 0 instructions: 160500797 cycles: 308808787 heartbeat IPC: 0.2888 cumulative IPC: 0.3758 (Simulation time: 00 hr 40 min 13 sec)
Heartbeat CPU 0 instructions: 161000797 cycles: 310229796 heartbeat IPC: 0.3519 cumulative IPC: 0.3757 (Simulation time: 00 hr 40 min 22 sec)
Heartbeat CPU 0 instructions: 161500798 cycles: 311217620 heartbeat IPC: 0.5062 cumulative IPC: 0.3762 (Simulation time: 00 hr 40 min 29 sec)
Heartbeat CPU 0 instructions: 162000801 cycles: 312386898 heartbeat IPC: 0.4276 cumulative IPC: 0.3764 (Simulation time: 00 hr 40 min 36 sec)
Heartbeat CPU 0 instructions: 162500801 cycles: 313516121 heartbeat IPC: 0.4428 cumulative IPC: 0.3766 (Simulation time: 00 hr 40 min 43 sec)
Heartbeat CPU 0 instructions: 163000801 cycles: 314440505 heartbeat IPC: 0.5409 cumulative IPC: 0.3771 (Simulation time: 00 hr 40 min 50 sec)
Heartbeat CPU 0 instructions: 163500801 cycles: 316779529 heartbeat IPC: 0.2138 cumulative IPC: 0.3759 (Simulation time: 00 hr 41 min 04 sec)
Heartbeat CPU 0 instructions: 164000803 cycles: 318017085 heartbeat IPC: 0.404 cumulative IPC: 0.376 (Simulation time: 00 hr 41 min 11 sec)
Heartbeat CPU 0 instructions: 164500806 cycles: 319282985 heartbeat IPC: 0.395 cumulative IPC: 0.376 (Simulation time: 00 hr 41 min 19 sec)
Heartbeat CPU 0 instructions: 165000810 cycles: 321248137 heartbeat IPC: 0.2544 cumulative IPC: 0.3753 (Simulation time: 00 hr 41 min 31 sec)
Heartbeat CPU 0 instructions: 165500812 cycles: 322728157 heartbeat IPC: 0.3378 cumulative IPC: 0.3751 (Simulation time: 00 hr 41 min 40 sec)
Heartbeat CPU 0 instructions: 166000818 cycles: 323754254 heartbeat IPC: 0.4873 cumulative IPC: 0.3755 (Simulation time: 00 hr 41 min 47 sec)
Heartbeat CPU 0 instructions: 166500818 cycles: 324992279 heartbeat IPC: 0.4039 cumulative IPC: 0.3756 (Simulation time: 00 hr 41 min 54 sec)
Heartbeat CPU 0 instructions: 167000818 cycles: 326278904 heartbeat IPC: 0.3886 cumulative IPC: 0.3756 (Simulation time: 00 hr 42 min 02 sec)
Heartbeat CPU 0 instructions: 167500818 cycles: 328420362 heartbeat IPC: 0.2335 cumulative IPC: 0.3747 (Simulation time: 00 hr 42 min 15 sec)
Heartbeat CPU 0 instructions: 168000823 cycles: 329350355 heartbeat IPC: 0.5376 cumulative IPC: 0.3751 (Simulation time: 00 hr 42 min 20 sec)
Heartbeat CPU 0 instructions: 168500826 cycles: 329834355 heartbeat IPC: 1.033 cumulative IPC: 0.3761 (Simulation time: 00 hr 42 min 24 sec)
Heartbeat CPU 0 instructions: 169000826 cycles: 331831147 heartbeat IPC: 0.2504 cumulative IPC: 0.3754 (Simulation time: 00 hr 42 min 35 sec)
Heartbeat CPU 0 instructions: 169500827 cycles: 333392772 heartbeat IPC: 0.3202 cumulative IPC: 0.3751 (Simulation time: 00 hr 42 min 45 sec)
Heartbeat CPU 0 instructions: 170000827 cycles: 335285548 heartbeat IPC: 0.2642 cumulative IPC: 0.3744 (Simulation time: 00 hr 42 min 56 sec)
Heartbeat CPU 0 instructions: 170500827 cycles: 336576831 heartbeat IPC: 0.3872 cumulative IPC: 0.3745 (Simulation time: 00 hr 43 min 04 sec)
Heartbeat CPU 0 instructions: 171000830 cycles: 337676654 heartbeat IPC: 0.4546 cumulative IPC: 0.3748 (Simulation time: 00 hr 43 min 11 sec)
Heartbeat CPU 0 instructions: 171500831 cycles: 338677372 heartbeat IPC: 0.4996 cumulative IPC: 0.3751 (Simulation time: 00 hr 43 min 17 sec)
Heartbeat CPU 0 instructions: 172000834 cycles: 341310637 heartbeat IPC: 0.1899 cumulative IPC: 0.3736 (Simulation time: 00 hr 43 min 32 sec)
Heartbeat CPU 0 instructions: 172500834 cycles: 343245122 heartbeat IPC: 0.2585 cumulative IPC: 0.373 (Simulation time: 00 hr 43 min 43 sec)
Heartbeat CPU 0 instructions: 173000834 cycles: 345959964 heartbeat IPC: 0.1842 cumulative IPC: 0.3714 (Simulation time: 00 hr 43 min 58 sec)
Heartbeat CPU 0 instructions: 173500834 cycles: 347408682 heartbeat IPC: 0.3451 cumulative IPC: 0.3713 (Simulation time: 00 hr 44 min 06 sec)
Heartbeat CPU 0 instructions: 174000839 cycles: 348953086 heartbeat IPC: 0.3238 cumulative IPC: 0.3711 (Simulation time: 00 hr 44 min 15 sec)
Heartbeat CPU 0 instructions: 174500839 cycles: 350793210 heartbeat IPC: 0.2717 cumulative IPC: 0.3705 (Simulation time: 00 hr 44 min 26 sec)
Heartbeat CPU 0 instructions: 175000841 cycles: 352013363 heartbeat IPC: 0.4098 cumulative IPC: 0.3707 (Simulation time: 00 hr 44 min 34 sec)
Heartbeat CPU 0 instructions: 175500841 cycles: 352887882 heartbeat IPC: 0.5717 cumulative IPC: 0.3712 (Simulation time: 00 hr 44 min 40 sec)
Heartbeat CPU 0 instructions: 176000845 cycles: 354816963 heartbeat IPC: 0.2592 cumulative IPC: 0.3706 (Simulation time: 00 hr 44 min 51 sec)
Heartbeat CPU 0 instructions: 176500845 cycles: 356440202 heartbeat IPC: 0.308 cumulative IPC: 0.3703 (Simulation time: 00 hr 45 min 00 sec)
Heartbeat CPU 0 instructions: 177000845 cycles: 357631309 heartbeat IPC: 0.4198 cumulative IPC: 0.3704 (Simulation time: 00 hr 45 min 07 sec)
Heartbeat CPU 0 instructions: 177500845 cycles: 358978968 heartbeat IPC: 0.371 cumulative IPC: 0.3704 (Simulation time: 00 hr 45 min 16 sec)
Heartbeat CPU 0 instructions: 178000845 cycles: 361359050 heartbeat IPC: 0.2101 cumulative IPC: 0.3693 (Simulation time: 00 hr 45 min 29 sec)
Heartbeat CPU 0 instructions: 178500846 cycles: 362749252 heartbeat IPC: 0.3597 cumulative IPC: 0.3693 (Simulation time: 00 hr 45 min 37 sec)
Heartbeat CPU 0 instructions: 179000846 cycles: 364081995 heartbeat IPC: 0.3752 cumulative IPC: 0.3693 (Simulation time: 00 hr 45 min 45 sec)
Heartbeat CPU 0 instructions: 179500847 cycles: 365476451 heartbeat IPC: 0.3586 cumulative IPC: 0.3693 (Simulation time: 00 hr 45 min 54 sec)
Heartbeat CPU 0 instructions: 180000848 cycles: 366579611 heartbeat IPC: 0.4532 cumulative IPC: 0.3695 (Simulation time: 00 hr 46 min 00 sec)
Heartbeat CPU 0 instructions: 180500855 cycles: 368693674 heartbeat IPC: 0.2365 cumulative IPC: 0.3688 (Simulation time: 00 hr 46 min 12 sec)
Heartbeat CPU 0 instructions: 181000858 cycles: 369566561 heartbeat IPC: 0.5728 cumulative IPC: 0.3693 (Simulation time: 00 hr 46 min 18 sec)
Heartbeat CPU 0 instructions: 181500859 cycles: 370607390 heartbeat IPC: 0.4804 cumulative IPC: 0.3696 (Simulation time: 00 hr 46 min 25 sec)
Heartbeat CPU 0 instructions: 182000859 cycles: 371539350 heartbeat IPC: 0.5365 cumulative IPC: 0.37 (Simulation time: 00 hr 46 min 31 sec)
Heartbeat CPU 0 instructions: 182500862 cycles: 372431458 heartbeat IPC: 0.5605 cumulative IPC: 0.3705 (Simulation time: 00 hr 46 min 36 sec)
Heartbeat CPU 0 instructions: 183000866 cycles: 373120945 heartbeat IPC: 0.7252 cumulative IPC: 0.3712 (Simulation time: 00 hr 46 min 41 sec)
Heartbeat CPU 0 instructions: 183500867 cycles: 374029507 heartbeat IPC: 0.5503 cumulative IPC: 0.3716 (Simulation time: 00 hr 46 min 46 sec)
Heartbeat CPU 0 instructions: 184000867 cycles: 375500488 heartbeat IPC: 0.3399 cumulative IPC: 0.3715 (Simulation time: 00 hr 46 min 55 sec)
Heartbeat CPU 0 instructions: 184500874 cycles: 376825921 heartbeat IPC: 0.3772 cumulative IPC: 0.3715 (Simulation time: 00 hr 47 min 03 sec)
Heartbeat CPU 0 instructions: 185000875 cycles: 378788444 heartbeat IPC: 0.2548 cumulative IPC: 0.3709 (Simulation time: 00 hr 47 min 14 sec)
Heartbeat CPU 0 instructions: 185500875 cycles: 380181813 heartbeat IPC: 0.3588 cumulative IPC: 0.3708 (Simulation time: 00 hr 47 min 22 sec)
Heartbeat CPU 0 instructions: 186000876 cycles: 381412448 heartbeat IPC: 0.4063 cumulative IPC: 0.371 (Simulation time: 00 hr 47 min 29 sec)
Heartbeat CPU 0 instructions: 186500879 cycles: 382365931 heartbeat IPC: 0.5244 cumulative IPC: 0.3714 (Simulation time: 00 hr 47 min 35 sec)
Heartbeat CPU 0 instructions: 187000883 cycles: 382699816 heartbeat IPC: 1.498 cumulative IPC: 0.3724 (Simulation time: 00 hr 47 min 38 sec)
Heartbeat CPU 0 instructions: 187500883 cycles: 383050878 heartbeat IPC: 1.424 cumulative IPC: 0.3734 (Simulation time: 00 hr 47 min 41 sec)
Heartbeat CPU 0 instructions: 188000885 cycles: 383955201 heartbeat IPC: 0.5529 cumulative IPC: 0.3738 (Simulation time: 00 hr 47 min 46 sec)
Heartbeat CPU 0 instructions: 188500885 cycles: 386356139 heartbeat IPC: 0.2083 cumulative IPC: 0.3728 (Simulation time: 00 hr 48 min 00 sec)
Heartbeat CPU 0 instructions: 189000889 cycles: 387502367 heartbeat IPC: 0.4362 cumulative IPC: 0.373 (Simulation time: 00 hr 48 min 07 sec)
Heartbeat CPU 0 instructions: 189500889 cycles: 389560410 heartbeat IPC: 0.2429 cumulative IPC: 0.3722 (Simulation time: 00 hr 48 min 19 sec)
Heartbeat CPU 0 instructions: 190000889 cycles: 390800784 heartbeat IPC: 0.4031 cumulative IPC: 0.3723 (Simulation time: 00 hr 48 min 26 sec)
Heartbeat CPU 0 instructions: 190500889 cycles: 391928239 heartbeat IPC: 0.4435 cumulative IPC: 0.3726 (Simulation time: 00 hr 48 min 33 sec)
Heartbeat CPU 0 instructions: 191000891 cycles: 395039772 heartbeat IPC: 0.1607 cumulative IPC: 0.3708 (Simulation time: 00 hr 48 min 49 sec)
Heartbeat CPU 0 instructions: 191500894 cycles: 396595032 heartbeat IPC: 0.3215 cumulative IPC: 0.3706 (Simulation time: 00 hr 48 min 58 sec)
Heartbeat CPU 0 instructions: 192000895 cycles: 397962340 heartbeat IPC: 0.3657 cumulative IPC: 0.3706 (Simulation time: 00 hr 49 min 06 sec)
Heartbeat CPU 0 instructions: 192500895 cycles: 399515269 heartbeat IPC: 0.322 cumulative IPC: 0.3704 (Simulation time: 00 hr 49 min 15 sec)
Heartbeat CPU 0 instructions: 193000899 cycles: 399909297 heartbeat IPC: 1.269 cumulative IPC: 0.3713 (Simulation time: 00 hr 49 min 18 sec)
Heartbeat CPU 0 instructions: 193500900 cycles: 400271016 heartbeat IPC: 1.382 cumulative IPC: 0.3723 (Simulation time: 00 hr 49 min 21 sec)
Heartbeat CPU 0 instructions: 194000900 cycles: 400587763 heartbeat IPC: 1.579 cumulative IPC: 0.3733 (Simulation time: 00 hr 49 min 24 sec)
Heartbeat CPU 0 instructions: 194500904 cycles: 400900066 heartbeat IPC: 1.601 cumulative IPC: 0.3743 (Simulation time: 00 hr 49 min 26 sec)
Heartbeat CPU 0 instructions: 195000904 cycles: 401270564 heartbeat IPC: 1.35 cumulative IPC: 0.3752 (Simulation time: 00 hr 49 min 29 sec)
Heartbeat CPU 0 instructions: 195500905 cycles: 402619792 heartbeat IPC: 0.3706 cumulative IPC: 0.3752 (Simulation time: 00 hr 49 min 37 sec)
Heartbeat CPU 0 instructions: 196000909 cycles: 404547296 heartbeat IPC: 0.2594 cumulative IPC: 0.3746 (Simulation time: 00 hr 49 min 47 sec)
Heartbeat CPU 0 instructions: 196500912 cycles: 406596086 heartbeat IPC: 0.244 cumulative IPC: 0.3739 (Simulation time: 00 hr 49 min 58 sec)
Heartbeat CPU 0 instructions: 197000912 cycles: 407638226 heartbeat IPC: 0.4798 cumulative IPC: 0.3742 (Simulation time: 00 hr 50 min 05 sec)
Heartbeat CPU 0 instructions: 197500912 cycles: 408526142 heartbeat IPC: 0.5631 cumulative IPC: 0.3746 (Simulation time: 00 hr 50 min 11 sec)
Heartbeat CPU 0 instructions: 198000912 cycles: 409714321 heartbeat IPC: 0.4208 cumulative IPC: 0.3748 (Simulation time: 00 hr 50 min 18 sec)
Heartbeat CPU 0 instructions: 198500912 cycles: 411580835 heartbeat IPC: 0.2679 cumulative IPC: 0.3743 (Simulation time: 00 hr 50 min 28 sec)
Heartbeat CPU 0 instructions: 199000915 cycles: 412485325 heartbeat IPC: 0.5528 cumulative IPC: 0.3747 (Simulation time: 00 hr 50 min 34 sec)
Heartbeat CPU 0 instructions: 199500921 cycles: 413649990 heartbeat IPC: 0.4293 cumulative IPC: 0.3748 (Simulation time: 00 hr 50 min 42 sec)
Heartbeat CPU 0 instructions: 200000922 cycles: 415659265 heartbeat IPC: 0.2488 cumulative IPC: 0.3742 (Simulation time: 00 hr 50 min 52 sec)
Heartbeat CPU 0 instructions: 200500927 cycles: 416673173 heartbeat IPC: 0.4931 cumulative IPC: 0.3745 (Simulation time: 00 hr 50 min 59 sec)
Heartbeat CPU 0 instructions: 201000931 cycles: 418509669 heartbeat IPC: 0.2723 cumulative IPC: 0.374 (Simulation time: 00 hr 51 min 09 sec)
Heartbeat CPU 0 instructions: 201500938 cycles: 420550899 heartbeat IPC: 0.245 cumulative IPC: 0.3734 (Simulation time: 00 hr 51 min 20 sec)
Heartbeat CPU 0 instructions: 202000940 cycles: 422839256 heartbeat IPC: 0.2185 cumulative IPC: 0.3725 (Simulation time: 00 hr 51 min 33 sec)
Heartbeat CPU 0 instructions: 202500940 cycles: 424798273 heartbeat IPC: 0.2552 cumulative IPC: 0.372 (Simulation time: 00 hr 51 min 44 sec)
Heartbeat CPU 0 instructions: 203000946 cycles: 425952689 heartbeat IPC: 0.4331 cumulative IPC: 0.3721 (Simulation time: 00 hr 51 min 51 sec)
Heartbeat CPU 0 instructions: 203500948 cycles: 427541362 heartbeat IPC: 0.3147 cumulative IPC: 0.3719 (Simulation time: 00 hr 52 min 00 sec)
Heartbeat CPU 0 instructions: 204000948 cycles: 428907635 heartbeat IPC: 0.366 cumulative IPC: 0.3719 (Simulation time: 00 hr 52 min 08 sec)
Heartbeat CPU 0 instructions: 204500949 cycles: 430086231 heartbeat IPC: 0.4242 cumulative IPC: 0.372 (Simulation time: 00 hr 52 min 16 sec)
Heartbeat CPU 0 instructions: 205000955 cycles: 431153816 heartbeat IPC: 0.4684 cumulative IPC: 0.3723 (Simulation time: 00 hr 52 min 23 sec)
Heartbeat CPU 0 instructions: 205500955 cycles: 432435316 heartbeat IPC: 0.3902 cumulative IPC: 0.3723 (Simulation time: 00 hr 52 min 31 sec)
Heartbeat CPU 0 instructions: 206000956 cycles: 433305043 heartbeat IPC: 0.5749 cumulative IPC: 0.3728 (Simulation time: 00 hr 52 min 36 sec)
Heartbeat CPU 0 instructions: 206500963 cycles: 434324416 heartbeat IPC: 0.4905 cumulative IPC: 0.373 (Simulation time: 00 hr 52 min 43 sec)
Heartbeat CPU 0 instructions: 207000963 cycles: 435440585 heartbeat IPC: 0.448 cumulative IPC: 0.3732 (Simulation time: 00 hr 52 min 50 sec)
Heartbeat CPU 0 instructions: 207500966 cycles: 437642471 heartbeat IPC: 0.2271 cumulative IPC: 0.3725 (Simulation time: 00 hr 53 min 02 sec)
Heartbeat CPU 0 instructions: 208000967 cycles: 439130935 heartbeat IPC: 0.3359 cumulative IPC: 0.3724 (Simulation time: 00 hr 53 min 11 sec)
Heartbeat CPU 0 instructions: 208500967 cycles: 440642908 heartbeat IPC: 0.3307 cumulative IPC: 0.3722 (Simulation time: 00 hr 53 min 19 sec)
Heartbeat CPU 0 instructions: 209000968 cycles: 441434812 heartbeat IPC: 0.6314 cumulative IPC: 0.3727 (Simulation time: 00 hr 53 min 25 sec)
Heartbeat CPU 0 instructions: 209500968 cycles: 442974111 heartbeat IPC: 0.3248 cumulative IPC: 0.3725 (Simulation time: 00 hr 53 min 34 sec)
Heartbeat CPU 0 instructions: 210000969 cycles: 444819790 heartbeat IPC: 0.2709 cumulative IPC: 0.3721 (Simulation time: 00 hr 53 min 44 sec)
Heartbeat CPU 0 instructions: 210500969 cycles: 445648038 heartbeat IPC: 0.6037 cumulative IPC: 0.3725 (Simulation time: 00 hr 53 min 50 sec)
Heartbeat CPU 0 instructions: 211000972 cycles: 446481851 heartbeat IPC: 0.5997 cumulative IPC: 0.373 (Simulation time: 00 hr 53 min 55 sec)
Heartbeat CPU 0 instructions: 211500974 cycles: 447288210 heartbeat IPC: 0.6201 cumulative IPC: 0.3734 (Simulation time: 00 hr 54 min 00 sec)
Heartbeat CPU 0 instructions: 212000974 cycles: 448340452 heartbeat IPC: 0.4752 cumulative IPC: 0.3737 (Simulation time: 00 hr 54 min 07 sec)
Heartbeat CPU 0 instructions: 212500974 cycles: 449023045 heartbeat IPC: 0.7325 cumulative IPC: 0.3742 (Simulation time: 00 hr 54 min 12 sec)
Heartbeat CPU 0 instructions: 213000975 cycles: 449832736 heartbeat IPC: 0.6175 cumulative IPC: 0.3747 (Simulation time: 00 hr 54 min 17 sec)
Heartbeat CPU 0 instructions: 213500976 cycles: 450593551 heartbeat IPC: 0.6572 cumulative IPC: 0.3752 (Simulation time: 00 hr 54 min 23 sec)
Heartbeat CPU 0 instructions: 214000982 cycles: 451555558 heartbeat IPC: 0.5198 cumulative IPC: 0.3755 (Simulation time: 00 hr 54 min 29 sec)
Heartbeat CPU 0 instructions: 214500982 cycles: 453373075 heartbeat IPC: 0.2751 cumulative IPC: 0.3751 (Simulation time: 00 hr 54 min 40 sec)
Heartbeat CPU 0 instructions: 215000982 cycles: 454959986 heartbeat IPC: 0.3151 cumulative IPC: 0.3749 (Simulation time: 00 hr 54 min 50 sec)
Heartbeat CPU 0 instructions: 215500987 cycles: 456680705 heartbeat IPC: 0.2906 cumulative IPC: 0.3745 (Simulation time: 00 hr 54 min 59 sec)
Heartbeat CPU 0 instructions: 216000992 cycles: 457977318 heartbeat IPC: 0.3856 cumulative IPC: 0.3746 (Simulation time: 00 hr 55 min 07 sec)
Heartbeat CPU 0 instructions: 216500994 cycles: 459071083 heartbeat IPC: 0.4571 cumulative IPC: 0.3748 (Simulation time: 00 hr 55 min 14 sec)
Heartbeat CPU 0 instructions: 217000994 cycles: 459912166 heartbeat IPC: 0.5945 cumulative IPC: 0.3752 (Simulation time: 00 hr 55 min 20 sec)
Heartbeat CPU 0 instructions: 217500995 cycles: 460825208 heartbeat IPC: 0.5476 cumulative IPC: 0.3755 (Simulation time: 00 hr 55 min 25 sec)
Heartbeat CPU 0 instructions: 218000999 cycles: 462874619 heartbeat IPC: 0.244 cumulative IPC: 0.3749 (Simulation time: 00 hr 55 min 37 sec)
Heartbeat CPU 0 instructions: 218501000 cycles: 464254593 heartbeat IPC: 0.3623 cumulative IPC: 0.3749 (Simulation time: 00 hr 55 min 45 sec)
Heartbeat CPU 0 instructions: 219001000 cycles: 466040839 heartbeat IPC: 0.2799 cumulative IPC: 0.3745 (Simulation time: 00 hr 55 min 55 sec)
Heartbeat CPU 0 instructions: 219501004 cycles: 467439866 heartbeat IPC: 0.3574 cumulative IPC: 0.3745 (Simulation time: 00 hr 56 min 03 sec)
Heartbeat CPU 0 instructions: 220001004 cycles: 468681316 heartbeat IPC: 0.4028 cumulative IPC: 0.3745 (Simulation time: 00 hr 56 min 11 sec)
Heartbeat CPU 0 instructions: 220501011 cycles: 470394351 heartbeat IPC: 0.2919 cumulative IPC: 0.3742 (Simulation time: 00 hr 56 min 21 sec)
Heartbeat CPU 0 instructions: 221001015 cycles: 472104742 heartbeat IPC: 0.2923 cumulative IPC: 0.3739 (Simulation time: 00 hr 56 min 30 sec)
Heartbeat CPU 0 instructions: 221501019 cycles: 473162297 heartbeat IPC: 0.4728 cumulative IPC: 0.3742 (Simulation time: 00 hr 56 min 37 sec)
Heartbeat CPU 0 instructions: 222001019 cycles: 475833400 heartbeat IPC: 0.1872 cumulative IPC: 0.3731 (Simulation time: 00 hr 56 min 50 sec)
Heartbeat CPU 0 instructions: 222501019 cycles: 477482898 heartbeat IPC: 0.3031 cumulative IPC: 0.3728 (Simulation time: 00 hr 57 min 01 sec)
Heartbeat CPU 0 instructions: 223001019 cycles: 478486847 heartbeat IPC: 0.498 cumulative IPC: 0.3731 (Simulation time: 00 hr 57 min 07 sec)
Heartbeat CPU 0 instructions: 223501020 cycles: 479423098 heartbeat IPC: 0.534 cumulative IPC: 0.3734 (Simulation time: 00 hr 57 min 13 sec)
Heartbeat CPU 0 instructions: 224001020 cycles: 480203122 heartbeat IPC: 0.641 cumulative IPC: 0.3739 (Simulation time: 00 hr 57 min 19 sec)
Heartbeat CPU 0 instructions: 224501020 cycles: 481777338 heartbeat IPC: 0.3176 cumulative IPC: 0.3737 (Simulation time: 00 hr 57 min 28 sec)
Heartbeat CPU 0 instructions: 225001026 cycles: 483565854 heartbeat IPC: 0.2796 cumulative IPC: 0.3733 (Simulation time: 00 hr 57 min 37 sec)
Heartbeat CPU 0 instructions: 225501030 cycles: 485587577 heartbeat IPC: 0.2473 cumulative IPC: 0.3728 (Simulation time: 00 hr 57 min 49 sec)
Heartbeat CPU 0 instructions: 226001034 cycles: 488093483 heartbeat IPC: 0.1995 cumulative IPC: 0.3719 (Simulation time: 00 hr 58 min 02 sec)
Heartbeat CPU 0 instructions: 226501034 cycles: 489536787 heartbeat IPC: 0.3464 cumulative IPC: 0.3718 (Simulation time: 00 hr 58 min 11 sec)
Heartbeat CPU 0 instructions: 227001034 cycles: 491491026 heartbeat IPC: 0.2559 cumulative IPC: 0.3713 (Simulation time: 00 hr 58 min 22 sec)
Heartbeat CPU 0 instructions: 227501035 cycles: 493148995 heartbeat IPC: 0.3016 cumulative IPC: 0.3711 (Simulation time: 00 hr 58 min 31 sec)
Heartbeat CPU 0 instructions: 228001036 cycles: 494884451 heartbeat IPC: 0.2881 cumulative IPC: 0.3708 (Simulation time: 00 hr 58 min 41 sec)
Heartbeat CPU 0 instructions: 228501042 cycles: 496631685 heartbeat IPC: 0.2862 cumulative IPC: 0.3705 (Simulation time: 00 hr 58 min 51 sec)
Heartbeat CPU 0 instructions: 229001046 cycles: 498099827 heartbeat IPC: 0.3406 cumulative IPC: 0.3704 (Simulation time: 00 hr 59 min 00 sec)
Heartbeat CPU 0 instructions: 229501050 cycles: 498971438 heartbeat IPC: 0.5737 cumulative IPC: 0.3707 (Simulation time: 00 hr 59 min 05 sec)
Heartbeat CPU 0 instructions: 230001053 cycles: 499854563 heartbeat IPC: 0.5662 cumulative IPC: 0.3711 (Simulation time: 00 hr 59 min 11 sec)
Heartbeat CPU 0 instructions: 230501053 cycles: 501720893 heartbeat IPC: 0.2679 cumulative IPC: 0.3707 (Simulation time: 00 hr 59 min 21 sec)
Heartbeat CPU 0 instructions: 231001056 cycles: 502679502 heartbeat IPC: 0.5216 cumulative IPC: 0.371 (Simulation time: 00 hr 59 min 27 sec)
Heartbeat CPU 0 instructions: 231501057 cycles: 503675644 heartbeat IPC: 0.5019 cumulative IPC: 0.3713 (Simulation time: 00 hr 59 min 34 sec)
Heartbeat CPU 0 instructions: 232001058 cycles: 505160448 heartbeat IPC: 0.3367 cumulative IPC: 0.3712 (Simulation time: 00 hr 59 min 42 sec)
Heartbeat CPU 0 instructions: 232501059 cycles: 506441037 heartbeat IPC: 0.3904 cumulative IPC: 0.3712 (Simulation time: 00 hr 59 min 50 sec)
Heartbeat CPU 0 instructions: 233001064 cycles: 509065967 heartbeat IPC: 0.1905 cumulative IPC: 0.3702 (Simulation time: 01 hr 00 min 04 sec)
Heartbeat CPU 0 instructions: 233501065 cycles: 510746261 heartbeat IPC: 0.2976 cumulative IPC: 0.37 (Simulation time: 01 hr 00 min 14 sec)
Heartbeat CPU 0 instructions: 234001065 cycles: 511914578 heartbeat IPC: 0.428 cumulative IPC: 0.3701 (Simulation time: 01 hr 00 min 21 sec)
Heartbeat CPU 0 instructions: 234501068 cycles: 513342720 heartbeat IPC: 0.3501 cumulative IPC: 0.3701 (Simulation time: 01 hr 00 min 29 sec)
Heartbeat CPU 0 instructions: 235001068 cycles: 514620285 heartbeat IPC: 0.3914 cumulative IPC: 0.3701 (Simulation time: 01 hr 00 min 37 sec)
Heartbeat CPU 0 instructions: 235501068 cycles: 515935037 heartbeat IPC: 0.3803 cumulative IPC: 0.3702 (Simulation time: 01 hr 00 min 45 sec)
Heartbeat CPU 0 instructions: 236001069 cycles: 517613132 heartbeat IPC: 0.298 cumulative IPC: 0.3699 (Simulation time: 01 hr 00 min 55 sec)
Heartbeat CPU 0 instructions: 236501071 cycles: 518848666 heartbeat IPC: 0.4047 cumulative IPC: 0.37 (Simulation time: 01 hr 01 min 03 sec)
Heartbeat CPU 0 instructions: 237001071 cycles: 520792628 heartbeat IPC: 0.2572 cumulative IPC: 0.3696 (Simulation time: 01 hr 01 min 14 sec)
Heartbeat CPU 0 instructions: 237501072 cycles: 522067401 heartbeat IPC: 0.3922 cumulative IPC: 0.3696 (Simulation time: 01 hr 01 min 22 sec)
Heartbeat CPU 0 instructions: 238001075 cycles: 523131701 heartbeat IPC: 0.4698 cumulative IPC: 0.3698 (Simulation time: 01 hr 01 min 29 sec)
Heartbeat CPU 0 instructions: 238501075 cycles: 524313025 heartbeat IPC: 0.4233 cumulative IPC: 0.37 (Simulation time: 01 hr 01 min 36 sec)
Heartbeat CPU 0 instructions: 239001078 cycles: 526340063 heartbeat IPC: 0.2467 cumulative IPC: 0.3695 (Simulation time: 01 hr 01 min 47 sec)
Heartbeat CPU 0 instructions: 239501081 cycles: 527893343 heartbeat IPC: 0.3219 cumulative IPC: 0.3693 (Simulation time: 01 hr 01 min 56 sec)
Heartbeat CPU 0 instructions: 240001081 cycles: 528813362 heartbeat IPC: 0.5435 cumulative IPC: 0.3696 (Simulation time: 01 hr 02 min 02 sec)
Heartbeat CPU 0 instructions: 240501082 cycles: 530038276 heartbeat IPC: 0.4082 cumulative IPC: 0.3697 (Simulation time: 01 hr 02 min 09 sec)
Heartbeat CPU 0 instructions: 241001082 cycles: 531769204 heartbeat IPC: 0.2889 cumulative IPC: 0.3695 (Simulation time: 01 hr 02 min 19 sec)
Heartbeat CPU 0 instructions: 241501085 cycles: 532943637 heartbeat IPC: 0.4257 cumulative IPC: 0.3696 (Simulation time: 01 hr 02 min 26 sec)
Heartbeat CPU 0 instructions: 242001085 cycles: 534713761 heartbeat IPC: 0.2825 cumulative IPC: 0.3693 (Simulation time: 01 hr 02 min 36 sec)
Heartbeat CPU 0 instructions: 242501085 cycles: 536988219 heartbeat IPC: 0.2198 cumulative IPC: 0.3686 (Simulation time: 01 hr 02 min 49 sec)
Heartbeat CPU 0 instructions: 243001088 cycles: 538047591 heartbeat IPC: 0.472 cumulative IPC: 0.3689 (Simulation time: 01 hr 02 min 55 sec)
Heartbeat CPU 0 instructions: 243501088 cycles: 538975627 heartbeat IPC: 0.5388 cumulative IPC: 0.3692 (Simulation time: 01 hr 03 min 01 sec)
Heartbeat CPU 0 instructions: 244001088 cycles: 539965196 heartbeat IPC: 0.5053 cumulative IPC: 0.3694 (Simulation time: 01 hr 03 min 08 sec)
Heartbeat CPU 0 instructions: 244501094 cycles: 540995319 heartbeat IPC: 0.4854 cumulative IPC: 0.3696 (Simulation time: 01 hr 03 min 14 sec)
Heartbeat CPU 0 instructions: 245001094 cycles: 542235197 heartbeat IPC: 0.4033 cumulative IPC: 0.3697 (Simulation time: 01 hr 03 min 21 sec)
Heartbeat CPU 0 instructions: 245501098 cycles: 543595322 heartbeat IPC: 0.3676 cumulative IPC: 0.3697 (Simulation time: 01 hr 03 min 30 sec)
Heartbeat CPU 0 instructions: 246001101 cycles: 544640136 heartbeat IPC: 0.4786 cumulative IPC: 0.3699 (Simulation time: 01 hr 03 min 36 sec)
Heartbeat CPU 0 instructions: 246501101 cycles: 546560340 heartbeat IPC: 0.2604 cumulative IPC: 0.3695 (Simulation time: 01 hr 03 min 47 sec)
Heartbeat CPU 0 instructions: 247001103 cycles: 548276639 heartbeat IPC: 0.2913 cumulative IPC: 0.3693 (Simulation time: 01 hr 03 min 57 sec)
Heartbeat CPU 0 instructions: 247501104 cycles: 549426543 heartbeat IPC: 0.4348 cumulative IPC: 0.3694 (Simulation time: 01 hr 04 min 04 sec)
Heartbeat CPU 0 instructions: 248001105 cycles: 550589048 heartbeat IPC: 0.4301 cumulative IPC: 0.3695 (Simulation time: 01 hr 04 min 11 sec)
Heartbeat CPU 0 instructions: 248501106 cycles: 552397559 heartbeat IPC: 0.2765 cumulative IPC: 0.3692 (Simulation time: 01 hr 04 min 21 sec)
Heartbeat CPU 0 instructions: 249001108 cycles: 553737382 heartbeat IPC: 0.3732 cumulative IPC: 0.3692 (Simulation time: 01 hr 04 min 29 sec)
Heartbeat CPU 0 instructions: 249501111 cycles: 554607227 heartbeat IPC: 0.5748 cumulative IPC: 0.3696 (Simulation time: 01 hr 04 min 34 sec)
Simulation finished CPU 0 instructions: 200000003 cycles: 540888465 cumulative IPC: 0.3698 (Simulation time: 01 hr 04 min 41 sec)
Simulation complete CPU 0 instructions: 200000003 cycles: 540888465 cumulative IPC: 0.3698 (Simulation time: 01 hr 04 min 41 sec)

ChampSim completed all CPUs

=== Simulation ===
CPU 0 runs /local-ssd/ben/dpc4-traces/gtraces_v2/sierra.a.6_0004.champsim.gz

Region of Interest Statistics

CPU 0 cumulative IPC: 0.3698 instructions: 200000003 cycles: 540888465
CPU 0 Branch Prediction Accuracy: 87.22% MPKI: 25.22 Average ROB Occupancy at Mispredict: 17.89
Branch type MPKI
BRANCH_DIRECT_JUMP: 1.876
BRANCH_INDIRECT: 0.272
BRANCH_CONDITIONAL: 20.41
BRANCH_DIRECT_CALL: 1.271
BRANCH_INDIRECT_CALL: 0.333
BRANCH_RETURN: 1.057

cpu0->cpu0_STLB TOTAL        ACCESS:    4762179 HIT:    3682938 MISS:    1079241 MSHR_MERGE:          0
cpu0->cpu0_STLB LOAD         ACCESS:    4762179 HIT:    3682938 MISS:    1079241 MSHR_MERGE:          0
cpu0->cpu0_STLB RFO          ACCESS:          0 HIT:          0 MISS:          0 MSHR_MERGE:          0
cpu0->cpu0_STLB PREFETCH     ACCESS:          0 HIT:          0 MISS:          0 MSHR_MERGE:          0
cpu0->cpu0_STLB WRITE        ACCESS:          0 HIT:          0 MISS:          0 MSHR_MERGE:          0
cpu0->cpu0_STLB TRANSLATION  ACCESS:          0 HIT:          0 MISS:          0 MSHR_MERGE:          0
cpu0->cpu0_STLB PREFETCH REQUESTED:          0 ISSUED:          0 USEFUL:          0 USELESS:          0
cpu0->cpu0_STLB AVERAGE MISS LATENCY: 118.5 cycles
cpu0->cpu0_L2C TOTAL        ACCESS:   31008336 HIT:   23757086 MISS:    7251250 MSHR_MERGE:     642369
cpu0->cpu0_L2C LOAD         ACCESS:   10929841 HIT:    8486701 MISS:    2443140 MSHR_MERGE:      26808
cpu0->cpu0_L2C RFO          ACCESS:    1136846 HIT:     714433 MISS:     422413 MSHR_MERGE:       4353
cpu0->cpu0_L2C PREFETCH     ACCESS:   15664962 HIT:   11703826 MISS:    3961136 MSHR_MERGE:     611208
cpu0->cpu0_L2C WRITE        ACCESS:    2163765 HIT:    2163661 MISS:        104 MSHR_MERGE:          0
cpu0->cpu0_L2C TRANSLATION  ACCESS:    1112922 HIT:     688465 MISS:     424457 MSHR_MERGE:          0
cpu0->cpu0_L2C PREFETCH REQUESTED:   12172725 ISSUED:   11820919 USEFUL:     637499 USELESS:    1777570
cpu0->cpu0_L2C AVERAGE MISS LATENCY: 202.8 cycles
cpu0->cpu0_L1I TOTAL        ACCESS:   22688597 HIT:   12534042 MISS:   10154555 MSHR_MERGE:    2539799
cpu0->cpu0_L1I LOAD         ACCESS:   22688597 HIT:   12534042 MISS:   10154555 MSHR_MERGE:    2539799
cpu0->cpu0_L1I RFO          ACCESS:          0 HIT:          0 MISS:          0 MSHR_MERGE:          0
cpu0->cpu0_L1I PREFETCH     ACCESS:          0 HIT:          0 MISS:          0 MSHR_MERGE:          0
cpu0->cpu0_L1I WRITE        ACCESS:          0 HIT:          0 MISS:          0 MSHR_MERGE:          0
cpu0->cpu0_L1I TRANSLATION  ACCESS:          0 HIT:          0 MISS:          0 MSHR_MERGE:          0
cpu0->cpu0_L1I PREFETCH REQUESTED:          0 ISSUED:          0 USEFUL:          0 USELESS:          0
cpu0->cpu0_L1I AVERAGE MISS LATENCY: 46.81 cycles
cpu0->cpu0_L1D TOTAL        ACCESS:   96706674 HIT:   82967759 MISS:   13738915 MSHR_MERGE:    4329886
cpu0->cpu0_L1D LOAD         ACCESS:   35083084 HIT:   30965370 MISS:    4117714 MSHR_MERGE:     802579
cpu0->cpu0_L1D RFO          ACCESS:          0 HIT:          0 MISS:          0 MSHR_MERGE:          0
cpu0->cpu0_L1D PREFETCH     ACCESS:   33292924 HIT:   28278184 MISS:    5014740 MSHR_MERGE:    1170682
cpu0->cpu0_L1D WRITE        ACCESS:   25606419 HIT:   22119960 MISS:    3486459 MSHR_MERGE:    2349545
cpu0->cpu0_L1D TRANSLATION  ACCESS:    2724247 HIT:    1604245 MISS:    1120002 MSHR_MERGE:       7080
cpu0->cpu0_L1D PREFETCH REQUESTED:   35295596 ISSUED:   33292918 USEFUL:     175663 USELESS:    3668269
cpu0->cpu0_L1D AVERAGE MISS LATENCY: 74.32 cycles
cpu0->cpu0_ITLB TOTAL        ACCESS:   18425352 HIT:   17352137 MISS:    1073215 MSHR_MERGE:     508469
cpu0->cpu0_ITLB LOAD         ACCESS:   18425352 HIT:   17352137 MISS:    1073215 MSHR_MERGE:     508469
cpu0->cpu0_ITLB RFO          ACCESS:          0 HIT:          0 MISS:          0 MSHR_MERGE:          0
cpu0->cpu0_ITLB PREFETCH     ACCESS:          0 HIT:          0 MISS:          0 MSHR_MERGE:          0
cpu0->cpu0_ITLB WRITE        ACCESS:          0 HIT:          0 MISS:          0 MSHR_MERGE:          0
cpu0->cpu0_ITLB TRANSLATION  ACCESS:          0 HIT:          0 MISS:          0 MSHR_MERGE:          0
cpu0->cpu0_ITLB PREFETCH REQUESTED:          0 ISSUED:          0 USEFUL:          0 USELESS:          0
cpu0->cpu0_ITLB AVERAGE MISS LATENCY: 22.2 cycles
cpu0->cpu0_DTLB TOTAL        ACCESS:   86955367 HIT:   80824259 MISS:    6131108 MSHR_MERGE:    1933675
cpu0->cpu0_DTLB LOAD         ACCESS:   86955367 HIT:   80824259 MISS:    6131108 MSHR_MERGE:    1933675
cpu0->cpu0_DTLB RFO          ACCESS:          0 HIT:          0 MISS:          0 MSHR_MERGE:          0
cpu0->cpu0_DTLB PREFETCH     ACCESS:          0 HIT:          0 MISS:          0 MSHR_MERGE:          0
cpu0->cpu0_DTLB WRITE        ACCESS:          0 HIT:          0 MISS:          0 MSHR_MERGE:          0
cpu0->cpu0_DTLB TRANSLATION  ACCESS:          0 HIT:          0 MISS:          0 MSHR_MERGE:          0
cpu0->cpu0_DTLB PREFETCH REQUESTED:          0 ISSUED:          0 USEFUL:          0 USELESS:          0
cpu0->cpu0_DTLB AVERAGE MISS LATENCY: 33.42 cycles
cpu0->LLC TOTAL        ACCESS:    9645201 HIT:    2137275 MISS:    7507926 MSHR_MERGE:     543485
cpu0->LLC LOAD         ACCESS:    2416332 HIT:     551744 MISS:    1864588 MSHR_MERGE:       2526
cpu0->LLC RFO          ACCESS:     418060 HIT:      32294 MISS:     385766 MSHR_MERGE:        378
cpu0->LLC PREFETCH     ACCESS:    5431891 HIT:     905872 MISS:    4526019 MSHR_MERGE:     540581
cpu0->LLC WRITE        ACCESS:     954461 HIT:     572507 MISS:     381954 MSHR_MERGE:          0
cpu0->LLC TRANSLATION  ACCESS:     424457 HIT:      74858 MISS:     349599 MSHR_MERGE:          0
cpu0->LLC PREFETCH REQUESTED:    2084110 ISSUED:    2081963 USEFUL:     248502 USELESS:     996827
cpu0->LLC AVERAGE MISS LATENCY: 199.3 cycles

DRAM Statistics

Channel 0 RQ ROW_BUFFER_HIT:      76690
  ROW_BUFFER_MISS:    6505675
  AVG DBUS CONGESTED CYCLE: 18.58
Channel 0 WQ ROW_BUFFER_HIT:     242010
  ROW_BUFFER_MISS:     644823
  FULL:          0
Channel 0 REFRESHES ISSUED:      45072
