[VMEM] WARNING: physical memory size is smaller than virtual memory size.

*** ChampSim Multicore Out-of-Order Simulator ***
Warmup Instructions: 50000000
Simulation Instructions: 200000000
Number of CPUs: 1
Page size: 4096
Core 0: /local-ssd/ben/dpc4-traces/gtraces_v2/sierra.a.6_0003.champsim.gz
Off-chip DRAM Size: 64 GiB Channels: 1 Width: 64-bit Data Rate: 4807 MT/s
[BTB] WARNING: target of return is a lower address than the corresponding call. This is usually a problem with your trace.
[BTB] WARNING: target of return is a lower address than the corresponding call. This is usually a problem with your trace.
[BTB] WARNING: target of return is a lower address than the corresponding call. This is usually a problem with your trace.
[BTB] WARNING: target of return is a lower address than the corresponding call. This is usually a problem with your trace.
[BTB] WARNING: target of return is a lower address than the corresponding call. This is usually a problem with your trace.
[BTB] WARNING: target of return is a lower address than the corresponding call. This is usually a problem with your trace.
[BTB] WARNING: target of return is a lower address than the corresponding call. This is usually a problem with your trace.
[BTB] WARNING: target of return is a lower address than the corresponding call. This is usually a problem with your trace.
[BTB] WARNING: target of return is a lower address than the corresponding call. This is usually a problem with your trace.
[BTB] WARNING: target of return is a lower address than the corresponding call. This is usually a problem with your trace.
Heartbeat CPU 0 instructions: 500001 cycles: 275638 heartbeat IPC: 1.814 cumulative IPC: 1.814 (Simulation time: 00 hr 00 min 07 sec)
Heartbeat CPU 0 instructions: 1000001 cycles: 462929 heartbeat IPC: 2.67 cumulative IPC: 2.16 (Simulation time: 00 hr 00 min 12 sec)
Heartbeat CPU 0 instructions: 1500001 cycles: 647773 heartbeat IPC: 2.705 cumulative IPC: 2.316 (Simulation time: 00 hr 00 min 17 sec)
Heartbeat CPU 0 instructions: 2000005 cycles: 825852 heartbeat IPC: 2.808 cumulative IPC: 2.422 (Simulation time: 00 hr 00 min 22 sec)
Heartbeat CPU 0 instructions: 2500007 cycles: 983031 heartbeat IPC: 3.181 cumulative IPC: 2.543 (Simulation time: 00 hr 00 min 26 sec)
Heartbeat CPU 0 instructions: 3000009 cycles: 1134914 heartbeat IPC: 3.292 cumulative IPC: 2.643 (Simulation time: 00 hr 00 min 31 sec)
Heartbeat CPU 0 instructions: 3500016 cycles: 1345566 heartbeat IPC: 2.374 cumulative IPC: 2.601 (Simulation time: 00 hr 00 min 36 sec)
Heartbeat CPU 0 instructions: 4000016 cycles: 1537566 heartbeat IPC: 2.604 cumulative IPC: 2.602 (Simulation time: 00 hr 00 min 42 sec)
Heartbeat CPU 0 instructions: 4500016 cycles: 1684553 heartbeat IPC: 3.402 cumulative IPC: 2.671 (Simulation time: 00 hr 00 min 46 sec)
Heartbeat CPU 0 instructions: 5000019 cycles: 1814482 heartbeat IPC: 3.848 cumulative IPC: 2.756 (Simulation time: 00 hr 00 min 50 sec)
Heartbeat CPU 0 instructions: 5500020 cycles: 1972385 heartbeat IPC: 3.167 cumulative IPC: 2.789 (Simulation time: 00 hr 00 min 55 sec)
Heartbeat CPU 0 instructions: 6000025 cycles: 2166405 heartbeat IPC: 2.577 cumulative IPC: 2.77 (Simulation time: 00 hr 01 min 00 sec)
Heartbeat CPU 0 instructions: 6500025 cycles: 2365130 heartbeat IPC: 2.516 cumulative IPC: 2.748 (Simulation time: 00 hr 01 min 05 sec)
Heartbeat CPU 0 instructions: 7000025 cycles: 2512474 heartbeat IPC: 3.393 cumulative IPC: 2.786 (Simulation time: 00 hr 01 min 09 sec)
Heartbeat CPU 0 instructions: 7500031 cycles: 2681379 heartbeat IPC: 2.96 cumulative IPC: 2.797 (Simulation time: 00 hr 01 min 12 sec)
Heartbeat CPU 0 instructions: 8000031 cycles: 2853691 heartbeat IPC: 2.902 cumulative IPC: 2.803 (Simulation time: 00 hr 01 min 17 sec)
Heartbeat CPU 0 instructions: 8500036 cycles: 2999514 heartbeat IPC: 3.429 cumulative IPC: 2.834 (Simulation time: 00 hr 01 min 21 sec)
Heartbeat CPU 0 instructions: 9000038 cycles: 3144563 heartbeat IPC: 3.447 cumulative IPC: 2.862 (Simulation time: 00 hr 01 min 26 sec)
Heartbeat CPU 0 instructions: 9500045 cycles: 3272216 heartbeat IPC: 3.917 cumulative IPC: 2.903 (Simulation time: 00 hr 01 min 30 sec)
Heartbeat CPU 0 instructions: 10000051 cycles: 3410336 heartbeat IPC: 3.62 cumulative IPC: 2.932 (Simulation time: 00 hr 01 min 34 sec)
Heartbeat CPU 0 instructions: 10500051 cycles: 3545925 heartbeat IPC: 3.688 cumulative IPC: 2.961 (Simulation time: 00 hr 01 min 38 sec)
Heartbeat CPU 0 instructions: 11000052 cycles: 3678539 heartbeat IPC: 3.77 cumulative IPC: 2.99 (Simulation time: 00 hr 01 min 42 sec)
Heartbeat CPU 0 instructions: 11500057 cycles: 3807403 heartbeat IPC: 3.88 cumulative IPC: 3.02 (Simulation time: 00 hr 01 min 46 sec)
Heartbeat CPU 0 instructions: 12000062 cycles: 3935447 heartbeat IPC: 3.905 cumulative IPC: 3.049 (Simulation time: 00 hr 01 min 51 sec)
Heartbeat CPU 0 instructions: 12500064 cycles: 4071141 heartbeat IPC: 3.685 cumulative IPC: 3.07 (Simulation time: 00 hr 01 min 55 sec)
Heartbeat CPU 0 instructions: 13000071 cycles: 4213999 heartbeat IPC: 3.5 cumulative IPC: 3.085 (Simulation time: 00 hr 01 min 59 sec)
Heartbeat CPU 0 instructions: 13500077 cycles: 4354879 heartbeat IPC: 3.549 cumulative IPC: 3.1 (Simulation time: 00 hr 02 min 04 sec)
Heartbeat CPU 0 instructions: 14000077 cycles: 4485440 heartbeat IPC: 3.83 cumulative IPC: 3.121 (Simulation time: 00 hr 02 min 07 sec)
Heartbeat CPU 0 instructions: 14500077 cycles: 4608986 heartbeat IPC: 4.047 cumulative IPC: 3.146 (Simulation time: 00 hr 02 min 09 sec)
Heartbeat CPU 0 instructions: 15000080 cycles: 4754924 heartbeat IPC: 3.426 cumulative IPC: 3.155 (Simulation time: 00 hr 02 min 12 sec)
Heartbeat CPU 0 instructions: 15500084 cycles: 4877761 heartbeat IPC: 4.07 cumulative IPC: 3.178 (Simulation time: 00 hr 02 min 15 sec)
Heartbeat CPU 0 instructions: 16000086 cycles: 5012123 heartbeat IPC: 3.721 cumulative IPC: 3.192 (Simulation time: 00 hr 02 min 17 sec)
Heartbeat CPU 0 instructions: 16500092 cycles: 5142810 heartbeat IPC: 3.826 cumulative IPC: 3.208 (Simulation time: 00 hr 02 min 20 sec)
Heartbeat CPU 0 instructions: 17000092 cycles: 5303740 heartbeat IPC: 3.107 cumulative IPC: 3.205 (Simulation time: 00 hr 02 min 23 sec)
Heartbeat CPU 0 instructions: 17500094 cycles: 5457826 heartbeat IPC: 3.245 cumulative IPC: 3.206 (Simulation time: 00 hr 02 min 26 sec)
Heartbeat CPU 0 instructions: 18000096 cycles: 5619837 heartbeat IPC: 3.086 cumulative IPC: 3.203 (Simulation time: 00 hr 02 min 29 sec)
Heartbeat CPU 0 instructions: 18500101 cycles: 5770709 heartbeat IPC: 3.314 cumulative IPC: 3.206 (Simulation time: 00 hr 02 min 32 sec)
Heartbeat CPU 0 instructions: 19000108 cycles: 5907468 heartbeat IPC: 3.656 cumulative IPC: 3.216 (Simulation time: 00 hr 02 min 35 sec)
Heartbeat CPU 0 instructions: 19500113 cycles: 6050571 heartbeat IPC: 3.494 cumulative IPC: 3.223 (Simulation time: 00 hr 02 min 37 sec)
Heartbeat CPU 0 instructions: 20000120 cycles: 6196931 heartbeat IPC: 3.416 cumulative IPC: 3.227 (Simulation time: 00 hr 02 min 40 sec)
Heartbeat CPU 0 instructions: 20500124 cycles: 6354828 heartbeat IPC: 3.167 cumulative IPC: 3.226 (Simulation time: 00 hr 02 min 43 sec)
Heartbeat CPU 0 instructions: 21000129 cycles: 6499485 heartbeat IPC: 3.456 cumulative IPC: 3.231 (Simulation time: 00 hr 02 min 46 sec)
Heartbeat CPU 0 instructions: 21500129 cycles: 6630489 heartbeat IPC: 3.817 cumulative IPC: 3.243 (Simulation time: 00 hr 02 min 49 sec)
Heartbeat CPU 0 instructions: 22000135 cycles: 6761008 heartbeat IPC: 3.831 cumulative IPC: 3.254 (Simulation time: 00 hr 02 min 51 sec)
Heartbeat CPU 0 instructions: 22500135 cycles: 6891345 heartbeat IPC: 3.836 cumulative IPC: 3.265 (Simulation time: 00 hr 02 min 54 sec)
Heartbeat CPU 0 instructions: 23000142 cycles: 7037620 heartbeat IPC: 3.418 cumulative IPC: 3.268 (Simulation time: 00 hr 02 min 57 sec)
Heartbeat CPU 0 instructions: 23500147 cycles: 7188193 heartbeat IPC: 3.321 cumulative IPC: 3.269 (Simulation time: 00 hr 03 min 00 sec)
Heartbeat CPU 0 instructions: 24000148 cycles: 7326520 heartbeat IPC: 3.615 cumulative IPC: 3.276 (Simulation time: 00 hr 03 min 02 sec)
Heartbeat CPU 0 instructions: 24500148 cycles: 7465168 heartbeat IPC: 3.606 cumulative IPC: 3.282 (Simulation time: 00 hr 03 min 05 sec)
Heartbeat CPU 0 instructions: 25000154 cycles: 7595020 heartbeat IPC: 3.851 cumulative IPC: 3.292 (Simulation time: 00 hr 03 min 08 sec)
Heartbeat CPU 0 instructions: 25500159 cycles: 7720449 heartbeat IPC: 3.986 cumulative IPC: 3.303 (Simulation time: 00 hr 03 min 10 sec)
Heartbeat CPU 0 instructions: 26000159 cycles: 7858198 heartbeat IPC: 3.63 cumulative IPC: 3.309 (Simulation time: 00 hr 03 min 13 sec)
Heartbeat CPU 0 instructions: 26500165 cycles: 7995195 heartbeat IPC: 3.65 cumulative IPC: 3.315 (Simulation time: 00 hr 03 min 16 sec)
Heartbeat CPU 0 instructions: 27000170 cycles: 8136630 heartbeat IPC: 3.535 cumulative IPC: 3.318 (Simulation time: 00 hr 03 min 19 sec)
Heartbeat CPU 0 instructions: 27500171 cycles: 8276221 heartbeat IPC: 3.582 cumulative IPC: 3.323 (Simulation time: 00 hr 03 min 21 sec)
Heartbeat CPU 0 instructions: 28000174 cycles: 8406145 heartbeat IPC: 3.848 cumulative IPC: 3.331 (Simulation time: 00 hr 03 min 24 sec)
Heartbeat CPU 0 instructions: 28500176 cycles: 8539231 heartbeat IPC: 3.757 cumulative IPC: 3.338 (Simulation time: 00 hr 03 min 27 sec)
Heartbeat CPU 0 instructions: 29000182 cycles: 8681979 heartbeat IPC: 3.503 cumulative IPC: 3.34 (Simulation time: 00 hr 03 min 30 sec)
Heartbeat CPU 0 instructions: 29500188 cycles: 8821338 heartbeat IPC: 3.588 cumulative IPC: 3.344 (Simulation time: 00 hr 03 min 32 sec)
Heartbeat CPU 0 instructions: 30000188 cycles: 8957078 heartbeat IPC: 3.684 cumulative IPC: 3.349 (Simulation time: 00 hr 03 min 35 sec)
Heartbeat CPU 0 instructions: 30500191 cycles: 9086484 heartbeat IPC: 3.864 cumulative IPC: 3.357 (Simulation time: 00 hr 03 min 37 sec)
Heartbeat CPU 0 instructions: 31000195 cycles: 9217286 heartbeat IPC: 3.823 cumulative IPC: 3.363 (Simulation time: 00 hr 03 min 40 sec)
Heartbeat CPU 0 instructions: 31500197 cycles: 9347032 heartbeat IPC: 3.854 cumulative IPC: 3.37 (Simulation time: 00 hr 03 min 42 sec)
Heartbeat CPU 0 instructions: 32000202 cycles: 9503858 heartbeat IPC: 3.188 cumulative IPC: 3.367 (Simulation time: 00 hr 03 min 45 sec)
Heartbeat CPU 0 instructions: 32500207 cycles: 9640658 heartbeat IPC: 3.655 cumulative IPC: 3.371 (Simulation time: 00 hr 03 min 48 sec)
Heartbeat CPU 0 instructions: 33000207 cycles: 9773131 heartbeat IPC: 3.774 cumulative IPC: 3.377 (Simulation time: 00 hr 03 min 51 sec)
Heartbeat CPU 0 instructions: 33500210 cycles: 9908456 heartbeat IPC: 3.695 cumulative IPC: 3.381 (Simulation time: 00 hr 03 min 53 sec)
Heartbeat CPU 0 instructions: 34000213 cycles: 10045204 heartbeat IPC: 3.656 cumulative IPC: 3.385 (Simulation time: 00 hr 03 min 56 sec)
Heartbeat CPU 0 instructions: 34500219 cycles: 10189087 heartbeat IPC: 3.475 cumulative IPC: 3.386 (Simulation time: 00 hr 03 min 59 sec)
Heartbeat CPU 0 instructions: 35000221 cycles: 10323773 heartbeat IPC: 3.712 cumulative IPC: 3.39 (Simulation time: 00 hr 04 min 02 sec)
Heartbeat CPU 0 instructions: 35500227 cycles: 10452952 heartbeat IPC: 3.871 cumulative IPC: 3.396 (Simulation time: 00 hr 04 min 04 sec)
Heartbeat CPU 0 instructions: 36000234 cycles: 10588913 heartbeat IPC: 3.678 cumulative IPC: 3.4 (Simulation time: 00 hr 04 min 07 sec)
Heartbeat CPU 0 instructions: 36500240 cycles: 10722387 heartbeat IPC: 3.746 cumulative IPC: 3.404 (Simulation time: 00 hr 04 min 10 sec)
Heartbeat CPU 0 instructions: 37000243 cycles: 10858675 heartbeat IPC: 3.669 cumulative IPC: 3.407 (Simulation time: 00 hr 04 min 13 sec)
Heartbeat CPU 0 instructions: 37500249 cycles: 10987122 heartbeat IPC: 3.893 cumulative IPC: 3.413 (Simulation time: 00 hr 04 min 15 sec)
Heartbeat CPU 0 instructions: 38000249 cycles: 11115733 heartbeat IPC: 3.888 cumulative IPC: 3.419 (Simulation time: 00 hr 04 min 18 sec)
Heartbeat CPU 0 instructions: 38500253 cycles: 11251001 heartbeat IPC: 3.696 cumulative IPC: 3.422 (Simulation time: 00 hr 04 min 20 sec)
Heartbeat CPU 0 instructions: 39000254 cycles: 11384118 heartbeat IPC: 3.756 cumulative IPC: 3.426 (Simulation time: 00 hr 04 min 23 sec)
Heartbeat CPU 0 instructions: 39500259 cycles: 11526416 heartbeat IPC: 3.514 cumulative IPC: 3.427 (Simulation time: 00 hr 04 min 26 sec)
Heartbeat CPU 0 instructions: 40000262 cycles: 11668235 heartbeat IPC: 3.526 cumulative IPC: 3.428 (Simulation time: 00 hr 04 min 28 sec)
Heartbeat CPU 0 instructions: 40500266 cycles: 11795388 heartbeat IPC: 3.932 cumulative IPC: 3.434 (Simulation time: 00 hr 04 min 31 sec)
Heartbeat CPU 0 instructions: 41000272 cycles: 11940328 heartbeat IPC: 3.45 cumulative IPC: 3.434 (Simulation time: 00 hr 04 min 34 sec)
Heartbeat CPU 0 instructions: 41500279 cycles: 12075304 heartbeat IPC: 3.704 cumulative IPC: 3.437 (Simulation time: 00 hr 04 min 37 sec)
Heartbeat CPU 0 instructions: 42000279 cycles: 12198804 heartbeat IPC: 4.049 cumulative IPC: 3.443 (Simulation time: 00 hr 04 min 39 sec)
Heartbeat CPU 0 instructions: 42500281 cycles: 12331283 heartbeat IPC: 3.774 cumulative IPC: 3.447 (Simulation time: 00 hr 04 min 42 sec)
Heartbeat CPU 0 instructions: 43000286 cycles: 12475662 heartbeat IPC: 3.463 cumulative IPC: 3.447 (Simulation time: 00 hr 04 min 45 sec)
Heartbeat CPU 0 instructions: 43500288 cycles: 12615127 heartbeat IPC: 3.585 cumulative IPC: 3.448 (Simulation time: 00 hr 04 min 47 sec)
Heartbeat CPU 0 instructions: 44000290 cycles: 12748659 heartbeat IPC: 3.744 cumulative IPC: 3.451 (Simulation time: 00 hr 04 min 50 sec)
Heartbeat CPU 0 instructions: 44500294 cycles: 12887157 heartbeat IPC: 3.61 cumulative IPC: 3.453 (Simulation time: 00 hr 04 min 52 sec)
Heartbeat CPU 0 instructions: 45000297 cycles: 13021582 heartbeat IPC: 3.72 cumulative IPC: 3.456 (Simulation time: 00 hr 04 min 55 sec)
Heartbeat CPU 0 instructions: 45500298 cycles: 13152726 heartbeat IPC: 3.813 cumulative IPC: 3.459 (Simulation time: 00 hr 04 min 58 sec)
Heartbeat CPU 0 instructions: 46000305 cycles: 13294750 heartbeat IPC: 3.521 cumulative IPC: 3.46 (Simulation time: 00 hr 05 min 01 sec)
Heartbeat CPU 0 instructions: 46500307 cycles: 13423287 heartbeat IPC: 3.89 cumulative IPC: 3.464 (Simulation time: 00 hr 05 min 03 sec)
Heartbeat CPU 0 instructions: 47000312 cycles: 13552422 heartbeat IPC: 3.872 cumulative IPC: 3.468 (Simulation time: 00 hr 05 min 06 sec)
Heartbeat CPU 0 instructions: 47500319 cycles: 13675284 heartbeat IPC: 4.07 cumulative IPC: 3.473 (Simulation time: 00 hr 05 min 08 sec)
Heartbeat CPU 0 instructions: 48000323 cycles: 13807842 heartbeat IPC: 3.772 cumulative IPC: 3.476 (Simulation time: 00 hr 05 min 11 sec)
Heartbeat CPU 0 instructions: 48500326 cycles: 13923689 heartbeat IPC: 4.316 cumulative IPC: 3.483 (Simulation time: 00 hr 05 min 14 sec)
Heartbeat CPU 0 instructions: 49000331 cycles: 14050873 heartbeat IPC: 3.931 cumulative IPC: 3.487 (Simulation time: 00 hr 05 min 16 sec)
Heartbeat CPU 0 instructions: 49500334 cycles: 14185409 heartbeat IPC: 3.716 cumulative IPC: 3.49 (Simulation time: 00 hr 05 min 19 sec)
Warmup halting CPU 0 at instruction 50000003 cycle 14314870 for remainder of phase
Warmup finished CPU 0 instructions: 50000003 cycles: 14314870 cumulative IPC: 3.493 (Simulation time: 00 hr 05 min 22 sec)
Warmup complete CPU 0 instructions: 50000003 cycles: 14314870 cumulative IPC: 3.493 (Simulation time: 00 hr 05 min 22 sec)
Heartbeat CPU 0 instructions: 50000336 cycles: 14315108 heartbeat IPC: 3.855 cumulative IPC: 1.399 (Simulation time: 00 hr 05 min 22 sec)
Heartbeat CPU 0 instructions: 50500342 cycles: 15911932 heartbeat IPC: 0.3131 cumulative IPC: 0.3133 (Simulation time: 00 hr 05 min 34 sec)
Heartbeat CPU 0 instructions: 51000343 cycles: 17498654 heartbeat IPC: 0.3151 cumulative IPC: 0.3142 (Simulation time: 00 hr 05 min 46 sec)
Heartbeat CPU 0 instructions: 51500348 cycles: 18484849 heartbeat IPC: 0.507 cumulative IPC: 0.3598 (Simulation time: 00 hr 05 min 54 sec)
Heartbeat CPU 0 instructions: 52000350 cycles: 20168152 heartbeat IPC: 0.297 cumulative IPC: 0.3417 (Simulation time: 00 hr 06 min 06 sec)
Heartbeat CPU 0 instructions: 52500350 cycles: 21720398 heartbeat IPC: 0.3221 cumulative IPC: 0.3376 (Simulation time: 00 hr 06 min 17 sec)
Heartbeat CPU 0 instructions: 53000350 cycles: 22854228 heartbeat IPC: 0.441 cumulative IPC: 0.3514 (Simulation time: 00 hr 06 min 26 sec)
Heartbeat CPU 0 instructions: 53500356 cycles: 24315115 heartbeat IPC: 0.3423 cumulative IPC: 0.35 (Simulation time: 00 hr 06 min 37 sec)
Heartbeat CPU 0 instructions: 54000356 cycles: 25883244 heartbeat IPC: 0.3189 cumulative IPC: 0.3458 (Simulation time: 00 hr 06 min 49 sec)
Heartbeat CPU 0 instructions: 54500357 cycles: 28392979 heartbeat IPC: 0.1992 cumulative IPC: 0.3197 (Simulation time: 00 hr 07 min 06 sec)
Heartbeat CPU 0 instructions: 55000357 cycles: 30585231 heartbeat IPC: 0.2281 cumulative IPC: 0.3073 (Simulation time: 00 hr 07 min 22 sec)
Heartbeat CPU 0 instructions: 55500364 cycles: 32190720 heartbeat IPC: 0.3114 cumulative IPC: 0.3077 (Simulation time: 00 hr 07 min 34 sec)
Heartbeat CPU 0 instructions: 56000364 cycles: 33345132 heartbeat IPC: 0.4331 cumulative IPC: 0.3153 (Simulation time: 00 hr 07 min 42 sec)
Heartbeat CPU 0 instructions: 56500366 cycles: 34623858 heartbeat IPC: 0.391 cumulative IPC: 0.3201 (Simulation time: 00 hr 07 min 53 sec)
Heartbeat CPU 0 instructions: 57000369 cycles: 35958346 heartbeat IPC: 0.3747 cumulative IPC: 0.3234 (Simulation time: 00 hr 08 min 03 sec)
Heartbeat CPU 0 instructions: 57500369 cycles: 37795929 heartbeat IPC: 0.2721 cumulative IPC: 0.3194 (Simulation time: 00 hr 08 min 16 sec)
Heartbeat CPU 0 instructions: 58000369 cycles: 38183633 heartbeat IPC: 1.29 cumulative IPC: 0.3352 (Simulation time: 00 hr 08 min 20 sec)
Heartbeat CPU 0 instructions: 58500371 cycles: 38547064 heartbeat IPC: 1.376 cumulative IPC: 0.3508 (Simulation time: 00 hr 08 min 23 sec)
Heartbeat CPU 0 instructions: 59000371 cycles: 39623382 heartbeat IPC: 0.4645 cumulative IPC: 0.3556 (Simulation time: 00 hr 08 min 31 sec)
Heartbeat CPU 0 instructions: 59500372 cycles: 41533559 heartbeat IPC: 0.2618 cumulative IPC: 0.349 (Simulation time: 00 hr 08 min 46 sec)
Heartbeat CPU 0 instructions: 60000373 cycles: 43145676 heartbeat IPC: 0.3102 cumulative IPC: 0.3469 (Simulation time: 00 hr 08 min 58 sec)
Heartbeat CPU 0 instructions: 60500376 cycles: 43820565 heartbeat IPC: 0.7409 cumulative IPC: 0.3559 (Simulation time: 00 hr 09 min 03 sec)
Heartbeat CPU 0 instructions: 61000377 cycles: 44266412 heartbeat IPC: 1.121 cumulative IPC: 0.3673 (Simulation time: 00 hr 09 min 07 sec)
Heartbeat CPU 0 instructions: 61500379 cycles: 45956898 heartbeat IPC: 0.2958 cumulative IPC: 0.3635 (Simulation time: 00 hr 09 min 20 sec)
Heartbeat CPU 0 instructions: 62000381 cycles: 47531499 heartbeat IPC: 0.3175 cumulative IPC: 0.3613 (Simulation time: 00 hr 09 min 31 sec)
Heartbeat CPU 0 instructions: 62500385 cycles: 49744950 heartbeat IPC: 0.2259 cumulative IPC: 0.3528 (Simulation time: 00 hr 09 min 46 sec)
Heartbeat CPU 0 instructions: 63000385 cycles: 50905382 heartbeat IPC: 0.4309 cumulative IPC: 0.3553 (Simulation time: 00 hr 09 min 55 sec)
Heartbeat CPU 0 instructions: 63500387 cycles: 52592947 heartbeat IPC: 0.2963 cumulative IPC: 0.3527 (Simulation time: 00 hr 10 min 07 sec)
Heartbeat CPU 0 instructions: 64000389 cycles: 54360876 heartbeat IPC: 0.2828 cumulative IPC: 0.3496 (Simulation time: 00 hr 10 min 20 sec)
Heartbeat CPU 0 instructions: 64500396 cycles: 55854255 heartbeat IPC: 0.3348 cumulative IPC: 0.3491 (Simulation time: 00 hr 10 min 31 sec)
Heartbeat CPU 0 instructions: 65000397 cycles: 57068837 heartbeat IPC: 0.4117 cumulative IPC: 0.3509 (Simulation time: 00 hr 10 min 40 sec)
Heartbeat CPU 0 instructions: 65500397 cycles: 58280554 heartbeat IPC: 0.4126 cumulative IPC: 0.3526 (Simulation time: 00 hr 10 min 50 sec)
Heartbeat CPU 0 instructions: 66000402 cycles: 59486709 heartbeat IPC: 0.4145 cumulative IPC: 0.3542 (Simulation time: 00 hr 10 min 59 sec)
Heartbeat CPU 0 instructions: 66500404 cycles: 61096017 heartbeat IPC: 0.3107 cumulative IPC: 0.3527 (Simulation time: 00 hr 11 min 10 sec)
Heartbeat CPU 0 instructions: 67000405 cycles: 62502106 heartbeat IPC: 0.3556 cumulative IPC: 0.3528 (Simulation time: 00 hr 11 min 21 sec)
Heartbeat CPU 0 instructions: 67500406 cycles: 64600166 heartbeat IPC: 0.2383 cumulative IPC: 0.348 (Simulation time: 00 hr 11 min 36 sec)
Heartbeat CPU 0 instructions: 68000406 cycles: 66256381 heartbeat IPC: 0.3019 cumulative IPC: 0.3466 (Simulation time: 00 hr 11 min 47 sec)
Heartbeat CPU 0 instructions: 68500407 cycles: 67702945 heartbeat IPC: 0.3456 cumulative IPC: 0.3465 (Simulation time: 00 hr 11 min 58 sec)
Heartbeat CPU 0 instructions: 69000414 cycles: 68789636 heartbeat IPC: 0.4601 cumulative IPC: 0.3488 (Simulation time: 00 hr 12 min 07 sec)
Heartbeat CPU 0 instructions: 69500415 cycles: 69867890 heartbeat IPC: 0.4637 cumulative IPC: 0.351 (Simulation time: 00 hr 12 min 15 sec)
Heartbeat CPU 0 instructions: 70000418 cycles: 71418254 heartbeat IPC: 0.3225 cumulative IPC: 0.3502 (Simulation time: 00 hr 12 min 26 sec)
Heartbeat CPU 0 instructions: 70500418 cycles: 73174310 heartbeat IPC: 0.2847 cumulative IPC: 0.3483 (Simulation time: 00 hr 12 min 39 sec)
Heartbeat CPU 0 instructions: 71000422 cycles: 73767940 heartbeat IPC: 0.8423 cumulative IPC: 0.3532 (Simulation time: 00 hr 12 min 44 sec)
Heartbeat CPU 0 instructions: 71500422 cycles: 74103754 heartbeat IPC: 1.489 cumulative IPC: 0.3596 (Simulation time: 00 hr 12 min 47 sec)
Heartbeat CPU 0 instructions: 72000427 cycles: 74780757 heartbeat IPC: 0.7386 cumulative IPC: 0.3638 (Simulation time: 00 hr 12 min 53 sec)
Heartbeat CPU 0 instructions: 72500429 cycles: 75536459 heartbeat IPC: 0.6616 cumulative IPC: 0.3675 (Simulation time: 00 hr 13 min 00 sec)
Heartbeat CPU 0 instructions: 73000429 cycles: 77420950 heartbeat IPC: 0.2653 cumulative IPC: 0.3645 (Simulation time: 00 hr 13 min 13 sec)
Heartbeat CPU 0 instructions: 73500429 cycles: 78642719 heartbeat IPC: 0.4092 cumulative IPC: 0.3653 (Simulation time: 00 hr 13 min 23 sec)
Heartbeat CPU 0 instructions: 74000432 cycles: 80578821 heartbeat IPC: 0.2583 cumulative IPC: 0.3622 (Simulation time: 00 hr 13 min 36 sec)
Heartbeat CPU 0 instructions: 74500432 cycles: 81666213 heartbeat IPC: 0.4598 cumulative IPC: 0.3638 (Simulation time: 00 hr 13 min 45 sec)
Heartbeat CPU 0 instructions: 75000433 cycles: 83358002 heartbeat IPC: 0.2955 cumulative IPC: 0.3621 (Simulation time: 00 hr 13 min 57 sec)
Heartbeat CPU 0 instructions: 75500433 cycles: 86414000 heartbeat IPC: 0.1636 cumulative IPC: 0.3537 (Simulation time: 00 hr 14 min 17 sec)
Heartbeat CPU 0 instructions: 76000435 cycles: 87862450 heartbeat IPC: 0.3452 cumulative IPC: 0.3535 (Simulation time: 00 hr 14 min 27 sec)
Heartbeat CPU 0 instructions: 76500436 cycles: 89093794 heartbeat IPC: 0.4061 cumulative IPC: 0.3544 (Simulation time: 00 hr 14 min 36 sec)
Heartbeat CPU 0 instructions: 77000437 cycles: 91518327 heartbeat IPC: 0.2062 cumulative IPC: 0.3497 (Simulation time: 00 hr 14 min 52 sec)
Heartbeat CPU 0 instructions: 77500439 cycles: 92992094 heartbeat IPC: 0.3393 cumulative IPC: 0.3495 (Simulation time: 00 hr 15 min 03 sec)
Heartbeat CPU 0 instructions: 78000440 cycles: 94012196 heartbeat IPC: 0.4901 cumulative IPC: 0.3513 (Simulation time: 00 hr 15 min 10 sec)
Heartbeat CPU 0 instructions: 78500442 cycles: 95728135 heartbeat IPC: 0.2914 cumulative IPC: 0.3501 (Simulation time: 00 hr 15 min 22 sec)
Heartbeat CPU 0 instructions: 79000444 cycles: 97535827 heartbeat IPC: 0.2766 cumulative IPC: 0.3485 (Simulation time: 00 hr 15 min 35 sec)
Heartbeat CPU 0 instructions: 79500447 cycles: 98852091 heartbeat IPC: 0.3799 cumulative IPC: 0.349 (Simulation time: 00 hr 15 min 44 sec)
Heartbeat CPU 0 instructions: 80000450 cycles: 99785451 heartbeat IPC: 0.5357 cumulative IPC: 0.351 (Simulation time: 00 hr 15 min 51 sec)
Heartbeat CPU 0 instructions: 80500451 cycles: 100884648 heartbeat IPC: 0.4549 cumulative IPC: 0.3523 (Simulation time: 00 hr 15 min 59 sec)
Heartbeat CPU 0 instructions: 81000451 cycles: 102030746 heartbeat IPC: 0.4363 cumulative IPC: 0.3534 (Simulation time: 00 hr 16 min 08 sec)
Heartbeat CPU 0 instructions: 81500453 cycles: 103062287 heartbeat IPC: 0.4847 cumulative IPC: 0.3549 (Simulation time: 00 hr 16 min 16 sec)
Heartbeat CPU 0 instructions: 82000455 cycles: 104625226 heartbeat IPC: 0.3199 cumulative IPC: 0.3543 (Simulation time: 00 hr 16 min 27 sec)
Heartbeat CPU 0 instructions: 82500459 cycles: 106344061 heartbeat IPC: 0.2909 cumulative IPC: 0.3532 (Simulation time: 00 hr 16 min 39 sec)
Heartbeat CPU 0 instructions: 83000462 cycles: 107950260 heartbeat IPC: 0.3113 cumulative IPC: 0.3524 (Simulation time: 00 hr 16 min 50 sec)
Heartbeat CPU 0 instructions: 83500463 cycles: 109108567 heartbeat IPC: 0.4317 cumulative IPC: 0.3534 (Simulation time: 00 hr 16 min 58 sec)
Heartbeat CPU 0 instructions: 84000470 cycles: 110453755 heartbeat IPC: 0.3717 cumulative IPC: 0.3537 (Simulation time: 00 hr 17 min 08 sec)
Heartbeat CPU 0 instructions: 84500472 cycles: 111989557 heartbeat IPC: 0.3256 cumulative IPC: 0.3532 (Simulation time: 00 hr 17 min 19 sec)
Heartbeat CPU 0 instructions: 85000477 cycles: 113306098 heartbeat IPC: 0.3798 cumulative IPC: 0.3536 (Simulation time: 00 hr 17 min 28 sec)
Heartbeat CPU 0 instructions: 85500477 cycles: 115160853 heartbeat IPC: 0.2696 cumulative IPC: 0.352 (Simulation time: 00 hr 17 min 41 sec)
Heartbeat CPU 0 instructions: 86000478 cycles: 116773949 heartbeat IPC: 0.31 cumulative IPC: 0.3514 (Simulation time: 00 hr 17 min 52 sec)
Heartbeat CPU 0 instructions: 86500478 cycles: 119125617 heartbeat IPC: 0.2126 cumulative IPC: 0.3483 (Simulation time: 00 hr 18 min 07 sec)
Heartbeat CPU 0 instructions: 87000479 cycles: 120745368 heartbeat IPC: 0.3087 cumulative IPC: 0.3476 (Simulation time: 00 hr 18 min 18 sec)
Heartbeat CPU 0 instructions: 87500484 cycles: 122004069 heartbeat IPC: 0.3972 cumulative IPC: 0.3482 (Simulation time: 00 hr 18 min 28 sec)
Heartbeat CPU 0 instructions: 88000484 cycles: 123369778 heartbeat IPC: 0.3661 cumulative IPC: 0.3485 (Simulation time: 00 hr 18 min 37 sec)
Heartbeat CPU 0 instructions: 88500485 cycles: 125428862 heartbeat IPC: 0.2428 cumulative IPC: 0.3465 (Simulation time: 00 hr 18 min 52 sec)
Heartbeat CPU 0 instructions: 89000490 cycles: 127475580 heartbeat IPC: 0.2443 cumulative IPC: 0.3446 (Simulation time: 00 hr 19 min 06 sec)
Heartbeat CPU 0 instructions: 89500490 cycles: 129096197 heartbeat IPC: 0.3085 cumulative IPC: 0.3441 (Simulation time: 00 hr 19 min 17 sec)
Heartbeat CPU 0 instructions: 90000490 cycles: 130533426 heartbeat IPC: 0.3479 cumulative IPC: 0.3442 (Simulation time: 00 hr 19 min 26 sec)
Heartbeat CPU 0 instructions: 90500492 cycles: 132396180 heartbeat IPC: 0.2684 cumulative IPC: 0.343 (Simulation time: 00 hr 19 min 40 sec)
Heartbeat CPU 0 instructions: 91000497 cycles: 134114693 heartbeat IPC: 0.291 cumulative IPC: 0.3422 (Simulation time: 00 hr 19 min 51 sec)
Heartbeat CPU 0 instructions: 91500500 cycles: 135585886 heartbeat IPC: 0.3399 cumulative IPC: 0.3422 (Simulation time: 00 hr 20 min 01 sec)
Heartbeat CPU 0 instructions: 92000501 cycles: 137380116 heartbeat IPC: 0.2787 cumulative IPC: 0.3413 (Simulation time: 00 hr 20 min 14 sec)
Heartbeat CPU 0 instructions: 92500502 cycles: 139827462 heartbeat IPC: 0.2043 cumulative IPC: 0.3386 (Simulation time: 00 hr 20 min 30 sec)
Heartbeat CPU 0 instructions: 93000504 cycles: 141685600 heartbeat IPC: 0.2691 cumulative IPC: 0.3376 (Simulation time: 00 hr 20 min 42 sec)
Heartbeat CPU 0 instructions: 93500504 cycles: 142564028 heartbeat IPC: 0.5692 cumulative IPC: 0.3392 (Simulation time: 00 hr 20 min 48 sec)
Heartbeat CPU 0 instructions: 94000504 cycles: 143569946 heartbeat IPC: 0.4971 cumulative IPC: 0.3404 (Simulation time: 00 hr 20 min 55 sec)
Heartbeat CPU 0 instructions: 94500504 cycles: 144657161 heartbeat IPC: 0.4599 cumulative IPC: 0.3414 (Simulation time: 00 hr 21 min 03 sec)
Heartbeat CPU 0 instructions: 95000504 cycles: 146319535 heartbeat IPC: 0.3008 cumulative IPC: 0.3409 (Simulation time: 00 hr 21 min 14 sec)
Heartbeat CPU 0 instructions: 95500505 cycles: 149072816 heartbeat IPC: 0.1816 cumulative IPC: 0.3376 (Simulation time: 00 hr 21 min 31 sec)
Heartbeat CPU 0 instructions: 96000505 cycles: 150444661 heartbeat IPC: 0.3645 cumulative IPC: 0.3379 (Simulation time: 00 hr 21 min 41 sec)
Heartbeat CPU 0 instructions: 96500505 cycles: 151860225 heartbeat IPC: 0.3532 cumulative IPC: 0.3381 (Simulation time: 00 hr 21 min 50 sec)
Heartbeat CPU 0 instructions: 97000510 cycles: 153268490 heartbeat IPC: 0.3551 cumulative IPC: 0.3382 (Simulation time: 00 hr 21 min 59 sec)
Heartbeat CPU 0 instructions: 97500511 cycles: 154288476 heartbeat IPC: 0.4902 cumulative IPC: 0.3394 (Simulation time: 00 hr 22 min 06 sec)
Heartbeat CPU 0 instructions: 98000512 cycles: 155199055 heartbeat IPC: 0.5491 cumulative IPC: 0.3407 (Simulation time: 00 hr 22 min 13 sec)
Heartbeat CPU 0 instructions: 98500512 cycles: 157345041 heartbeat IPC: 0.233 cumulative IPC: 0.3391 (Simulation time: 00 hr 22 min 27 sec)
Heartbeat CPU 0 instructions: 99000513 cycles: 159466534 heartbeat IPC: 0.2357 cumulative IPC: 0.3376 (Simulation time: 00 hr 22 min 41 sec)
Heartbeat CPU 0 instructions: 99500518 cycles: 161246798 heartbeat IPC: 0.2809 cumulative IPC: 0.3369 (Simulation time: 00 hr 22 min 52 sec)
Heartbeat CPU 0 instructions: 100000519 cycles: 163083073 heartbeat IPC: 0.2723 cumulative IPC: 0.3361 (Simulation time: 00 hr 23 min 05 sec)
Heartbeat CPU 0 instructions: 100500520 cycles: 164618798 heartbeat IPC: 0.3256 cumulative IPC: 0.336 (Simulation time: 00 hr 23 min 15 sec)
Heartbeat CPU 0 instructions: 101000521 cycles: 166455086 heartbeat IPC: 0.2723 cumulative IPC: 0.3352 (Simulation time: 00 hr 23 min 27 sec)
Heartbeat CPU 0 instructions: 101500521 cycles: 167287535 heartbeat IPC: 0.6006 cumulative IPC: 0.3367 (Simulation time: 00 hr 23 min 34 sec)
Heartbeat CPU 0 instructions: 102000521 cycles: 168329085 heartbeat IPC: 0.4801 cumulative IPC: 0.3376 (Simulation time: 00 hr 23 min 41 sec)
Heartbeat CPU 0 instructions: 102500525 cycles: 170557902 heartbeat IPC: 0.2243 cumulative IPC: 0.336 (Simulation time: 00 hr 23 min 55 sec)
Heartbeat CPU 0 instructions: 103000529 cycles: 172116314 heartbeat IPC: 0.3208 cumulative IPC: 0.3359 (Simulation time: 00 hr 24 min 06 sec)
Heartbeat CPU 0 instructions: 103500534 cycles: 173165534 heartbeat IPC: 0.4765 cumulative IPC: 0.3368 (Simulation time: 00 hr 24 min 13 sec)
Heartbeat CPU 0 instructions: 104000537 cycles: 173563346 heartbeat IPC: 1.257 cumulative IPC: 0.3391 (Simulation time: 00 hr 24 min 17 sec)
Heartbeat CPU 0 instructions: 104500537 cycles: 173961359 heartbeat IPC: 1.256 cumulative IPC: 0.3414 (Simulation time: 00 hr 24 min 20 sec)
Heartbeat CPU 0 instructions: 105000541 cycles: 174368579 heartbeat IPC: 1.228 cumulative IPC: 0.3436 (Simulation time: 00 hr 24 min 23 sec)
Heartbeat CPU 0 instructions: 105500541 cycles: 176243780 heartbeat IPC: 0.2666 cumulative IPC: 0.3427 (Simulation time: 00 hr 24 min 35 sec)
Heartbeat CPU 0 instructions: 106000547 cycles: 176942644 heartbeat IPC: 0.7155 cumulative IPC: 0.3443 (Simulation time: 00 hr 24 min 41 sec)
Heartbeat CPU 0 instructions: 106500550 cycles: 178666999 heartbeat IPC: 0.29 cumulative IPC: 0.3438 (Simulation time: 00 hr 24 min 52 sec)
Heartbeat CPU 0 instructions: 107000556 cycles: 180354532 heartbeat IPC: 0.2963 cumulative IPC: 0.3433 (Simulation time: 00 hr 25 min 03 sec)
Heartbeat CPU 0 instructions: 107500561 cycles: 181520645 heartbeat IPC: 0.4288 cumulative IPC: 0.3439 (Simulation time: 00 hr 25 min 12 sec)
Heartbeat CPU 0 instructions: 108000561 cycles: 182447267 heartbeat IPC: 0.5396 cumulative IPC: 0.345 (Simulation time: 00 hr 25 min 19 sec)
Heartbeat CPU 0 instructions: 108500561 cycles: 184100288 heartbeat IPC: 0.3025 cumulative IPC: 0.3446 (Simulation time: 00 hr 25 min 30 sec)
Heartbeat CPU 0 instructions: 109000561 cycles: 185638279 heartbeat IPC: 0.3251 cumulative IPC: 0.3444 (Simulation time: 00 hr 25 min 40 sec)
Heartbeat CPU 0 instructions: 109500562 cycles: 187833634 heartbeat IPC: 0.2278 cumulative IPC: 0.3429 (Simulation time: 00 hr 25 min 55 sec)
Heartbeat CPU 0 instructions: 110000564 cycles: 189222222 heartbeat IPC: 0.3601 cumulative IPC: 0.343 (Simulation time: 00 hr 26 min 04 sec)
Heartbeat CPU 0 instructions: 110500566 cycles: 190294133 heartbeat IPC: 0.4665 cumulative IPC: 0.3438 (Simulation time: 00 hr 26 min 11 sec)
Heartbeat CPU 0 instructions: 111000570 cycles: 192038080 heartbeat IPC: 0.2867 cumulative IPC: 0.3432 (Simulation time: 00 hr 26 min 23 sec)
Heartbeat CPU 0 instructions: 111500570 cycles: 194164501 heartbeat IPC: 0.2351 cumulative IPC: 0.342 (Simulation time: 00 hr 26 min 36 sec)
Heartbeat CPU 0 instructions: 112000570 cycles: 195748847 heartbeat IPC: 0.3156 cumulative IPC: 0.3417 (Simulation time: 00 hr 26 min 46 sec)
Heartbeat CPU 0 instructions: 112500573 cycles: 197622217 heartbeat IPC: 0.2669 cumulative IPC: 0.341 (Simulation time: 00 hr 26 min 58 sec)
Heartbeat CPU 0 instructions: 113000574 cycles: 198952746 heartbeat IPC: 0.3758 cumulative IPC: 0.3412 (Simulation time: 00 hr 27 min 07 sec)
Heartbeat CPU 0 instructions: 113500575 cycles: 200048896 heartbeat IPC: 0.4561 cumulative IPC: 0.3419 (Simulation time: 00 hr 27 min 14 sec)
Heartbeat CPU 0 instructions: 114000575 cycles: 202446388 heartbeat IPC: 0.2086 cumulative IPC: 0.3402 (Simulation time: 00 hr 27 min 29 sec)
Heartbeat CPU 0 instructions: 114500575 cycles: 204704792 heartbeat IPC: 0.2214 cumulative IPC: 0.3388 (Simulation time: 00 hr 27 min 43 sec)
Heartbeat CPU 0 instructions: 115000577 cycles: 206607660 heartbeat IPC: 0.2628 cumulative IPC: 0.338 (Simulation time: 00 hr 27 min 55 sec)
Heartbeat CPU 0 instructions: 115500584 cycles: 208158524 heartbeat IPC: 0.3224 cumulative IPC: 0.3379 (Simulation time: 00 hr 28 min 05 sec)
Heartbeat CPU 0 instructions: 116000589 cycles: 209465498 heartbeat IPC: 0.3826 cumulative IPC: 0.3382 (Simulation time: 00 hr 28 min 14 sec)
Heartbeat CPU 0 instructions: 116500589 cycles: 211233288 heartbeat IPC: 0.2828 cumulative IPC: 0.3377 (Simulation time: 00 hr 28 min 25 sec)
Heartbeat CPU 0 instructions: 117000593 cycles: 213045083 heartbeat IPC: 0.276 cumulative IPC: 0.3371 (Simulation time: 00 hr 28 min 36 sec)
Heartbeat CPU 0 instructions: 117500594 cycles: 215311159 heartbeat IPC: 0.2206 cumulative IPC: 0.3358 (Simulation time: 00 hr 28 min 50 sec)
Heartbeat CPU 0 instructions: 118000598 cycles: 217611573 heartbeat IPC: 0.2174 cumulative IPC: 0.3345 (Simulation time: 00 hr 29 min 04 sec)
Heartbeat CPU 0 instructions: 118500598 cycles: 219017344 heartbeat IPC: 0.3557 cumulative IPC: 0.3346 (Simulation time: 00 hr 29 min 13 sec)
Heartbeat CPU 0 instructions: 119000598 cycles: 220349938 heartbeat IPC: 0.3752 cumulative IPC: 0.3349 (Simulation time: 00 hr 29 min 23 sec)
Heartbeat CPU 0 instructions: 119500598 cycles: 222064664 heartbeat IPC: 0.2916 cumulative IPC: 0.3345 (Simulation time: 00 hr 29 min 34 sec)
Heartbeat CPU 0 instructions: 120000598 cycles: 223054498 heartbeat IPC: 0.5051 cumulative IPC: 0.3353 (Simulation time: 00 hr 29 min 41 sec)
Heartbeat CPU 0 instructions: 120500604 cycles: 224379181 heartbeat IPC: 0.3775 cumulative IPC: 0.3356 (Simulation time: 00 hr 29 min 49 sec)
Heartbeat CPU 0 instructions: 121000606 cycles: 225009320 heartbeat IPC: 0.7935 cumulative IPC: 0.337 (Simulation time: 00 hr 29 min 54 sec)
Heartbeat CPU 0 instructions: 121500606 cycles: 226121639 heartbeat IPC: 0.4495 cumulative IPC: 0.3376 (Simulation time: 00 hr 30 min 01 sec)
Heartbeat CPU 0 instructions: 122000607 cycles: 228088259 heartbeat IPC: 0.2542 cumulative IPC: 0.3368 (Simulation time: 00 hr 30 min 13 sec)
Heartbeat CPU 0 instructions: 122500607 cycles: 230101795 heartbeat IPC: 0.2483 cumulative IPC: 0.336 (Simulation time: 00 hr 30 min 26 sec)
Heartbeat CPU 0 instructions: 123000609 cycles: 231458999 heartbeat IPC: 0.3684 cumulative IPC: 0.3362 (Simulation time: 00 hr 30 min 35 sec)
Heartbeat CPU 0 instructions: 123500609 cycles: 232641674 heartbeat IPC: 0.4228 cumulative IPC: 0.3367 (Simulation time: 00 hr 30 min 43 sec)
Heartbeat CPU 0 instructions: 124000612 cycles: 234401210 heartbeat IPC: 0.2842 cumulative IPC: 0.3362 (Simulation time: 00 hr 30 min 54 sec)
Heartbeat CPU 0 instructions: 124500617 cycles: 235525277 heartbeat IPC: 0.4448 cumulative IPC: 0.3368 (Simulation time: 00 hr 31 min 02 sec)
Heartbeat CPU 0 instructions: 125000619 cycles: 236617190 heartbeat IPC: 0.4579 cumulative IPC: 0.3374 (Simulation time: 00 hr 31 min 10 sec)
Heartbeat CPU 0 instructions: 125500624 cycles: 238320544 heartbeat IPC: 0.2935 cumulative IPC: 0.337 (Simulation time: 00 hr 31 min 21 sec)
Heartbeat CPU 0 instructions: 126000626 cycles: 240430810 heartbeat IPC: 0.2369 cumulative IPC: 0.3361 (Simulation time: 00 hr 31 min 34 sec)
Heartbeat CPU 0 instructions: 126500628 cycles: 241207791 heartbeat IPC: 0.6435 cumulative IPC: 0.3372 (Simulation time: 00 hr 31 min 40 sec)
Heartbeat CPU 0 instructions: 127000629 cycles: 243436492 heartbeat IPC: 0.2243 cumulative IPC: 0.3361 (Simulation time: 00 hr 31 min 53 sec)
Heartbeat CPU 0 instructions: 127500631 cycles: 244609061 heartbeat IPC: 0.4264 cumulative IPC: 0.3365 (Simulation time: 00 hr 32 min 01 sec)
Heartbeat CPU 0 instructions: 128000632 cycles: 245478256 heartbeat IPC: 0.5752 cumulative IPC: 0.3374 (Simulation time: 00 hr 32 min 07 sec)
Heartbeat CPU 0 instructions: 128500632 cycles: 245826152 heartbeat IPC: 1.437 cumulative IPC: 0.3391 (Simulation time: 00 hr 32 min 10 sec)
Heartbeat CPU 0 instructions: 129000633 cycles: 246138906 heartbeat IPC: 1.599 cumulative IPC: 0.3408 (Simulation time: 00 hr 32 min 13 sec)
Heartbeat CPU 0 instructions: 129500638 cycles: 247364467 heartbeat IPC: 0.408 cumulative IPC: 0.3411 (Simulation time: 00 hr 32 min 20 sec)
Heartbeat CPU 0 instructions: 130000639 cycles: 249440899 heartbeat IPC: 0.2408 cumulative IPC: 0.3402 (Simulation time: 00 hr 32 min 32 sec)
Heartbeat CPU 0 instructions: 130500639 cycles: 251286127 heartbeat IPC: 0.271 cumulative IPC: 0.3397 (Simulation time: 00 hr 32 min 43 sec)
Heartbeat CPU 0 instructions: 131000646 cycles: 252546392 heartbeat IPC: 0.3967 cumulative IPC: 0.34 (Simulation time: 00 hr 32 min 51 sec)
Heartbeat CPU 0 instructions: 131500652 cycles: 254252531 heartbeat IPC: 0.2931 cumulative IPC: 0.3397 (Simulation time: 00 hr 33 min 02 sec)
Heartbeat CPU 0 instructions: 132000652 cycles: 256289904 heartbeat IPC: 0.2454 cumulative IPC: 0.3389 (Simulation time: 00 hr 33 min 14 sec)
Heartbeat CPU 0 instructions: 132500659 cycles: 257394313 heartbeat IPC: 0.4527 cumulative IPC: 0.3394 (Simulation time: 00 hr 33 min 22 sec)
Heartbeat CPU 0 instructions: 133000664 cycles: 258490147 heartbeat IPC: 0.4563 cumulative IPC: 0.3399 (Simulation time: 00 hr 33 min 29 sec)
Heartbeat CPU 0 instructions: 133500665 cycles: 260659169 heartbeat IPC: 0.2305 cumulative IPC: 0.339 (Simulation time: 00 hr 33 min 42 sec)
Heartbeat CPU 0 instructions: 134000665 cycles: 263534964 heartbeat IPC: 0.1739 cumulative IPC: 0.3371 (Simulation time: 00 hr 33 min 58 sec)
Heartbeat CPU 0 instructions: 134500665 cycles: 265215512 heartbeat IPC: 0.2975 cumulative IPC: 0.3368 (Simulation time: 00 hr 34 min 08 sec)
Heartbeat CPU 0 instructions: 135000665 cycles: 266868147 heartbeat IPC: 0.3025 cumulative IPC: 0.3366 (Simulation time: 00 hr 34 min 18 sec)
Heartbeat CPU 0 instructions: 135500668 cycles: 267945636 heartbeat IPC: 0.464 cumulative IPC: 0.3371 (Simulation time: 00 hr 34 min 25 sec)
Heartbeat CPU 0 instructions: 136000669 cycles: 268851700 heartbeat IPC: 0.5518 cumulative IPC: 0.3379 (Simulation time: 00 hr 34 min 32 sec)
Heartbeat CPU 0 instructions: 136500669 cycles: 269767489 heartbeat IPC: 0.546 cumulative IPC: 0.3386 (Simulation time: 00 hr 34 min 38 sec)
Heartbeat CPU 0 instructions: 137000673 cycles: 270615468 heartbeat IPC: 0.5896 cumulative IPC: 0.3394 (Simulation time: 00 hr 34 min 44 sec)
Heartbeat CPU 0 instructions: 137500673 cycles: 271504308 heartbeat IPC: 0.5625 cumulative IPC: 0.3402 (Simulation time: 00 hr 34 min 51 sec)
Heartbeat CPU 0 instructions: 138000677 cycles: 272406974 heartbeat IPC: 0.5539 cumulative IPC: 0.341 (Simulation time: 00 hr 34 min 57 sec)
Heartbeat CPU 0 instructions: 138500678 cycles: 274327490 heartbeat IPC: 0.2603 cumulative IPC: 0.3404 (Simulation time: 00 hr 35 min 08 sec)
Heartbeat CPU 0 instructions: 139000683 cycles: 275364675 heartbeat IPC: 0.4821 cumulative IPC: 0.3409 (Simulation time: 00 hr 35 min 15 sec)
Heartbeat CPU 0 instructions: 139500684 cycles: 277342224 heartbeat IPC: 0.2528 cumulative IPC: 0.3403 (Simulation time: 00 hr 35 min 26 sec)
Heartbeat CPU 0 instructions: 140000684 cycles: 279685743 heartbeat IPC: 0.2134 cumulative IPC: 0.3392 (Simulation time: 00 hr 35 min 39 sec)
Heartbeat CPU 0 instructions: 140500684 cycles: 281756085 heartbeat IPC: 0.2415 cumulative IPC: 0.3384 (Simulation time: 00 hr 35 min 50 sec)
Heartbeat CPU 0 instructions: 141000684 cycles: 283921901 heartbeat IPC: 0.2309 cumulative IPC: 0.3375 (Simulation time: 00 hr 36 min 02 sec)
Heartbeat CPU 0 instructions: 141500684 cycles: 287061795 heartbeat IPC: 0.1592 cumulative IPC: 0.3355 (Simulation time: 00 hr 36 min 19 sec)
Heartbeat CPU 0 instructions: 142000684 cycles: 288616221 heartbeat IPC: 0.3217 cumulative IPC: 0.3354 (Simulation time: 00 hr 36 min 28 sec)
Heartbeat CPU 0 instructions: 142500686 cycles: 289860192 heartbeat IPC: 0.4019 cumulative IPC: 0.3357 (Simulation time: 00 hr 36 min 36 sec)
Heartbeat CPU 0 instructions: 143000686 cycles: 290906363 heartbeat IPC: 0.4779 cumulative IPC: 0.3362 (Simulation time: 00 hr 36 min 42 sec)
Heartbeat CPU 0 instructions: 143500691 cycles: 292356533 heartbeat IPC: 0.3448 cumulative IPC: 0.3363 (Simulation time: 00 hr 36 min 51 sec)
Heartbeat CPU 0 instructions: 144000695 cycles: 293404604 heartbeat IPC: 0.4771 cumulative IPC: 0.3368 (Simulation time: 00 hr 36 min 58 sec)
Heartbeat CPU 0 instructions: 144500697 cycles: 294745752 heartbeat IPC: 0.3728 cumulative IPC: 0.337 (Simulation time: 00 hr 37 min 06 sec)
Heartbeat CPU 0 instructions: 145000700 cycles: 296297087 heartbeat IPC: 0.3223 cumulative IPC: 0.3369 (Simulation time: 00 hr 37 min 15 sec)
Heartbeat CPU 0 instructions: 145500701 cycles: 297158123 heartbeat IPC: 0.5807 cumulative IPC: 0.3376 (Simulation time: 00 hr 37 min 21 sec)
Heartbeat CPU 0 instructions: 146000701 cycles: 299119311 heartbeat IPC: 0.2549 cumulative IPC: 0.3371 (Simulation time: 00 hr 37 min 32 sec)
Heartbeat CPU 0 instructions: 146500704 cycles: 300782987 heartbeat IPC: 0.3005 cumulative IPC: 0.3369 (Simulation time: 00 hr 37 min 42 sec)
Heartbeat CPU 0 instructions: 147000704 cycles: 302661616 heartbeat IPC: 0.2662 cumulative IPC: 0.3364 (Simulation time: 00 hr 37 min 53 sec)
Heartbeat CPU 0 instructions: 147500711 cycles: 304105201 heartbeat IPC: 0.3464 cumulative IPC: 0.3365 (Simulation time: 00 hr 38 min 02 sec)
Heartbeat CPU 0 instructions: 148000711 cycles: 306108937 heartbeat IPC: 0.2495 cumulative IPC: 0.3359 (Simulation time: 00 hr 38 min 13 sec)
Heartbeat CPU 0 instructions: 148500714 cycles: 306862925 heartbeat IPC: 0.6631 cumulative IPC: 0.3367 (Simulation time: 00 hr 38 min 18 sec)
Heartbeat CPU 0 instructions: 149000721 cycles: 307355308 heartbeat IPC: 1.015 cumulative IPC: 0.3378 (Simulation time: 00 hr 38 min 21 sec)
Heartbeat CPU 0 instructions: 149500721 cycles: 307690983 heartbeat IPC: 1.49 cumulative IPC: 0.3392 (Simulation time: 00 hr 38 min 24 sec)
Heartbeat CPU 0 instructions: 150000721 cycles: 308069406 heartbeat IPC: 1.321 cumulative IPC: 0.3404 (Simulation time: 00 hr 38 min 27 sec)
Heartbeat CPU 0 instructions: 150500728 cycles: 310499030 heartbeat IPC: 0.2058 cumulative IPC: 0.3393 (Simulation time: 00 hr 38 min 40 sec)
Heartbeat CPU 0 instructions: 151000728 cycles: 311290735 heartbeat IPC: 0.6315 cumulative IPC: 0.3401 (Simulation time: 00 hr 38 min 45 sec)
Heartbeat CPU 0 instructions: 151500732 cycles: 311615181 heartbeat IPC: 1.541 cumulative IPC: 0.3414 (Simulation time: 00 hr 38 min 48 sec)
Heartbeat CPU 0 instructions: 152000735 cycles: 312042497 heartbeat IPC: 1.17 cumulative IPC: 0.3426 (Simulation time: 00 hr 38 min 51 sec)
Heartbeat CPU 0 instructions: 152500738 cycles: 312402510 heartbeat IPC: 1.389 cumulative IPC: 0.3439 (Simulation time: 00 hr 38 min 54 sec)
Heartbeat CPU 0 instructions: 153000739 cycles: 312763663 heartbeat IPC: 1.384 cumulative IPC: 0.3451 (Simulation time: 00 hr 38 min 57 sec)
Heartbeat CPU 0 instructions: 153500739 cycles: 313082444 heartbeat IPC: 1.568 cumulative IPC: 0.3464 (Simulation time: 00 hr 38 min 59 sec)
Heartbeat CPU 0 instructions: 154000743 cycles: 313412232 heartbeat IPC: 1.516 cumulative IPC: 0.3477 (Simulation time: 00 hr 39 min 02 sec)
Heartbeat CPU 0 instructions: 154500744 cycles: 313750919 heartbeat IPC: 1.476 cumulative IPC: 0.349 (Simulation time: 00 hr 39 min 05 sec)
Heartbeat CPU 0 instructions: 155000745 cycles: 314087210 heartbeat IPC: 1.487 cumulative IPC: 0.3503 (Simulation time: 00 hr 39 min 08 sec)
Heartbeat CPU 0 instructions: 155500746 cycles: 314403272 heartbeat IPC: 1.582 cumulative IPC: 0.3516 (Simulation time: 00 hr 39 min 10 sec)
Heartbeat CPU 0 instructions: 156000747 cycles: 314764002 heartbeat IPC: 1.386 cumulative IPC: 0.3528 (Simulation time: 00 hr 39 min 13 sec)
Heartbeat CPU 0 instructions: 156500748 cycles: 315460237 heartbeat IPC: 0.7181 cumulative IPC: 0.3537 (Simulation time: 00 hr 39 min 17 sec)
Heartbeat CPU 0 instructions: 157000755 cycles: 315782641 heartbeat IPC: 1.551 cumulative IPC: 0.3549 (Simulation time: 00 hr 39 min 20 sec)
Heartbeat CPU 0 instructions: 157500756 cycles: 316119153 heartbeat IPC: 1.486 cumulative IPC: 0.3562 (Simulation time: 00 hr 39 min 23 sec)
Heartbeat CPU 0 instructions: 158000758 cycles: 316438217 heartbeat IPC: 1.567 cumulative IPC: 0.3575 (Simulation time: 00 hr 39 min 25 sec)
Heartbeat CPU 0 instructions: 158500758 cycles: 316756217 heartbeat IPC: 1.572 cumulative IPC: 0.3587 (Simulation time: 00 hr 39 min 28 sec)
Heartbeat CPU 0 instructions: 159000759 cycles: 317078945 heartbeat IPC: 1.549 cumulative IPC: 0.36 (Simulation time: 00 hr 39 min 31 sec)
Heartbeat CPU 0 instructions: 159500760 cycles: 317395400 heartbeat IPC: 1.58 cumulative IPC: 0.3613 (Simulation time: 00 hr 39 min 33 sec)
Heartbeat CPU 0 instructions: 160000762 cycles: 317599872 heartbeat IPC: 2.445 cumulative IPC: 0.3627 (Simulation time: 00 hr 39 min 35 sec)
Heartbeat CPU 0 instructions: 160500763 cycles: 318843122 heartbeat IPC: 0.4022 cumulative IPC: 0.3629 (Simulation time: 00 hr 39 min 42 sec)
Heartbeat CPU 0 instructions: 161000763 cycles: 319743793 heartbeat IPC: 0.5551 cumulative IPC: 0.3634 (Simulation time: 00 hr 39 min 48 sec)
Heartbeat CPU 0 instructions: 161500765 cycles: 320509979 heartbeat IPC: 0.6526 cumulative IPC: 0.3641 (Simulation time: 00 hr 39 min 53 sec)
Heartbeat CPU 0 instructions: 162000768 cycles: 321559803 heartbeat IPC: 0.4763 cumulative IPC: 0.3645 (Simulation time: 00 hr 40 min 00 sec)
Heartbeat CPU 0 instructions: 162500768 cycles: 323047636 heartbeat IPC: 0.3361 cumulative IPC: 0.3644 (Simulation time: 00 hr 40 min 09 sec)
Heartbeat CPU 0 instructions: 163000769 cycles: 326087527 heartbeat IPC: 0.1645 cumulative IPC: 0.3624 (Simulation time: 00 hr 40 min 25 sec)
Heartbeat CPU 0 instructions: 163500770 cycles: 327629597 heartbeat IPC: 0.3242 cumulative IPC: 0.3623 (Simulation time: 00 hr 40 min 34 sec)
Heartbeat CPU 0 instructions: 164000770 cycles: 328983854 heartbeat IPC: 0.3692 cumulative IPC: 0.3623 (Simulation time: 00 hr 40 min 43 sec)
Heartbeat CPU 0 instructions: 164500771 cycles: 330049840 heartbeat IPC: 0.4691 cumulative IPC: 0.3626 (Simulation time: 00 hr 40 min 49 sec)
Heartbeat CPU 0 instructions: 165000773 cycles: 332258909 heartbeat IPC: 0.2263 cumulative IPC: 0.3617 (Simulation time: 00 hr 41 min 01 sec)
Heartbeat CPU 0 instructions: 165500775 cycles: 333280085 heartbeat IPC: 0.4896 cumulative IPC: 0.3621 (Simulation time: 00 hr 41 min 08 sec)
Heartbeat CPU 0 instructions: 166000776 cycles: 334922171 heartbeat IPC: 0.3045 cumulative IPC: 0.3618 (Simulation time: 00 hr 41 min 18 sec)
Heartbeat CPU 0 instructions: 166500778 cycles: 335832241 heartbeat IPC: 0.5494 cumulative IPC: 0.3623 (Simulation time: 00 hr 41 min 24 sec)
Heartbeat CPU 0 instructions: 167000779 cycles: 336962560 heartbeat IPC: 0.4424 cumulative IPC: 0.3626 (Simulation time: 00 hr 41 min 31 sec)
Heartbeat CPU 0 instructions: 167500780 cycles: 337856582 heartbeat IPC: 0.5593 cumulative IPC: 0.3632 (Simulation time: 00 hr 41 min 37 sec)
Heartbeat CPU 0 instructions: 168000780 cycles: 340023619 heartbeat IPC: 0.2307 cumulative IPC: 0.3623 (Simulation time: 00 hr 41 min 49 sec)
Heartbeat CPU 0 instructions: 168500781 cycles: 342480107 heartbeat IPC: 0.2035 cumulative IPC: 0.3611 (Simulation time: 00 hr 42 min 03 sec)
Heartbeat CPU 0 instructions: 169000783 cycles: 343759339 heartbeat IPC: 0.3909 cumulative IPC: 0.3612 (Simulation time: 00 hr 42 min 10 sec)
Heartbeat CPU 0 instructions: 169500784 cycles: 346015760 heartbeat IPC: 0.2216 cumulative IPC: 0.3603 (Simulation time: 00 hr 42 min 23 sec)
Heartbeat CPU 0 instructions: 170000791 cycles: 347555116 heartbeat IPC: 0.3248 cumulative IPC: 0.3601 (Simulation time: 00 hr 42 min 32 sec)
Heartbeat CPU 0 instructions: 170500792 cycles: 349578792 heartbeat IPC: 0.2471 cumulative IPC: 0.3594 (Simulation time: 00 hr 42 min 43 sec)
Heartbeat CPU 0 instructions: 171000798 cycles: 352121665 heartbeat IPC: 0.1966 cumulative IPC: 0.3582 (Simulation time: 00 hr 42 min 57 sec)
Heartbeat CPU 0 instructions: 171500803 cycles: 353733898 heartbeat IPC: 0.3101 cumulative IPC: 0.358 (Simulation time: 00 hr 43 min 07 sec)
Heartbeat CPU 0 instructions: 172000805 cycles: 355573547 heartbeat IPC: 0.2718 cumulative IPC: 0.3575 (Simulation time: 00 hr 43 min 17 sec)
Heartbeat CPU 0 instructions: 172500810 cycles: 357696555 heartbeat IPC: 0.2355 cumulative IPC: 0.3567 (Simulation time: 00 hr 43 min 28 sec)
Heartbeat CPU 0 instructions: 173000814 cycles: 358877003 heartbeat IPC: 0.4236 cumulative IPC: 0.357 (Simulation time: 00 hr 43 min 36 sec)
Heartbeat CPU 0 instructions: 173500815 cycles: 360112243 heartbeat IPC: 0.4048 cumulative IPC: 0.3571 (Simulation time: 00 hr 43 min 43 sec)
Heartbeat CPU 0 instructions: 174000819 cycles: 361565838 heartbeat IPC: 0.344 cumulative IPC: 0.3571 (Simulation time: 00 hr 43 min 51 sec)
Heartbeat CPU 0 instructions: 174500822 cycles: 363239874 heartbeat IPC: 0.2987 cumulative IPC: 0.3568 (Simulation time: 00 hr 44 min 01 sec)
Heartbeat CPU 0 instructions: 175000828 cycles: 364099042 heartbeat IPC: 0.582 cumulative IPC: 0.3574 (Simulation time: 00 hr 44 min 06 sec)
Heartbeat CPU 0 instructions: 175500828 cycles: 365774584 heartbeat IPC: 0.2984 cumulative IPC: 0.3571 (Simulation time: 00 hr 44 min 16 sec)
Heartbeat CPU 0 instructions: 176000829 cycles: 367207529 heartbeat IPC: 0.3489 cumulative IPC: 0.3571 (Simulation time: 00 hr 44 min 24 sec)
Heartbeat CPU 0 instructions: 176500829 cycles: 368383907 heartbeat IPC: 0.425 cumulative IPC: 0.3573 (Simulation time: 00 hr 44 min 31 sec)
Heartbeat CPU 0 instructions: 177000833 cycles: 369737972 heartbeat IPC: 0.3693 cumulative IPC: 0.3573 (Simulation time: 00 hr 44 min 39 sec)
Heartbeat CPU 0 instructions: 177500833 cycles: 370676101 heartbeat IPC: 0.533 cumulative IPC: 0.3578 (Simulation time: 00 hr 44 min 45 sec)
Heartbeat CPU 0 instructions: 178000837 cycles: 372037981 heartbeat IPC: 0.3671 cumulative IPC: 0.3578 (Simulation time: 00 hr 44 min 53 sec)
Heartbeat CPU 0 instructions: 178500837 cycles: 373211741 heartbeat IPC: 0.426 cumulative IPC: 0.358 (Simulation time: 00 hr 45 min 00 sec)
Heartbeat CPU 0 instructions: 179000839 cycles: 374844798 heartbeat IPC: 0.3062 cumulative IPC: 0.3578 (Simulation time: 00 hr 45 min 09 sec)
Heartbeat CPU 0 instructions: 179500844 cycles: 375709597 heartbeat IPC: 0.5782 cumulative IPC: 0.3583 (Simulation time: 00 hr 45 min 15 sec)
Heartbeat CPU 0 instructions: 180000847 cycles: 376481401 heartbeat IPC: 0.6478 cumulative IPC: 0.359 (Simulation time: 00 hr 45 min 20 sec)
Heartbeat CPU 0 instructions: 180500849 cycles: 377171435 heartbeat IPC: 0.7246 cumulative IPC: 0.3596 (Simulation time: 00 hr 45 min 25 sec)
Heartbeat CPU 0 instructions: 181000851 cycles: 379127413 heartbeat IPC: 0.2556 cumulative IPC: 0.3591 (Simulation time: 00 hr 45 min 36 sec)
Heartbeat CPU 0 instructions: 181500853 cycles: 380777275 heartbeat IPC: 0.3031 cumulative IPC: 0.3588 (Simulation time: 00 hr 45 min 45 sec)
Heartbeat CPU 0 instructions: 182000854 cycles: 382408978 heartbeat IPC: 0.3064 cumulative IPC: 0.3586 (Simulation time: 00 hr 45 min 54 sec)
Heartbeat CPU 0 instructions: 182500857 cycles: 384598865 heartbeat IPC: 0.2283 cumulative IPC: 0.3578 (Simulation time: 00 hr 46 min 06 sec)
Heartbeat CPU 0 instructions: 183000858 cycles: 385922151 heartbeat IPC: 0.3778 cumulative IPC: 0.3579 (Simulation time: 00 hr 46 min 14 sec)
Heartbeat CPU 0 instructions: 183500859 cycles: 388592994 heartbeat IPC: 0.1872 cumulative IPC: 0.3567 (Simulation time: 00 hr 46 min 28 sec)
Heartbeat CPU 0 instructions: 184000860 cycles: 390036341 heartbeat IPC: 0.3464 cumulative IPC: 0.3566 (Simulation time: 00 hr 46 min 36 sec)
Heartbeat CPU 0 instructions: 184500865 cycles: 391492054 heartbeat IPC: 0.3435 cumulative IPC: 0.3566 (Simulation time: 00 hr 46 min 45 sec)
Heartbeat CPU 0 instructions: 185000865 cycles: 392849633 heartbeat IPC: 0.3683 cumulative IPC: 0.3566 (Simulation time: 00 hr 46 min 53 sec)
Heartbeat CPU 0 instructions: 185500865 cycles: 394437023 heartbeat IPC: 0.315 cumulative IPC: 0.3565 (Simulation time: 00 hr 47 min 02 sec)
Heartbeat CPU 0 instructions: 186000870 cycles: 395434739 heartbeat IPC: 0.5011 cumulative IPC: 0.3568 (Simulation time: 00 hr 47 min 08 sec)
Heartbeat CPU 0 instructions: 186500870 cycles: 396821236 heartbeat IPC: 0.3606 cumulative IPC: 0.3569 (Simulation time: 00 hr 47 min 16 sec)
Heartbeat CPU 0 instructions: 187000872 cycles: 398080818 heartbeat IPC: 0.397 cumulative IPC: 0.357 (Simulation time: 00 hr 47 min 23 sec)
Heartbeat CPU 0 instructions: 187500875 cycles: 399346141 heartbeat IPC: 0.3952 cumulative IPC: 0.3571 (Simulation time: 00 hr 47 min 31 sec)
Heartbeat CPU 0 instructions: 188000875 cycles: 400478496 heartbeat IPC: 0.4416 cumulative IPC: 0.3574 (Simulation time: 00 hr 47 min 38 sec)
Heartbeat CPU 0 instructions: 188500877 cycles: 402713850 heartbeat IPC: 0.2237 cumulative IPC: 0.3566 (Simulation time: 00 hr 47 min 50 sec)
Heartbeat CPU 0 instructions: 189000881 cycles: 403565040 heartbeat IPC: 0.5874 cumulative IPC: 0.3571 (Simulation time: 00 hr 47 min 55 sec)
Heartbeat CPU 0 instructions: 189500885 cycles: 403976092 heartbeat IPC: 1.216 cumulative IPC: 0.358 (Simulation time: 00 hr 47 min 59 sec)
Heartbeat CPU 0 instructions: 190000891 cycles: 404835431 heartbeat IPC: 0.5818 cumulative IPC: 0.3585 (Simulation time: 00 hr 48 min 04 sec)
Heartbeat CPU 0 instructions: 190500898 cycles: 408109688 heartbeat IPC: 0.1527 cumulative IPC: 0.3568 (Simulation time: 00 hr 48 min 21 sec)
Heartbeat CPU 0 instructions: 191000902 cycles: 409447468 heartbeat IPC: 0.3738 cumulative IPC: 0.3568 (Simulation time: 00 hr 48 min 29 sec)
Heartbeat CPU 0 instructions: 191500904 cycles: 411352975 heartbeat IPC: 0.2624 cumulative IPC: 0.3564 (Simulation time: 00 hr 48 min 39 sec)
Heartbeat CPU 0 instructions: 192000904 cycles: 412812160 heartbeat IPC: 0.3427 cumulative IPC: 0.3563 (Simulation time: 00 hr 48 min 48 sec)
Heartbeat CPU 0 instructions: 192500905 cycles: 414311304 heartbeat IPC: 0.3335 cumulative IPC: 0.3563 (Simulation time: 00 hr 48 min 57 sec)
Heartbeat CPU 0 instructions: 193000907 cycles: 415810835 heartbeat IPC: 0.3334 cumulative IPC: 0.3562 (Simulation time: 00 hr 49 min 06 sec)
Heartbeat CPU 0 instructions: 193500910 cycles: 417092474 heartbeat IPC: 0.3901 cumulative IPC: 0.3563 (Simulation time: 00 hr 49 min 14 sec)
Heartbeat CPU 0 instructions: 194000913 cycles: 420114905 heartbeat IPC: 0.1654 cumulative IPC: 0.3549 (Simulation time: 00 hr 49 min 30 sec)
Heartbeat CPU 0 instructions: 194500913 cycles: 421473344 heartbeat IPC: 0.3681 cumulative IPC: 0.3549 (Simulation time: 00 hr 49 min 38 sec)
Heartbeat CPU 0 instructions: 195000914 cycles: 422815638 heartbeat IPC: 0.3725 cumulative IPC: 0.355 (Simulation time: 00 hr 49 min 45 sec)
Heartbeat CPU 0 instructions: 195500914 cycles: 423388180 heartbeat IPC: 0.8733 cumulative IPC: 0.3557 (Simulation time: 00 hr 49 min 49 sec)
Heartbeat CPU 0 instructions: 196000916 cycles: 424411347 heartbeat IPC: 0.4887 cumulative IPC: 0.356 (Simulation time: 00 hr 49 min 56 sec)
Heartbeat CPU 0 instructions: 196500919 cycles: 426420088 heartbeat IPC: 0.2489 cumulative IPC: 0.3555 (Simulation time: 00 hr 50 min 07 sec)
Heartbeat CPU 0 instructions: 197000919 cycles: 428827882 heartbeat IPC: 0.2077 cumulative IPC: 0.3546 (Simulation time: 00 hr 50 min 20 sec)
Heartbeat CPU 0 instructions: 197500925 cycles: 430174763 heartbeat IPC: 0.3712 cumulative IPC: 0.3547 (Simulation time: 00 hr 50 min 28 sec)
Heartbeat CPU 0 instructions: 198000925 cycles: 433206316 heartbeat IPC: 0.1649 cumulative IPC: 0.3533 (Simulation time: 00 hr 50 min 44 sec)
Heartbeat CPU 0 instructions: 198500925 cycles: 434215309 heartbeat IPC: 0.4955 cumulative IPC: 0.3537 (Simulation time: 00 hr 50 min 51 sec)
Heartbeat CPU 0 instructions: 199000926 cycles: 435149156 heartbeat IPC: 0.5354 cumulative IPC: 0.3541 (Simulation time: 00 hr 50 min 58 sec)
Heartbeat CPU 0 instructions: 199500930 cycles: 436067558 heartbeat IPC: 0.5444 cumulative IPC: 0.3545 (Simulation time: 00 hr 51 min 04 sec)
Heartbeat CPU 0 instructions: 200000931 cycles: 436982673 heartbeat IPC: 0.5464 cumulative IPC: 0.3549 (Simulation time: 00 hr 51 min 10 sec)
Heartbeat CPU 0 instructions: 200500933 cycles: 437888189 heartbeat IPC: 0.5522 cumulative IPC: 0.3553 (Simulation time: 00 hr 51 min 16 sec)
Heartbeat CPU 0 instructions: 201000933 cycles: 438788304 heartbeat IPC: 0.5555 cumulative IPC: 0.3557 (Simulation time: 00 hr 51 min 22 sec)
Heartbeat CPU 0 instructions: 201500936 cycles: 439647673 heartbeat IPC: 0.5818 cumulative IPC: 0.3562 (Simulation time: 00 hr 51 min 28 sec)
Heartbeat CPU 0 instructions: 202000941 cycles: 440570293 heartbeat IPC: 0.5419 cumulative IPC: 0.3566 (Simulation time: 00 hr 51 min 34 sec)
Heartbeat CPU 0 instructions: 202500942 cycles: 441489661 heartbeat IPC: 0.5439 cumulative IPC: 0.357 (Simulation time: 00 hr 51 min 40 sec)
Heartbeat CPU 0 instructions: 203000943 cycles: 442991782 heartbeat IPC: 0.3329 cumulative IPC: 0.3569 (Simulation time: 00 hr 51 min 49 sec)
Heartbeat CPU 0 instructions: 203500946 cycles: 445348004 heartbeat IPC: 0.2122 cumulative IPC: 0.3561 (Simulation time: 00 hr 52 min 01 sec)
Heartbeat CPU 0 instructions: 204000947 cycles: 447670630 heartbeat IPC: 0.2153 cumulative IPC: 0.3554 (Simulation time: 00 hr 52 min 14 sec)
Heartbeat CPU 0 instructions: 204500947 cycles: 448631563 heartbeat IPC: 0.5203 cumulative IPC: 0.3557 (Simulation time: 00 hr 52 min 20 sec)
Heartbeat CPU 0 instructions: 205000953 cycles: 450394082 heartbeat IPC: 0.2837 cumulative IPC: 0.3554 (Simulation time: 00 hr 52 min 30 sec)
Heartbeat CPU 0 instructions: 205500956 cycles: 452746426 heartbeat IPC: 0.2126 cumulative IPC: 0.3547 (Simulation time: 00 hr 52 min 43 sec)
Heartbeat CPU 0 instructions: 206000957 cycles: 455268485 heartbeat IPC: 0.1983 cumulative IPC: 0.3538 (Simulation time: 00 hr 52 min 56 sec)
Heartbeat CPU 0 instructions: 206500960 cycles: 456119304 heartbeat IPC: 0.5877 cumulative IPC: 0.3542 (Simulation time: 00 hr 53 min 02 sec)
Heartbeat CPU 0 instructions: 207000962 cycles: 457312772 heartbeat IPC: 0.4189 cumulative IPC: 0.3544 (Simulation time: 00 hr 53 min 09 sec)
Heartbeat CPU 0 instructions: 207500964 cycles: 458647519 heartbeat IPC: 0.3746 cumulative IPC: 0.3545 (Simulation time: 00 hr 53 min 17 sec)
Heartbeat CPU 0 instructions: 208000966 cycles: 460368003 heartbeat IPC: 0.2906 cumulative IPC: 0.3542 (Simulation time: 00 hr 53 min 27 sec)
Heartbeat CPU 0 instructions: 208500971 cycles: 462535815 heartbeat IPC: 0.2306 cumulative IPC: 0.3536 (Simulation time: 00 hr 53 min 40 sec)
Heartbeat CPU 0 instructions: 209000971 cycles: 465147169 heartbeat IPC: 0.1915 cumulative IPC: 0.3527 (Simulation time: 00 hr 53 min 54 sec)
Heartbeat CPU 0 instructions: 209500971 cycles: 466685263 heartbeat IPC: 0.3251 cumulative IPC: 0.3526 (Simulation time: 00 hr 54 min 03 sec)
Heartbeat CPU 0 instructions: 210000972 cycles: 467415786 heartbeat IPC: 0.6844 cumulative IPC: 0.3531 (Simulation time: 00 hr 54 min 07 sec)
Heartbeat CPU 0 instructions: 210500972 cycles: 467839625 heartbeat IPC: 1.18 cumulative IPC: 0.3539 (Simulation time: 00 hr 54 min 11 sec)
Heartbeat CPU 0 instructions: 211000974 cycles: 470206298 heartbeat IPC: 0.2113 cumulative IPC: 0.3532 (Simulation time: 00 hr 54 min 23 sec)
Heartbeat CPU 0 instructions: 211500976 cycles: 472308249 heartbeat IPC: 0.2379 cumulative IPC: 0.3526 (Simulation time: 00 hr 54 min 35 sec)
Heartbeat CPU 0 instructions: 212000981 cycles: 474380329 heartbeat IPC: 0.2413 cumulative IPC: 0.3521 (Simulation time: 00 hr 54 min 46 sec)
Heartbeat CPU 0 instructions: 212500981 cycles: 475535779 heartbeat IPC: 0.4327 cumulative IPC: 0.3523 (Simulation time: 00 hr 54 min 53 sec)
Heartbeat CPU 0 instructions: 213000981 cycles: 477621756 heartbeat IPC: 0.2397 cumulative IPC: 0.3518 (Simulation time: 00 hr 55 min 04 sec)
Heartbeat CPU 0 instructions: 213500982 cycles: 478259832 heartbeat IPC: 0.7836 cumulative IPC: 0.3524 (Simulation time: 00 hr 55 min 09 sec)
Heartbeat CPU 0 instructions: 214000982 cycles: 480663582 heartbeat IPC: 0.208 cumulative IPC: 0.3517 (Simulation time: 00 hr 55 min 22 sec)
Heartbeat CPU 0 instructions: 214500988 cycles: 481663518 heartbeat IPC: 0.5 cumulative IPC: 0.352 (Simulation time: 00 hr 55 min 28 sec)
Heartbeat CPU 0 instructions: 215000991 cycles: 484072334 heartbeat IPC: 0.2076 cumulative IPC: 0.3512 (Simulation time: 00 hr 55 min 41 sec)
Heartbeat CPU 0 instructions: 215500991 cycles: 486050776 heartbeat IPC: 0.2527 cumulative IPC: 0.3508 (Simulation time: 00 hr 55 min 52 sec)
Heartbeat CPU 0 instructions: 216000997 cycles: 487516670 heartbeat IPC: 0.3411 cumulative IPC: 0.3508 (Simulation time: 00 hr 56 min 00 sec)
Heartbeat CPU 0 instructions: 216500997 cycles: 488991616 heartbeat IPC: 0.339 cumulative IPC: 0.3508 (Simulation time: 00 hr 56 min 09 sec)
Heartbeat CPU 0 instructions: 217000998 cycles: 491574980 heartbeat IPC: 0.1935 cumulative IPC: 0.3499 (Simulation time: 00 hr 56 min 23 sec)
Heartbeat CPU 0 instructions: 217500999 cycles: 492350981 heartbeat IPC: 0.6443 cumulative IPC: 0.3504 (Simulation time: 00 hr 56 min 28 sec)
Heartbeat CPU 0 instructions: 218001005 cycles: 493470528 heartbeat IPC: 0.4466 cumulative IPC: 0.3506 (Simulation time: 00 hr 56 min 35 sec)
Heartbeat CPU 0 instructions: 218501012 cycles: 494322768 heartbeat IPC: 0.5867 cumulative IPC: 0.351 (Simulation time: 00 hr 56 min 41 sec)
Heartbeat CPU 0 instructions: 219001013 cycles: 495442862 heartbeat IPC: 0.4464 cumulative IPC: 0.3513 (Simulation time: 00 hr 56 min 47 sec)
Heartbeat CPU 0 instructions: 219501014 cycles: 496503722 heartbeat IPC: 0.4713 cumulative IPC: 0.3515 (Simulation time: 00 hr 56 min 54 sec)
Heartbeat CPU 0 instructions: 220001017 cycles: 497579232 heartbeat IPC: 0.4649 cumulative IPC: 0.3518 (Simulation time: 00 hr 57 min 01 sec)
Heartbeat CPU 0 instructions: 220501017 cycles: 499589862 heartbeat IPC: 0.2487 cumulative IPC: 0.3513 (Simulation time: 00 hr 57 min 12 sec)
Heartbeat CPU 0 instructions: 221001018 cycles: 500500340 heartbeat IPC: 0.5492 cumulative IPC: 0.3517 (Simulation time: 00 hr 57 min 17 sec)
Heartbeat CPU 0 instructions: 221501024 cycles: 501917219 heartbeat IPC: 0.3529 cumulative IPC: 0.3517 (Simulation time: 00 hr 57 min 26 sec)
Heartbeat CPU 0 instructions: 222001024 cycles: 502809689 heartbeat IPC: 0.5602 cumulative IPC: 0.3521 (Simulation time: 00 hr 57 min 32 sec)
Heartbeat CPU 0 instructions: 222501030 cycles: 503569831 heartbeat IPC: 0.6578 cumulative IPC: 0.3526 (Simulation time: 00 hr 57 min 37 sec)
Heartbeat CPU 0 instructions: 223001034 cycles: 505574540 heartbeat IPC: 0.2494 cumulative IPC: 0.3522 (Simulation time: 00 hr 57 min 48 sec)
Heartbeat CPU 0 instructions: 223501035 cycles: 506893678 heartbeat IPC: 0.379 cumulative IPC: 0.3522 (Simulation time: 00 hr 57 min 55 sec)
Heartbeat CPU 0 instructions: 224001039 cycles: 508253553 heartbeat IPC: 0.3677 cumulative IPC: 0.3523 (Simulation time: 00 hr 58 min 03 sec)
Heartbeat CPU 0 instructions: 224501040 cycles: 509453654 heartbeat IPC: 0.4166 cumulative IPC: 0.3524 (Simulation time: 00 hr 58 min 11 sec)
Heartbeat CPU 0 instructions: 225001040 cycles: 511414312 heartbeat IPC: 0.255 cumulative IPC: 0.352 (Simulation time: 00 hr 58 min 21 sec)
Heartbeat CPU 0 instructions: 225501040 cycles: 512484636 heartbeat IPC: 0.4671 cumulative IPC: 0.3523 (Simulation time: 00 hr 58 min 28 sec)
Heartbeat CPU 0 instructions: 226001043 cycles: 514151535 heartbeat IPC: 0.3 cumulative IPC: 0.3521 (Simulation time: 00 hr 58 min 37 sec)
Heartbeat CPU 0 instructions: 226501044 cycles: 515383978 heartbeat IPC: 0.4057 cumulative IPC: 0.3522 (Simulation time: 00 hr 58 min 44 sec)
Heartbeat CPU 0 instructions: 227001044 cycles: 516516140 heartbeat IPC: 0.4416 cumulative IPC: 0.3525 (Simulation time: 00 hr 58 min 51 sec)
Heartbeat CPU 0 instructions: 227501047 cycles: 518097538 heartbeat IPC: 0.3162 cumulative IPC: 0.3523 (Simulation time: 00 hr 59 min 00 sec)
Heartbeat CPU 0 instructions: 228001047 cycles: 519291816 heartbeat IPC: 0.4187 cumulative IPC: 0.3525 (Simulation time: 00 hr 59 min 07 sec)
Heartbeat CPU 0 instructions: 228501049 cycles: 521013426 heartbeat IPC: 0.2904 cumulative IPC: 0.3523 (Simulation time: 00 hr 59 min 17 sec)
Heartbeat CPU 0 instructions: 229001054 cycles: 522843899 heartbeat IPC: 0.2732 cumulative IPC: 0.352 (Simulation time: 00 hr 59 min 27 sec)
Heartbeat CPU 0 instructions: 229501055 cycles: 524868581 heartbeat IPC: 0.247 cumulative IPC: 0.3516 (Simulation time: 00 hr 59 min 38 sec)
Heartbeat CPU 0 instructions: 230001057 cycles: 525784806 heartbeat IPC: 0.5457 cumulative IPC: 0.3519 (Simulation time: 00 hr 59 min 44 sec)
Heartbeat CPU 0 instructions: 230501059 cycles: 527965869 heartbeat IPC: 0.2292 cumulative IPC: 0.3514 (Simulation time: 00 hr 59 min 56 sec)
Heartbeat CPU 0 instructions: 231001061 cycles: 529867168 heartbeat IPC: 0.263 cumulative IPC: 0.3511 (Simulation time: 01 hr 00 min 07 sec)
Heartbeat CPU 0 instructions: 231501061 cycles: 531539804 heartbeat IPC: 0.2989 cumulative IPC: 0.3509 (Simulation time: 01 hr 00 min 16 sec)
Heartbeat CPU 0 instructions: 232001061 cycles: 532848655 heartbeat IPC: 0.382 cumulative IPC: 0.351 (Simulation time: 01 hr 00 min 24 sec)
Heartbeat CPU 0 instructions: 232501062 cycles: 534228951 heartbeat IPC: 0.3622 cumulative IPC: 0.351 (Simulation time: 01 hr 00 min 32 sec)
Heartbeat CPU 0 instructions: 233001063 cycles: 535129729 heartbeat IPC: 0.5551 cumulative IPC: 0.3514 (Simulation time: 01 hr 00 min 37 sec)
Heartbeat CPU 0 instructions: 233501070 cycles: 536934373 heartbeat IPC: 0.2771 cumulative IPC: 0.3511 (Simulation time: 01 hr 00 min 48 sec)
Heartbeat CPU 0 instructions: 234001073 cycles: 538155285 heartbeat IPC: 0.4095 cumulative IPC: 0.3513 (Simulation time: 01 hr 00 min 55 sec)
Heartbeat CPU 0 instructions: 234501073 cycles: 540295531 heartbeat IPC: 0.2336 cumulative IPC: 0.3508 (Simulation time: 01 hr 01 min 07 sec)
Heartbeat CPU 0 instructions: 235001074 cycles: 541853063 heartbeat IPC: 0.321 cumulative IPC: 0.3507 (Simulation time: 01 hr 01 min 16 sec)
Heartbeat CPU 0 instructions: 235501075 cycles: 542765183 heartbeat IPC: 0.5482 cumulative IPC: 0.351 (Simulation time: 01 hr 01 min 22 sec)
Heartbeat CPU 0 instructions: 236001076 cycles: 544371133 heartbeat IPC: 0.3113 cumulative IPC: 0.3509 (Simulation time: 01 hr 01 min 31 sec)
Heartbeat CPU 0 instructions: 236501076 cycles: 546408218 heartbeat IPC: 0.2454 cumulative IPC: 0.3505 (Simulation time: 01 hr 01 min 43 sec)
Heartbeat CPU 0 instructions: 237001076 cycles: 548325210 heartbeat IPC: 0.2608 cumulative IPC: 0.3502 (Simulation time: 01 hr 01 min 53 sec)
Heartbeat CPU 0 instructions: 237501077 cycles: 549350639 heartbeat IPC: 0.4876 cumulative IPC: 0.3504 (Simulation time: 01 hr 02 min 00 sec)
Heartbeat CPU 0 instructions: 238001079 cycles: 550215689 heartbeat IPC: 0.578 cumulative IPC: 0.3508 (Simulation time: 01 hr 02 min 05 sec)
Heartbeat CPU 0 instructions: 238501082 cycles: 551827155 heartbeat IPC: 0.3103 cumulative IPC: 0.3507 (Simulation time: 01 hr 02 min 15 sec)
Heartbeat CPU 0 instructions: 239001084 cycles: 553186285 heartbeat IPC: 0.3679 cumulative IPC: 0.3507 (Simulation time: 01 hr 02 min 22 sec)
Heartbeat CPU 0 instructions: 239501084 cycles: 554415105 heartbeat IPC: 0.4069 cumulative IPC: 0.3509 (Simulation time: 01 hr 02 min 30 sec)
Heartbeat CPU 0 instructions: 240001085 cycles: 555525418 heartbeat IPC: 0.4503 cumulative IPC: 0.3511 (Simulation time: 01 hr 02 min 37 sec)
Heartbeat CPU 0 instructions: 240501087 cycles: 556451432 heartbeat IPC: 0.54 cumulative IPC: 0.3514 (Simulation time: 01 hr 02 min 42 sec)
Heartbeat CPU 0 instructions: 241001093 cycles: 557802047 heartbeat IPC: 0.3702 cumulative IPC: 0.3514 (Simulation time: 01 hr 02 min 51 sec)
Heartbeat CPU 0 instructions: 241501095 cycles: 559112791 heartbeat IPC: 0.3815 cumulative IPC: 0.3515 (Simulation time: 01 hr 02 min 58 sec)
Heartbeat CPU 0 instructions: 242001097 cycles: 560277399 heartbeat IPC: 0.4293 cumulative IPC: 0.3517 (Simulation time: 01 hr 03 min 05 sec)
Heartbeat CPU 0 instructions: 242501102 cycles: 561295709 heartbeat IPC: 0.491 cumulative IPC: 0.3519 (Simulation time: 01 hr 03 min 12 sec)
Heartbeat CPU 0 instructions: 243001102 cycles: 562565452 heartbeat IPC: 0.3938 cumulative IPC: 0.352 (Simulation time: 01 hr 03 min 19 sec)
Heartbeat CPU 0 instructions: 243501106 cycles: 565127220 heartbeat IPC: 0.1952 cumulative IPC: 0.3513 (Simulation time: 01 hr 03 min 34 sec)
Heartbeat CPU 0 instructions: 244001111 cycles: 567843740 heartbeat IPC: 0.1841 cumulative IPC: 0.3505 (Simulation time: 01 hr 03 min 49 sec)
Heartbeat CPU 0 instructions: 244501114 cycles: 569247158 heartbeat IPC: 0.3563 cumulative IPC: 0.3505 (Simulation time: 01 hr 03 min 57 sec)
Heartbeat CPU 0 instructions: 245001117 cycles: 570140585 heartbeat IPC: 0.5596 cumulative IPC: 0.3508 (Simulation time: 01 hr 04 min 02 sec)
Heartbeat CPU 0 instructions: 245501117 cycles: 571326775 heartbeat IPC: 0.4215 cumulative IPC: 0.351 (Simulation time: 01 hr 04 min 10 sec)
Heartbeat CPU 0 instructions: 246001119 cycles: 573947520 heartbeat IPC: 0.1908 cumulative IPC: 0.3502 (Simulation time: 01 hr 04 min 24 sec)
Heartbeat CPU 0 instructions: 246501126 cycles: 576033335 heartbeat IPC: 0.2397 cumulative IPC: 0.3498 (Simulation time: 01 hr 04 min 36 sec)
Heartbeat CPU 0 instructions: 247001132 cycles: 577706946 heartbeat IPC: 0.2988 cumulative IPC: 0.3497 (Simulation time: 01 hr 04 min 46 sec)
Heartbeat CPU 0 instructions: 247501135 cycles: 579440380 heartbeat IPC: 0.2884 cumulative IPC: 0.3495 (Simulation time: 01 hr 04 min 55 sec)
Heartbeat CPU 0 instructions: 248001135 cycles: 581612063 heartbeat IPC: 0.2302 cumulative IPC: 0.349 (Simulation time: 01 hr 05 min 07 sec)
Heartbeat CPU 0 instructions: 248501136 cycles: 583363556 heartbeat IPC: 0.2855 cumulative IPC: 0.3488 (Simulation time: 01 hr 05 min 18 sec)
Heartbeat CPU 0 instructions: 249001136 cycles: 584874316 heartbeat IPC: 0.331 cumulative IPC: 0.3488 (Simulation time: 01 hr 05 min 27 sec)
Heartbeat CPU 0 instructions: 249501139 cycles: 587023570 heartbeat IPC: 0.2326 cumulative IPC: 0.3483 (Simulation time: 01 hr 05 min 38 sec)
Simulation finished CPU 0 instructions: 200000003 cycles: 574589914 cumulative IPC: 0.3481 (Simulation time: 01 hr 05 min 49 sec)
Simulation complete CPU 0 instructions: 200000003 cycles: 574589914 cumulative IPC: 0.3481 (Simulation time: 01 hr 05 min 49 sec)

ChampSim completed all CPUs

=== Simulation ===
CPU 0 runs /local-ssd/ben/dpc4-traces/gtraces_v2/sierra.a.6_0003.champsim.gz

Region of Interest Statistics

CPU 0 cumulative IPC: 0.3481 instructions: 200000003 cycles: 574589914
CPU 0 Branch Prediction Accuracy: 87.34% MPKI: 25.29 Average ROB Occupancy at Mispredict: 17.85
Branch type MPKI
BRANCH_DIRECT_JUMP: 2.063
BRANCH_INDIRECT: 0.256
BRANCH_CONDITIONAL: 20.09
BRANCH_DIRECT_CALL: 1.444
BRANCH_INDIRECT_CALL: 0.3285
BRANCH_RETURN: 1.099

cpu0->cpu0_STLB TOTAL        ACCESS:    4577812 HIT:    3498433 MISS:    1079379 MSHR_MERGE:          0
cpu0->cpu0_STLB LOAD         ACCESS:    4577812 HIT:    3498433 MISS:    1079379 MSHR_MERGE:          0
cpu0->cpu0_STLB RFO          ACCESS:          0 HIT:          0 MISS:          0 MSHR_MERGE:          0
cpu0->cpu0_STLB PREFETCH     ACCESS:          0 HIT:          0 MISS:          0 MSHR_MERGE:          0
cpu0->cpu0_STLB WRITE        ACCESS:          0 HIT:          0 MISS:          0 MSHR_MERGE:          0
cpu0->cpu0_STLB TRANSLATION  ACCESS:          0 HIT:          0 MISS:          0 MSHR_MERGE:          0
cpu0->cpu0_STLB PREFETCH REQUESTED:          0 ISSUED:          0 USEFUL:          0 USELESS:          0
cpu0->cpu0_STLB AVERAGE MISS LATENCY: 126.1 cycles
cpu0->cpu0_L2C TOTAL        ACCESS:   32339209 HIT:   23196024 MISS:    9143185 MSHR_MERGE:    1472445
cpu0->cpu0_L2C LOAD         ACCESS:   10620205 HIT:    7885101 MISS:    2735104 MSHR_MERGE:      46488
cpu0->cpu0_L2C RFO          ACCESS:    1087820 HIT:     679204 MISS:     408616 MSHR_MERGE:       4144
cpu0->cpu0_L2C PREFETCH     ACCESS:   17423832 HIT:   11869897 MISS:    5553935 MSHR_MERGE:    1421813
cpu0->cpu0_L2C WRITE        ACCESS:    2113651 HIT:    2113524 MISS:        127 MSHR_MERGE:          0
cpu0->cpu0_L2C TRANSLATION  ACCESS:    1093701 HIT:     648298 MISS:     445403 MSHR_MERGE:          0
cpu0->cpu0_L2C PREFETCH REQUESTED:   14670258 ISSUED:   13323087 USEFUL:     813225 USELESS:    2084792
cpu0->cpu0_L2C AVERAGE MISS LATENCY: 202.5 cycles
cpu0->cpu0_L1I TOTAL        ACCESS:   22381263 HIT:   12759025 MISS:    9622238 MSHR_MERGE:    2390116
cpu0->cpu0_L1I LOAD         ACCESS:   22381263 HIT:   12759025 MISS:    9622238 MSHR_MERGE:    2390116
cpu0->cpu0_L1I RFO          ACCESS:          0 HIT:          0 MISS:          0 MSHR_MERGE:          0
cpu0->cpu0_L1I PREFETCH     ACCESS:          0 HIT:          0 MISS:          0 MSHR_MERGE:          0
cpu0->cpu0_L1I WRITE        ACCESS:          0 HIT:          0 MISS:          0 MSHR_MERGE:          0
cpu0->cpu0_L1I TRANSLATION  ACCESS:          0 HIT:          0 MISS:          0 MSHR_MERGE:          0
cpu0->cpu0_L1I PREFETCH REQUESTED:          0 ISSUED:          0 USEFUL:          0 USELESS:          0
cpu0->cpu0_L1I AVERAGE MISS LATENCY: 54.59 cycles
cpu0->cpu0_L1D TOTAL        ACCESS:   94812962 HIT:   80781778 MISS:   14031184 MSHR_MERGE:    4360738
cpu0->cpu0_L1D LOAD         ACCESS:   34596563 HIT:   30343138 MISS:    4253425 MSHR_MERGE:     865305
cpu0->cpu0_L1D RFO          ACCESS:          0 HIT:          0 MISS:          0 MSHR_MERGE:          0
cpu0->cpu0_L1D PREFETCH     ACCESS:   32893575 HIT:   27532028 MISS:    5361547 MSHR_MERGE:    1260798
cpu0->cpu0_L1D WRITE        ACCESS:   24608129 HIT:   21292963 MISS:    3315166 MSHR_MERGE:    2227290
cpu0->cpu0_L1D TRANSLATION  ACCESS:    2714695 HIT:    1613649 MISS:    1101046 MSHR_MERGE:       7345
cpu0->cpu0_L1D PREFETCH REQUESTED:   35044018 ISSUED:   32893568 USEFUL:     381836 USELESS:    3718718
cpu0->cpu0_L1D AVERAGE MISS LATENCY: 78.29 cycles
cpu0->cpu0_ITLB TOTAL        ACCESS:   18139077 HIT:   17122395 MISS:    1016682 MSHR_MERGE:     479192
cpu0->cpu0_ITLB LOAD         ACCESS:   18139077 HIT:   17122395 MISS:    1016682 MSHR_MERGE:     479192
cpu0->cpu0_ITLB RFO          ACCESS:          0 HIT:          0 MISS:          0 MSHR_MERGE:          0
cpu0->cpu0_ITLB PREFETCH     ACCESS:          0 HIT:          0 MISS:          0 MSHR_MERGE:          0
cpu0->cpu0_ITLB WRITE        ACCESS:          0 HIT:          0 MISS:          0 MSHR_MERGE:          0
cpu0->cpu0_ITLB TRANSLATION  ACCESS:          0 HIT:          0 MISS:          0 MSHR_MERGE:          0
cpu0->cpu0_ITLB PREFETCH REQUESTED:          0 ISSUED:          0 USEFUL:          0 USELESS:          0
cpu0->cpu0_ITLB AVERAGE MISS LATENCY: 24.72 cycles
cpu0->cpu0_DTLB TOTAL        ACCESS:   85193429 HIT:   79164262 MISS:    6029167 MSHR_MERGE:    1988845
cpu0->cpu0_DTLB LOAD         ACCESS:   85193429 HIT:   79164262 MISS:    6029167 MSHR_MERGE:    1988845
cpu0->cpu0_DTLB RFO          ACCESS:          0 HIT:          0 MISS:          0 MSHR_MERGE:          0
cpu0->cpu0_DTLB PREFETCH     ACCESS:          0 HIT:          0 MISS:          0 MSHR_MERGE:          0
cpu0->cpu0_DTLB WRITE        ACCESS:          0 HIT:          0 MISS:          0 MSHR_MERGE:          0
cpu0->cpu0_DTLB TRANSLATION  ACCESS:          0 HIT:          0 MISS:          0 MSHR_MERGE:          0
cpu0->cpu0_DTLB PREFETCH REQUESTED:          0 ISSUED:          0 USEFUL:          0 USELESS:          0
cpu0->cpu0_DTLB AVERAGE MISS LATENCY: 36.34 cycles
cpu0->LLC TOTAL        ACCESS:   11409081 HIT:    2323512 MISS:    9085569 MSHR_MERGE:    1107414
cpu0->LLC LOAD         ACCESS:    2688618 HIT:     596840 MISS:    2091778 MSHR_MERGE:       9122
cpu0->LLC RFO          ACCESS:     404472 HIT:      34223 MISS:     370249 MSHR_MERGE:        355
cpu0->LLC PREFETCH     ACCESS:    6912650 HIT:     997497 MISS:    5915153 MSHR_MERGE:    1097937
cpu0->LLC WRITE        ACCESS:     957938 HIT:     622005 MISS:     335933 MSHR_MERGE:          0
cpu0->LLC TRANSLATION  ACCESS:     445403 HIT:      72947 MISS:     372456 MSHR_MERGE:          0
cpu0->LLC PREFETCH REQUESTED:    2783644 ISSUED:    2780528 USEFUL:     367389 USELESS:    1327031
cpu0->LLC AVERAGE MISS LATENCY: 203.7 cycles

DRAM Statistics

Channel 0 RQ ROW_BUFFER_HIT:     383874
  ROW_BUFFER_MISS:    7258172
  AVG DBUS CONGESTED CYCLE: 17.32
Channel 0 WQ ROW_BUFFER_HIT:     242901
  ROW_BUFFER_MISS:     649691
  FULL:          0
Channel 0 REFRESHES ISSUED:      47880
